data_PCOD9307009
_publ_section_title
;
Structure prediction by ZEFSAII (Michael W. Deem and Ramdas Pophale) SiO2 
 PCOD9307009
Probable space group: C 2/C
;
_chemical_formula_sum "Si O2"
_cell_formula_units_Z 24
_cell_length_a 16.734452
_cell_length_b 7.610315
_cell_length_c 8.458774
_cell_angle_alpha 90.000000
_cell_angle_beta 61.732378
_cell_angle_gamma 90.000000
_cell_volume 948.793709
_symmetry_space_group_name_H-M "C 2/C"
_symmetry_group_IT_number 15
_symmetry_cell_setting 'monoclinic'
loop_
_space_group_symop_operation_xyz
x,y,z
-x,y,1/2-z
-x,-y,-z
x,-y,1/2+z
1/2+x,1/2+y,z
1/2-x,1/2+y,1/2-z
1/2-x,1/2-y,-z
1/2+x,1/2-y,1/2+z
loop_
_atom_site_type_symbol
_atom_site_label
_atom_site_fract_x
_atom_site_fract_y
_atom_site_fract_z
Si Si1 0.049045 0.678469 0.346366
Si Si2 0.296391 0.268538 0.126765
Si Si3 0.372254 0.345417 0.526929
O O1 0.127301 0.624750 0.393561
O O2 0.000000 0.566702 0.250000
O O3 0.965639 0.771444 0.514358
O O4 0.103880 0.810304 0.178372
O O5 0.348764 0.452829 0.073158
O O6 0.214930 0.256088 0.327888
O O7 0.250000 0.250000 0.000000
#
# Coordination Sequence:
#
# PCOD9307009 Si02
#       3
#     8   8   8
#     4   8  21  40  61  81 125 164 201 229 302 366
#     4  12  21  36  64  97 117 155 206 255 292 355
#     4   9  22  39  64  86 125 156 203 243 305 353
#
# _framework density 25.295276000000001
#
# number of rings (size 3 to 8) (size 9 to 14) (size 15 to 20)
#    2.000    0.000    0.000    4.000    0.000    1.333 
#    0.000    1.667    0.000    8.000    0.000    0.000 
#    0.000    0.000    0.000    0.000    0.000    0.000 
#
# Total GULP energy -66824.637705 kJ/mol
# GULP energy per Si atom -5568.719809 kJ/mol
# Density = 2.523770 g / cm^3
# Si number density = 25.295276 Si / 1000 Ang^3
#
#
#
# Elastic Constant Matrix: (Units=GPa)
#
#
# Indices 1 2 3 4 5 6 
#
# 1 241.7962 20.6303 50.1445 0.0000 -19.7269 0.0000
# 2 20.6303 59.9967 35.6840 0.0000 -7.2400 0.0000
# 3 50.1445 35.6840 131.3285 0.0000 -44.3221 0.0000
# 4 0.0000 0.0000 0.0000 42.5065 0.0000 -10.6383
# 5 -19.7269 -7.2400 -44.3221 0.0000 53.0806 0.0000
# 6 0.0000 0.0000 0.0000 -10.6383 0.0000 2.6666
#
#
#
# Elastic Compliance Matrix: (Units=1/GPa)
#
#
# Indices 1 2 3 4 5 6 
#
# 1 0.004518 -0.000669 -0.001403 0.000000 0.000417 0.000000
# 2 -0.000669 0.020222 -0.006116 0.000000 -0.002597 0.000000
# 3 -0.001403 -0.006116 0.013025 0.000000 0.009520 0.000000
# 4 0.000000 0.000000 0.000000 15.202314 0.000000 60.648432
# 5 0.000417 -0.002597 0.009520 0.000000 0.026589 0.000000
# 6 0.000000 0.000000 0.000000 60.648432 0.000000242.327135
#
#
# Mechanical properties :
#
#
# Convention : Reuss Voigt Hill
#
# Bulk Modulus (GPa) = 46.75142 71.78212 59.26677
# Shear Modulus (GPa) = 0.01941 41.42824 20.72383
#
# Velocity S-wave (km/s) = 0.08769 4.05135 2.86541
# Velocity P-wave (km/s) = 4.30496 7.09393 5.86756
#
# Compressibility (1/GPa) = 0.02138972
#
# Stress axis : x y z
#
# Youngs Moduli (GPa) = 221.35398 49.45221 76.77709
#
# Poissons Ratio (x) = 0.03308 0.10769
# Poissons Ratio (y) = 0.14807 0.46953
# Poissons Ratio (z) = 0.31048 0.30243
#
# Static dielectric constant tensor:
#      x y z
#    x 2.204540 0.000000 0.064890 
#    y 0.000000 2.041090 0.000000 
#    z 0.064890 0.000000 1.919800 
# 
# From -- ./inp_files/36087.got.cif
#   From: 2010.05.17/outbox.cif.g08.bks.cpg/sg15_19_cif.got.tgz:36087.got - 2010.06.03 18:47:42.
