data_PCOD9307643
_publ_section_title
;
Structure prediction by ZEFSAII (Michael W. Deem and Ramdas Pophale) SiO2 
 PCOD9307643
Probable space group: C 2/C
;
_chemical_formula_sum "Si O2"
_cell_formula_units_Z 36
_cell_length_a 25.760615
_cell_length_b 6.190233
_cell_length_c 9.648305
_cell_angle_alpha 90.000000
_cell_angle_beta 62.868714
_cell_angle_gamma 90.000000
_cell_volume 1369.262296
_symmetry_space_group_name_H-M "C 2/C"
_symmetry_group_IT_number 15
_symmetry_cell_setting 'monoclinic'
loop_
_space_group_symop_operation_xyz
x,y,z
-x,y,1/2-z
-x,-y,-z
x,-y,1/2+z
1/2+x,1/2+y,z
1/2-x,1/2+y,1/2-z
1/2-x,1/2-y,-z
1/2+x,1/2-y,1/2+z
loop_
_atom_site_type_symbol
_atom_site_label
_atom_site_fract_x
_atom_site_fract_y
_atom_site_fract_z
Si Si1 0.500000 0.294897 0.250000
Si Si2 0.155495 0.879221 0.737334
Si Si3 0.695174 0.689141 0.473511
Si Si4 0.443483 0.618899 0.494045
Si Si5 0.909619 0.486178 0.325919
O O1 0.448399 0.449428 0.360747
O O2 0.462279 0.132443 0.200515
O O3 0.114723 0.674559 0.759372
O O4 0.178351 0.959673 0.562661
O O5 0.202611 0.830961 0.799287
O O6 0.114474 0.065046 0.851418
O O7 0.750000 0.750000 0.500000
O O8 0.644270 0.866966 0.558454
O O9 0.500000 0.500000 0.500000
O O10 0.436451 0.844405 0.420505
#
# Coordination Sequence:
#
# PCOD9307643 Si02
#       5
#     4   8   8   8   8
#     4  12  24  44  72 120 152 208 258 322 400 474
#     4  12  27  52  75 117 159 198 274 327 393 485
#     4  12  31  51  83 115 156 212 272 341 401 474
#     4  12  25  44  75 114 161 202 263 324 388 486
#     4  12  26  47  78 115 155 216 256 330 410 475
#
# _framework density 26.291530999999999
#
# number of rings (size 3 to 8) (size 9 to 14) (size 15 to 20)
#    0.000    0.000    4.444    4.667    9.333    2.667 
#    0.000    0.000    0.000    0.000    0.000    0.000 
#    0.000    0.000    0.000    0.000    0.000    0.000 
#
# Total GULP energy -100550.919116 kJ/mol
# GULP energy per Si atom -5586.162173 kJ/mol
# Density = 2.623169 g / cm^3
# Si number density = 26.291531 Si / 1000 Ang^3
#
#
#
# Elastic Constant Matrix: (Units=GPa)
#
#
# Indices 1 2 3 4 5 6 
#
# 1 127.2145 37.0702 1.0662 0.0000 38.7936 0.0000
# 2 37.0702 95.0891 0.9163 0.0000 4.2522 0.0000
# 3 1.0662 0.9163 68.3389 0.0000 33.4321 0.0000
# 4 0.0000 0.0000 0.0000 6.7894 0.0000 1.0998
# 5 38.7936 4.2522 33.4321 0.0000 41.2815 0.0000
# 6 0.0000 0.0000 0.0000 1.0998 0.0000 41.4395
#
#
#
# Elastic Compliance Matrix: (Units=1/GPa)
#
#
# Indices 1 2 3 4 5 6 
#
# 1 0.017205 -0.005683 0.012307 0.000000 -0.025549 0.000000
# 2 -0.005683 0.012460 -0.003417 0.000000 0.006825 0.000000
# 3 0.012307 -0.003417 0.033077 0.000000 -0.038001 0.000000
# 4 0.000000 0.000000 0.000000 0.147925 0.000000 -0.003926
# 5 -0.025549 0.006825 -0.038001 0.000000 0.078305 0.000000
# 6 0.000000 0.000000 0.000000 -0.003926 0.000000 0.024236
#
#
# Mechanical properties :
#
#
# Convention : Reuss Voigt Hill
#
# Bulk Modulus (GPa) = 14.46045 40.97199 27.71622
# Shear Modulus (GPa) = 15.15854 34.67473 24.91663
#
# Velocity S-wave (km/s) = 2.40376 3.63554 3.08182
# Velocity P-wave (km/s) = 3.63539 5.76545 4.81957
#
# Compressibility (1/GPa) = 0.06915415
#
# Stress axis : x y z
#
# Youngs Moduli (GPa) = 58.12321 80.25796 30.23243
#
# Poissons Ratio (x) = 0.45613 -0.37206
# Poissons Ratio (y) = 0.33033 0.10331
# Poissons Ratio (z) = -0.71530 0.27425
#
# Static dielectric constant tensor:
#      x y z
#    x 2.198770 0.000000 0.194690 
#    y 0.000000 2.066430 0.000000 
#    z 0.194690 0.000000 2.477560 
# 
# From -- ./inp_files/115660.got.cif
#   From: 2010.05.17/outbox.cif.g08.bks.cpg/sg15_58_cif.got.tgz:115660.got - 2010.06.03 18:47:42.
