data_PCOD9307094
_publ_section_title
;
Structure prediction by ZEFSAII (Michael W. Deem and Ramdas Pophale) SiO2 
 PCOD9307094
Probable space group: C 2/C
;
_chemical_formula_sum "Si O2"
_cell_formula_units_Z 44
_cell_length_a 7.855865
_cell_length_b 28.532733
_cell_length_c 8.662013
_cell_angle_alpha 90.000000
_cell_angle_beta 60.424845
_cell_angle_gamma 90.000000
_cell_volume 1688.613266
_symmetry_space_group_name_H-M "C 2/C"
_symmetry_group_IT_number 15
_symmetry_cell_setting 'monoclinic'
loop_
_space_group_symop_operation_xyz
x,y,z
-x,y,1/2-z
-x,-y,-z
x,-y,1/2+z
1/2+x,1/2+y,z
1/2-x,1/2+y,1/2-z
1/2-x,1/2-y,-z
1/2+x,1/2-y,1/2+z
loop_
_atom_site_type_symbol
_atom_site_label
_atom_site_fract_x
_atom_site_fract_y
_atom_site_fract_z
Si Si1 0.850543 0.916418 0.968235
Si Si2 0.272954 0.705021 0.879697
Si Si3 0.301805 0.275261 0.822977
Si Si4 0.340280 0.016110 0.451499
Si Si5 0.000000 0.082388 0.750000
Si Si6 0.965350 0.638151 0.094248
O O1 0.661189 0.889436 0.976918
O O2 0.000000 0.916695 0.750000
O O3 0.927191 0.898249 0.104797
O O4 0.787390 0.969995 0.032107
O O5 0.500000 0.699231 0.750000
O O6 0.162912 0.728945 0.790047
O O7 0.250000 0.750000 0.000000
O O8 0.179594 0.655108 0.949814
O O9 0.500000 0.304229 0.750000
O O10 0.143993 0.311533 0.833647
O O11 0.250000 0.250000 0.000000
O O12 0.500000 0.029854 0.250000
O O13 0.187527 0.052259 0.599534
O O14 0.500000 0.000000 0.500000
O O15 0.000000 0.619192 0.250000
#
# Coordination Sequence:
#
# PCOD9307094 Si02
#       6
#     8   8   8   8   4   8
#     4  12  28  54  84 126 176 225 280 353 438 512
#     4  12  21  45  81 106 146 211 284 340 413 501
#     4  12  22  40  71 108 144 201 274 335 401 496
#     4  12  24  49  92 129 167 222 290 345 416 520
#     4  12  26  56  96 128 172 232 294 344 422 528
#     4  12  27  50  77 116 169 215 272 354 434 491
#
# _framework density 26.056885999999999
#
# number of rings (size 3 to 8) (size 9 to 14) (size 15 to 20)
#    0.000    0.000    8.182    2.182    0.000    2.182 
#    3.273    0.000    4.000    0.000    0.000    0.000 
#    0.000    0.000    0.000    0.000    0.000    0.000 
#
# Total GULP energy -122545.791777 kJ/mol
# GULP energy per Si atom -5570.263263 kJ/mol
# Density = 2.599758 g / cm^3
# Si number density = 26.056886 Si / 1000 Ang^3
#
#
#
# Elastic Constant Matrix: (Units=GPa)
#
#
# Indices 1 2 3 4 5 6 
#
# 1 192.2992 50.0962 87.9640 0.0000 2.5354 0.0000
# 2 50.0962 138.4691 58.1457 0.0000 3.3847 0.0000
# 3 87.9640 58.1457 205.1727 0.0000 9.2075 0.0000
# 4 0.0000 0.0000 0.0000 13.8528 0.0000 13.0623
# 5 2.5354 3.3847 9.2075 0.0000 74.1440 0.0000
# 6 0.0000 0.0000 0.0000 13.0623 0.0000 34.4560
#
#
#
# Elastic Compliance Matrix: (Units=1/GPa)
#
#
# Indices 1 2 3 4 5 6 
#
# 1 0.006695 -0.001382 -0.002485 0.000000 0.000143 0.000000
# 2 -0.001382 0.008483 -0.001806 0.000000 -0.000116 0.000000
# 3 -0.002485 -0.001806 0.006480 0.000000 -0.000637 0.000000
# 4 0.000000 0.000000 0.000000 0.112348 0.000000 -0.042591
# 5 0.000143 -0.000116 -0.000637 0.000000 0.013567 0.000000
# 6 0.000000 0.000000 0.000000 -0.042591 0.000000 0.045169
#
#
# Mechanical properties :
#
#
# Convention : Reuss Voigt Hill
#
# Bulk Modulus (GPa) = 96.98383 103.15031 100.06707
# Shear Modulus (GPa) = 24.09337 47.13958 35.61648
#
# Velocity S-wave (km/s) = 3.04410 4.25797 3.70114
# Velocity P-wave (km/s) = 7.04672 7.99039 7.53334
#
# Compressibility (1/GPa) = 0.01031100
#
# Stress axis : x y z
#
# Youngs Moduli (GPa) = 149.36063 117.87967 154.32282
#
# Poissons Ratio (x) = 0.16293 0.38351
# Poissons Ratio (y) = 0.20644 0.27876
# Poissons Ratio (z) = 0.37118 0.21293
#
# Static dielectric constant tensor:
#      x y z
#    x 2.046670 0.000000 0.168710 
#    y 0.000000 2.094820 0.000000 
#    z 0.168710 0.000000 2.162300 
# 
# From -- ./inp_files/25974.got.cif
#   From: 2010.05.17/outbox.cif.g08.bks.cpg/sg15_13_cif.got.tgz:25974.got - 2010.06.03 18:47:42.
