data_PCOD9307576
_publ_section_title
;
Structure prediction by ZEFSAII (Michael W. Deem and Ramdas Pophale) SiO2 
 PCOD9307576
Probable space group: C 2/C
;
_chemical_formula_sum "Si O2"
_cell_formula_units_Z 40
_cell_length_a 36.107260
_cell_length_b 4.541999
_cell_length_c 8.795468
_cell_angle_alpha 90.000000
_cell_angle_beta 92.028032
_cell_angle_gamma 90.000000
_cell_volume 1441.545675
_symmetry_space_group_name_H-M "C 2/C"
_symmetry_group_IT_number 15
_symmetry_cell_setting 'monoclinic'
loop_
_space_group_symop_operation_xyz
x,y,z
-x,y,1/2-z
-x,-y,-z
x,-y,1/2+z
1/2+x,1/2+y,z
1/2-x,1/2+y,1/2-z
1/2-x,1/2-y,-z
1/2+x,1/2-y,1/2+z
loop_
_atom_site_type_symbol
_atom_site_label
_atom_site_fract_x
_atom_site_fract_y
_atom_site_fract_z
Si Si1 0.420513 0.288914 0.376021
Si Si2 0.324511 0.570937 0.013561
Si Si3 0.974535 0.678813 0.876489
Si Si4 0.874120 0.578243 0.099144
Si Si5 0.724063 0.228767 0.266223
O O1 0.341995 0.166490 0.617535
O O2 0.443658 0.580396 0.421353
O O3 0.387762 0.258210 0.247848
O O4 0.405431 0.116385 0.521134
O O5 0.306910 0.721295 0.864997
O O6 0.357308 0.333968 0.989191
O O7 0.292689 0.373511 0.085941
O O8 0.950892 0.418179 0.800941
O O9 0.000000 0.818210 0.750000
O O10 0.000000 0.500000 0.000000
O O11 0.761229 0.400935 0.220513
#
# Coordination Sequence:
#
# PCOD9307576 Si02
#       5
#     8   8   8   8   8
#     4  12  26  47  72 107 144 188 240 297 361 434
#     4  12  24  43  67  99 138 186 238 297 363 431
#     4  12  27  49  75 107 145 188 238 297 360 431
#     4  12  25  45  71 103 143 188 239 299 363 434
#     4  12  24  42  66  98 137 184 238 298 359 428
#
# _framework density 27.747996000000001
#
# number of rings (size 3 to 8) (size 9 to 14) (size 15 to 20)
#    0.000    0.000    0.000   10.800    0.000    3.200 
#    0.000    0.000    0.000    0.000    0.000    0.000 
#    0.000    0.000    0.000    0.000    0.000    0.000 
#
# Total GULP energy -112086.423217 kJ/mol
# GULP energy per Si atom -5604.321161 kJ/mol
# Density = 2.768484 g / cm^3
# Si number density = 27.747996 Si / 1000 Ang^3
#
#
#
# Elastic Constant Matrix: (Units=GPa)
#
#
# Indices 1 2 3 4 5 6 
#
# 1 144.4485 52.5596 35.8890 0.0000 5.0091 0.0000
# 2 52.5596 164.4394 15.8135 0.0000 5.4879 0.0000
# 3 35.8890 15.8135 100.5798 0.0000 27.5753 0.0000
# 4 0.0000 0.0000 0.0000 30.7566 0.0000 -1.2566
# 5 5.0091 5.4879 27.5753 0.0000 50.5170 0.0000
# 6 0.0000 0.0000 0.0000 -1.2566 0.0000 86.2758
#
#
#
# Elastic Compliance Matrix: (Units=1/GPa)
#
#
# Indices 1 2 3 4 5 6 
#
# 1 0.008516 -0.002474 -0.002930 0.000000 0.001024 0.000000
# 2 -0.002474 0.006895 -0.000074 0.000000 -0.000463 0.000000
# 3 -0.002930 -0.000074 0.012839 0.000000 -0.006710 0.000000
# 4 0.000000 0.000000 0.000000 0.032533 0.000000 0.000474
# 5 0.001024 -0.000463 -0.006710 0.000000 0.023407 0.000000
# 6 0.000000 0.000000 0.000000 0.000474 0.000000 0.011598
#
#
# Mechanical properties :
#
#
# Convention : Reuss Voigt Hill
#
# Bulk Modulus (GPa) = 57.82954 68.66576 63.24765
# Shear Modulus (GPa) = 44.44122 53.85692 49.14907
#
# Velocity S-wave (km/s) = 4.00634 4.41038 4.21321
# Velocity P-wave (km/s) = 6.50287 7.12286 6.81991
#
# Compressibility (1/GPa) = 0.01729220
#
# Stress axis : x y z
#
# Youngs Moduli (GPa) = 117.42996 145.03897 77.88645
#
# Poissons Ratio (x) = 0.35886 0.22823
# Poissons Ratio (y) = 0.29055 0.00578
# Poissons Ratio (z) = 0.34411 0.01076
#
# Static dielectric constant tensor:
#      x y z
#    x 2.252670 0.000000 -0.002140 
#    y 0.000000 2.114480 0.000000 
#    z -0.002140 0.000000 2.128180 
# 
# From -- ./inp_files/124815.got.cif
#   From: 2010.05.17/outbox.cif.g08.bks.cpg/sg15_63_cif.got.tgz:124815.got - 2010.06.03 18:47:42.
