data_PCOD9307138
_publ_section_title
;
Structure prediction by ZEFSAII (Michael W. Deem and Ramdas Pophale) SiO2 
 PCOD9307138
Probable space group: C 2/C
;
_chemical_formula_sum "Si O2"
_cell_formula_units_Z 48
_cell_length_a 19.963400
_cell_length_b 12.279131
_cell_length_c 8.930648
_cell_angle_alpha 90.000000
_cell_angle_beta 82.553336
_cell_angle_gamma 90.000000
_cell_volume 2170.734520
_symmetry_space_group_name_H-M "C 2/C"
_symmetry_group_IT_number 15
_symmetry_cell_setting 'monoclinic'
loop_
_space_group_symop_operation_xyz
x,y,z
-x,y,1/2-z
-x,-y,-z
x,-y,1/2+z
1/2+x,1/2+y,z
1/2-x,1/2+y,1/2-z
1/2-x,1/2-y,-z
1/2+x,1/2-y,1/2+z
loop_
_atom_site_type_symbol
_atom_site_label
_atom_site_fract_x
_atom_site_fract_y
_atom_site_fract_z
Si Si1 0.670229 0.771046 0.504400
Si Si2 0.629029 0.223057 0.346461
Si Si3 0.469105 0.330682 0.905260
Si Si4 0.286815 0.413678 0.081492
Si Si5 0.107476 0.913422 0.833071
Si Si6 0.805531 0.505419 0.635244
O O1 0.750000 0.750000 0.500000
O O2 0.633051 0.744383 0.670888
O O3 0.646396 0.692987 0.379200
O O4 0.661659 0.897379 0.468324
O O5 0.562491 0.260231 0.454634
O O6 0.689352 0.290048 0.410084
O O7 0.645554 0.095808 0.352232
O O8 0.500000 0.266063 0.750000
O O9 0.533584 0.402527 0.930841
O O10 0.411827 0.401654 0.836286
O O11 0.348809 0.484412 0.130815
O O12 0.223132 0.438897 0.207262
O O13 0.260310 0.457610 0.931425
#
# Coordination Sequence:
#
# PCOD9307138 Si02
#       6
#     8   8   8   8   8   8
#     4  12  22  41  64  97 138 163 215 274 325 391
#     4  12  24  40  65  94 127 179 214 255 338 387
#     4   8  23  44  66  91 132 174 217 267 312 386
#     4  12  22  38  67  95 135 165 211 268 330 392
#     4   9  21  43  65  97 133 167 215 271 318 372
#     4  12  25  38  60 102 132 167 211 268 331 390
#
# _framework density 22.11233
#
# number of rings (size 3 to 8) (size 9 to 14) (size 15 to 20)
#    1.000    0.000    5.000    1.500    2.333    1.333 
#    0.000    0.833    0.000    0.000    0.000    0.000 
#    0.000    0.000    0.000    0.000    0.000    0.000 
#
# Total GULP energy -134042.996849 kJ/mol
# GULP energy per Si atom -5585.124869 kJ/mol
# Density = 2.206200 g / cm^3
# Si number density = 22.112330 Si / 1000 Ang^3
#
#
#
# Elastic Constant Matrix: (Units=GPa)
#
#
# Indices 1 2 3 4 5 6 
#
# 1 66.2494 -1.0928 14.5609 0.0000 -4.1409 0.0000
# 2 -1.0928 80.6796 3.6001 0.0000 -9.5192 0.0000
# 3 14.5609 3.6001 83.7989 0.0000 -34.0375 0.0000
# 4 0.0000 0.0000 0.0000 29.6012 0.0000 -6.1492
# 5 -4.1409 -9.5192 -34.0375 0.0000 46.5975 0.0000
# 6 0.0000 0.0000 0.0000 -6.1492 0.0000 21.8852
#
#
#
# Elastic Compliance Matrix: (Units=1/GPa)
#
#
# Indices 1 2 3 4 5 6 
#
# 1 0.015723 0.000257 -0.003063 0.000000 -0.000788 0.000000
# 2 0.000257 0.012736 0.000674 0.000000 0.003117 0.000000
# 3 -0.003063 0.000674 0.017605 0.000000 0.012726 0.000000
# 4 0.000000 0.000000 0.000000 0.035877 0.000000 0.010080
# 5 -0.000788 0.003117 0.012726 0.000000 0.031323 0.000000
# 6 0.000000 0.000000 0.000000 0.010080 0.000000 0.048525
#
#
# Mechanical properties :
#
#
# Convention : Reuss Voigt Hill
#
# Bulk Modulus (GPa) = 23.92327 29.42936 26.67631
# Shear Modulus (GPa) = 27.77997 33.86077 30.82037
#
# Velocity S-wave (km/s) = 3.54829 3.91744 3.73743
# Velocity P-wave (km/s) = 5.25639 5.81375 5.54208
#
# Compressibility (1/GPa) = 0.04180030
#
# Stress axis : x y z
#
# Youngs Moduli (GPa) = 63.60239 78.51833 56.80048
#
# Poissons Ratio (x) = -0.02016 0.17398
# Poissons Ratio (y) = -0.01633 -0.03831
# Poissons Ratio (z) = 0.19481 -0.05295
#
# Static dielectric constant tensor:
#      x y z
#    x 1.831180 0.000000 -0.030980 
#    y 0.000000 1.780770 0.000000 
#    z -0.030980 0.000000 1.878510 
# 
# From -- ./inp_files/60546.got.cif
#   From: 2010.05.17/outbox.cif.g08.bks.cpg/sg15_31_cif.got.tgz:60546.got - 2010.06.03 18:47:42.
