data_PCOD9307078
_publ_section_title
;
Structure prediction by ZEFSAII (Michael W. Deem and Ramdas Pophale) SiO2 
 PCOD9307078
Probable space group: C 2/C
;
_chemical_formula_sum "Si O2"
_cell_formula_units_Z 48
_cell_length_a 14.832929
_cell_length_b 16.149395
_cell_length_c 8.985407
_cell_angle_alpha 90.000000
_cell_angle_beta 90.174765
_cell_angle_gamma 90.000000
_cell_volume 2152.379804
_symmetry_space_group_name_H-M "C 2/C"
_symmetry_group_IT_number 15
_symmetry_cell_setting 'monoclinic'
loop_
_space_group_symop_operation_xyz
x,y,z
-x,y,1/2-z
-x,-y,-z
x,-y,1/2+z
1/2+x,1/2+y,z
1/2-x,1/2+y,1/2-z
1/2-x,1/2-y,-z
1/2+x,1/2-y,1/2+z
loop_
_atom_site_type_symbol
_atom_site_label
_atom_site_fract_x
_atom_site_fract_y
_atom_site_fract_z
Si Si1 0.129891 0.426517 0.813348
Si Si2 0.185688 0.999465 0.545212
Si Si3 0.601060 0.606640 0.791015
Si Si4 0.248977 0.669792 0.108928
Si Si5 0.576643 0.089871 0.639523
Si Si6 0.766135 0.282241 0.336319
O O1 0.223395 0.457814 0.890195
O O2 0.157153 0.353773 0.699131
O O3 0.095115 0.499522 0.707649
O O4 0.066914 0.410145 0.958746
O O5 0.125854 0.034077 0.677046
O O6 0.217161 0.083620 0.459071
O O7 0.127654 0.935398 0.448086
O O8 0.500000 0.632688 0.750000
O O9 0.672217 0.681112 0.775157
O O10 0.307669 0.706878 0.243308
O O11 0.250000 0.750000 0.000000
O O12 0.500000 0.124406 0.750000
O O13 0.665755 0.142472 0.667533
O O14 0.750000 0.250000 0.500000
#
# Coordination Sequence:
#
# PCOD9307078 Si02
#       6
#     8   8   8   8   8   8
#     4  12  21  44  72  99 139 186 239 300 356 421
#     4  12  21  44  71  95 137 186 231 294 353 420
#     4  12  25  44  70 103 134 180 243 290 349 430
#     4  12  22  39  71  99 134 187 228 284 365 426
#     4  12  25  44  70 103 136 187 247 296 352 430
#     4  12  24  45  70  96 148 186 225 297 370 425
#
# _framework density 22.300896999999999
#
# number of rings (size 3 to 8) (size 9 to 14) (size 15 to 20)
#    0.000    0.000   10.000    1.000    0.000    0.000 
#    3.000    0.833    0.000    0.000    0.000    0.000 
#    0.000    0.000    0.000    0.000    0.000    0.000 
#
# Total GULP energy -133918.987257 kJ/mol
# GULP energy per Si atom -5579.957802 kJ/mol
# Density = 2.225014 g / cm^3
# Si number density = 22.300897 Si / 1000 Ang^3
#
#
#
# Elastic Constant Matrix: (Units=GPa)
#
#
# Indices 1 2 3 4 5 6 
#
# 1 123.6251 38.9445 33.1086 0.0000 0.0439 0.0000
# 2 38.9445 106.8285 26.5393 0.0000 1.0337 0.0000
# 3 33.1086 26.5393 109.1032 0.0000 -19.4019 0.0000
# 4 0.0000 0.0000 0.0000 57.0470 0.0000 -10.4770
# 5 0.0439 1.0337 -19.4019 0.0000 32.8626 0.0000
# 6 0.0000 0.0000 0.0000 -10.4770 0.0000 0.9673
#
#
#
# Elastic Compliance Matrix: (Units=1/GPa)
#
#
# Indices 1 2 3 4 5 6 
#
# 1 0.009664 -0.002895 -0.002474 0.000000 -0.001383 0.000000
# 2 -0.002895 0.010943 -0.002060 0.000000 -0.001557 0.000000
# 3 -0.002474 -0.002060 0.011653 0.000000 0.006948 0.000000
# 4 0.000000 0.000000 0.000000 -0.017719 0.000000 -0.191927
# 5 -0.001383 -0.001557 0.006948 0.000000 0.034583 0.000000
# 6 0.000000 0.000000 0.000000 -0.191927 0.000000 -1.045038
#
#
# Mechanical properties :
#
#
# Convention : Reuss Voigt Hill
#
# Bulk Modulus (GPa) = 57.46700 59.63797 58.55248
# Shear Modulus (GPa) = -5.12687 34.23965 14.55639
#
# Velocity S-wave (km/s) = -1.51787 3.92260 2.55762
# Velocity P-wave (km/s) = 4.77000 6.87868 5.91900
#
# Compressibility (1/GPa) = 0.01740129
#
# Stress axis : x y z
#
# Youngs Moduli (GPa) = 103.47553 91.38220 85.81302
#
# Poissons Ratio (x) = 0.26455 0.21233
# Poissons Ratio (y) = 0.29956 0.17679
# Poissons Ratio (z) = 0.25604 0.18827
#
# Static dielectric constant tensor:
#      x y z
#    x 1.851050 0.000000 -0.023560 
#    y 0.000000 1.869830 0.000000 
#    z -0.023560 0.000000 1.959080 
# 
# From -- ./inp_files/39658.got.cif
#   From: 2010.05.17/outbox.cif.g08.bks.cpg/sg15_20_cif.got.tgz:39658.got - 2010.06.03 18:47:42.
