data_PCOD9307352
_publ_section_title
;
Structure prediction by ZEFSAII (Michael W. Deem and Ramdas Pophale) SiO2 
 PCOD9307352
Probable space group: C 2/C
;
_chemical_formula_sum "Si O2"
_cell_formula_units_Z 40
_cell_length_a 27.074836
_cell_length_b 6.980360
_cell_length_c 10.237396
_cell_angle_alpha 90.000000
_cell_angle_beta 73.117873
_cell_angle_gamma 90.000000
_cell_volume 1851.405837
_symmetry_space_group_name_H-M "C 2/C"
_symmetry_group_IT_number 15
_symmetry_cell_setting 'monoclinic'
loop_
_space_group_symop_operation_xyz
x,y,z
-x,y,1/2-z
-x,-y,-z
x,-y,1/2+z
1/2+x,1/2+y,z
1/2-x,1/2+y,1/2-z
1/2-x,1/2-y,-z
1/2+x,1/2-y,1/2+z
loop_
_atom_site_type_symbol
_atom_site_label
_atom_site_fract_x
_atom_site_fract_y
_atom_site_fract_z
Si Si1 0.098631 0.929423 0.939353
Si Si2 0.763600 0.572273 0.079618
Si Si3 0.872333 0.583596 0.404531
Si Si4 0.820102 0.185854 0.740407
Si Si5 0.059335 0.206142 0.189383
O O1 0.077085 0.895231 0.810497
O O2 0.153323 0.039537 0.880970
O O3 0.105631 0.724253 0.002482
O O4 0.065741 0.061681 0.062474
O O5 0.782397 0.662194 0.201976
O O6 0.714438 0.438409 0.135626
O O7 0.750000 0.750000 0.000000
O O8 0.813547 0.467004 0.985728
O O9 0.866422 0.702436 0.275400
O O10 0.904823 0.391018 0.362753
O O11 0.000000 0.264633 0.250000
#
# Coordination Sequence:
#
# PCOD9307352 Si02
#       5
#     8   8   8   8   8
#     4  12  25  50  74 106 149 184 245 303 359 436
#     4  12  23  40  67 102 145 190 239 289 356 429
#     4  12  25  46  72 105 148 189 244 296 360 433
#     4  12  23  43  67 106 143 190 237 292 359 425
#     4  12  28  49  77 107 142 192 243 306 367 424
#
# _framework density 21.605204000000001
#
# number of rings (size 3 to 8) (size 9 to 14) (size 15 to 20)
#    0.000    0.000    4.000    7.200    0.000    1.600 
#    0.000    0.000    0.000    0.000    0.000    0.000 
#    0.000    0.000    0.000    0.000    0.000    0.000 
#
# Total GULP energy -112000.790930 kJ/mol
# GULP energy per Si atom -5600.039546 kJ/mol
# Density = 2.155603 g / cm^3
# Si number density = 21.605204 Si / 1000 Ang^3
#
#
#
# Elastic Constant Matrix: (Units=GPa)
#
#
# Indices 1 2 3 4 5 6 
#
# 1 50.0579 18.8932 16.8024 0.0000 -14.1729 0.0000
# 2 18.8932 108.8767 51.2072 0.0000 5.3335 0.0000
# 3 16.8024 51.2072 90.8787 0.0000 -7.2617 0.0000
# 4 0.0000 0.0000 0.0000 29.9455 0.0000 14.1317
# 5 -14.1729 5.3335 -7.2617 0.0000 28.7654 0.0000
# 6 0.0000 0.0000 0.0000 14.1317 0.0000 20.5110
#
#
#
# Elastic Compliance Matrix: (Units=1/GPa)
#
#
# Indices 1 2 3 4 5 6 
#
# 1 0.025864 -0.004615 -0.001118 0.000000 0.013317 0.000000
# 2 -0.004615 0.013832 -0.007478 0.000000 -0.006726 0.000000
# 3 -0.001118 -0.007478 0.015810 0.000000 0.004827 0.000000
# 4 0.000000 0.000000 0.000000 0.049483 0.000000 -0.034093
# 5 0.013317 -0.006726 0.004827 0.000000 0.043791 0.000000
# 6 0.000000 0.000000 0.000000 -0.034093 0.000000 0.072244
#
#
# Mechanical properties :
#
#
# Convention : Reuss Voigt Hill
#
# Bulk Modulus (GPa) = 34.38218 47.06877 40.72547
# Shear Modulus (GPa) = 19.44463 26.70508 23.07486
#
# Velocity S-wave (km/s) = 3.00325 3.51956 3.27161
# Velocity P-wave (km/s) = 5.28908 6.19270 5.75864
#
# Compressibility (1/GPa) = 0.02908484
#
# Stress axis : x y z
#
# Youngs Moduli (GPa) = 38.66341 72.29512 63.25217
#
# Poissons Ratio (x) = 0.33364 0.07069
# Poissons Ratio (y) = 0.17843 0.47301
# Poissons Ratio (z) = 0.04321 0.54064
#
# Static dielectric constant tensor:
#      x y z
#    x 1.751890 0.000000 0.028850 
#    y 0.000000 1.772560 0.000000 
#    z 0.028850 0.000000 1.849520 
# 
# From -- ./inp_files/120757.got.cif
#   From: 2010.05.17/outbox.cif.g08.bks.cpg/sg15_61_cif.got.tgz:120757.got - 2010.06.03 18:47:42.
