data_PCOD9307240
_publ_section_title
;
Structure prediction by ZEFSAII (Michael W. Deem and Ramdas Pophale) SiO2 
 PCOD9307240
Probable space group: C 2/C
;
_chemical_formula_sum "Si O2"
_cell_formula_units_Z 60
_cell_length_a 15.100947
_cell_length_b 12.055388
_cell_length_c 18.320824
_cell_angle_alpha 90.000000
_cell_angle_beta 115.567599
_cell_angle_gamma 90.000000
_cell_volume 3008.665165
_symmetry_space_group_name_H-M "C 2/C"
_symmetry_group_IT_number 15
_symmetry_cell_setting 'monoclinic'
loop_
_space_group_symop_operation_xyz
x,y,z
-x,y,1/2-z
-x,-y,-z
x,-y,1/2+z
1/2+x,1/2+y,z
1/2-x,1/2+y,1/2-z
1/2-x,1/2-y,-z
1/2+x,1/2-y,1/2+z
loop_
_atom_site_type_symbol
_atom_site_label
_atom_site_fract_x
_atom_site_fract_y
_atom_site_fract_z
Si Si1 0.477745 0.493290 0.578626
Si Si2 0.248889 0.037203 0.464883
Si Si3 0.487581 0.745225 0.886372
Si Si4 0.681283 0.798606 0.040816
Si Si5 0.000000 0.401756 0.750000
Si Si6 0.736825 0.784751 0.654425
Si Si7 0.812461 0.547484 0.649607
Si Si8 0.330701 0.374441 0.833481
O O1 0.500000 0.500000 0.500000
O O2 0.364622 0.466703 0.551709
O O3 0.493927 0.614684 0.619136
O O4 0.554775 0.403233 0.635859
O O5 0.259875 0.140704 0.416153
O O6 0.310892 0.043079 0.561348
O O7 0.282929 0.924342 0.436909
O O8 0.499251 0.821365 0.819505
O O9 0.376697 0.755200 0.874025
O O10 0.569796 0.786734 0.972811
O O11 0.688571 0.725402 0.116340
O O12 0.750000 0.750000 0.000000
O O13 0.094543 0.480883 0.787233
O O14 0.801041 0.673955 0.669148
O O15 0.778099 0.849974 0.738866
O O16 0.718232 0.481413 0.646293
#
# Coordination Sequence:
#
# PCOD9307240 Si02
#       8
#     8   8   8   8   4   8   8   8
#     4  12  22  43  75 101 135 190 239 289 349 421
#     4  12  26  46  75 104 140 186 242 287 356 431
#     4  12  23  43  72 105 137 189 237 281 362 425
#     4  12  22  43  74 105 136 181 238 296 345 422
#     4  12  26  42  74 104 140 188 236 302 358 416
#     4  12  30  45  69 106 146 186 231 297 358 431
#     4  12  24  49  67  99 148 186 227 292 359 422
#     4  12  25  44  71 104 142 182 236 299 354 408
#
# _framework density 19.942399000000002
#
# number of rings (size 3 to 8) (size 9 to 14) (size 15 to 20)
#    0.000    0.000    9.333    0.400    1.867    3.200 
#    2.400    0.000    0.000    0.000    0.000    0.000 
#    0.000    0.000    0.000    0.000    0.000    0.000 
#
# Total GULP energy -167852.521096 kJ/mol
# GULP energy per Si atom -5595.084037 kJ/mol
# Density = 1.989701 g / cm^3
# Si number density = 19.942399 Si / 1000 Ang^3
#
#
#
# Elastic Constant Matrix: (Units=GPa)
#
#
# Indices 1 2 3 4 5 6 
#
# 1 39.8006 -14.7402 -16.7594 0.0000 17.9454 0.0000
# 2 -14.7402 67.0257 3.6075 0.0000 -19.4004 0.0000
# 3 -16.7594 3.6075 62.4370 0.0000 6.9412 0.0000
# 4 0.0000 0.0000 0.0000 35.1074 0.0000 -0.3082
# 5 17.9454 -19.4004 6.9412 0.0000 25.1793 0.0000
# 6 0.0000 0.0000 0.0000 -0.3082 0.0000 35.6197
#
#
#
# Elastic Compliance Matrix: (Units=1/GPa)
#
#
# Indices 1 2 3 4 5 6 
#
# 1 0.052296 -0.002368 0.019106 0.000000 -0.044363 0.000000
# 2 -0.002368 0.019811 -0.003781 0.000000 0.017994 0.000000
# 3 0.019106 -0.003781 0.023934 0.000000 -0.023128 0.000000
# 4 0.000000 0.000000 0.000000 0.028486 0.000000 0.000246
# 5 -0.044363 0.017994 -0.023128 0.000000 0.091573 0.000000
# 6 0.000000 0.000000 0.000000 0.000246 0.000000 0.028076
#
#
# Mechanical properties :
#
#
# Convention : Reuss Voigt Hill
#
# Bulk Modulus (GPa) = 8.19973 12.60878 10.40426
# Shear Modulus (GPa) = 19.31143 32.32499 25.81821
#
# Velocity S-wave (km/s) = 3.11523 4.03043 3.60201
# Velocity P-wave (km/s) = 4.13039 5.29108 4.74635
#
# Compressibility (1/GPa) = 0.12195520
#
# Stress axis : x y z
#
# Youngs Moduli (GPa) = 19.12189 50.47798 41.78114
#
# Poissons Ratio (x) = 0.11955 -0.79828
# Poissons Ratio (y) = 0.04529 0.15796
# Poissons Ratio (z) = -0.36535 0.19084
#
# Static dielectric constant tensor:
#      x y z
#    x 1.690810 0.000000 0.012980 
#    y 0.000000 1.701590 0.000000 
#    z 0.012980 0.000000 1.701780 
# 
# From -- ./inp_files/204422.got.cif
#   From: 2010.05.17/outbox.cif.g08.bks.cpg/sg15_103_cif.got.tgz:204422.got - 2010.06.03 18:47:42.
