data_PCOD9307631
_publ_section_title
;
Structure prediction by ZEFSAII (Michael W. Deem and Ramdas Pophale) SiO2 
 PCOD9307631
Probable space group: C 2/C
;
_chemical_formula_sum "Si O2"
_cell_formula_units_Z 32
_cell_length_a 12.279855
_cell_length_b 29.474522
_cell_length_c 9.957673
_cell_angle_alpha 90.000000
_cell_angle_beta 22.391004
_cell_angle_gamma 90.000000
_cell_volume 1372.895824
_symmetry_space_group_name_H-M "C 2/C"
_symmetry_group_IT_number 15
_symmetry_cell_setting 'monoclinic'
loop_
_space_group_symop_operation_xyz
x,y,z
-x,y,1/2-z
-x,-y,-z
x,-y,1/2+z
1/2+x,1/2+y,z
1/2-x,1/2+y,1/2-z
1/2-x,1/2-y,-z
1/2+x,1/2-y,1/2+z
loop_
_atom_site_type_symbol
_atom_site_label
_atom_site_fract_x
_atom_site_fract_y
_atom_site_fract_z
Si Si1 0.500000 0.283615 0.250000
Si Si2 0.528921 0.650622 0.474512
Si Si3 0.500000 0.459909 0.750000
Si Si4 0.452390 0.910854 0.041405
Si Si5 0.000000 0.214945 0.250000
Si Si6 0.500000 0.979060 0.750000
O O1 0.250000 0.250000 0.500000
O O2 0.412288 0.315309 0.472345
O O3 0.233154 0.624325 0.834794
O O4 0.480767 0.680846 0.397505
O O5 0.790082 0.614726 0.176762
O O6 0.719291 0.430770 0.410816
O O7 0.715323 0.490760 0.592531
O O8 0.552367 0.949310 0.823694
O O9 0.750000 0.250000 0.500000
#
# Coordination Sequence:
#
# PCOD9307631 Si02
#       6
#     4   8   4   8   4   4
#     4  12  24  44  70 102 137 180 229 284 344 412
#     4  12  25  44  69 101 138 181 228 285 346 412
#     4  12  25  43  68 100 138 184 232 286 348 417
#     4  12  25  44  69 101 138 182 231 287 347 413
#     4  12  25  44  67  98 135 178 223 276 337 406
#     4  12  24  45  69 100 138 182 232 290 349 413
#
# _framework density 23.308395999999998
#
# number of rings (size 3 to 8) (size 9 to 14) (size 15 to 20)
#    0.000    0.000    0.000   11.250    0.000    2.000 
#    0.000    0.000    0.000    0.000    0.000    0.000 
#    0.000    0.000    0.000    0.000    0.000    0.000 
#
# Total GULP energy -89666.021001 kJ/mol
# GULP energy per Si atom -5604.126313 kJ/mol
# Density = 2.325535 g / cm^3
# Si number density = 23.308396 Si / 1000 Ang^3
#
#
#
# Elastic Constant Matrix: (Units=GPa)
#
#
# Indices 1 2 3 4 5 6 
#
# 1 129.1837 59.9480 52.8814 0.0000 -14.1185 0.0000
# 2 59.9480 117.2157 47.6243 0.0000 -5.6395 0.0000
# 3 52.8814 47.6243 98.9849 0.0000 -11.5156 0.0000
# 4 0.0000 0.0000 0.0000 53.3552 0.0000 -22.9824
# 5 -14.1185 -5.6395 -11.5156 0.0000 66.7915 0.0000
# 6 0.0000 0.0000 0.0000 -22.9824 0.0000 64.8336
#
#
#
# Elastic Compliance Matrix: (Units=1/GPa)
#
#
# Indices 1 2 3 4 5 6 
#
# 1 0.011449 -0.004188 -0.003940 0.000000 0.001387 0.000000
# 2 -0.004188 0.012136 -0.003659 0.000000 -0.000491 0.000000
# 3 -0.003940 -0.003659 0.014118 0.000000 0.001292 0.000000
# 4 0.000000 0.000000 0.000000 0.022120 0.000000 0.007841
# 5 0.001387 -0.000491 0.001292 0.000000 0.015447 0.000000
# 6 0.000000 0.000000 0.000000 0.007841 0.000000 0.018204
#
#
# Mechanical properties :
#
#
# Convention : Reuss Voigt Hill
#
# Bulk Modulus (GPa) = 70.77381 74.03243 72.40312
# Shear Modulus (GPa) = 41.06569 49.32475 45.19522
#
# Velocity S-wave (km/s) = 4.20198 4.60519 4.40820
# Velocity P-wave (km/s) = 7.34658 7.75294 7.55249
#
# Compressibility (1/GPa) = 0.01412952
#
# Stress axis : x y z
#
# Youngs Moduli (GPa) = 87.34614 82.39990 70.83014
#
# Poissons Ratio (x) = 0.34506 0.27908
# Poissons Ratio (y) = 0.36577 0.25916
# Poissons Ratio (z) = 0.34416 0.30149
#
# Static dielectric constant tensor:
#      x y z
#    x 1.860800 0.000000 0.018720 
#    y 0.000000 1.925890 0.000000 
#    z 0.018720 0.000000 1.835280 
# 
# From -- ./inp_files/34965.got.cif
#   From: 2010.05.17/outbox.cif.g08.bks.cpg/sg15_18_cif.got.tgz:34965.got - 2010.06.03 18:47:42.
