data_PCOD9307835
_publ_section_title
;
Structure prediction by ZEFSAII (Michael W. Deem and Ramdas Pophale) SiO2 
 PCOD9307835
Probable space group: C 2/C
;
_chemical_formula_sum "Si O2"
_cell_formula_units_Z 44
_cell_length_a 20.400988
_cell_length_b 5.860350
_cell_length_c 17.746882
_cell_angle_alpha 90.000000
_cell_angle_beta 117.565469
_cell_angle_gamma 90.000000
_cell_volume 1880.905820
_symmetry_space_group_name_H-M "C 2/C"
_symmetry_group_IT_number 15
_symmetry_cell_setting 'monoclinic'
loop_
_space_group_symop_operation_xyz
x,y,z
-x,y,1/2-z
-x,-y,-z
x,-y,1/2+z
1/2+x,1/2+y,z
1/2-x,1/2+y,1/2-z
1/2-x,1/2-y,-z
1/2+x,1/2-y,1/2+z
loop_
_atom_site_type_symbol
_atom_site_label
_atom_site_fract_x
_atom_site_fract_y
_atom_site_fract_z
Si Si1 0.822257 0.219066 0.987054
Si Si2 0.550092 0.022847 0.386206
Si Si3 0.000000 0.150914 0.750000
Si Si4 0.075043 0.142912 0.026272
Si Si5 0.753854 0.808603 0.707687
Si Si6 0.913614 0.787025 0.797276
O O1 0.803579 0.316633 0.892916
O O2 0.859673 0.976315 0.986587
O O3 0.750000 0.250000 0.000000
O O4 0.887144 0.339458 0.068749
O O5 0.561636 0.207020 0.327562
O O6 0.547740 0.142769 0.465182
O O7 0.471047 0.918284 0.322806
O O8 0.959091 0.999393 0.790047
O O9 0.104768 0.191762 0.124686
O O10 0.000000 0.000000 0.000000
O O11 0.744112 0.563177 0.749608
O O12 0.835408 0.772461 0.715889
#
# Coordination Sequence:
#
# PCOD9307835 Si02
#       6
#     8   8   4   8   8   8
#     4  12  30  50  73 119 163 211 266 342 420 490
#     4  12  27  47  82 107 154 209 268 338 399 491
#     4  12  28  46  76 116 152 202 270 340 402 476
#     4  12  24  49  78 109 146 201 271 326 397 490
#     4  12  30  52  82 118 164 215 271 336 413 490
#     4  12  27  49  77 113 152 204 276 332 404 489
#
# _framework density 23.392982
#
# number of rings (size 3 to 8) (size 9 to 14) (size 15 to 20)
#    0.000    0.000    5.455    2.182   12.727    0.727 
#    0.000    0.000    0.000    0.000    0.000    0.000 
#    0.000    0.000    0.000    0.000    0.000    0.000 
#
# Total GULP energy -122847.621872 kJ/mol
# GULP energy per Si atom -5583.982812 kJ/mol
# Density = 2.333974 g / cm^3
# Si number density = 23.392982 Si / 1000 Ang^3
#
#
#
# Elastic Constant Matrix: (Units=GPa)
#
#
# Indices 1 2 3 4 5 6 
#
# 1 103.0604 28.8481 11.3717 -0.0001 1.4169 -0.0002
# 2 28.8481 78.2884 32.7554 0.0014 -21.8972 0.0022
# 3 11.3717 32.7554 110.4804 0.0001 -13.5897 0.0001
# 4 -0.0001 0.0014 0.0001 177.8145 0.0001 194.8906
# 5 1.4169 -21.8972 -13.5897 0.0001 42.4190 0.0002
# 6 -0.0002 0.0022 0.0001 194.8906 0.0002 293.0525
#
#
#
# Elastic Compliance Matrix: (Units=1/GPa)
#
#
# Indices 1 2 3 4 5 6 
#
# 1 0.011117 -0.004889 -0.000053 0.000000 -0.002912 0.000000
# 2 -0.004889 0.018613 -0.003970 0.000000 0.008500 0.000000
# 3 -0.000053 -0.003970 0.010391 0.000000 0.001282 0.000000
# 4 0.000000 0.000000 0.000000 0.020745 0.000000 -0.013796
# 5 -0.002912 0.008500 0.001282 0.000000 0.028470 0.000000
# 6 0.000000 0.000000 0.000000 -0.013796 0.000000 0.012587
#
#
# Mechanical properties :
#
#
# Convention : Reuss Voigt Hill
#
# Bulk Modulus (GPa) = 44.84581 48.64219 46.74400
# Shear Modulus (GPa) = 39.31440 117.24747 78.28094
#
# Velocity S-wave (km/s) = 4.10397 7.08728 5.79103
# Velocity P-wave (km/s) = 6.45515 9.37078 8.04613
#
# Compressibility (1/GPa) = 0.02229863
#
# Stress axis : x y z
#
# Youngs Moduli (GPa) = 89.94900 53.72570 96.23316
#
# Poissons Ratio (x) = 0.26266 0.00510
# Poissons Ratio (y) = 0.43975 0.38202
# Poissons Ratio (z) = 0.00477 0.21327
#
# Static dielectric constant tensor:
#      x y z
#    x 1.863900 0.000000 0.056760 
#    y 0.000000 1.956620 0.000000 
#    z 0.056760 0.000000 1.895510 
# 
# From -- ./inp_files/212962.got.cif
#   From: 2010.05.17/outbox.cif.g08.bks.cpg/sg15_107_cif.got.tgz:212962.got - 2010.06.03 18:47:42.
