data_PCOD9307585
_publ_section_title
;
Structure prediction by ZEFSAII (Michael W. Deem and Ramdas Pophale) SiO2 
 PCOD9307585
Probable space group: C 2/C
;
_chemical_formula_sum "Si O2"
_cell_formula_units_Z 36
_cell_length_a 12.486479
_cell_length_b 8.475637
_cell_length_c 16.936939
_cell_angle_alpha 90.000000
_cell_angle_beta 135.767344
_cell_angle_gamma 90.000000
_cell_volume 1250.366405
_symmetry_space_group_name_H-M "C 2/C"
_symmetry_group_IT_number 15
_symmetry_cell_setting 'monoclinic'
loop_
_space_group_symop_operation_xyz
x,y,z
-x,y,1/2-z
-x,-y,-z
x,-y,1/2+z
1/2+x,1/2+y,z
1/2-x,1/2+y,1/2-z
1/2-x,1/2-y,-z
1/2+x,1/2-y,1/2+z
loop_
_atom_site_type_symbol
_atom_site_label
_atom_site_fract_x
_atom_site_fract_y
_atom_site_fract_z
Si Si1 0.699451 0.861783 0.770006
Si Si2 0.000000 0.598997 0.750000
Si Si3 0.319162 0.021530 0.411101
Si Si4 0.467779 0.714382 0.069467
Si Si5 0.437706 0.598799 0.632788
O O1 0.641444 0.981919 0.805173
O O2 0.735339 0.953726 0.707500
O O3 0.858774 0.775232 0.874068
O O4 0.552208 0.745129 0.679343
O O5 0.018763 0.699478 0.838893
O O6 0.327419 0.199170 0.452256
O O7 0.239197 0.903032 0.431338
O O8 0.500000 0.000000 0.500000
O O9 0.444041 0.529050 0.068229
O O10 0.500000 0.529792 0.750000
#
# Coordination Sequence:
#
# PCOD9307585 Si02
#       5
#     8   4   8   8   8
#     4  12  26  46  74 106 145 190 235 296 354 422
#     4  12  24  42  74 102 140 194 230 282 362 414
#     4  12  26  45  71 108 144 185 241 297 348 426
#     4  12  25  47  73 105 145 189 240 292 358 421
#     4  12  24  45  73 102 146 189 237 292 356 417
#
# _framework density 28.79156
#
# number of rings (size 3 to 8) (size 9 to 14) (size 15 to 20)
#    0.000    0.000    6.667    3.333    0.000    3.556 
#    0.000    0.000    0.000    0.000    0.000    0.000 
#    0.000    0.000    0.000    0.000    0.000    0.000 
#
# Total GULP energy -100806.379499 kJ/mol
# GULP energy per Si atom -5600.354417 kJ/mol
# Density = 2.872603 g / cm^3
# Si number density = 28.791560 Si / 1000 Ang^3
#
#
#
# Elastic Constant Matrix: (Units=GPa)
#
#
# Indices 1 2 3 4 5 6 
#
# 1 221.5266 68.2642 31.3280 0.0000 42.0145 0.0000
# 2 68.2642 108.6183 2.7395 0.0000 14.9496 0.0000
# 3 31.3280 2.7395 72.2382 0.0000 13.0523 0.0000
# 4 0.0000 0.0000 0.0000 42.1831 0.0000 13.2239
# 5 42.0145 14.9496 13.0523 0.0000 56.4480 0.0000
# 6 0.0000 0.0000 0.0000 13.2239 0.0000 70.7395
#
#
#
# Elastic Compliance Matrix: (Units=1/GPa)
#
#
# Indices 1 2 3 4 5 6 
#
# 1 0.006576 -0.003604 -0.002091 0.000000 -0.003457 0.000000
# 2 -0.003604 0.011531 0.001245 0.000000 -0.000659 0.000000
# 3 -0.002091 0.001245 0.015112 0.000000 -0.002268 0.000000
# 4 0.000000 0.000000 0.000000 0.025182 0.000000 -0.004707
# 5 -0.003457 -0.000659 -0.002268 0.000000 0.020987 0.000000
# 6 0.000000 0.000000 0.000000 -0.004707 0.000000 0.015016
#
#
# Mechanical properties :
#
#
# Convention : Reuss Voigt Hill
#
# Bulk Modulus (GPa) = 41.11968 67.44961 54.28465
# Shear Modulus (GPa) = 44.87856 53.87754 49.37805
#
# Velocity S-wave (km/s) = 3.95237 4.33054 4.14577
# Velocity P-wave (km/s) = 5.92800 6.96294 6.46621
#
# Compressibility (1/GPa) = 0.02431925
#
# Stress axis : x y z
#
# Youngs Moduli (GPa) = 152.06608 86.72149 66.17109
#
# Poissons Ratio (x) = 0.31258 0.13834
# Poissons Ratio (y) = 0.54811 -0.08238
# Poissons Ratio (z) = 0.31792 -0.10796
#
# Static dielectric constant tensor:
#      x y z
#    x 2.353640 0.000000 0.119870 
#    y 0.000000 2.423200 0.000000 
#    z 0.119870 0.000000 2.477400 
# 
# From -- ./inp_files/242867.got.cif
#   From: 2010.05.17/outbox.cif.g08.bks.cpg/sg15_122_cif.got.tgz:242867.got - 2010.06.03 18:47:42.
