data_PCOD9307649
_publ_section_title
;
Structure prediction by ZEFSAII (Michael W. Deem and Ramdas Pophale) SiO2 
 PCOD9307649
Probable space group: C 2/C
;
_chemical_formula_sum "Si O2"
_cell_formula_units_Z 44
_cell_length_a 4.867635
_cell_length_b 31.398637
_cell_length_c 12.536061
_cell_angle_alpha 90.000000
_cell_angle_beta 103.752471
_cell_angle_gamma 90.000000
_cell_volume 1861.047737
_symmetry_space_group_name_H-M "C 2/C"
_symmetry_group_IT_number 15
_symmetry_cell_setting 'monoclinic'
loop_
_space_group_symop_operation_xyz
x,y,z
-x,y,1/2-z
-x,-y,-z
x,-y,1/2+z
1/2+x,1/2+y,z
1/2-x,1/2+y,1/2-z
1/2-x,1/2-y,-z
1/2+x,1/2-y,1/2+z
loop_
_atom_site_type_symbol
_atom_site_label
_atom_site_fract_x
_atom_site_fract_y
_atom_site_fract_z
Si Si1 0.691828 0.891954 0.675018
Si Si2 0.510422 0.950540 0.475924
Si Si3 0.088235 0.914172 0.136199
Si Si4 0.637265 0.808600 0.939330
Si Si5 0.500000 0.260992 0.250000
Si Si6 0.739479 0.681319 0.594171
O O1 0.500000 0.912007 0.750000
O O2 0.701356 0.924342 0.577735
O O3 0.524650 0.849522 0.623355
O O4 0.000000 0.881656 0.750000
O O5 0.205628 0.927187 0.448925
O O6 0.669544 0.946092 0.378319
O O7 0.500000 0.000000 0.500000
O O8 0.226004 0.868282 0.122936
O O9 0.000000 0.914825 0.250000
O O10 0.609907 0.770702 0.852465
O O11 0.965258 0.814284 0.993221
O O12 0.495293 0.803587 0.043189
O O13 0.301674 0.291807 0.302026
#
# Coordination Sequence:
#
# PCOD9307649 Si02
#       6
#     8   8   8   8   4   8
#     4  12  24  44  74 100 140 190 230 286 358 417
#     4  12  27  47  73 108 143 181 239 293 350 425
#     4  12  24  47  76 103 142 192 229 289 358 422
#     4  12  26  45  71 101 144 184 238 291 349 410
#     4  12  28  44  72 108 138 186 242 288 344 416
#     4  12  25  47  69 105 140 189 234 285 354 419
#
# _framework density 23.642596999999999
#
# number of rings (size 3 to 8) (size 9 to 14) (size 15 to 20)
#    0.000    0.000    5.455    4.364    0.000    4.364 
#    0.000    0.000    0.000    0.000    0.000    0.000 
#    0.000    0.000    0.000    0.000    0.000    0.000 
#
# Total GULP energy -123239.986267 kJ/mol
# GULP energy per Si atom -5601.817558 kJ/mol
# Density = 2.358879 g / cm^3
# Si number density = 23.642597 Si / 1000 Ang^3
#
#
#
# Elastic Constant Matrix: (Units=GPa)
#
#
# Indices 1 2 3 4 5 6 
#
# 1 82.7793 16.4915 11.9953 0.0000 1.4991 0.0000
# 2 16.4915 154.3631 53.6503 0.0000 -0.1730 0.0000
# 3 11.9953 53.6503 112.4800 0.0000 -19.1204 0.0000
# 4 0.0000 0.0000 0.0000 45.4493 0.0000 -19.1540
# 5 1.4991 -0.1730 -19.1204 0.0000 51.9683 0.0000
# 6 0.0000 0.0000 0.0000 -19.1540 0.0000 19.2606
#
#
#
# Elastic Compliance Matrix: (Units=1/GPa)
#
#
# Indices 1 2 3 4 5 6 
#
# 1 0.012432 -0.000990 -0.000976 0.000000 -0.000721 0.000000
# 2 -0.000990 0.007945 -0.003920 0.000000 -0.001387 0.000000
# 3 -0.000976 -0.003920 0.011592 0.000000 0.004280 0.000000
# 4 0.000000 0.000000 0.000000 0.037877 0.000000 0.037667
# 5 -0.000721 -0.001387 0.004280 0.000000 0.020833 0.000000
# 6 0.000000 0.000000 0.000000 0.037667 0.000000 0.089378
#
#
# Mechanical properties :
#
#
# Convention : Reuss Voigt Hill
#
# Bulk Modulus (GPa) = 49.51210 57.09964 53.30587
# Shear Modulus (GPa) = 25.18118 41.16799 33.17459
#
# Velocity S-wave (km/s) = 3.26709 4.17737 3.74996
# Velocity P-wave (km/s) = 5.93458 6.88991 6.43001
#
# Compressibility (1/GPa) = 0.02019708
#
# Stress axis : x y z
#
# Youngs Moduli (GPa) = 80.43751 125.86940 86.26819
#
# Poissons Ratio (x) = 0.12457 0.08423
# Poissons Ratio (y) = 0.07961 0.33815
# Poissons Ratio (z) = 0.07853 0.49337
#
# Static dielectric constant tensor:
#      x y z
#    x 1.917800 0.000000 -0.041950 
#    y 0.000000 1.896830 0.000000 
#    z -0.041950 0.000000 2.067170 
# 
# From -- ./inp_files/74015.got.cif
#   From: 2010.05.17/outbox.cif.g08.bks.cpg/sg15_38_cif.got.tgz:74015.got - 2010.06.03 18:47:42.
