data_PCOD9307562
_publ_section_title
;
Structure prediction by ZEFSAII (Michael W. Deem and Ramdas Pophale) SiO2 
 PCOD9307562
Probable space group: C 2/C
;
_chemical_formula_sum "Si O2"
_cell_formula_units_Z 40
_cell_length_a 11.200563
_cell_length_b 26.635922
_cell_length_c 5.648039
_cell_angle_alpha 90.000000
_cell_angle_beta 82.101788
_cell_angle_gamma 90.000000
_cell_volume 1669.036307
_symmetry_space_group_name_H-M "C 2/C"
_symmetry_group_IT_number 15
_symmetry_cell_setting 'monoclinic'
loop_
_space_group_symop_operation_xyz
x,y,z
-x,y,1/2-z
-x,-y,-z
x,-y,1/2+z
1/2+x,1/2+y,z
1/2-x,1/2+y,1/2-z
1/2-x,1/2-y,-z
1/2+x,1/2-y,1/2+z
loop_
_atom_site_type_symbol
_atom_site_label
_atom_site_fract_x
_atom_site_fract_y
_atom_site_fract_z
Si Si1 0.500000 0.602296 0.250000
Si Si2 0.834703 0.970513 0.016560
Si Si3 0.361577 0.895332 0.298412
Si Si4 0.207585 0.844437 0.973355
Si Si5 0.000000 0.217387 0.750000
Si Si6 0.349715 0.211569 0.059001
O O1 0.550632 0.566748 0.029690
O O2 0.387042 0.634404 0.192545
O O3 0.836819 0.001077 0.767802
O O4 0.715921 0.935884 0.040177
O O5 0.500000 0.911180 0.250000
O O6 0.361482 0.839637 0.411790
O O7 0.287328 0.887172 0.075338
O O8 0.301048 0.806687 0.827708
O O9 0.117007 0.816461 0.177198
O O10 0.030003 0.255438 0.954144
O O11 0.250000 0.250000 0.000000
#
# Coordination Sequence:
#
# PCOD9307562 Si02
#       6
#     4   8   8   8   4   8
#     4  12  24  50  83 114 152 194 251 330 400 458
#     4  12  28  53  82 118 153 200 263 331 405 473
#     4  12  28  50  76 107 155 206 256 314 384 467
#     4  12  25  48  70 114 158 194 256 318 382 452
#     4  12  24  40  75 102 154 206 249 316 368 450
#     4  12  25  44  67 110 150 199 254 300 378 456
#
# _framework density 23.965924999999999
#
# number of rings (size 3 to 8) (size 9 to 14) (size 15 to 20)
#    0.000    0.000    4.000    6.000    2.800    2.400 
#    0.000    0.000    0.000    0.000    0.000    0.000 
#    0.000    0.000    0.000    0.000    0.000    0.000 
#
# Total GULP energy -111973.489032 kJ/mol
# GULP energy per Si atom -5598.674452 kJ/mol
# Density = 2.391138 g / cm^3
# Si number density = 23.965925 Si / 1000 Ang^3
#
#
#
# Elastic Constant Matrix: (Units=GPa)
#
#
# Indices 1 2 3 4 5 6 
#
# 1 146.8155 26.7860 23.0875 0.0000 0.4277 0.0000
# 2 26.7860 76.7881 29.9101 0.0000 1.8713 0.0000
# 3 23.0875 29.9101 85.8376 0.0000 4.6039 0.0000
# 4 0.0000 0.0000 0.0000 47.0430 0.0000 -4.2659
# 5 0.4277 1.8713 4.6039 0.0000 40.6846 0.0000
# 6 0.0000 0.0000 0.0000 -4.2659 0.0000 16.2036
#
#
#
# Elastic Compliance Matrix: (Units=1/GPa)
#
#
# Indices 1 2 3 4 5 6 
#
# 1 0.007391 -0.002088 -0.001269 0.000000 0.000162 0.000000
# 2 -0.002088 0.015658 -0.004887 0.000000 -0.000145 0.000000
# 3 -0.001269 -0.004887 0.013765 0.000000 -0.001320 0.000000
# 4 0.000000 0.000000 0.000000 0.021777 0.000000 0.005733
# 5 0.000162 -0.000145 -0.001320 0.000000 0.024734 0.000000
# 6 0.000000 0.000000 0.000000 0.005733 0.000000 0.063224
#
#
# Mechanical properties :
#
#
# Convention : Reuss Voigt Hill
#
# Bulk Modulus (GPa) = 49.19635 52.11203 50.65419
# Shear Modulus (GPa) = 29.44431 36.09674 32.77052
#
# Velocity S-wave (km/s) = 3.50893 3.88515 3.70182
# Velocity P-wave (km/s) = 6.08185 6.47436 6.28117
#
# Compressibility (1/GPa) = 0.02032671
#
# Stress axis : x y z
#
# Youngs Moduli (GPa) = 135.29396 63.86447 72.64895
#
# Poissons Ratio (x) = 0.13334 0.09220
# Poissons Ratio (y) = 0.28248 0.35502
# Poissons Ratio (z) = 0.17171 0.31209
#
# Static dielectric constant tensor:
#      x y z
#    x 1.891240 0.000000 0.034460 
#    y 0.000000 1.942570 0.000000 
#    z 0.034460 0.000000 2.005140 
# 
# From -- ./inp_files/4956.got.cif
#   From: 2010.05.17/outbox.cif.g08.bks.cpg/sg15_3_cif.got.tgz:4956.got - 2010.06.03 18:47:42.
