data_PCOD9307927
_publ_section_title
;
Structure prediction by ZEFSAII (Michael W. Deem and Ramdas Pophale) SiO2 
 PCOD9307927
Probable space group: C 2/C
;
_chemical_formula_sum "Si O2"
_cell_formula_units_Z 48
_cell_length_a 21.901656
_cell_length_b 12.357070
_cell_length_c 8.253474
_cell_angle_alpha 90.000000
_cell_angle_beta 123.836955
_cell_angle_gamma 90.000000
_cell_volume 1855.386977
_symmetry_space_group_name_H-M "C 2/C"
_symmetry_group_IT_number 15
_symmetry_cell_setting 'monoclinic'
loop_
_space_group_symop_operation_xyz
x,y,z
-x,y,1/2-z
-x,-y,-z
x,-y,1/2+z
1/2+x,1/2+y,z
1/2-x,1/2+y,1/2-z
1/2-x,1/2-y,-z
1/2+x,1/2-y,1/2+z
loop_
_atom_site_type_symbol
_atom_site_label
_atom_site_fract_x
_atom_site_fract_y
_atom_site_fract_z
Si Si1 0.276847 0.654258 0.915499
Si Si2 0.431949 0.124242 0.524668
Si Si3 0.868846 0.559815 0.742584
Si Si4 0.428545 0.260049 0.035985
Si Si5 0.867775 0.175756 0.760315
Si Si6 0.430233 0.440380 0.770755
O O1 0.215700 0.560898 0.831408
O O2 0.292952 0.681840 0.751861
O O3 0.250000 0.750000 0.000000
O O4 0.356684 0.611120 0.085242
O O5 0.500000 0.117673 0.750000
O O6 0.368222 0.087231 0.552696
O O7 0.420479 0.242677 0.438962
O O8 0.419104 0.043152 0.356892
O O9 0.906643 0.658998 0.894219
O O10 0.500000 0.238304 0.250000
O O11 0.364902 0.282913 0.071973
O O12 0.442371 0.363364 0.943579
O O13 0.904093 0.057794 0.794116
O O14 0.500000 0.443392 0.750000
#
# Coordination Sequence:
#
# PCOD9307927 Si02
#       6
#     8   8   8   8   8   8
#     4  12  26  53  76 115 167 219 273 348 420 494
#     4  12  26  50  81 114 160 217 272 345 412 496
#     4  12  27  50  78 112 162 212 279 333 426 486
#     4  12  25  45  78 120 158 208 272 340 410 495
#     4  12  27  46  78 116 161 211 274 337 412 491
#     4  12  28  53  83 123 166 220 279 347 424 499
#
# _framework density 25.870614
#
# number of rings (size 3 to 8) (size 9 to 14) (size 15 to 20)
#    0.000    0.000    3.333    5.500    2.333    4.667 
#    3.000    0.833    0.000    0.000    0.000    0.000 
#    0.000    0.000    0.000    0.000    0.000    0.000 
#
# Total GULP energy -134463.838819 kJ/mol
# GULP energy per Si atom -5602.659951 kJ/mol
# Density = 2.581173 g / cm^3
# Si number density = 25.870614 Si / 1000 Ang^3
#
#
#
# Elastic Constant Matrix: (Units=GPa)
#
#
# Indices 1 2 3 4 5 6 
#
# 1 205.8827 52.4241 47.5296 0.0000 -12.9769 0.0000
# 2 52.4241 170.7441 45.3206 0.0000 -6.8652 0.0000
# 3 47.5296 45.3206 89.3654 0.0000 3.7488 0.0000
# 4 0.0000 0.0000 0.0000 56.4956 0.0000 -9.1753
# 5 -12.9769 -6.8652 3.7488 0.0000 53.0270 0.0000
# 6 0.0000 0.0000 0.0000 -9.1753 0.0000 39.6079
#
#
#
# Elastic Compliance Matrix: (Units=1/GPa)
#
#
# Indices 1 2 3 4 5 6 
#
# 1 0.005821 -0.001028 -0.002636 0.000000 0.001478 0.000000
# 2 -0.001028 0.007016 -0.003048 0.000000 0.000872 0.000000
# 3 -0.002636 -0.003048 0.014224 0.000000 -0.002045 0.000000
# 4 0.000000 0.000000 0.000000 0.018392 0.000000 0.004261
# 5 0.001478 0.000872 -0.002045 0.000000 0.019477 0.000000
# 6 0.000000 0.000000 0.000000 0.004261 0.000000 0.026234
#
#
# Mechanical properties :
#
#
# Convention : Reuss Voigt Hill
#
# Bulk Modulus (GPa) = 73.33599 84.06010 78.69804
# Shear Modulus (GPa) = 45.81443 51.20731 48.51087
#
# Velocity S-wave (km/s) = 4.21278 4.45383 4.33498
# Velocity P-wave (km/s) = 7.21610 7.68192 7.45265
#
# Compressibility (1/GPa) = 0.01363587
#
# Stress axis : x y z
#
# Youngs Moduli (GPa) = 171.80170 142.52147 70.30423
#
# Poissons Ratio (x) = 0.14650 0.18535
# Poissons Ratio (y) = 0.17660 0.21430
# Poissons Ratio (z) = 0.45295 0.43444
#
# Static dielectric constant tensor:
#      x y z
#    x 2.153620 0.000000 -0.004880 
#    y 0.000000 2.054310 0.000000 
#    z -0.004880 0.000000 2.074400 
# 
# From -- ./inp_files/56791.got.cif
#   From: 2010.05.17/outbox.cif.g08.bks.cpg/sg15_29_cif.got.tgz:56791.got - 2010.06.03 18:47:42.
