data_PCOD9307040
_publ_section_title
;
Structure prediction by ZEFSAII (Michael W. Deem and Ramdas Pophale) SiO2 
 PCOD9307040
Probable space group: C 2/C
;
_chemical_formula_sum "Si O2"
_cell_formula_units_Z 48
_cell_length_a 19.444544
_cell_length_b 12.130978
_cell_length_c 14.316815
_cell_angle_alpha 90.000000
_cell_angle_beta 41.331321
_cell_angle_gamma 90.000000
_cell_volume 2230.258033
_symmetry_space_group_name_H-M "C 2/C"
_symmetry_group_IT_number 15
_symmetry_cell_setting 'monoclinic'
loop_
_space_group_symop_operation_xyz
x,y,z
-x,y,1/2-z
-x,-y,-z
x,-y,1/2+z
1/2+x,1/2+y,z
1/2-x,1/2+y,1/2-z
1/2-x,1/2-y,-z
1/2+x,1/2-y,1/2+z
loop_
_atom_site_type_symbol
_atom_site_label
_atom_site_fract_x
_atom_site_fract_y
_atom_site_fract_z
Si Si1 0.882290 0.940266 0.900388
Si Si2 0.726697 0.941553 0.902348
Si Si3 0.606247 0.572027 0.893996
Si Si4 0.558552 0.128080 0.091964
Si Si5 0.122803 0.673981 0.344746
Si Si6 0.806389 0.175426 0.019038
O O1 0.000000 0.912329 0.750000
O O2 0.795562 0.895549 0.917337
O O3 0.865581 0.072959 0.913927
O O4 0.865818 0.913149 0.025509
O O5 0.661156 0.854733 0.908961
O O6 0.807982 0.004288 0.751266
O O7 0.643060 0.032805 0.019318
O O8 0.600797 0.695359 0.858145
O O9 0.500000 0.500000 0.000000
O O10 0.500000 0.144336 0.250000
O O11 0.476598 0.108843 0.093003
O O12 0.616146 0.241735 0.008847
O O13 0.217406 0.639683 0.180814
O O14 0.750000 0.250000 0.000000
#
# Coordination Sequence:
#
# PCOD9307040 Si02
#       6
#     8   8   8   8   8   8
#     4  12  24  42  71 103 140 181 230 283 342 412
#     4  12  26  46  67 102 143 180 229 288 349 411
#     4  12  25  45  73 100 137 184 228 283 340 416
#     4  12  24  41  70 103 139 181 234 292 349 397
#     4  12  26  44  68 101 138 186 228 278 348 416
#     4  12  21  39  69 104 134 171 232 298 345 392
#
# _framework density 21.522172999999999
#
# number of rings (size 3 to 8) (size 9 to 14) (size 15 to 20)
#    0.000    0.000    8.333    2.000    0.000    0.667 
#    0.000    0.833    0.000    0.000    0.000    0.000 
#    0.000    0.000    0.000    0.000    0.000    0.000 
#
# Total GULP energy -134236.063392 kJ/mol
# GULP energy per Si atom -5593.169308 kJ/mol
# Density = 2.147319 g / cm^3
# Si number density = 21.522173 Si / 1000 Ang^3
#
#
#
# Elastic Constant Matrix: (Units=GPa)
#
#
# Indices 1 2 3 4 5 6 
#
# 1 169.9776 0.3519 24.6445 0.0000 -5.8070 0.0000
# 2 0.3519 39.2408 -16.4125 0.0000 -14.3345 0.0000
# 3 24.6445 -16.4125 59.8423 0.0000 -15.4384 0.0000
# 4 0.0000 0.0000 0.0000 17.8506 0.0000 7.1368
# 5 -5.8070 -14.3345 -15.4384 0.0000 39.3962 0.0000
# 6 0.0000 0.0000 0.0000 7.1368 0.0000 35.2359
#
#
#
# Elastic Compliance Matrix: (Units=1/GPa)
#
#
# Indices 1 2 3 4 5 6 
#
# 1 0.006344 -0.001878 -0.003407 0.000000 -0.001083 0.000000
# 2 -0.001878 0.040551 0.017388 0.000000 0.021292 0.000000
# 3 -0.003407 0.017388 0.027128 0.000000 0.016455 0.000000
# 4 0.000000 0.000000 0.000000 0.060957 0.000000 -0.012346
# 5 -0.001083 0.021292 0.016455 0.000000 0.039419 0.000000
# 6 0.000000 0.000000 0.000000 -0.012346 0.000000 0.030881
#
#
# Mechanical properties :
#
#
# Convention : Reuss Voigt Hill
#
# Bulk Modulus (GPa) = 10.18035 31.80316 20.99175
# Shear Modulus (GPa) = 23.38468 35.86166 29.62317
#
# Velocity S-wave (km/s) = 3.29985 4.08642 3.71401
# Velocity P-wave (km/s) = 4.38852 6.08885 5.30722
#
# Compressibility (1/GPa) = 0.09822849
#
# Stress axis : x y z
#
# Youngs Moduli (GPa) = 157.62982 24.66051 36.86285
#
# Poissons Ratio (x) = 0.04630 0.12559
# Poissons Ratio (y) = 0.29595 -0.64096
# Poissons Ratio (z) = 0.53704 -0.42879
#
# Static dielectric constant tensor:
#      x y z
#    x 1.847600 0.000000 0.005150 
#    y 0.000000 1.773640 0.000000 
#    z 0.005150 0.000000 1.745140 
# 
# From -- ./inp_files/111437.got.cif
#   From: 2010.05.17/outbox.cif.g08.bks.cpg/sg15_56_cif.got.tgz:111437.got - 2010.06.03 18:47:42.
