data_PCOD9308715
_publ_section_title
;
Structure prediction by ZEFSAII (Michael W. Deem and Ramdas Pophale) SiO2 
 PCOD9308715
Probable space group: C 2/C
;
_chemical_formula_sum "Si O2"
_cell_formula_units_Z 24
_cell_length_a 12.000000
_cell_length_b 24.000000
_cell_length_c 12.000000
_cell_angle_alpha 90.000000
_cell_angle_beta 50.000000
_cell_angle_gamma 90.000000
_cell_volume 2647.449595
_symmetry_space_group_name_H-M "C 2/C"
_symmetry_group_IT_number 15
_symmetry_cell_setting 'monoclinic'
loop_
_space_group_symop_operation_xyz
x,y,z
-x,y,1/2-z
-x,-y,-z
x,-y,1/2+z
1/2+x,1/2+y,z
1/2-x,1/2+y,1/2-z
1/2-x,1/2-y,-z
1/2+x,1/2-y,1/2+z
loop_
_atom_site_type_symbol
_atom_site_label
_atom_site_fract_x
_atom_site_fract_y
_atom_site_fract_z
Si Si1 0.417941 0.728860 0.418772
Si Si2 0.947955 0.654978 0.655655
Si Si3 0.880179 0.878015 0.096412
Si Si4 0.000000 0.931903 0.250000
Si Si5 0.791144 0.971228 0.972599
Si Si6 0.411283 0.941898 0.576467
Si Si7 0.500000 0.027586 0.250000
O O1 0.500000 0.715292 0.250000
O O2 0.250000 0.750000 0.500000
O O3 0.500525 0.783553 0.411695
O O4 0.433724 0.675871 0.490579
O O5 0.778779 0.642999 0.766269
O O6 0.000000 0.647896 0.750000
O O7 0.015798 0.608729 0.533633
O O8 0.864117 0.929432 0.016276
O O9 0.951100 0.897396 0.169579
O O10 0.880185 0.973990 0.380291
O O11 0.635272 0.989331 0.124424
O O12 0.746438 0.945494 0.880582
O O13 0.430098 0.936043 0.696148
O O14 0.500000 0.000000 0.500000
#
# Coordination Sequence:
#
# PCOD9308715 Si02
#       7
#     8   8   8   4   8   8   4
#     4  11  22  42  70  99 117 159 223 269 317 371
#     4  11  20  41  68  94 120 165 215 268 312 373
#     4  12  23  43  67  90 136 170 214 267 320 384
#     4  12  28  42  57  98 137 176 202 262 336 382
#     4  11  21  40  61  90 129 171 215 250 318 388
#     4  10  19  32  62  92 121 158 206 256 313 373
#     4  10  20  36  59  94 125 160 212 258 308 394
#
# _framework density 9.0653279999999992
#
# number of rings (size 3 to 8) (size 9 to 14) (size 15 to 20)
#    0.000    1.000    5.000    5.500    2.333    0.000 
#    3.000    1.667    0.000    0.000    0.000    0.000 
#    0.000    0.000    0.000    0.000    0.000    0.000 
#
# Total GULP energy -133702.750537 kJ/mol
# GULP energy per Si atom -5570.947939 kJ/mol
# Density = 0.904470 g / cm^3
# Si number density = 9.065328 Si / 1000 Ang^3
#
#
#
# Elastic Constant Matrix: (Units=GPa)
#
#
# Indices 1 2 3 4 5 6 
#
# 1 131.1338 64.2290 58.0441 0.0000 34.4966 0.0000
# 2 64.2290 144.6403 59.7224 0.0000 21.6724 0.0000
# 3 58.0441 59.7224 78.1443 0.0000 10.1670 0.0000
# 4 0.0000 0.0000 0.0000 50.2057 0.0000 -2.1968
# 5 34.4966 21.6724 10.1670 0.0000 41.0052 0.0000
# 6 0.0000 0.0000 0.0000 -2.1968 0.0000 19.2172
#
#
#
# Elastic Compliance Matrix: (Units=1/GPa)
#
#
# Indices 1 2 3 4 5 6 
#
# 1 0.014584 -0.001616 -0.008383 0.000000 -0.009337 0.000000
# 2 -0.001616 0.010803 -0.006706 0.000000 -0.002688 0.000000
# 3 -0.008383 -0.006706 0.023529 0.000000 0.004763 0.000000
# 4 0.000000 0.000000 0.000000 0.020018 0.000000 0.002288
# 5 -0.009337 -0.002688 0.004763 0.000000 0.032481 0.000000
# 6 0.000000 0.000000 0.000000 0.002288 0.000000 0.052298
#
#
# Mechanical properties :
#
#
# Convention : Reuss Voigt Hill
#
# Bulk Modulus (GPa) = 64.49223 79.76771 72.12997
# Shear Modulus (GPa) = 26.00197 33.54715 29.77456
#
# Velocity S-wave (km/s) = 3.79112 4.30618 4.05683
# Velocity P-wave (km/s) = 7.40348 8.29553 7.86216
#
# Compressibility (1/GPa) = 0.01550574
#
# Stress axis : x y z
#
# Youngs Moduli (GPa) = 68.56857 92.56675 42.50008
#
# Poissons Ratio (x) = 0.14957 0.35628
# Poissons Ratio (y) = 0.11079 0.28502
# Poissons Ratio (z) = 0.57481 0.62079
#
# Static dielectric constant tensor:
#      x y z
#    x 1.687170 0.000000 0.006200 
#    y 0.000000 1.649920 0.000000 
#    z 0.006200 0.000000 1.693910 
# 
# From -- ./inp_files/90654.got.cif
#   From: 2010.05.17/outbox.ucp.g08.bks.cvg/sg15_46_cif.got.tgz:90654.got - 2010.06.11 12:40:34.
