data_PCOD9308613
_publ_section_title
;
Structure prediction by ZEFSAII (Michael W. Deem and Ramdas Pophale) SiO2 
 PCOD9308613
Probable space group: C 2/C
;
_chemical_formula_sum "Si O2"
_cell_formula_units_Z 32
_cell_length_a 9.000000
_cell_length_b 21.000000
_cell_length_c 18.000000
_cell_angle_alpha 90.000000
_cell_angle_beta 90.000000
_cell_angle_gamma 90.000000
_cell_volume 3402.000000
_symmetry_space_group_name_H-M "C 2/C"
_symmetry_group_IT_number 15
_symmetry_cell_setting 'monoclinic'
loop_
_space_group_symop_operation_xyz
x,y,z
-x,y,1/2-z
-x,-y,-z
x,-y,1/2+z
1/2+x,1/2+y,z
1/2-x,1/2+y,1/2-z
1/2-x,1/2-y,-z
1/2+x,1/2-y,1/2+z
loop_
_atom_site_type_symbol
_atom_site_label
_atom_site_fract_x
_atom_site_fract_y
_atom_site_fract_z
Si Si1 0.028165 0.671422 0.400533
Si Si2 0.101461 0.915863 0.421954
Si Si3 0.272324 0.048113 0.072491
Si Si4 0.974291 0.038631 0.166191
Si Si5 0.718893 0.349849 0.889309
Si Si6 0.750875 0.406305 0.049377
Si Si7 0.570434 0.784382 0.433355
Si Si8 0.241616 0.223311 0.913686
O O1 0.106935 0.603184 0.413171
O O2 0.149491 0.721794 0.372741
O O3 0.878342 0.664913 0.353431
O O4 0.968908 0.702253 0.479323
O O5 0.190718 0.935044 0.495557
O O6 0.163503 0.845226 0.404493
O O7 0.924396 0.909209 0.433724
O O8 0.110917 0.978400 0.370295
O O9 0.135757 0.048958 0.129761
O O10 0.324264 0.974365 0.068552
O O11 0.887103 0.105143 0.158019
O O12 0.000000 0.021156 0.250000
O O13 0.645054 0.284091 0.918546
O O14 0.755847 0.393045 0.961528
O O15 0.827517 0.344915 0.086872
O O16 0.412897 0.784066 0.391971
O O17 0.250000 0.250000 0.000000
#
# Coordination Sequence:
#
# PCOD9308613 Si02
#       8
#     8   8   8   8   8   8   8   8
#     4  10  20  30  53  90 117 143 175 235 292 332
#     4  11  18  35  57  82 113 145 188 240 284 337
#     4  11  19  35  57  83 114 143 187 240 286 335
#     4  11  24  39  57  79 112 155 193 228 281 343
#     4  11  19  33  53  80 116 146 186 229 282 334
#     4  10  18  29  50  82 109 143 175 234 279 331
#     4  10  19  29  50  84 121 141 174 229 289 330
#     4  10  17  29  51  84 121 141 174 232 289 335
#
# _framework density 9.4062319999999993
#
# number of rings (size 3 to 8) (size 9 to 14) (size 15 to 20)
#    0.000    1.500    5.000    5.250    0.000    3.000 
#    0.000    0.625    0.000    9.000    0.000    0.000 
#    0.000    0.000    0.000    0.000    0.000    0.000 
#
# Total GULP energy -178278.591995 kJ/mol
# GULP energy per Si atom -5571.206000 kJ/mol
# Density = 0.938482 g / cm^3
# Si number density = 9.406232 Si / 1000 Ang^3
#
#
#
# Elastic Constant Matrix: (Units=GPa)
#
#
# Indices 1 2 3 4 5 6 
#
# 1 75.1304 37.5503 -1.0660 0.0000 3.4985 0.0000
# 2 37.5503 144.2194 3.6709 0.0000 -0.9166 0.0000
# 3 -1.0660 3.6709 18.4077 0.0000 4.0313 0.0000
# 4 0.0000 0.0000 0.0000 9.3079 0.0000 10.6796
# 5 3.4985 -0.9166 4.0313 0.0000 -6.8928 0.0000
# 6 0.0000 0.0000 0.0000 10.6796 0.0000 61.6616
#
#
#
# Elastic Compliance Matrix: (Units=1/GPa)
#
#
# Indices 1 2 3 4 5 6 
#
# 1 0.014842 -0.003811 -0.000125 0.000000 0.007967 0.000000
# 2 -0.003811 0.007929 -0.001017 0.000000 -0.003583 0.000000
# 3 -0.000125 -0.001017 0.048316 0.000000 0.028330 0.000000
# 4 0.000000 0.000000 0.000000 0.134081 0.000000 -0.023222
# 5 0.007967 -0.003583 0.028330 0.000000 -0.123989 0.000000
# 6 0.000000 0.000000 0.000000 -0.023222 0.000000 0.020240
#
#
# Mechanical properties :
#
#
# Convention : Reuss Voigt Hill
#
# Bulk Modulus (GPa) = 16.34479 35.34088 25.84283
# Shear Modulus (GPa) = 37.95966 25.98879 31.97423
#
# Velocity S-wave (km/s) = 4.49686 3.72084 4.12713
# Velocity P-wave (km/s) = 5.97239 6.10624 6.03969
#
# Compressibility (1/GPa) = 0.06118157
#
# Stress axis : x y z
#
# Youngs Moduli (GPa) = 67.37638 126.11683 20.69691
#
# Poissons Ratio (x) = 0.48058 0.00259
# Poissons Ratio (y) = 0.25674 0.02105
# Poissons Ratio (z) = 0.00844 0.12828
#
# Static dielectric constant tensor:
#      x y z
#    x 1.739910 0.000000 -0.005080 
#    y 0.000000 1.695700 0.000000 
#    z -0.005080 0.000000 1.655720 
# 
# From -- ./inp_files/192177.got.cif
#   From: 2010.05.17/outbox.ucp.g08.bks.cvg/sg15_97_cif.got.tgz:192177.got - 2010.06.11 12:40:34.
