data_PCOD9308844
_publ_section_title
;
Structure prediction by ZEFSAII (Michael W. Deem and Ramdas Pophale) SiO2 
 PCOD9308844
Probable space group: C 2/C
;
_chemical_formula_sum "Si O2"
_cell_formula_units_Z 24
_cell_length_a 30.000000
_cell_length_b 9.000000
_cell_length_c 18.000000
_cell_angle_alpha 90.000000
_cell_angle_beta 30.000000
_cell_angle_gamma 90.000000
_cell_volume 2430.000000
_symmetry_space_group_name_H-M "C 2/C"
_symmetry_group_IT_number 15
_symmetry_cell_setting 'monoclinic'
loop_
_space_group_symop_operation_xyz
x,y,z
-x,y,1/2-z
-x,-y,-z
x,-y,1/2+z
1/2+x,1/2+y,z
1/2-x,1/2+y,1/2-z
1/2-x,1/2-y,-z
1/2+x,1/2-y,1/2+z
loop_
_atom_site_type_symbol
_atom_site_label
_atom_site_fract_x
_atom_site_fract_y
_atom_site_fract_z
Si Si1 0.346187 0.786692 0.633214
Si Si2 0.581124 0.034078 0.184721
Si Si3 0.914259 0.099937 0.140741
Si Si4 0.269672 0.043341 0.647317
Si Si5 0.029782 0.351411 0.916824
Si Si6 0.024687 0.194095 0.293541
O O1 0.325129 0.938366 0.622135
O O2 0.258833 0.688049 0.766217
O O3 0.385413 0.797470 0.658860
O O4 0.428021 0.715887 0.470210
O O5 0.500000 0.080525 0.250000
O O6 0.563420 0.116273 0.286742
O O7 0.568801 0.855793 0.214311
O O8 0.671487 0.068175 0.010841
O O9 0.822140 0.036323 0.244317
O O10 0.915472 0.121062 0.228493
O O11 0.944657 0.246868 0.052773
O O12 0.000000 0.000000 0.000000
O O13 0.000000 0.500000 0.000000
O O14 0.000000 0.121455 0.250000
#
# Coordination Sequence:
#
# PCOD9308844 Si02
#       6
#     8   8   8   8   8   8
#     4  11  24  42  66  96 129 171 211 266 318 391
#     4  11  22  41  66  96 127 171 219 264 308 390
#     4  11  23  43  65  95 132 166 208 271 320 374
#     4  12  25  42  68  95 132 165 221 266 321 377
#     4  11  21  43  69  89 127 178 211 252 329 387
#     4  10  19  43  65  90 127 165 215 260 311 378
#
# _framework density 9.8765429999999999
#
# number of rings (size 3 to 8) (size 9 to 14) (size 15 to 20)
#    0.000    1.000   10.000    0.000    4.667    1.333 
#    3.000    0.833    0.000    0.000    0.000    0.000 
#    0.000    0.000    0.000    0.000    0.000    0.000 
#
# Total GULP energy -133788.525670 kJ/mol
# GULP energy per Si atom -5574.521903 kJ/mol
# Density = 0.985406 g / cm^3
# Si number density = 9.876543 Si / 1000 Ang^3
#
#
#
# Elastic Constant Matrix: (Units=GPa)
#
#
# Indices 1 2 3 4 5 6 
#
# 1 45.8621 -8.0871 -22.0222 0.0003 -3.4410 -0.0004
# 2 -8.0871 35.1051 14.7065 -0.0001 7.0134 -0.0003
# 3 -22.0222 14.7065 66.3997 0.0004 -8.2150 -0.0005
# 4 0.0003 -0.0001 0.0004 18.0896 0.0001 14.7778
# 5 -3.4410 7.0134 -8.2150 0.0001 26.5490 -0.0001
# 6 -0.0004 -0.0003 -0.0005 14.7778 -0.0001 16.6355
#
#
#
# Elastic Compliance Matrix: (Units=1/GPa)
#
#
# Indices 1 2 3 4 5 6 
#
# 1 0.027006 0.001010 0.009497 -0.000006 0.006172 0.000006
# 2 0.001010 0.034769 -0.008824 0.000001 -0.011785 -0.000001
# 3 0.009497 -0.008824 0.021425 -0.000005 0.010192 0.000006
# 4 -0.000006 0.000001 -0.000005 0.201531 -0.000004 -0.179027
# 5 0.006172 -0.011785 0.010192 -0.000004 0.044733 0.000004
# 6 0.000006 -0.000001 0.000006 -0.179027 0.000004 0.219148
#
#
# Mechanical properties :
#
#
# Convention : Reuss Voigt Hill
#
# Bulk Modulus (GPa) = 11.55191 12.95123 12.25157
# Shear Modulus (GPa) = 8.70925 23.10613 15.90769
#
# Velocity S-wave (km/s) = 2.10205 3.42387 2.84091
# Velocity P-wave (km/s) = 3.42817 4.71182 4.12029
#
# Compressibility (1/GPa) = 0.08656577
#
# Stress axis : x y z
#
# Youngs Moduli (GPa) = 37.02903 28.76087 46.67381
#
# Poissons Ratio (x) = -0.02904 -0.44325
# Poissons Ratio (y) = -0.03739 0.41185
# Poissons Ratio (z) = -0.35166 0.25378
#
# Static dielectric constant tensor:
#      x y z
#    x 1.281290 0.000040 0.069590 
#    y 0.000040 1.859550 0.000000 
#    z 0.069590 0.000000 1.780970 
# 
# From -- ./inp_files/208963.got.cif
#   From: 2010.05.17/outbox.ucp.g08.bks.cvg/sg15_105_cif.got.tgz:208963.got - 2010.06.11 12:40:34.
