data_PCOD9308292
_publ_section_title
;
Structure prediction by ZEFSAII (Michael W. Deem and Ramdas Pophale) SiO2 
 PCOD9308292
Probable space group: C 2/C
;
_chemical_formula_sum "Si O2"
_cell_formula_units_Z 28
_cell_length_a 17.061763
_cell_length_b 4.649755
_cell_length_c 15.502515
_cell_angle_alpha 90.000000
_cell_angle_beta 128.614450
_cell_angle_gamma 90.000000
_cell_volume 960.968243
_symmetry_space_group_name_H-M "C 2/C"
_symmetry_group_IT_number 15
_symmetry_cell_setting 'monoclinic'
loop_
_space_group_symop_operation_xyz
x,y,z
-x,y,1/2-z
-x,-y,-z
x,-y,1/2+z
1/2+x,1/2+y,z
1/2-x,1/2+y,1/2-z
1/2-x,1/2-y,-z
1/2+x,1/2-y,1/2+z
loop_
_atom_site_type_symbol
_atom_site_label
_atom_site_fract_x
_atom_site_fract_y
_atom_site_fract_z
Si Si1 0.000000 0.338122 0.250000
Si Si2 0.336039 0.449231 0.217026
Si Si3 0.218802 0.906034 0.069096
Si Si4 0.515011 0.779861 0.931038
O O1 0.980431 0.528812 0.152468
O O2 0.909198 0.125710 0.205434
O O3 0.240207 0.658785 0.156136
O O4 0.412552 0.400518 0.347717
O O5 0.296407 0.158307 0.147792
O O6 0.250000 0.750000 0.000000
O O7 0.111610 0.069067 0.995797
O O8 0.500000 0.000000 0.000000
#
# Coordination Sequence:
#
# PCOD9308292 Si02
#       4
#     4   8   8   8
#     4  12  26  54  92 132 192 240 322 398 488 584
#     4  12  28  51  90 134 181 247 323 388 473 606
#     4  12  28  52  96 135 181 255 316 394 503 581
#     4  12  31  59  95 140 196 250 321 418 488 574
#
# _framework density 29.137281999999999
#
# number of rings (size 3 to 8) (size 9 to 14) (size 15 to 20)
#    0.000    0.000    2.857    5.143    8.000    1.143 
#    5.143    0.000    6.286    0.000    0.000    0.000 
#    0.000    0.000    0.000    0.000    0.000    0.000 
#
# Total GULP energy -78608.188343 kJ/mol
# GULP energy per Si atom -5614.870596 kJ/mol
# Density = 2.907096 g / cm^3
# Si number density = 29.137282 Si / 1000 Ang^3
#
#
#
# Elastic Constant Matrix: (Units=GPa)
#
#
# Indices 1 2 3 4 5 6 
#
# 1 173.8528 86.9513 125.3594 0.0001 24.2122 0.0008
# 2 86.9513 244.1606 120.5660 0.0004 17.9550 0.0051
# 3 125.3594 120.5660 244.1739 0.0002 22.7746 0.0005
# 4 0.0001 0.0004 0.0002 102.4071 0.0001 15.5930
# 5 24.2122 17.9550 22.7746 0.0001 71.1619 -0.0001
# 6 0.0008 0.0051 0.0005 15.5930 -0.0001 75.0278
#
#
#
# Elastic Compliance Matrix: (Units=1/GPa)
#
#
# Indices 1 2 3 4 5 6 
#
# 1 0.009603 -0.001244 -0.004165 0.000000 -0.001621 0.000000
# 2 -0.001244 0.005597 -0.002095 0.000000 -0.000318 0.000000
# 3 -0.004165 -0.002095 0.007305 0.000000 -0.000392 0.000000
# 4 0.000000 0.000000 0.000000 0.010084 0.000000 -0.002096
# 5 -0.001621 -0.000318 -0.000392 0.000000 0.014810 0.000000
# 6 0.000000 0.000000 0.000000 -0.002096 0.000000 0.013764
#
#
# Mechanical properties :
#
#
# Convention : Reuss Voigt Hill
#
# Bulk Modulus (GPa) = 133.39540 147.54896 140.47218
# Shear Modulus (GPa) = 63.55778 71.67340 67.61559
#
# Velocity S-wave (km/s) = 4.67553 4.96507 4.82247
# Velocity P-wave (km/s) = 8.66190 9.14431 8.90637
#
# Compressibility (1/GPa) = 0.00749651
#
# Stress axis : x y z
#
# Youngs Moduli (GPa) = 104.13453 178.67784 136.89891
#
# Poissons Ratio (x) = 0.22230 0.57014
# Poissons Ratio (y) = 0.12956 0.28681
# Poissons Ratio (z) = 0.43369 0.37434
#
# Static dielectric constant tensor:
#      x y z
#    x 2.393870 0.000000 -0.006390 
#    y 0.000000 2.259380 0.000000 
#    z -0.006390 0.000000 2.414330 
# 
# From -- ./inp_files/164821.got.cif
#   From: 2010.05.17/outbox.cif.g08.bks.cpg/sg15_83_cif.got.tgz:164821.got - 2010.06.03 18:47:42.
