data_PCOD9308416
_publ_section_title
;
Structure prediction by ZEFSAII (Michael W. Deem and Ramdas Pophale) SiO2 
 PCOD9308416
Probable space group: C 2/C
;
_chemical_formula_sum "Si O2"
_cell_formula_units_Z 32
_cell_length_a 18.767474
_cell_length_b 4.915242
_cell_length_c 13.611877
_cell_angle_alpha 90.000000
_cell_angle_beta 79.435265
_cell_angle_gamma 90.000000
_cell_volume 1234.365109
_symmetry_space_group_name_H-M "C 2/C"
_symmetry_group_IT_number 15
_symmetry_cell_setting 'monoclinic'
loop_
_space_group_symop_operation_xyz
x,y,z
-x,y,1/2-z
-x,-y,-z
x,-y,1/2+z
1/2+x,1/2+y,z
1/2-x,1/2+y,1/2-z
1/2-x,1/2-y,-z
1/2+x,1/2-y,1/2+z
loop_
_atom_site_type_symbol
_atom_site_label
_atom_site_fract_x
_atom_site_fract_y
_atom_site_fract_z
Si Si1 0.900455 0.801028 0.865920
Si Si2 0.231703 0.459617 0.592397
Si Si3 0.647849 0.352769 0.290443
Si Si4 0.492980 0.173572 0.402542
O O1 0.824967 0.689650 0.929963
O O2 0.951059 0.541628 0.847652
O O3 0.879546 0.884941 0.761555
O O4 0.943321 0.050221 0.909095
O O5 0.250000 0.250000 0.500000
O O6 0.299962 0.581349 0.632688
O O7 0.190559 0.304729 0.693153
O O8 0.573930 0.229870 0.349101
O O9 0.500000 0.000000 0.500000
#
# Coordination Sequence:
#
# PCOD9308416 Si02
#       4
#     8   8   8   8
#     4  12  28  56  87 130 178 244 301 384 447 553
#     4  12  30  56  91 135 185 247 307 382 472 553
#     4  12  29  55  92 130 189 232 314 375 459 547
#     4  12  31  54  89 133 181 239 308 377 470 543
#
# _framework density 25.924258999999999
#
# number of rings (size 3 to 8) (size 9 to 14) (size 15 to 20)
#    0.000    0.000    5.000    1.500   10.500    5.000 
#    0.000    3.750    0.000    0.000    0.000    0.000 
#    0.000    0.000    0.000    0.000    0.000    0.000 
#
# Total GULP energy -89719.679433 kJ/mol
# GULP energy per Si atom -5607.479965 kJ/mol
# Density = 2.586525 g / cm^3
# Si number density = 25.924259 Si / 1000 Ang^3
#
#
#
# Elastic Constant Matrix: (Units=GPa)
#
#
# Indices 1 2 3 4 5 6 
#
# 1 274.7755 130.9822 126.0134 0.0000 13.1316 0.0000
# 2 130.9822 201.3168 94.6804 0.0000 -5.2310 0.0000
# 3 126.0134 94.6804 207.4054 0.0000 -3.5295 0.0000
# 4 0.0000 0.0000 0.0000 54.8844 0.0000 -10.9829
# 5 13.1316 -5.2310 -3.5295 0.0000 35.7347 0.0000
# 6 0.0000 0.0000 0.0000 -10.9829 0.0000 19.6892
#
#
#
# Elastic Compliance Matrix: (Units=1/GPa)
#
#
# Indices 1 2 3 4 5 6 
#
# 1 0.006410 -0.003048 -0.002555 0.000000 -0.003054 0.000000
# 2 -0.003048 0.007790 -0.001668 0.000000 0.002096 0.000000
# 3 -0.002555 -0.001668 0.007159 0.000000 0.001402 0.000000
# 4 0.000000 0.000000 0.000000 0.020509 0.000000 0.011440
# 5 -0.003054 0.002096 0.001402 0.000000 0.029552 0.000000
# 6 0.000000 0.000000 0.000000 0.011440 0.000000 0.057171
#
#
# Mechanical properties :
#
#
# Convention : Reuss Voigt Hill
#
# Bulk Modulus (GPa) = 146.71673 154.09442 150.40558
# Shear Modulus (GPa) = 34.38646 44.18310 39.28478
#
# Velocity S-wave (km/s) = 3.64596 4.13281 3.89700
# Velocity P-wave (km/s) = 8.62793 9.07429 8.85393
#
# Compressibility (1/GPa) = 0.00681586
#
# Stress axis : x y z
#
# Youngs Moduli (GPa) = 156.00271 128.37533 139.67966
#
# Poissons Ratio (x) = 0.39133 0.35689
# Poissons Ratio (y) = 0.47555 0.23302
# Poissons Ratio (z) = 0.39859 0.21416
#
# Static dielectric constant tensor:
#      x y z
#    x 2.151190 0.000000 -0.038540 
#    y 0.000000 1.852560 0.000000 
#    z -0.038540 0.000000 2.136420 
# 
# From -- ./inp_files/109054.got.cif
#   From: 2010.05.17/outbox.cif.g08.bks.cpg/sg15_55_cif.got.tgz:109054.got - 2010.06.03 18:47:42.
