data_PCOD9308204
_publ_section_title
;
Structure prediction by ZEFSAII (Michael W. Deem and Ramdas Pophale) SiO2 
 PCOD9308204
Probable space group: C 2/C
;
_chemical_formula_sum "Si O2"
_cell_formula_units_Z 36
_cell_length_a 17.063800
_cell_length_b 18.430448
_cell_length_c 12.282760
_cell_angle_alpha 90.000000
_cell_angle_beta 22.714355
_cell_angle_gamma 90.000000
_cell_volume 1491.589143
_symmetry_space_group_name_H-M "C 2/C"
_symmetry_group_IT_number 15
_symmetry_cell_setting 'monoclinic'
loop_
_space_group_symop_operation_xyz
x,y,z
-x,y,1/2-z
-x,-y,-z
x,-y,1/2+z
1/2+x,1/2+y,z
1/2-x,1/2+y,1/2-z
1/2-x,1/2-y,-z
1/2+x,1/2-y,1/2+z
loop_
_atom_site_type_symbol
_atom_site_label
_atom_site_fract_x
_atom_site_fract_y
_atom_site_fract_z
Si Si1 0.783641 0.964900 0.071875
Si Si2 0.183898 0.097357 0.329363
Si Si3 0.306981 0.346087 0.207363
Si Si4 0.000000 0.577521 0.750000
Si Si5 0.865569 0.708801 0.255387
O O1 0.949575 0.900125 0.094288
O O2 0.628566 0.967598 0.172095
O O3 0.741745 0.019482 0.223696
O O4 0.000000 0.987619 0.750000
O O5 0.222767 0.151128 0.379450
O O6 0.800281 0.116721 0.597732
O O7 0.329489 0.118399 0.041123
O O8 0.412418 0.269477 0.102615
O O9 0.070418 0.329997 0.532937
O O10 0.750000 0.750000 0.500000
#
# Coordination Sequence:
#
# PCOD9308204 Si02
#       5
#     8   8   8   4   8
#     4  12  28  48  78 116 156 209 271 332 402 478
#     4  12  28  49  79 118 155 212 269 330 403 477
#     4  12  26  49  74 115 156 201 263 325 405 472
#     4  12  26  50  74 112 160 208 268 324 404 478
#     4  12  28  48  79 117 156 206 267 326 406 477
#
# _framework density 24.135331000000001
#
# number of rings (size 3 to 8) (size 9 to 14) (size 15 to 20)
#    0.000    0.000    6.667    2.000    3.111    0.000 
#    2.000    3.333    0.000    0.000    0.000    0.000 
#    0.000    0.000    0.000    0.000    0.000    0.000 
#
# Total GULP energy -100622.537841 kJ/mol
# GULP energy per Si atom -5590.140991 kJ/mol
# Density = 2.408040 g / cm^3
# Si number density = 24.135331 Si / 1000 Ang^3
#
#
#
# Elastic Constant Matrix: (Units=GPa)
#
#
# Indices 1 2 3 4 5 6 
#
# 1 180.8658 53.5478 89.9159 -0.0178 -47.4384 0.0132
# 2 53.5478 71.7243 19.9669 0.0011 1.5845 0.0164
# 3 89.9159 19.9669 138.4172 -0.0046 -8.0613 0.0398
# 4 -0.0178 0.0011 -0.0046 33.6010 0.0067 6.6439
# 5 -47.4384 1.5845 -8.0613 0.0067 54.3556 -0.0171
# 6 0.0132 0.0164 0.0398 6.6439 -0.0171 47.5967
#
#
#
# Elastic Compliance Matrix: (Units=1/GPa)
#
#
# Indices 1 2 3 4 5 6 
#
# 1 0.015916 -0.009898 -0.008156 0.000003 0.012969 0.000010
# 2 -0.009898 0.020711 0.002929 -0.000002 -0.008808 -0.000010
# 3 -0.008156 0.002929 0.011782 0.000000 -0.005456 -0.000011
# 4 0.000003 -0.000002 0.000000 0.030606 -0.000002 -0.004272
# 5 0.012969 -0.008808 -0.005456 -0.000002 0.029164 0.000015
# 6 0.000010 -0.000010 -0.000011 -0.004272 0.000015 0.021606
#
#
# Mechanical properties :
#
#
# Convention : Reuss Voigt Hill
#
# Bulk Modulus (GPa) = 55.06669 79.76316 67.41493
# Shear Modulus (GPa) = 30.10460 42.28244 36.19352
#
# Velocity S-wave (km/s) = 3.53558 4.19010 3.87668
# Velocity P-wave (km/s) = 6.28748 7.51860 6.93043
#
# Compressibility (1/GPa) = 0.01815980
#
# Stress axis : x y z
#
# Youngs Moduli (GPa) = 62.83106 48.28288 84.87404
#
# Poissons Ratio (x) = 0.47792 0.69221
# Poissons Ratio (y) = 0.62193 -0.24863
# Poissons Ratio (z) = 0.51243 -0.14144
#
# Static dielectric constant tensor:
#      x y z
#    x 1.926800 -0.000040 0.005350 
#    y -0.000040 1.966120 -0.000020 
#    z 0.005350 -0.000020 1.925700 
# 
# From -- ./inp_files/168942.got.cif
#   From: 2010.05.17/outbox.cif.g08.bks.cpg/sg15_85_cif.got.tgz:168942.got - 2010.06.03 18:47:42.
