data_PCOD9308450
_publ_section_title
;
Structure prediction by ZEFSAII (Michael W. Deem and Ramdas Pophale) SiO2 
 PCOD9308450
Probable space group: C 2/C
;
_chemical_formula_sum "Si O2"
_cell_formula_units_Z 48
_cell_length_a 6.772129
_cell_length_b 32.452065
_cell_length_c 11.617424
_cell_angle_alpha 90.000000
_cell_angle_beta 45.619024
_cell_angle_gamma 90.000000
_cell_volume 1824.753435
_symmetry_space_group_name_H-M "C 2/C"
_symmetry_group_IT_number 15
_symmetry_cell_setting 'monoclinic'
loop_
_space_group_symop_operation_xyz
x,y,z
-x,y,1/2-z
-x,-y,-z
x,-y,1/2+z
1/2+x,1/2+y,z
1/2-x,1/2+y,1/2-z
1/2-x,1/2-y,-z
1/2+x,1/2-y,1/2+z
loop_
_atom_site_type_symbol
_atom_site_label
_atom_site_fract_x
_atom_site_fract_y
_atom_site_fract_z
Si Si1 0.279496 0.233571 0.212772
Si Si2 0.797634 0.338972 0.560426
Si Si3 0.511699 0.312391 0.032606
Si Si4 0.227096 0.899628 0.942822
Si Si5 0.725684 0.573090 0.060284
Si Si6 0.289284 0.988223 0.939845
O O1 0.435427 0.198724 0.072345
O O2 0.206318 0.212676 0.363280
O O3 0.000000 0.239424 0.250000
O O4 0.412781 0.278084 0.160578
O O5 0.500000 0.343826 0.750000
O O6 0.734570 0.325168 0.456479
O O7 0.901617 0.385926 0.519254
O O8 0.636406 0.355150 0.026375
O O9 0.500000 0.893007 0.750000
O O10 0.263857 0.941964 0.999222
O O11 0.967104 0.911759 0.966510
O O12 0.500000 0.563802 0.250000
O O13 0.866059 0.529573 0.976735
O O14 0.500000 0.983268 0.750000
O O15 0.000000 0.000000 0.000000
#
# Coordination Sequence:
#
# PCOD9308450 Si02
#       6
#     8   8   8   8   8   8
#     4   9  15  26  44  71  99 123 157 211 260 296
#     4   7  12  23  41  67  98 124 150 192 256 315
#     4   9  16  27  45  64  89 129 166 196 243 301
#     4   9  18  34  51  67  99 145 174 196 252 330
#     4   9  16  30  55  82 100 126 174 222 259 306
#     4   9  18  34  53  75 105 139 174 213 263 322
#
# _framework density 26.304922999999999
#
# number of rings (size 3 to 8) (size 9 to 14) (size 15 to 20)
#    0.000    3.667    0.000    3.000    0.000    0.000 
#    0.000   20.833    0.000    4.000    0.000    0.000 
#    0.000    0.000    0.000    0.000    0.000    0.000 
#
# Total GULP energy -134109.163363 kJ/mol
# GULP energy per Si atom -5587.881807 kJ/mol
# Density = 2.624505 g / cm^3
# Si number density = 26.304923 Si / 1000 Ang^3
#
#
#
# Elastic Constant Matrix: (Units=GPa)
#
#
# Indices 1 2 3 4 5 6 
#
# 1 98.0971 67.0892 15.9145 0.0000 -0.4067 0.0000
# 2 67.0892 346.6701 52.1721 0.0000 4.7777 0.0000
# 3 15.9145 52.1721 33.0520 0.0000 -0.7418 0.0000
# 4 0.0000 0.0000 0.0000 52.3002 0.0000 -4.2630
# 5 -0.4067 4.7777 -0.7418 0.0000 23.6115 0.0000
# 6 0.0000 0.0000 0.0000 -4.2630 0.0000 56.6811
#
#
#
# Elastic Compliance Matrix: (Units=1/GPa)
#
#
# Indices 1 2 3 4 5 6 
#
# 1 0.011943 -0.001908 -0.002728 0.000000 0.000506 0.000000
# 2 -0.001908 0.004110 -0.005592 0.000000 -0.001040 0.000000
# 3 -0.002728 -0.005592 0.040448 0.000000 0.002355 0.000000
# 4 0.000000 0.000000 0.000000 0.019238 0.000000 0.001447
# 5 0.000506 -0.001040 0.002355 0.000000 0.042645 0.000000
# 6 0.000000 0.000000 0.000000 0.001447 0.000000 0.017751
#
#
# Mechanical properties :
#
#
# Convention : Reuss Voigt Hill
#
# Bulk Modulus (GPa) = 27.74218 83.13011 55.43615
# Shear Modulus (GPa) = 29.65479 49.36147 39.50813
#
# Velocity S-wave (km/s) = 3.36124 4.33657 3.87968
# Velocity P-wave (km/s) = 5.06293 7.53296 6.41790
#
# Compressibility (1/GPa) = 0.03604619
#
# Stress axis : x y z
#
# Youngs Moduli (GPa) = 83.72837 243.32948 24.72295
#
# Poissons Ratio (x) = 0.46421 0.06744
# Poissons Ratio (y) = 0.15973 0.13825
# Poissons Ratio (z) = 0.22841 1.36064
#
# Static dielectric constant tensor:
#      x y z
#    x 2.350930 0.000000 -0.047080 
#    y 0.000000 2.094210 0.000000 
#    z -0.047080 0.000000 2.010220 
# 
# From -- ./inp_files/201314.got.cif
#   From: 2010.05.17/outbox.cif.g08.bks.cpg/sg15_101_cif.got.tgz:201314.got - 2010.06.03 18:47:42.
