data_PCOD9308792
_publ_section_title
;
Structure prediction by ZEFSAII (Michael W. Deem and Ramdas Pophale) SiO2 
 PCOD9308792
Probable space group: C 2/C
;
_chemical_formula_sum "Si O2"
_cell_formula_units_Z 24
_cell_length_a 12.000000
_cell_length_b 21.000000
_cell_length_c 27.000000
_cell_angle_alpha 90.000000
_cell_angle_beta 160.000000
_cell_angle_gamma 90.000000
_cell_volume 2327.105055
_symmetry_space_group_name_H-M "C 2/C"
_symmetry_group_IT_number 15
_symmetry_cell_setting 'monoclinic'
loop_
_space_group_symop_operation_xyz
x,y,z
-x,y,1/2-z
-x,-y,-z
x,-y,1/2+z
1/2+x,1/2+y,z
1/2-x,1/2+y,1/2-z
1/2-x,1/2-y,-z
1/2+x,1/2-y,1/2+z
loop_
_atom_site_type_symbol
_atom_site_label
_atom_site_fract_x
_atom_site_fract_y
_atom_site_fract_z
Si Si1 0.818611 0.706953 0.780117
Si Si2 0.657588 0.533347 0.465765
Si Si3 0.842666 0.830943 0.578367
Si Si4 0.732834 0.349724 0.390558
Si Si5 0.116578 0.458233 0.594884
Si Si6 0.099216 0.425850 0.235280
O O1 0.504686 0.701755 0.684543
O O2 0.783381 0.645806 0.729854
O O3 0.879413 0.780371 0.791086
O O4 0.150224 0.689197 0.948213
O O5 0.568375 0.595137 0.394569
O O6 0.378855 0.480059 0.346522
O O7 0.998447 0.502054 0.590032
O O8 0.773315 0.557823 0.567552
O O9 0.557078 0.825988 0.499386
O O10 0.500000 0.380695 0.250000
O O11 0.880920 0.397441 0.492654
O O12 0.500000 0.444624 0.750000
O O13 0.000000 0.500000 0.500000
O O14 0.000000 0.425635 0.250000
#
# Coordination Sequence:
#
# PCOD9308792 Si02
#       6
#     8   8   8   8   8   8
#     4   9  19  38  61  90 122 169 210 264 315 384
#     4  11  22  38  63  96 128 167 217 269 324 386
#     4   9  19  35  63  93 125 162 212 260 321 392
#     4  10  19  36  63  93 127 161 208 257 327 386
#     4  12  22  33  60  99 130 156 196 259 329 389
#     4  11  23  41  64  88 128 174 220 268 320 382
#
# _framework density 10.313243
#
# number of rings (size 3 to 8) (size 9 to 14) (size 15 to 20)
#    0.000    1.667    3.333    2.000    2.333    0.000 
#    0.000    8.333    0.000    3.000    0.000    0.000 
#    0.000    0.000    0.000    0.000    0.000    0.000 
#
# Total GULP energy -133669.606289 kJ/mol
# GULP energy per Si atom -5569.566929 kJ/mol
# Density = 1.028977 g / cm^3
# Si number density = 10.313243 Si / 1000 Ang^3
#
#
#
# Elastic Constant Matrix: (Units=GPa)
#
#
# Indices 1 2 3 4 5 6 
#
# 1 89.2904 65.4280 40.0286 0.0129 6.8828 -0.0001
# 2 65.4280 152.9683 62.1226 -0.0115 25.1697 -0.0117
# 3 40.0286 62.1226 79.9978 0.0679 12.0259 -0.0109
# 4 0.0129 -0.0115 0.0679 38.8100 -0.0062 6.5113
# 5 6.8828 25.1697 12.0259 -0.0062 24.5796 -0.0013
# 6 -0.0001 -0.0117 -0.0109 6.5113 -0.0013 8.0590
#
#
#
# Elastic Compliance Matrix: (Units=1/GPa)
#
#
# Indices 1 2 3 4 5 6 
#
# 1 0.017519 -0.006307 -0.004427 0.000003 0.003719 -0.000017
# 2 -0.006307 0.012941 -0.005577 0.000015 -0.008757 -0.000002
# 3 -0.004427 -0.005577 0.019431 -0.000043 -0.002556 0.000053
# 4 0.000003 0.000015 -0.000043 0.029807 0.000011 -0.024083
# 5 0.003719 -0.008757 -0.002556 0.000011 0.049860 -0.000017
# 6 -0.000017 -0.000002 0.000053 -0.024083 -0.000017 0.143543
#
#
# Mechanical properties :
#
#
# Convention : Reuss Voigt Hill
#
# Bulk Modulus (GPa) = 57.91111 73.04609 65.47860
# Shear Modulus (GPa) = 16.05239 24.60153 20.32696
#
# Velocity S-wave (km/s) = 2.79272 3.45732 3.14264
# Velocity P-wave (km/s) = 6.20775 7.17133 6.70687
#
# Compressibility (1/GPa) = 0.01726784
#
# Stress axis : x y z
#
# Youngs Moduli (GPa) = 57.08029 77.27512 51.46525
#
# Poissons Ratio (x) = 0.48740 0.22785
# Poissons Ratio (y) = 0.36003 0.28701
# Poissons Ratio (z) = 0.25271 0.43095
#
# Static dielectric constant tensor:
#      x y z
#    x 1.779440 0.000050 -0.005370 
#    y 0.000050 1.843480 -0.000050 
#    z -0.005370 -0.000050 1.689680 
# 
# From -- ./inp_files/293829.got.cif
#   From: 2010.05.17/outbox.ucp.g08.bks.cvg/sg15_147_cif.got.tgz:293829.got - 2010.06.11 12:40:34.
