data_PCOD9308506
_publ_section_title
;
Structure prediction by ZEFSAII (Michael W. Deem and Ramdas Pophale) SiO2 
 PCOD9308506
Probable space group: C 2/C
;
_chemical_formula_sum "Si O2"
_cell_formula_units_Z 40
_cell_length_a 32.487168
_cell_length_b 7.400772
_cell_length_c 9.318168
_cell_angle_alpha 90.000000
_cell_angle_beta 45.728115
_cell_angle_gamma 90.000000
_cell_volume 1604.182907
_symmetry_space_group_name_H-M "C 2/C"
_symmetry_group_IT_number 15
_symmetry_cell_setting 'monoclinic'
loop_
_space_group_symop_operation_xyz
x,y,z
-x,y,1/2-z
-x,-y,-z
x,-y,1/2+z
1/2+x,1/2+y,z
1/2-x,1/2+y,1/2-z
1/2-x,1/2-y,-z
1/2+x,1/2-y,1/2+z
loop_
_atom_site_type_symbol
_atom_site_label
_atom_site_fract_x
_atom_site_fract_y
_atom_site_fract_z
Si Si1 0.481529 0.267116 0.944927
Si Si2 0.751271 0.674294 0.288492
Si Si3 0.552522 0.148930 0.022496
Si Si4 0.623859 0.739023 0.607825
Si Si5 0.295628 0.001048 0.941984
O O1 0.500000 0.356014 0.750000
O O2 0.458348 0.065616 0.963358
O O3 0.538121 0.235802 0.904439
O O4 0.428884 0.341848 0.170485
O O5 0.683329 0.630076 0.455903
O O6 0.752025 0.864057 0.371175
O O7 0.780064 0.681989 0.062556
O O8 0.787716 0.532852 0.294625
O O9 0.500000 0.212190 0.250000
O O10 0.605869 0.208270 0.989631
O O11 0.645077 0.920047 0.641823
#
# Coordination Sequence:
#
# PCOD9308506 Si02
#       5
#     8   8   8   8   8
#     4   9  16  28  45  76 107 131 171 219 266 321
#     4   9  20  37  53  77 110 144 185 226 265 319
#     4   8  15  27  43  72 104 135 173 215 267 324
#     4   9  18  30  51  72 109 143 166 218 275 308
#     4   9  20  36  52  79 113 141 186 227 258 326
#
# _framework density 24.934812999999998
#
# number of rings (size 3 to 8) (size 9 to 14) (size 15 to 20)
#    1.200    2.000    0.000    1.200    2.800    0.800 
#    0.000    2.000    0.000    0.000    0.000   18.200 
#    0.000    1.600    0.000    0.000    0.000    0.000 
#
# Total GULP energy -111398.425033 kJ/mol
# GULP energy per Si atom -5569.921252 kJ/mol
# Density = 2.487806 g / cm^3
# Si number density = 24.934813 Si / 1000 Ang^3
#
#
#
# Elastic Constant Matrix: (Units=GPa)
#
#
# Indices 1 2 3 4 5 6 
#
# 1 142.8840 -0.3281 57.9720 0.0000 14.9309 0.0000
# 2 -0.3281 50.9195 9.0661 0.0000 -3.6926 0.0000
# 3 57.9720 9.0661 96.0639 0.0000 6.5466 0.0000
# 4 0.0000 0.0000 0.0000 -3.7455 0.0000 7.7358
# 5 14.9309 -3.6926 6.5466 0.0000 47.1693 0.0000
# 6 0.0000 0.0000 0.0000 7.7358 0.0000 17.9199
#
#
#
# Elastic Compliance Matrix: (Units=1/GPa)
#
#
# Indices 1 2 3 4 5 6 
#
# 1 0.009537 0.000919 -0.005695 0.000000 -0.002156 0.000000
# 2 0.000919 0.020223 -0.002576 0.000000 0.001650 0.000000
# 3 -0.005695 -0.002576 0.014114 0.000000 -0.000358 0.000000
# 4 0.000000 0.000000 0.000000 -0.141144 0.000000 0.060930
# 5 -0.002156 0.001650 -0.000358 0.000000 0.022062 0.000000
# 6 0.000000 0.000000 0.000000 0.060930 0.000000 0.029501
#
#
# Mechanical properties :
#
#
# Convention : Reuss Voigt Hill
#
# Bulk Modulus (GPa) = 34.28100 47.03192 40.65646
# Shear Modulus (GPa) = -234.94575 27.14591 -103.89992
#
# Velocity S-wave (km/s) = -9.71743 3.30309 -6.46213
# Velocity P-wave (km/s) = 10.58899 5.78360 6.27202
#
# Compressibility (1/GPa) = 0.02917068
#
# Stress axis : x y z
#
# Youngs Moduli (GPa) = 104.85778 49.44868 70.85193
#
# Poissons Ratio (x) = -0.04545 0.40350
# Poissons Ratio (y) = -0.09637 0.18249
# Poissons Ratio (z) = 0.59716 0.12736
#
# Static dielectric constant tensor:
#      x y z
#    x 2.041110 0.000000 0.034680 
#    y 0.000000 2.056760 0.000000 
#    z 0.034680 0.000000 2.036950 
# 
# From -- ./inp_files/64828.got.cif
#   From: 2010.05.17/outbox.cif.g08.bks.cpg/sg15_33_cif.got.tgz:64828.got - 2010.06.03 18:47:42.
