data_PCOD9308857
_publ_section_title
;
Structure prediction by ZEFSAII (Michael W. Deem and Ramdas Pophale) SiO2 
 PCOD9308857
Probable space group: C 2/C
;
_chemical_formula_sum "Si O2"
_cell_formula_units_Z 30
_cell_length_a 18.000000
_cell_length_b 18.000000
_cell_length_c 30.000000
_cell_angle_alpha 90.000000
_cell_angle_beta 20.000000
_cell_angle_gamma 90.000000
_cell_volume 3324.435793
_symmetry_space_group_name_H-M "C 2/C"
_symmetry_group_IT_number 15
_symmetry_cell_setting 'monoclinic'
loop_
_space_group_symop_operation_xyz
x,y,z
-x,y,1/2-z
-x,-y,-z
x,-y,1/2+z
1/2+x,1/2+y,z
1/2-x,1/2+y,1/2-z
1/2-x,1/2-y,-z
1/2+x,1/2-y,1/2+z
loop_
_atom_site_type_symbol
_atom_site_label
_atom_site_fract_x
_atom_site_fract_y
_atom_site_fract_z
Si Si1 0.742263 0.192722 0.770659
Si Si2 0.113069 0.433184 0.283923
Si Si3 0.142838 0.836755 0.875764
Si Si4 0.948093 0.988563 0.977878
Si Si5 0.000000 0.445661 0.250000
Si Si6 0.892555 0.409524 0.909435
Si Si7 0.854856 0.806433 0.519050
Si Si8 0.415290 0.657445 0.845373
O O1 0.591469 0.131732 0.831953
O O2 0.616239 0.261809 0.862939
O O3 0.916943 0.214307 0.633367
O O4 0.887718 0.163759 0.730337
O O5 0.359260 0.464783 0.153064
O O6 0.085756 0.407089 0.247305
O O7 0.954814 0.503707 0.378661
O O8 0.381110 0.868344 0.729176
O O9 0.126814 0.824884 0.938570
O O10 0.982474 0.901193 0.949531
O O11 0.691384 0.997514 0.123906
O O12 0.000000 0.000000 0.000000
O O13 0.735883 0.374464 0.959626
O O14 0.774692 0.386407 0.021854
O O15 0.686994 0.738843 0.606703
O O16 0.500000 0.628137 0.750000
#
# Coordination Sequence:
#
# PCOD9308857 Si02
#       8
#     8   8   8   8   4   8   8   8
#     4  11  21  35  52  87 124 146 190 239 296 364
#     4  10  23  34  55  83 123 155 189 240 297 355
#     4  11  19  33  58  84 120 144 188 244 295 359
#     4   9  20  35  54  87 111 149 187 239 299 346
#     4  10  20  38  54  82 114 154 192 232 308 350
#     4  10  20  32  52  86 114 148 189 233 303 355
#     4  11  18  31  57  88 116 144 185 246 316 346
#     4  11  19  34  56  87 113 149 193 245 311 351
#
# _framework density 9.0240880000000008
#
# number of rings (size 3 to 8) (size 9 to 14) (size 15 to 20)
#    0.000    1.600    4.000    2.800    9.333    0.000 
#    0.000    1.333    0.000    0.000    1.733    0.000 
#    0.000    0.000    0.000    0.000    0.000    0.000 
#
# Total GULP energy -167054.609923 kJ/mol
# GULP energy per Si atom -5568.486997 kJ/mol
# Density = 0.900355 g / cm^3
# Si number density = 9.024088 Si / 1000 Ang^3
#
#
#
# Elastic Constant Matrix: (Units=GPa)
#
#
# Indices 1 2 3 4 5 6 
#
# 1 93.5792 46.4448 26.7443 -0.0091 22.6481 0.0000
# 2 46.4448 93.7023 23.3688 0.0673 9.8801 0.0000
# 3 26.7443 23.3688 77.9180 0.0120 18.8769 -0.0047
# 4 -0.0091 0.0673 0.0120 16.1755 0.0293 0.7524
# 5 22.6481 9.8801 18.8769 0.0293 36.4633 -0.0029
# 6 0.0000 0.0000 -0.0047 0.7524 -0.0029 29.7657
#
#
#
# Elastic Compliance Matrix: (Units=1/GPa)
#
#
# Indices 1 2 3 4 5 6 
#
# 1 0.016416 -0.006915 -0.001766 0.000053 -0.007408 -0.000002
# 2 -0.006915 0.014523 -0.002366 -0.000066 0.001585 0.000001
# 3 -0.001766 -0.002366 0.015697 0.000009 -0.006389 0.000002
# 4 0.000053 -0.000066 0.000009 0.061895 -0.000069 -0.001565
# 5 -0.007408 0.001585 -0.006389 -0.000069 0.034904 0.000004
# 6 -0.000002 0.000001 0.000002 -0.001565 0.000004 0.033635
#
#
# Mechanical properties :
#
#
# Convention : Reuss Voigt Hill
#
# Bulk Modulus (GPa) = 40.74646 50.92393 45.83520
# Shear Modulus (GPa) = 24.11432 27.72366 25.91899
#
# Velocity S-wave (km/s) = 3.65925 3.92355 3.79370
# Velocity P-wave (km/s) = 6.36231 6.98588 6.68137
#
# Compressibility (1/GPa) = 0.02454201
#
# Stress axis : x y z
#
# Youngs Moduli (GPa) = 60.91638 68.85748 63.70461
#
# Poissons Ratio (x) = 0.47617 0.11249
# Poissons Ratio (y) = 0.42126 0.15073
# Poissons Ratio (z) = 0.10756 0.16292
#
# Static dielectric constant tensor:
#      x y z
#    x 1.714660 -0.000050 -0.051390 
#    y -0.000050 1.689650 0.000100 
#    z -0.051390 0.000100 1.684380 
# 
# From -- ./inp_files/316629.got.cif
#   From: 2010.05.17/outbox.ucp.g08.bks.cvg/sg15_159_cif.got.tgz:316629.got - 2010.06.11 12:40:34.
