data_PCOD9308369
_publ_section_title
;
Structure prediction by ZEFSAII (Michael W. Deem and Ramdas Pophale) SiO2 
 PCOD9308369
Probable space group: C 2/C
;
_chemical_formula_sum "Si O2"
_cell_formula_units_Z 28
_cell_length_a 14.452543
_cell_length_b 13.402961
_cell_length_c 8.724793
_cell_angle_alpha 90.000000
_cell_angle_beta 140.986265
_cell_angle_gamma 90.000000
_cell_volume 1063.899226
_symmetry_space_group_name_H-M "C 2/C"
_symmetry_group_IT_number 15
_symmetry_cell_setting 'monoclinic'
loop_
_space_group_symop_operation_xyz
x,y,z
-x,y,1/2-z
-x,-y,-z
x,-y,1/2+z
1/2+x,1/2+y,z
1/2-x,1/2+y,1/2-z
1/2-x,1/2-y,-z
1/2+x,1/2-y,1/2+z
loop_
_atom_site_type_symbol
_atom_site_label
_atom_site_fract_x
_atom_site_fract_y
_atom_site_fract_z
Si Si1 0.310221 0.561470 0.782912
Si Si2 0.798292 0.862156 0.925567
Si Si3 0.500000 0.702155 0.250000
Si Si4 0.450801 0.821694 0.467677
O O1 0.339864 0.446398 0.855224
O O2 0.334221 0.593823 0.639092
O O3 0.139868 0.580150 0.607651
O O4 0.399814 0.632438 0.013971
O O5 0.624544 0.838625 0.698716
O O6 0.883122 0.761812 0.992996
O O7 0.416216 0.776863 0.256331
#
# Coordination Sequence:
#
# PCOD9308369 Si02
#       4
#     8   8   4   8
#     4  12  28  51  80 118 154 212 259 326 383 475
#     4  12  29  51  86 112 163 200 271 316 401 455
#     4  12  28  48  82 112 166 198 274 310 400 450
#     4  12  27  52  79 121 155 211 255 334 383 471
#
# _framework density 26.318280999999999
#
# number of rings (size 3 to 8) (size 9 to 14) (size 15 to 20)
#    0.000    0.000    2.857    5.143    8.000    4.571 
#    0.000    0.000    0.000    0.000    0.000    0.000 
#    0.000    0.000    0.000    0.000    0.000    0.000 
#
# Total GULP energy -78697.898521 kJ/mol
# GULP energy per Si atom -5621.278466 kJ/mol
# Density = 2.625838 g / cm^3
# Si number density = 26.318281 Si / 1000 Ang^3
#
#
#
# Elastic Constant Matrix: (Units=GPa)
#
#
# Indices 1 2 3 4 5 6 
#
# 1 124.0220 14.9704 53.3377 0.0000 -9.9226 0.0000
# 2 14.9704 101.0660 18.9113 0.0000 -7.3830 0.0000
# 3 53.3377 18.9113 131.8649 0.0000 -2.5323 0.0000
# 4 0.0000 0.0000 0.0000 29.8186 0.0000 0.3545
# 5 -9.9226 -7.3830 -2.5323 0.0000 53.9665 0.0000
# 6 0.0000 0.0000 0.0000 0.3545 0.0000 62.5870
#
#
#
# Elastic Compliance Matrix: (Units=1/GPa)
#
#
# Indices 1 2 3 4 5 6 
#
# 1 0.009941 -0.000629 -0.003901 0.000000 0.001559 0.000000
# 2 -0.000629 0.010302 -0.001199 0.000000 0.001238 0.000000
# 3 -0.003901 -0.001199 0.009325 0.000000 -0.000444 0.000000
# 4 0.000000 0.000000 0.000000 0.033538 0.000000 -0.000190
# 5 0.001559 0.001238 -0.000444 0.000000 0.018965 0.000000
# 6 0.000000 0.000000 0.000000 -0.000190 0.000000 0.015979
#
#
# Mechanical properties :
#
#
# Convention : Reuss Voigt Hill
#
# Bulk Modulus (GPa) = 55.21702 59.04352 57.13027
# Shear Modulus (GPa) = 43.27263 47.25665 45.26464
#
# Velocity S-wave (km/s) = 4.05928 4.24203 4.15166
# Velocity P-wave (km/s) = 6.55716 6.81735 6.68852
#
# Compressibility (1/GPa) = 0.01811036
#
# Stress axis : x y z
#
# Youngs Moduli (GPa) = 100.58926 97.06384 107.23913
#
# Poissons Ratio (x) = 0.06103 0.41835
# Poissons Ratio (y) = 0.06324 0.12863
# Poissons Ratio (z) = 0.39241 0.11642
#
# Static dielectric constant tensor:
#      x y z
#    x 2.042410 0.000000 0.021680 
#    y 0.000000 1.978150 0.000000 
#    z 0.021680 0.000000 2.094300 
# 
# From -- ./inp_files/27811.got.cif
#   From: 2010.05.17/outbox.cif.g08.bks.cpg/sg15_14_cif.got.tgz:27811.got - 2010.06.03 18:47:42.
