data_PCOD9308640
_publ_section_title
;
Structure prediction by ZEFSAII (Michael W. Deem and Ramdas Pophale) SiO2 
 PCOD9308640
Probable space group: C 2/C
;
_chemical_formula_sum "Si O2"
_cell_formula_units_Z 32
_cell_length_a 21.000000
_cell_length_b 15.000000
_cell_length_c 12.000000
_cell_angle_alpha 90.000000
_cell_angle_beta 110.000000
_cell_angle_gamma 90.000000
_cell_volume 3552.038107
_symmetry_space_group_name_H-M "C 2/C"
_symmetry_group_IT_number 15
_symmetry_cell_setting 'monoclinic'
loop_
_space_group_symop_operation_xyz
x,y,z
-x,y,1/2-z
-x,-y,-z
x,-y,1/2+z
1/2+x,1/2+y,z
1/2-x,1/2+y,1/2-z
1/2-x,1/2-y,-z
1/2+x,1/2-y,1/2+z
loop_
_atom_site_type_symbol
_atom_site_label
_atom_site_fract_x
_atom_site_fract_y
_atom_site_fract_z
Si Si1 0.280788 0.343775 0.244868
Si Si2 0.208568 0.349067 0.775568
Si Si3 0.134945 0.843967 0.556995
Si Si4 0.160396 0.020048 0.871126
Si Si5 0.309947 0.803112 0.103050
Si Si6 0.815164 0.538140 0.449162
Si Si7 0.921952 0.845891 0.741408
Si Si8 0.335648 0.152638 0.000615
O O1 0.313593 0.247570 0.284347
O O2 0.330304 0.423858 0.239800
O O3 0.227277 0.350522 0.313465
O O4 0.236602 0.333072 0.105025
O O5 0.290011 0.349864 0.841259
O O6 0.189623 0.424907 0.678214
O O7 0.175776 0.356831 0.875857
O O8 0.136583 0.913848 0.455858
O O9 0.083447 0.857629 0.627774
O O10 0.125504 0.743003 0.505686
O O11 0.237081 0.984065 0.939251
O O12 0.110547 0.936454 0.828830
O O13 0.369190 0.734473 0.176385
O O14 0.250000 0.750000 0.000000
O O15 0.338246 0.881916 0.042362
O O16 0.856774 0.446179 0.475195
O O17 0.000000 0.832094 0.750000
#
# Coordination Sequence:
#
# PCOD9308640 Si02
#       8
#     8   8   8   8   8   8   8   8
#     4  10  18  30  54  85 115 155 198 256 311 355
#     4  11  16  32  49  88 120 152 196 258 319 361
#     4  11  19  38  56  78 123 160 209 247 300 376
#     4  11  21  34  59  90 119 161 198 259 307 364
#     4  12  21  38  58  89 125 159 205 262 313 361
#     4  11  22  29  56  95 124 150 192 262 326 358
#     4  12  27  42  59  88 129 175 210 244 310 384
#     4  10  20  31  54  89 121 154 197 255 329 361
#
# _framework density 9.0089120000000005
#
# number of rings (size 3 to 8) (size 9 to 14) (size 15 to 20)
#    0.000    1.000   10.000    0.750    5.250    0.500 
#    0.000    0.000    0.000    0.750    0.000    0.875 
#    0.000    0.000    0.000    0.000    0.000    0.000 
#
# Total GULP energy -178395.732347 kJ/mol
# GULP energy per Si atom -5574.866636 kJ/mol
# Density = 0.898841 g / cm^3
# Si number density = 9.008912 Si / 1000 Ang^3
#
#
#
# Elastic Constant Matrix: (Units=GPa)
#
#
# Indices 1 2 3 4 5 6 
#
# 1 74.6173 28.1708 36.4761 0.0000 -17.0895 0.0000
# 2 28.1708 126.9485 46.0283 0.0000 -15.4425 0.0000
# 3 36.4761 46.0283 79.6432 0.0000 -31.1875 0.0000
# 4 0.0000 0.0000 0.0000 24.3377 0.0000 -6.6049
# 5 -17.0895 -15.4425 -31.1875 0.0000 26.9726 0.0000
# 6 0.0000 0.0000 0.0000 -6.6049 0.0000 18.9157
#
#
#
# Elastic Compliance Matrix: (Units=1/GPa)
#
#
# Indices 1 2 3 4 5 6 
#
# 1 0.017605 -0.001336 -0.005889 0.000000 0.003580 0.000000
# 2 -0.001336 0.010112 -0.006024 0.000000 -0.002023 0.000000
# 3 -0.005889 -0.006024 0.029098 0.000000 0.026465 0.000000
# 4 0.000000 0.000000 0.000000 0.045390 0.000000 0.015849
# 5 0.003580 -0.002023 0.026465 0.000000 0.068785 0.000000
# 6 0.000000 0.000000 0.000000 0.015849 0.000000 0.058400
#
#
# Mechanical properties :
#
#
# Convention : Reuss Voigt Hill
#
# Bulk Modulus (GPa) = 32.98505 55.83992 44.41248
# Shear Modulus (GPa) = 18.79746 25.41412 22.10579
#
# Velocity S-wave (km/s) = 3.23347 3.75974 3.50649
# Velocity P-wave (km/s) = 5.68217 7.06444 6.41067
#
# Compressibility (1/GPa) = 0.03031677
#
# Stress axis : x y z
#
# Youngs Moduli (GPa) = 56.80278 98.89416 34.36671
#
# Poissons Ratio (x) = 0.13212 0.20238
# Poissons Ratio (y) = 0.07589 0.20703
# Poissons Ratio (z) = 0.33450 0.59575
#
# Static dielectric constant tensor:
#      x y z
#    x 1.600750 0.000000 -0.033050 
#    y 0.000000 1.703770 0.000000 
#    z -0.033050 0.000000 1.658950 
# 
# From -- ./inp_files/112749.got.cif
#   From: 2010.05.17/outbox.ucp.g08.bks.cvg/sg15_57_cif.got.tgz:112749.got - 2010.06.11 12:40:34.
