data_PCOD9308607
_publ_section_title
;
Structure prediction by ZEFSAII (Michael W. Deem and Ramdas Pophale) SiO2 
 PCOD9308607
Probable space group: C 2/C
;
_chemical_formula_sum "Si O2"
_cell_formula_units_Z 24
_cell_length_a 18.000000
_cell_length_b 18.000000
_cell_length_c 9.000000
_cell_angle_alpha 90.000000
_cell_angle_beta 60.000000
_cell_angle_gamma 90.000000
_cell_volume 2525.330077
_symmetry_space_group_name_H-M "C 2/C"
_symmetry_group_IT_number 15
_symmetry_cell_setting 'monoclinic'
loop_
_space_group_symop_operation_xyz
x,y,z
-x,y,1/2-z
-x,-y,-z
x,-y,1/2+z
1/2+x,1/2+y,z
1/2-x,1/2+y,1/2-z
1/2-x,1/2-y,-z
1/2+x,1/2-y,1/2+z
loop_
_atom_site_type_symbol
_atom_site_label
_atom_site_fract_x
_atom_site_fract_y
_atom_site_fract_z
Si Si1 0.500000 0.680734 0.750000
Si Si2 0.067742 0.539228 0.318855
Si Si3 0.126088 0.849323 0.382557
Si Si4 0.188643 0.391887 0.183646
Si Si5 0.500000 0.328806 0.750000
Si Si6 0.814962 0.324797 0.649964
Si Si7 0.377701 0.257977 0.625324
O O1 0.428429 0.639757 0.715805
O O2 0.560997 0.726550 0.576318
O O3 0.138301 0.471337 0.222690
O O4 0.125089 0.612056 0.321499
O O5 0.000000 0.557184 0.250000
O O6 0.000000 0.500000 0.500000
O O7 0.216416 0.890058 0.332422
O O8 0.060196 0.872604 0.577203
O O9 0.142502 0.758529 0.380654
O O10 0.140102 0.329346 0.331189
O O11 0.191805 0.356036 0.013225
O O12 0.433585 0.283483 0.712392
O O13 0.714025 0.303845 0.794590
#
# Coordination Sequence:
#
# PCOD9308607 Si02
#       7
#     4   8   8   8   4   8   8
#     4  10  24  34  58 108 126 148 202 278 336 358
#     4  12  28  40  63  97 137 172 203 254 328 391
#     4  10  21  37  67  93 126 165 212 274 306 371
#     4  11  22  43  63  92 123 176 221 254 314 378
#     4  10  16  32  66  96 108 152 212 272 302 350
#     4  11  22  42  63  93 125 175 221 252 319 371
#     4  10  21  38  67  93 126 165 211 275 304 371
#
# _framework density 9.5037079999999996
#
# number of rings (size 3 to 8) (size 9 to 14) (size 15 to 20)
#    0.000    1.333    5.000    1.000    7.000    4.000 
#    0.000    0.000    0.000    6.000    0.000    0.000 
#    0.000    0.000    0.000    0.000    0.000    0.000 
#
# Total GULP energy -133611.284024 kJ/mol
# GULP energy per Si atom -5567.136834 kJ/mol
# Density = 0.948208 g / cm^3
# Si number density = 9.503708 Si / 1000 Ang^3
#
#
#
# Elastic Constant Matrix: (Units=GPa)
#
#
# Indices 1 2 3 4 5 6 
#
# 1 191.7375 32.0995 36.9530 0.0000 4.5672 0.0000
# 2 32.0995 78.3194 8.0888 0.0000 -7.2525 0.0000
# 3 36.9530 8.0888 101.8099 0.0000 -2.7869 0.0000
# 4 0.0000 0.0000 0.0000 15.7791 0.0000 0.0943
# 5 4.5672 -7.2525 -2.7869 0.0000 44.3916 0.0000
# 6 0.0000 0.0000 0.0000 0.0943 0.0000 35.9551
#
#
#
# Elastic Compliance Matrix: (Units=1/GPa)
#
#
# Indices 1 2 3 4 5 6 
#
# 1 0.006030 -0.002367 -0.002032 0.000000 -0.001135 0.000000
# 2 -0.002367 0.013990 -0.000184 0.000000 0.002518 0.000000
# 3 -0.002032 -0.000184 0.010597 0.000000 0.000844 0.000000
# 4 0.000000 0.000000 0.000000 0.063376 0.000000 -0.000166
# 5 -0.001135 0.002518 0.000844 0.000000 0.023108 0.000000
# 6 0.000000 0.000000 0.000000 -0.000166 0.000000 0.027813
#
#
# Mechanical properties :
#
#
# Convention : Reuss Voigt Hill
#
# Bulk Modulus (GPa) = 46.61179 58.46104 52.53641
# Shear Modulus (GPa) = 31.01152 38.87352 34.94252
#
# Velocity S-wave (km/s) = 4.04363 4.52727 4.29226
# Velocity P-wave (km/s) = 6.81009 7.62574 7.22943
#
# Compressibility (1/GPa) = 0.02145380
#
# Stress axis : x y z
#
# Youngs Moduli (GPa) = 165.82923 71.47780 94.36291
#
# Poissons Ratio (x) = 0.16917 0.19173
# Poissons Ratio (y) = 0.39248 0.01732
# Poissons Ratio (z) = 0.33693 0.01312
#
# Static dielectric constant tensor:
#      x y z
#    x 1.701100 0.000000 0.009830 
#    y 0.000000 1.652450 0.000000 
#    z 0.009830 0.000000 1.727680 
# 
# From -- ./inp_files/48410.got.cif
#   From: 2010.05.17/outbox.ucp.g08.bks.cvg/sg15_25_cif.got.tgz:48410.got - 2010.06.11 12:40:34.
