data_PCOD9308660
_publ_section_title
;
Structure prediction by ZEFSAII (Michael W. Deem and Ramdas Pophale) SiO2 
 PCOD9308660
Probable space group: C 2/C
;
_chemical_formula_sum "Si O2"
_cell_formula_units_Z 32
_cell_length_a 21.000000
_cell_length_b 18.000000
_cell_length_c 18.000000
_cell_angle_alpha 90.000000
_cell_angle_beta 150.000000
_cell_angle_gamma 90.000000
_cell_volume 3402.000000
_symmetry_space_group_name_H-M "C 2/C"
_symmetry_group_IT_number 15
_symmetry_cell_setting 'monoclinic'
loop_
_space_group_symop_operation_xyz
x,y,z
-x,y,1/2-z
-x,-y,-z
x,-y,1/2+z
1/2+x,1/2+y,z
1/2-x,1/2+y,1/2-z
1/2-x,1/2-y,-z
1/2+x,1/2-y,1/2+z
loop_
_atom_site_type_symbol
_atom_site_label
_atom_site_fract_x
_atom_site_fract_y
_atom_site_fract_z
Si Si1 0.243878 0.903703 0.047382
Si Si2 0.385193 0.434795 0.317418
Si Si3 0.042905 0.196363 0.412038
Si Si4 0.341569 0.519131 0.428045
Si Si5 0.693036 0.587715 0.332039
Si Si6 0.069864 0.657293 0.653704
Si Si7 0.700169 0.707434 0.715196
Si Si8 0.837599 0.626205 0.327460
O O1 0.363842 0.898457 0.222861
O O2 0.165449 0.972737 0.003288
O O3 0.161053 0.829474 0.981292
O O4 0.268200 0.909432 0.985170
O O5 0.361498 0.463023 0.378418
O O6 0.535406 0.428064 0.453652
O O7 0.340234 0.502813 0.221012
O O8 0.311128 0.357623 0.236271
O O9 0.085609 0.191568 0.541223
O O10 0.931188 0.138696 0.282768
O O11 0.999663 0.281339 0.365232
O O12 0.215822 0.565584 0.282512
O O13 0.759127 0.619355 0.325294
O O14 0.175712 0.698721 0.710687
O O15 0.979493 0.618975 0.502037
O O16 0.683827 0.791150 0.725138
#
# Coordination Sequence:
#
# PCOD9308660 Si02
#       8
#     8   8   8   8   8   8   8   8
#     4  11  22  37  53  78 114 147 177 221 266 316
#     4  10  18  33  57  77 102 135 185 232 263 307
#     4  10  18  34  52  77 107 139 174 212 261 320
#     4  10  19  34  56  80 101 138 184 227 267 311
#     4  11  21  35  54  82 105 142 183 220 264 315
#     4  10  21  35  49  76 113 148 177 211 264 330
#     4  10  18  35  54  78 107 140 178 228 272 309
#     4  10  22  34  54  80 109 140 182 222 266 329
#
# _framework density 9.4062319999999993
#
# number of rings (size 3 to 8) (size 9 to 14) (size 15 to 20)
#    0.000    1.750    5.000    1.875    1.750    1.500 
#    4.500    0.000    0.000    0.750    0.000    0.000 
#    0.000    0.000    0.000    0.000    0.000    0.000 
#
# Total GULP energy -178397.187096 kJ/mol
# GULP energy per Si atom -5574.912097 kJ/mol
# Density = 0.938482 g / cm^3
# Si number density = 9.406232 Si / 1000 Ang^3
#
#
#
# Elastic Constant Matrix: (Units=GPa)
#
#
# Indices 1 2 3 4 5 6 
#
# 1 17.4250 17.5567 -2.5557 0.0000 -4.4269 0.0000
# 2 17.5567 63.5462 15.5633 0.0000 1.2156 0.0000
# 3 -2.5557 15.5633 43.5679 -0.0001 13.5711 0.0000
# 4 0.0000 0.0000 -0.0001 21.9289 0.0000 6.9021
# 5 -4.4269 1.2156 13.5711 0.0000 6.2537 0.0000
# 6 0.0000 0.0000 0.0000 6.9021 0.0000 16.2903
#
#
#
# Elastic Compliance Matrix: (Units=1/GPa)
#
#
# Indices 1 2 3 4 5 6 
#
# 1 0.125158 -0.029083 -0.035885 0.000000 0.172124 0.000000
# 2 -0.029083 0.026185 -0.009448 0.000000 -0.005175 0.000000
# 3 -0.035885 -0.009448 0.097408 0.000000 -0.234949 0.000000
# 4 0.000000 0.000000 0.000000 0.052619 0.000000 -0.022294
# 5 0.172124 -0.005175 -0.234949 0.000000 0.792614 -0.000001
# 6 0.000000 0.000000 0.000000 -0.022294 -0.000001 0.070832
#
#
# Mechanical properties :
#
#
# Convention : Reuss Voigt Hill
#
# Bulk Modulus (GPa) = 10.00805 20.62972 15.31889
# Shear Modulus (GPa) = 3.71208 15.15956 9.43582
#
# Velocity S-wave (km/s) = 1.40623 2.84179 2.24201
# Velocity P-wave (km/s) = 2.82278 4.66449 3.85523
#
# Compressibility (1/GPa) = 0.09991957
#
# Stress axis : x y z
#
# Youngs Moduli (GPa) = 7.98991 38.19042 10.26613
#
# Poissons Ratio (x) = 1.11069 0.36840
# Poissons Ratio (y) = 0.23237 0.09699
# Poissons Ratio (z) = 0.28671 0.36081
#
# Static dielectric constant tensor:
#      x y z
#    x 1.636960 0.000000 0.050700 
#    y 0.000000 1.700250 0.000000 
#    z 0.050700 0.000000 1.726360 
# 
# From -- ./inp_files/216182.got.cif
#   From: 2010.05.17/outbox.ucp.g08.bks.cvg/sg15_109_cif.got.tgz:216182.got - 2010.06.11 12:40:34.
