data_PCOD9309180
_publ_section_title
;
Structure prediction by ZEFSAII (Michael W. Deem and Ramdas Pophale) SiO2 
 PCOD9309180
Probable space group: C 2/C
;
_chemical_formula_sum "Si O2"
_cell_formula_units_Z 32
_cell_length_a 21.000000
_cell_length_b 18.000000
_cell_length_c 24.000000
_cell_angle_alpha 90.000000
_cell_angle_beta 20.000000
_cell_angle_gamma 90.000000
_cell_volume 3102.806740
_symmetry_space_group_name_H-M "C 2/C"
_symmetry_group_IT_number 15
_symmetry_cell_setting 'monoclinic'
loop_
_space_group_symop_operation_xyz
x,y,z
-x,y,1/2-z
-x,-y,-z
x,-y,1/2+z
1/2+x,1/2+y,z
1/2-x,1/2+y,1/2-z
1/2-x,1/2-y,-z
1/2+x,1/2-y,1/2+z
loop_
_atom_site_type_symbol
_atom_site_label
_atom_site_fract_x
_atom_site_fract_y
_atom_site_fract_z
Si Si1 0.190378 0.008053 0.626697
Si Si2 0.916519 0.708330 0.702043
Si Si3 0.063275 0.857441 0.554946
Si Si4 0.190821 0.336008 0.439341
Si Si5 0.207544 0.972342 0.741357
Si Si6 0.338327 0.114885 0.925850
Si Si7 0.963512 0.268836 0.835423
Si Si8 0.085763 0.614811 0.907396
O O1 0.303264 0.083659 0.537421
O O2 0.000000 0.018910 0.750000
O O3 0.159078 0.990351 0.716982
O O4 0.303394 0.944282 0.502732
O O5 0.941699 0.663011 0.624577
O O6 0.911999 0.794920 0.692965
O O7 0.084495 0.688264 0.606603
O O8 0.729130 0.680781 0.884943
O O9 0.155356 0.878460 0.538577
O O10 0.968186 0.922700 0.597760
O O11 0.031261 0.296604 0.606021
O O12 0.390620 0.298124 0.285510
O O13 0.154670 0.339218 0.403896
O O14 0.395008 0.923889 0.584066
O O15 0.265085 0.048025 0.724416
O O16 0.500000 0.091195 0.750000
O O17 0.000000 0.318395 0.750000
O O18 0.750000 0.250000 0.000000
#
# Coordination Sequence:
#
# PCOD9309180 Si02
#       8
#     8   8   8   8   8   8   8   8
#     4  11  19  35  63  87 115 155 203 250 307 364
#     4  11  23  39  62  87 127 163 203 251 309 368
#     4  11  23  39  61  92 120 160 204 260 311 362
#     4  10  22  36  61  89 118 161 198 248 303 363
#     4  10  21  39  61  86 118 161 203 250 303 359
#     4  10  22  38  58  92 126 154 203 255 310 366
#     4   9  18  37  58  83 118 143 190 247 300 347
#     4  10  22  40  60  87 121 164 209 243 297 373
#
# _framework density 10.313243
#
# number of rings (size 3 to 8) (size 9 to 14) (size 15 to 20)
#    0.000    1.750    2.500    2.250    0.000    3.000 
#    0.000    1.250    0.000    0.000    0.000    0.000 
#    0.000    0.000    0.000    0.000    0.000    0.000 
#
# Total GULP energy -178256.935278 kJ/mol
# GULP energy per Si atom -5570.529227 kJ/mol
# Density = 1.028977 g / cm^3
# Si number density = 10.313243 Si / 1000 Ang^3
#
#
#
# Elastic Constant Matrix: (Units=GPa)
#
#
# Indices 1 2 3 4 5 6 
#
# 1 53.3821 6.5566 18.9861 0.0075 -21.8973 -0.0052
# 2 6.5566 44.4151 24.0083 -0.0199 2.8406 0.0410
# 3 18.9861 24.0083 33.7472 -0.0258 -5.0040 0.0922
# 4 0.0075 -0.0199 -0.0258 21.8354 0.0027 -13.5443
# 5 -21.8973 2.8406 -5.0040 0.0027 21.4017 -0.0228
# 6 -0.0052 0.0410 0.0922 -13.5443 -0.0228 26.4982
#
#
#
# Elastic Compliance Matrix: (Units=1/GPa)
#
#
# Indices 1 2 3 4 5 6 
#
# 1 0.039947 0.001637 -0.018243 0.000035 0.036390 0.000118
# 2 0.001637 0.039511 -0.030621 0.000034 -0.010729 0.000054
# 3 -0.018243 -0.030621 0.061652 -0.000080 -0.000186 -0.000212
# 4 0.000035 0.000034 -0.000080 0.067059 0.000040 0.034276
# 5 0.036390 -0.010729 -0.000186 0.000040 0.085339 0.000118
# 6 0.000118 0.000054 -0.000212 0.034276 0.000118 0.055259
#
#
# Mechanical properties :
#
#
# Convention : Reuss Voigt Hill
#
# Bulk Modulus (GPa) = 21.43304 25.62736 23.53020
# Shear Modulus (GPa) = 10.89862 19.41329 15.15595
#
# Velocity S-wave (km/s) = 2.30114 3.07120 2.71363
# Velocity P-wave (km/s) = 4.18018 5.00278 4.60987
#
# Compressibility (1/GPa) = 0.04665693
#
# Stress axis : x y z
#
# Youngs Moduli (GPa) = 25.03291 25.30924 16.21998
#
# Poissons Ratio (x) = -0.04142 0.29590
# Poissons Ratio (y) = -0.04097 0.49667
# Poissons Ratio (z) = 0.45667 0.77499
#
# Static dielectric constant tensor:
#      x y z
#    x 1.772780 -0.000030 0.045980 
#    y -0.000030 1.828110 0.000060 
#    z 0.045980 0.000060 1.796540 
# 
# From -- ./inp_files/280486.got.cif
#   From: 2010.05.17/outbox.ucp.g08.bks.cvg/sg15_141_cif.got.tgz:280486.got - 2010.06.11 12:40:34.
