data_PCOD9309299
_publ_section_title
;
Structure prediction by ZEFSAII (Michael W. Deem and Ramdas Pophale) SiO2 
 PCOD9309299
Probable space group: C 2/C
;
_chemical_formula_sum "Si O2"
_cell_formula_units_Z 30
_cell_length_a 12.000000
_cell_length_b 18.000000
_cell_length_c 27.000000
_cell_angle_alpha 90.000000
_cell_angle_beta 30.000000
_cell_angle_gamma 90.000000
_cell_volume 2916.000000
_symmetry_space_group_name_H-M "C 2/C"
_symmetry_group_IT_number 15
_symmetry_cell_setting 'monoclinic'
loop_
_space_group_symop_operation_xyz
x,y,z
-x,y,1/2-z
-x,-y,-z
x,-y,1/2+z
1/2+x,1/2+y,z
1/2-x,1/2+y,1/2-z
1/2-x,1/2-y,-z
1/2+x,1/2-y,1/2+z
loop_
_atom_site_type_symbol
_atom_site_label
_atom_site_fract_x
_atom_site_fract_y
_atom_site_fract_z
Si Si1 0.378978 0.682444 0.540880
Si Si2 0.800762 0.693712 0.145213
Si Si3 0.605074 0.196852 0.801432
Si Si4 0.015892 0.402267 0.642174
Si Si5 0.000000 0.948331 0.750000
Si Si6 0.816238 0.033208 0.727716
Si Si7 0.215461 0.692613 0.187096
Si Si8 0.985794 0.048935 0.554922
O O1 0.398467 0.760496 0.562053
O O2 0.602567 0.668426 0.423307
O O3 0.333119 0.618436 0.598970
O O4 0.156974 0.680871 0.594111
O O5 0.649277 0.752775 0.234891
O O6 0.966367 0.664134 0.123155
O O7 0.694158 0.614478 0.169580
O O8 0.746490 0.120366 0.752495
O O9 0.662009 0.253267 0.822952
O O10 0.899070 0.481819 0.680168
O O11 0.906496 0.373049 0.735355
O O12 0.271501 0.416662 0.535775
O O13 0.970962 0.001305 0.713025
O O14 0.915585 0.015993 0.634715
O O15 0.000000 0.735836 0.250000
O O16 0.000000 0.000000 0.500000
#
# Coordination Sequence:
#
# PCOD9309299 Si02
#       8
#     8   8   8   8   4   8   8   8
#     4  12  22  40  69 101 130 180 238 287 344 424
#     4  10  21  43  70  91 133 187 233 277 349 423
#     4  11  23  41  67 102 136 175 237 293 340 417
#     4  10  24  45  62  94 138 182 223 283 356 416
#     4  10  22  48  68  96 144 194 226 288 362 420
#     4  11  25  43  70  99 139 183 233 290 356 419
#     4  11  24  42  66  96 136 179 225 289 351 416
#     4  12  25  41  69 101 140 180 231 289 362 420
#
# _framework density 10.288066000000001
#
# number of rings (size 3 to 8) (size 9 to 14) (size 15 to 20)
#    0.000    1.067    4.000    2.000    0.933    2.667 
#    4.800    1.333    0.000    0.000    0.000    0.000 
#    0.000    0.000    0.000    0.000    0.000    0.000 
#
# Total GULP energy -167038.747470 kJ/mol
# GULP energy per Si atom -5567.958249 kJ/mol
# Density = 1.026465 g / cm^3
# Si number density = 10.288066 Si / 1000 Ang^3
#
#
#
# Elastic Constant Matrix: (Units=GPa)
#
#
# Indices 1 2 3 4 5 6 
#
# 1 85.7798 26.6413 4.8606 -0.0019 4.7918 0.0008
# 2 26.6413 87.5065 -1.8314 0.0076 6.2134 -0.0002
# 3 4.8606 -1.8314 21.6095 -0.0009 -11.2497 -0.0011
# 4 -0.0019 0.0076 -0.0009 26.9463 0.0124 6.9650
# 5 4.7918 6.2134 -11.2497 0.0124 27.7184 0.0085
# 6 0.0008 -0.0002 -0.0011 6.9650 0.0085 27.4621
#
#
#
# Elastic Compliance Matrix: (Units=1/GPa)
#
#
# Indices 1 2 3 4 5 6 
#
# 1 0.013368 -0.003928 -0.005179 0.000004 -0.003532 0.000000
# 2 -0.003928 0.012770 0.001051 -0.000003 -0.001757 0.000002
# 3 -0.005179 0.001051 0.060698 -0.000010 0.025294 -0.000003
# 4 0.000004 -0.000003 -0.000010 0.039714 -0.000018 -0.010072
# 5 -0.003532 -0.001757 0.025294 -0.000018 0.047347 -0.000009
# 6 0.000000 0.000002 -0.000003 -0.010072 -0.000009 0.038968
#
#
# Mechanical properties :
#
#
# Convention : Reuss Voigt Hill
#
# Bulk Modulus (GPa) = 14.13913 28.24853 21.19383
# Shear Modulus (GPa) = 19.79787 27.44039 23.61913
#
# Velocity S-wave (km/s) = 3.10526 3.65581 3.39173
# Velocity P-wave (km/s) = 4.44336 5.61948 5.06567
#
# Compressibility (1/GPa) = 0.07072570
#
# Stress axis : x y z
#
# Youngs Moduli (GPa) = 74.80366 78.30723 16.47508
#
# Poissons Ratio (x) = 0.30755 0.08532
# Poissons Ratio (y) = 0.29379 -0.01732
# Poissons Ratio (z) = 0.38739 -0.08230
#
# Static dielectric constant tensor:
#      x y z
#    x 1.863370 -0.000050 -0.042970 
#    y -0.000050 1.658020 0.000080 
#    z -0.042970 0.000080 1.671900 
# 
# From -- ./inp_files/293549.got.cif
#   From: 2010.05.17/outbox.ucp.g08.bks.cvg/sg15_147_cif.got.tgz:293549.got - 2010.06.11 12:40:34.
