data_PCOD9309524
_publ_section_title
;
Structure prediction by ZEFSAII (Michael W. Deem and Ramdas Pophale) SiO2 
 PCOD9309524
Probable space group: C 2/C
;
_chemical_formula_sum "Si O2"
_cell_formula_units_Z 32
_cell_length_a 18.000000
_cell_length_b 15.000000
_cell_length_c 24.000000
_cell_angle_alpha 90.000000
_cell_angle_beta 150.000000
_cell_angle_gamma 90.000000
_cell_volume 3240.000000
_symmetry_space_group_name_H-M "C 2/C"
_symmetry_group_IT_number 15
_symmetry_cell_setting 'monoclinic'
loop_
_space_group_symop_operation_xyz
x,y,z
-x,y,1/2-z
-x,-y,-z
x,-y,1/2+z
1/2+x,1/2+y,z
1/2-x,1/2+y,1/2-z
1/2-x,1/2-y,-z
1/2+x,1/2-y,1/2+z
loop_
_atom_site_type_symbol
_atom_site_label
_atom_site_fract_x
_atom_site_fract_y
_atom_site_fract_z
Si Si1 0.762443 0.191034 0.950531
Si Si2 0.922659 0.170491 0.407106
Si Si3 0.232482 0.502356 0.980005
Si Si4 0.614096 0.146779 0.483626
Si Si5 0.697003 0.934923 0.682874
Si Si6 0.440868 0.645393 0.553019
Si Si7 0.732455 0.864130 0.180169
Si Si8 0.327109 0.376823 0.648178
O O1 0.927616 0.172770 0.033203
O O2 0.750000 0.250000 0.000000
O O3 0.699802 0.269153 0.869584
O O4 0.694468 0.090418 0.915844
O O5 0.810114 0.101193 0.303839
O O6 0.945578 0.143718 0.487632
O O7 0.855374 0.271962 0.362950
O O8 0.136217 0.421192 0.945859
O O9 0.350008 0.439195 0.021180
O O10 0.265472 0.561491 0.057492
O O11 0.454623 0.119917 0.406341
O O12 0.618744 0.253058 0.472597
O O13 0.728207 0.130679 0.609529
O O14 0.767612 0.912052 0.668538
O O15 0.668364 0.042032 0.662795
O O16 0.603839 0.642002 0.686802
O O17 0.500000 0.388092 0.750000
#
# Coordination Sequence:
#
# PCOD9309524 Si02
#       8
#     8   8   8   8   8   8   8   8
#     4  10  23  41  64  96 139 172 216 280 340 406
#     4  11  25  45  66 101 138 176 230 283 339 416
#     4  11  24  42  67  97 136 183 224 283 346 412
#     4  11  24  43  69 103 134 174 235 286 339 403
#     4  12  23  43  71 103 134 177 232 284 337 413
#     4  11  24  46  67 101 134 181 228 281 348 403
#     4  11  23  40  72  97 131 176 223 284 344 404
#     4  11  22  41  69 103 135 173 233 286 343 412
#
# _framework density 9.8765429999999999
#
# number of rings (size 3 to 8) (size 9 to 14) (size 15 to 20)
#    0.000    1.000    2.500    5.250    3.500    2.000 
#    0.000    0.625    0.000    0.000    0.000    0.000 
#    0.000    0.000    0.000    0.000    0.000    0.000 
#
# Total GULP energy -178278.276191 kJ/mol
# GULP energy per Si atom -5571.196131 kJ/mol
# Density = 0.985406 g / cm^3
# Si number density = 9.876543 Si / 1000 Ang^3
#
#
#
# Elastic Constant Matrix: (Units=GPa)
#
#
# Indices 1 2 3 4 5 6 
#
# 1 120.7125 23.5610 33.1615 -0.0057 2.5015 -0.0044
# 2 23.5610 150.7293 4.2560 -0.0120 -4.3243 -0.0080
# 3 33.1615 4.2560 65.8443 -0.0197 -11.5223 -0.0146
# 4 -0.0057 -0.0120 -0.0197 -189.1425 -0.0092 -171.4575
# 5 2.5015 -4.3243 -11.5223 -0.0092 23.6218 -0.0069
# 6 -0.0044 -0.0080 -0.0146 -171.4575 -0.0069 -86.8568
#
#
#
# Elastic Compliance Matrix: (Units=1/GPa)
#
#
# Indices 1 2 3 4 5 6 
#
# 1 0.010272 -0.001562 -0.005809 0.000000 -0.004207 0.000000
# 2 -0.001562 0.006910 0.000646 0.000000 0.001745 0.000000
# 3 -0.005809 0.000646 0.019898 -0.000001 0.010439 -0.000001
# 4 0.000000 0.000000 -0.000001 0.006697 -0.000002 -0.013220
# 5 -0.004207 0.001745 0.010439 -0.000002 0.048191 -0.000002
# 6 0.000000 0.000000 -0.000001 -0.013220 -0.000002 0.014584
#
#
# Mechanical properties :
#
#
# Convention : Reuss Voigt Hill
#
# Bulk Modulus (GPa) = 42.31968 51.02701 46.67335
# Shear Modulus (GPa) = 39.09948 -32.05499 3.52225
#
# Velocity S-wave (km/s) = 4.45388 -4.03275 1.33679
# Velocity P-wave (km/s) = 6.92245 2.05047 5.10513
#
# Compressibility (1/GPa) = 0.02362967
#
# Stress axis : x y z
#
# Youngs Moduli (GPa) = 97.35243 144.70801 50.25689
#
# Poissons Ratio (x) = 0.22608 0.29192
# Poissons Ratio (y) = 0.15210 -0.03245
# Poissons Ratio (z) = 0.56548 -0.09343
#
# Static dielectric constant tensor:
#      x y z
#    x 1.705170 0.000000 0.003140 
#    y 0.000000 1.725620 0.000000 
#    z 0.003140 0.000000 1.762230 
# 
# From -- ./inp_files/277651.got.cif
#   From: 2010.05.17/outbox.ucp.g08.bks.cvg/sg15_139_cif.got.tgz:277651.got - 2010.06.11 12:40:34.
