data_PCOD9309266
_publ_section_title
;
Structure prediction by ZEFSAII (Michael W. Deem and Ramdas Pophale) SiO2 
 PCOD9309266
Probable space group: C 2/C
;
_chemical_formula_sum "Si O2"
_cell_formula_units_Z 20
_cell_length_a 21.000000
_cell_length_b 15.000000
_cell_length_c 18.000000
_cell_angle_alpha 90.000000
_cell_angle_beta 160.000000
_cell_angle_gamma 90.000000
_cell_volume 1939.254213
_symmetry_space_group_name_H-M "C 2/C"
_symmetry_group_IT_number 15
_symmetry_cell_setting 'monoclinic'
loop_
_space_group_symop_operation_xyz
x,y,z
-x,y,1/2-z
-x,-y,-z
x,-y,1/2+z
1/2+x,1/2+y,z
1/2-x,1/2+y,1/2-z
1/2-x,1/2-y,-z
1/2+x,1/2-y,1/2+z
loop_
_atom_site_type_symbol
_atom_site_label
_atom_site_fract_x
_atom_site_fract_y
_atom_site_fract_z
Si Si1 0.001614 0.068195 0.160772
Si Si2 0.259356 0.351513 0.710591
Si Si3 0.482000 0.167506 0.322833
Si Si4 0.845014 0.358169 0.320633
Si Si5 0.582872 0.627865 0.956437
O O1 0.000000 0.094869 0.250000
O O2 0.162728 0.111403 0.283221
O O3 0.813114 0.089014 0.902769
O O4 0.023358 0.960924 0.184974
O O5 0.283798 0.244420 0.740398
O O6 0.381375 0.382297 0.915634
O O7 0.045707 0.373903 0.500194
O O8 0.500000 0.148904 0.250000
O O9 0.616672 0.135191 0.544594
O O10 0.488653 0.275768 0.337958
O O11 0.280514 0.133399 0.129483
#
# Coordination Sequence:
#
# PCOD9309266 Si02
#       5
#     8   8   8   8   8
#     4  12  26  44  65 101 135 173 233 275 320 393
#     4  10  21  44  70  94 135 177 218 276 331 395
#     4  10  21  41  71  98 134 171 214 276 336 407
#     4  10  22  43  70  99 131 181 223 262 343 391
#     4  10  23  43  66 102 131 172 219 272 343 394
#
# _framework density 10.313243
#
# number of rings (size 3 to 8) (size 9 to 14) (size 15 to 20)
#    0.000    1.600    2.000    1.800    2.800    4.800 
#   10.800    0.000    0.000    0.000    0.000    0.000 
#    0.000    0.000    0.000    0.000    0.000    0.000 
#
# Total GULP energy -111409.977351 kJ/mol
# GULP energy per Si atom -5570.498868 kJ/mol
# Density = 1.028977 g / cm^3
# Si number density = 10.313243 Si / 1000 Ang^3
#
#
#
# Elastic Constant Matrix: (Units=GPa)
#
#
# Indices 1 2 3 4 5 6 
#
# 1 199.6400 16.6654 27.4860 0.0032 -24.0494 0.0001
# 2 16.6654 52.2619 2.7585 0.0129 -7.9256 0.0157
# 3 27.4860 2.7585 76.7357 0.0071 -9.7372 0.0140
# 4 0.0032 0.0129 0.0071 33.2076 0.0058 -5.1534
# 5 -24.0494 -7.9256 -9.7372 0.0058 44.0595 0.0080
# 6 0.0001 0.0157 0.0140 -5.1534 0.0080 37.3298
#
#
#
# Elastic Compliance Matrix: (Units=1/GPa)
#
#
# Indices 1 2 3 4 5 6 
#
# 1 0.005647 -0.001338 -0.001661 0.000000 0.002475 0.000001
# 2 -0.001338 0.019993 0.000128 -0.000010 0.002894 -0.000010
# 3 -0.001661 0.000128 0.013900 -0.000004 0.002188 -0.000006
# 4 0.000000 -0.000010 -0.000004 0.030773 -0.000007 0.004248
# 5 0.002475 0.002894 0.002188 -0.000007 0.025052 -0.000008
# 6 0.000001 -0.000010 -0.000006 0.004248 -0.000008 0.027375
#
#
# Mechanical properties :
#
#
# Convention : Reuss Voigt Hill
#
# Bulk Modulus (GPa) = 29.58692 46.93971 38.26331
# Shear Modulus (GPa) = 35.77876 41.70122 38.73999
#
# Velocity S-wave (km/s) = 4.16937 4.50125 4.33848
# Velocity P-wave (km/s) = 6.12809 7.05842 6.60965
#
# Compressibility (1/GPa) = 0.03379872
#
# Stress axis : x y z
#
# Youngs Moduli (GPa) = 177.06995 50.01696 71.94404
#
# Poissons Ratio (x) = 0.06692 0.11948
# Poissons Ratio (y) = 0.23690 -0.00919
# Poissons Ratio (z) = 0.29407 -0.00639
#
# Static dielectric constant tensor:
#      x y z
#    x 1.786960 0.000000 -0.012140 
#    y 0.000000 1.765290 -0.000010 
#    z -0.012140 -0.000010 1.824360 
# 
# From -- ./inp_files/215834.got.cif
#   From: 2010.05.17/outbox.ucp.g08.bks.cvg/sg15_108_cif.got.tgz:215834.got - 2010.06.11 12:40:34.
