data_PCOD9309322
_publ_section_title
;
Structure prediction by ZEFSAII (Michael W. Deem and Ramdas Pophale) SiO2 
 PCOD9309322
Probable space group: C 2/C
;
_chemical_formula_sum "Si O2"
_cell_formula_units_Z 18
_cell_length_a 15.000000
_cell_length_b 24.000000
_cell_length_c 15.000000
_cell_angle_alpha 90.000000
_cell_angle_beta 20.000000
_cell_angle_gamma 90.000000
_cell_volume 1846.908774
_symmetry_space_group_name_H-M "C 2/C"
_symmetry_group_IT_number 15
_symmetry_cell_setting 'monoclinic'
loop_
_space_group_symop_operation_xyz
x,y,z
-x,y,1/2-z
-x,-y,-z
x,-y,1/2+z
1/2+x,1/2+y,z
1/2-x,1/2+y,1/2-z
1/2-x,1/2-y,-z
1/2+x,1/2-y,1/2+z
loop_
_atom_site_type_symbol
_atom_site_label
_atom_site_fract_x
_atom_site_fract_y
_atom_site_fract_z
Si Si1 0.988706 0.092288 0.514144
Si Si2 0.500000 0.850194 0.750000
Si Si3 0.256435 0.453870 0.051913
Si Si4 0.525861 0.057276 0.076072
Si Si5 0.879905 0.210613 0.016398
O O1 0.874971 0.081498 0.522576
O O2 0.284335 0.069495 0.237670
O O3 0.028747 0.156132 0.511781
O O4 0.795095 0.058327 0.765264
O O5 0.436514 0.890759 0.892118
O O6 0.248240 0.814992 0.954531
O O7 0.101931 0.507106 0.244098
O O8 0.000000 0.424666 0.250000
O O9 0.500000 0.465232 0.750000
O O10 0.629036 0.248203 0.281002
#
# Coordination Sequence:
#
# PCOD9309322 Si02
#       5
#     8   4   8   8   8
#     4  11  24  41  63  90 127 172 210 264 318 370
#     4  10  22  36  62  94 134 164 206 250 318 386
#     4  12  24  41  65  93 127 166 218 263 313 379
#     4  11  22  39  61  92 133 167 205 249 317 395
#     4  11  23  40  63  92 128 169 215 263 310 375
#
# _framework density 9.7460149999999999
#
# number of rings (size 3 to 8) (size 9 to 14) (size 15 to 20)
#    0.000    0.889    1.111    7.333    0.000    6.222 
#    0.000    0.000    0.000    4.000    0.000    0.000 
#    0.000    0.000    0.000    0.000    0.000    0.000 
#
# Total GULP energy -100365.831871 kJ/mol
# GULP energy per Si atom -5575.879548 kJ/mol
# Density = 0.972383 g / cm^3
# Si number density = 9.746015 Si / 1000 Ang^3
#
#
#
# Elastic Constant Matrix: (Units=GPa)
#
#
# Indices 1 2 3 4 5 6 
#
# 1 137.0119 46.2430 24.5559 0.2303 -21.0703 -0.1362
# 2 46.2430 105.2516 26.6450 -0.0031 -11.1055 -0.0750
# 3 24.5559 26.6450 137.7012 0.4080 -7.7602 -0.2434
# 4 0.2303 -0.0031 0.4080 28.6480 -0.1557 -11.7613
# 5 -21.0703 -11.1055 -7.7602 -0.1557 41.1236 0.0419
# 6 -0.1362 -0.0750 -0.2434 -11.7613 0.0419 40.0227
#
#
#
# Elastic Compliance Matrix: (Units=1/GPa)
#
#
# Indices 1 2 3 4 5 6 
#
# 1 0.009155 -0.003448 -0.000762 -0.000042 0.003616 0.000004
# 2 -0.003448 0.011521 -0.001555 0.000064 0.001051 0.000018
# 3 -0.000762 -0.001555 0.007736 -0.000095 0.000649 0.000013
# 4 -0.000042 0.000064 -0.000095 0.039698 0.000116 0.011665
# 5 0.003616 0.001051 0.000649 0.000116 0.026576 0.000025
# 6 0.000004 0.000018 0.000013 0.011665 0.000025 0.028414
#
#
# Mechanical properties :
#
#
# Convention : Reuss Voigt Hill
#
# Bulk Modulus (GPa) = 59.23553 63.87250 61.55401
# Shear Modulus (GPa) = 35.64906 40.79359 38.22132
#
# Velocity S-wave (km/s) = 4.28121 4.57971 4.43297
# Velocity P-wave (km/s) = 7.40904 7.79774 7.60587
#
# Compressibility (1/GPa) = 0.01688176
#
# Stress axis : x y z
#
# Youngs Moduli (GPa) = 109.23033 86.80097 129.27034
#
# Poissons Ratio (x) = 0.29929 0.09844
# Poissons Ratio (y) = 0.37663 0.20105
# Poissons Ratio (z) = 0.08318 0.13500
#
# Static dielectric constant tensor:
#      x y z
#    x 1.734200 -0.000060 0.011570 
#    y -0.000060 1.732160 0.000190 
#    z 0.011570 0.000190 1.706080 
# 
# From -- ./inp_files/156710.got.cif
#   From: 2010.05.17/outbox.ucp.g08.bks.cvg/sg15_79_cif.got.tgz:156710.got - 2010.06.11 12:40:34.
