data_PCOD9309443
_publ_section_title
;
Structure prediction by ZEFSAII (Michael W. Deem and Ramdas Pophale) SiO2 
 PCOD9309443
Probable space group: C 2/C
;
_chemical_formula_sum "Si O2"
_cell_formula_units_Z 32
_cell_length_a 9.000000
_cell_length_b 30.000000
_cell_length_c 15.000000
_cell_angle_alpha 90.000000
_cell_angle_beta 50.000000
_cell_angle_gamma 90.000000
_cell_volume 3102.479995
_symmetry_space_group_name_H-M "C 2/C"
_symmetry_group_IT_number 15
_symmetry_cell_setting 'monoclinic'
loop_
_space_group_symop_operation_xyz
x,y,z
-x,y,1/2-z
-x,-y,-z
x,-y,1/2+z
1/2+x,1/2+y,z
1/2-x,1/2+y,1/2-z
1/2-x,1/2-y,-z
1/2+x,1/2-y,1/2+z
loop_
_atom_site_type_symbol
_atom_site_label
_atom_site_fract_x
_atom_site_fract_y
_atom_site_fract_z
Si Si1 0.587472 0.168115 0.024404
Si Si2 0.110405 0.132778 0.452957
Si Si3 0.276350 0.155165 0.803005
Si Si4 0.176062 0.471352 0.122993
Si Si5 0.222508 0.765935 0.190725
Si Si6 0.356704 0.085050 0.623362
Si Si7 0.586350 0.455510 0.070020
Si Si8 0.163257 0.179992 0.262227
O O1 0.736948 0.161721 0.048374
O O2 0.375915 0.181569 0.138186
O O3 0.678412 0.205416 0.925269
O O4 0.566476 0.121746 0.977439
O O5 0.141706 0.084049 0.481049
O O6 0.145972 0.138057 0.334925
O O7 0.887224 0.145938 0.560335
O O8 0.500000 0.154125 0.750000
O O9 0.228134 0.201682 0.774465
O O10 0.252350 0.116949 0.736685
O O11 0.352568 0.461075 0.130354
O O12 0.000000 0.491554 0.250000
O O13 0.037947 0.438132 0.110693
O O14 0.296737 0.501101 0.007558
O O15 0.345055 0.722664 0.169375
O O16 0.000000 0.755768 0.250000
O O17 0.193059 0.057639 0.625914
O O18 0.000000 0.180668 0.250000
#
# Coordination Sequence:
#
# PCOD9309443 Si02
#       8
#     8   8   8   8   8   8   8   8
#     4  10  24  43  67  97 127 179 225 274 338 404
#     4  11  23  44  68  93 131 178 225 274 338 408
#     4  11  23  39  70 104 128 170 224 290 337 392
#     4  11  23  41  66 101 134 180 220 280 339 402
#     4  11  23  43  69  96 131 169 228 279 337 396
#     4  10  22  42  70 100 138 171 225 283 343 398
#     4  10  24  41  67  97 139 174 229 274 339 414
#     4  12  29  42  63  94 134 183 223 278 338 399
#
# _framework density 10.314329000000001
#
# number of rings (size 3 to 8) (size 9 to 14) (size 15 to 20)
#    0.000    1.250    1.250    3.750    7.000    6.000 
#    0.000    0.000    0.000    0.000    0.000    0.000 
#    0.000    0.000    0.000    0.000    0.000    0.000 
#
# Total GULP energy -178320.430374 kJ/mol
# GULP energy per Si atom -5572.513449 kJ/mol
# Density = 1.029085 g / cm^3
# Si number density = 10.314329 Si / 1000 Ang^3
#
#
#
# Elastic Constant Matrix: (Units=GPa)
#
#
# Indices 1 2 3 4 5 6 
#
# 1 167.2072 11.4418 34.0097 0.0000 -15.2750 0.0000
# 2 11.4418 27.9757 -0.7104 0.0000 -10.3069 0.0000
# 3 34.0097 -0.7104 65.3413 0.0000 -15.7725 0.0000
# 4 0.0000 0.0000 0.0000 24.2605 0.0000 -1.0189
# 5 -15.2750 -10.3069 -15.7725 0.0000 31.6404 0.0000
# 6 0.0000 0.0000 0.0000 -1.0189 0.0000 36.1628
#
#
#
# Elastic Compliance Matrix: (Units=1/GPa)
#
#
# Indices 1 2 3 4 5 6 
#
# 1 0.006934 -0.002641 -0.003453 0.000000 0.000766 0.000000
# 2 -0.002641 0.042633 0.005551 0.000000 0.015379 0.000000
# 3 -0.003453 0.005551 0.019548 0.000000 0.009886 0.000000
# 4 0.000000 0.000000 0.000000 0.041268 0.000000 0.001163
# 5 0.000766 0.015379 0.009886 0.000000 0.041913 0.000000
# 6 0.000000 0.000000 0.000000 0.001163 0.000000 0.027685
#
#
# Mechanical properties :
#
#
# Convention : Reuss Voigt Hill
#
# Bulk Modulus (GPa) = 14.69995 38.88961 26.79478
# Shear Modulus (GPa) = 24.54069 32.79828 28.66948
#
# Velocity S-wave (km/s) = 3.45286 3.99173 3.73203
# Velocity P-wave (km/s) = 4.79977 6.33548 5.62032
#
# Compressibility (1/GPa) = 0.06802744
#
# Stress axis : x y z
#
# Youngs Moduli (GPa) = 144.22554 23.45617 51.15609
#
# Poissons Ratio (x) = 0.06196 0.17663
# Poissons Ratio (y) = 0.38095 -0.28395
# Poissons Ratio (z) = 0.49798 -0.13020
#
# Static dielectric constant tensor:
#      x y z
#    x 1.741260 0.000000 0.018890 
#    y 0.000000 1.797500 0.000000 
#    z 0.018890 0.000000 1.763670 
# 
# From -- ./inp_files/139828.got.cif
#   From: 2010.05.17/outbox.ucp.g08.bks.cvg/sg15_70_cif.got.tgz:139828.got - 2010.06.11 12:40:34.
