data_PCOD9309637
_publ_section_title
;
Structure prediction by ZEFSAII (Michael W. Deem and Ramdas Pophale) SiO2 
 PCOD9309637
Probable space group: C 2/C
;
_chemical_formula_sum "Si O2"
_cell_formula_units_Z 24
_cell_length_a 24.000000
_cell_length_b 6.000000
_cell_length_c 21.000000
_cell_angle_alpha 90.000000
_cell_angle_beta 50.000000
_cell_angle_gamma 90.000000
_cell_volume 2316.518396
_symmetry_space_group_name_H-M "C 2/C"
_symmetry_group_IT_number 15
_symmetry_cell_setting 'monoclinic'
loop_
_space_group_symop_operation_xyz
x,y,z
-x,y,1/2-z
-x,-y,-z
x,-y,1/2+z
1/2+x,1/2+y,z
1/2-x,1/2+y,1/2-z
1/2-x,1/2-y,-z
1/2+x,1/2-y,1/2+z
loop_
_atom_site_type_symbol
_atom_site_label
_atom_site_fract_x
_atom_site_fract_y
_atom_site_fract_z
Si Si1 0.305612 0.212417 0.553779
Si Si2 0.823018 0.936688 0.149323
Si Si3 0.840135 0.706533 0.724881
Si Si4 0.085230 0.453139 0.947438
Si Si5 0.411928 0.102560 0.807465
Si Si6 0.345705 0.403926 0.391221
O O1 0.298845 0.365178 0.620532
O O2 0.375712 0.060950 0.519436
O O3 0.321858 0.368499 0.481693
O O4 0.229593 0.087982 0.594634
O O5 0.747657 0.805006 0.210411
O O6 0.889442 0.801934 0.070142
O O7 0.852578 0.039352 0.193365
O O8 0.873769 0.552655 0.644688
O O9 0.879419 0.634696 0.760389
O O10 0.000000 0.500000 0.000000
O O11 0.500000 0.097802 0.750000
O O12 0.385260 0.350049 0.856328
O O13 0.383219 0.846345 0.848560
#
# Coordination Sequence:
#
# PCOD9309637 Si02
#       6
#     8   8   8   8   8   8
#     4  10  25  43  71  98 136 186 238 295 348 430
#     4  11  22  43  71 100 136 183 241 290 354 424
#     4  11  24  41  71 101 137 186 237 288 349 431
#     4  11  26  42  69 103 140 179 231 304 361 414
#     4  12  28  45  71 104 145 189 233 296 361 421
#     4  11  26  46  72 103 137 190 241 288 349 430
#
# _framework density 10.360374999999999
#
# number of rings (size 3 to 8) (size 9 to 14) (size 15 to 20)
#    0.000    1.000    3.333    1.500    9.333    5.333 
#    0.000    0.000    0.000    0.000    0.000    0.000 
#    0.000    0.000    0.000    0.000    0.000    0.000 
#
# Total GULP energy -133699.992245 kJ/mol
# GULP energy per Si atom -5570.833010 kJ/mol
# Density = 1.033679 g / cm^3
# Si number density = 10.360375 Si / 1000 Ang^3
#
#
#
# Elastic Constant Matrix: (Units=GPa)
#
#
# Indices 1 2 3 4 5 6 
#
# 1 114.2354 13.8105 25.8846 0.0007 -28.8260 -0.0117
# 2 13.8105 74.6961 6.6523 0.0058 -10.3516 0.0091
# 3 25.8846 6.6523 46.6716 0.0019 -6.5823 -0.0018
# 4 0.0007 0.0058 0.0019 39.3228 0.0011 -4.9212
# 5 -28.8260 -10.3516 -6.5823 0.0011 46.9460 -0.0001
# 6 -0.0117 0.0091 -0.0018 -4.9212 -0.0001 33.8053
#
#
#
# Elastic Compliance Matrix: (Units=1/GPa)
#
#
# Indices 1 2 3 4 5 6 
#
# 1 0.011660 -0.000807 -0.005475 0.000001 0.006214 0.000004
# 2 -0.000807 0.013979 -0.001204 -0.000003 0.002418 -0.000004
# 3 -0.005475 -0.001204 0.024610 -0.000001 -0.000177 0.000000
# 4 0.000001 -0.000003 -0.000001 0.025902 -0.000001 0.003771
# 5 0.006214 0.002418 -0.000177 -0.000001 0.025625 0.000001
# 6 0.000004 -0.000004 0.000000 0.003771 0.000001 0.030130
#
#
# Mechanical properties :
#
#
# Convention : Reuss Voigt Hill
#
# Bulk Modulus (GPa) = 28.34770 36.47753 32.41262
# Shear Modulus (GPa) = 31.51831 36.63186 34.07509
#
# Velocity S-wave (km/s) = 3.90436 4.20918 4.05963
# Velocity P-wave (km/s) = 5.83403 6.42382 6.13602
#
# Compressibility (1/GPa) = 0.03527622
#
# Stress axis : x y z
#
# Youngs Moduli (GPa) = 85.76235 71.53527 40.63438
#
# Poissons Ratio (x) = 0.05773 0.22249
# Poissons Ratio (y) = 0.06921 0.04892
# Poissons Ratio (z) = 0.46959 0.08612
#
# Static dielectric constant tensor:
#      x y z
#    x 1.714790 -0.000010 0.011810 
#    y -0.000010 1.868950 0.000000 
#    z 0.011810 0.000000 1.774100 
# 
# From -- ./inp_files/254229.got.cif
#   From: 2010.05.17/outbox.ucp.g08.bks.cvg/sg15_128_cif.got.tgz:254229.got - 2010.06.11 12:40:34.
