data_PCOD9309789
_publ_section_title
;
Structure prediction by ZEFSAII (Michael W. Deem and Ramdas Pophale) SiO2 
 PCOD9309789
Probable space group: C 2/C
;
_chemical_formula_sum "Si O2"
_cell_formula_units_Z 24
_cell_length_a 18.000000
_cell_length_b 9.000000
_cell_length_c 30.000000
_cell_angle_alpha 90.000000
_cell_angle_beta 30.000000
_cell_angle_gamma 90.000000
_cell_volume 2430.000000
_symmetry_space_group_name_H-M "C 2/C"
_symmetry_group_IT_number 15
_symmetry_cell_setting 'monoclinic'
loop_
_space_group_symop_operation_xyz
x,y,z
-x,y,1/2-z
-x,-y,-z
x,-y,1/2+z
1/2+x,1/2+y,z
1/2-x,1/2+y,1/2-z
1/2-x,1/2-y,-z
1/2+x,1/2-y,1/2+z
loop_
_atom_site_type_symbol
_atom_site_label
_atom_site_fract_x
_atom_site_fract_y
_atom_site_fract_z
Si Si1 0.035306 0.016133 0.356788
Si Si2 0.885813 0.921038 0.525250
Si Si3 0.725311 0.245602 0.288741
Si Si4 0.965586 0.419535 0.970763
Si Si5 0.826748 0.645549 0.833795
Si Si6 0.231849 0.857221 0.553213
O O1 0.141878 0.159978 0.304938
O O2 0.924109 0.055365 0.373981
O O3 0.140472 0.869291 0.303173
O O4 0.930931 0.984982 0.453576
O O5 0.899340 0.743904 0.516696
O O6 0.729534 0.983636 0.622490
O O7 0.000000 0.000000 0.500000
O O8 0.610403 0.121187 0.366357
O O9 0.780055 0.319674 0.307115
O O10 0.858723 0.520220 0.995717
O O11 0.000000 0.500000 0.000000
O O12 0.763753 0.759873 0.903702
O O13 0.000000 0.657020 0.750000
O O14 0.250000 0.750000 0.500000
#
# Coordination Sequence:
#
# PCOD9309789 Si02
#       6
#     8   8   8   8   8   8
#     4  11  25  43  66 102 134 178 227 284 332 400
#     4  11  22  45  68  97 137 179 226 276 343 412
#     4  11  25  43  69 100 140 175 230 276 344 408
#     4  11  24  43  73 100 134 187 225 271 347 416
#     4  12  23  44  68  99 137 180 220 281 347 404
#     4  12  25  43  71  99 137 176 227 282 336 403
#
# _framework density 9.8765429999999999
#
# number of rings (size 3 to 8) (size 9 to 14) (size 15 to 20)
#    0.000    0.667    8.333    0.000    2.333    2.667 
#    3.000    0.833    0.000    0.000    0.000    0.000 
#    0.000    0.000    0.000    0.000    0.000    0.000 
#
# Total GULP energy -133994.816503 kJ/mol
# GULP energy per Si atom -5583.117354 kJ/mol
# Density = 0.985406 g / cm^3
# Si number density = 9.876543 Si / 1000 Ang^3
#
#
#
# Elastic Constant Matrix: (Units=GPa)
#
#
# Indices 1 2 3 4 5 6 
#
# 1 82.3576 45.2900 -1.5290 -0.0001 -12.5148 0.0005
# 2 45.2900 127.4984 42.3982 -0.0006 -1.4148 0.0008
# 3 -1.5290 42.3982 48.5525 -0.0001 -12.2606 0.0001
# 4 -0.0001 -0.0006 -0.0001 44.3086 0.0001 -6.2092
# 5 -12.5148 -1.4148 -12.2606 0.0001 32.9148 -0.0001
# 6 0.0005 0.0008 0.0001 -6.2092 -0.0001 44.5572
#
#
#
# Elastic Compliance Matrix: (Units=1/GPa)
#
#
# Indices 1 2 3 4 5 6 
#
# 1 0.021079 -0.012189 0.014570 0.000000 0.012918 0.000000
# 2 -0.012189 0.018467 -0.019295 0.000000 -0.011028 0.000000
# 3 0.014570 -0.019295 0.043153 0.000000 0.020785 0.000000
# 4 0.000000 0.000000 0.000000 0.023018 0.000000 0.003208
# 5 0.012918 -0.011028 0.020785 0.000000 0.042561 0.000000
# 6 0.000000 0.000000 0.000000 0.003208 0.000000 0.022890
#
#
# Mechanical properties :
#
#
# Convention : Reuss Voigt Hill
#
# Bulk Modulus (GPa) = 20.46229 47.85855 34.16042
# Shear Modulus (GPa) = 22.59506 35.83941 29.21724
#
# Velocity S-wave (km/s) = 3.38579 4.26416 3.85011
# Velocity P-wave (km/s) = 5.06619 6.96600 6.09062
#
# Compressibility (1/GPa) = 0.04887039
#
# Stress axis : x y z
#
# Youngs Moduli (GPa) = 47.44100 54.15033 23.17341
#
# Poissons Ratio (x) = 0.66006 -0.33764
# Poissons Ratio (y) = 0.57828 0.44713
# Poissons Ratio (z) = -0.69122 1.04483
#
# Static dielectric constant tensor:
#      x y z
#    x 1.685920 0.000000 -0.025600 
#    y 0.000000 1.706580 0.000000 
#    z -0.025600 0.000000 1.756000 
# 
# From -- ./inp_files/224697.got.cif
#   From: 2010.05.17/outbox.ucp.g08.bks.cvg/sg15_113_cif.got.tgz:224697.got - 2010.06.11 12:40:34.
