data_PCOD9309309
_publ_section_title
;
Structure prediction by ZEFSAII (Michael W. Deem and Ramdas Pophale) SiO2 
 PCOD9309309
Probable space group: C 2/C
;
_chemical_formula_sum "Si O2"
_cell_formula_units_Z 30
_cell_length_a 24.000000
_cell_length_b 15.000000
_cell_length_c 9.000000
_cell_angle_alpha 90.000000
_cell_angle_beta 100.000000
_cell_angle_gamma 90.000000
_cell_volume 3190.777120
_symmetry_space_group_name_H-M "C 2/C"
_symmetry_group_IT_number 15
_symmetry_cell_setting 'monoclinic'
loop_
_space_group_symop_operation_xyz
x,y,z
-x,y,1/2-z
-x,-y,-z
x,-y,1/2+z
1/2+x,1/2+y,z
1/2-x,1/2+y,1/2-z
1/2-x,1/2-y,-z
1/2+x,1/2-y,1/2+z
loop_
_atom_site_type_symbol
_atom_site_label
_atom_site_fract_x
_atom_site_fract_y
_atom_site_fract_z
Si Si1 0.397607 0.721167 0.002031
Si Si2 0.796434 0.518661 0.071732
Si Si3 0.597929 0.397922 0.592320
Si Si4 0.302751 0.300250 0.707322
Si Si5 0.613587 0.410161 0.249164
Si Si6 0.756279 0.115803 0.730357
Si Si7 0.500000 0.310124 0.750000
Si Si8 0.824685 0.379017 0.859250
O O1 0.343473 0.691909 0.080995
O O2 0.451570 0.740206 0.131922
O O3 0.417492 0.648878 0.890102
O O4 0.369879 0.802720 0.903153
O O5 0.752749 0.461669 0.151594
O O6 0.831504 0.575682 0.203889
O O7 0.767279 0.580910 0.937076
O O8 0.832539 0.448942 0.994921
O O9 0.653589 0.335969 0.647987
O O10 0.592762 0.408219 0.410730
O O11 0.612631 0.490086 0.683491
O O12 0.541006 0.363163 0.651076
O O13 0.280178 0.200507 0.731498
O O14 0.242532 0.351253 0.663904
O O15 0.677483 0.371289 0.266601
#
# Coordination Sequence:
#
# PCOD9309309 Si02
#       8
#     8   8   8   8   8   8   4   8
#     4  11  23  40  64  86 121 167 208 261 309 365
#     4  10  22  32  56  85 130 166 198 239 303 379
#     4  11  25  41  62  93 125 168 210 252 304 365
#     4  11  21  36  61  90 132 165 203 249 310 373
#     4  12  23  38  63  92 127 164 209 251 309 364
#     4  11  20  36  55  94 135 169 197 251 305 380
#     4  10  26  48  64  86 118 168 212 266 304 356
#     4  11  20  38  57  91 122 161 201 247 309 373
#
# _framework density 9.4020980000000005
#
# number of rings (size 3 to 8) (size 9 to 14) (size 15 to 20)
#    0.000    1.067    2.667    6.000    1.867    3.733 
#    0.000    0.000    0.000    0.800    0.000    0.000 
#    0.000    0.000    0.000    0.000    0.000    0.000 
#
# Total GULP energy -167372.129077 kJ/mol
# GULP energy per Si atom -5579.070969 kJ/mol
# Density = 0.938070 g / cm^3
# Si number density = 9.402098 Si / 1000 Ang^3
#
#
#
# Elastic Constant Matrix: (Units=GPa)
#
#
# Indices 1 2 3 4 5 6 
#
# 1 87.7639 29.4582 27.8429 0.0000 7.4362 0.0000
# 2 29.4582 76.7146 49.0181 0.0000 11.3333 0.0000
# 3 27.8429 49.0181 125.5732 0.0000 -23.9665 0.0000
# 4 0.0000 0.0000 0.0000 69.2813 0.0000 -5.9962
# 5 7.4362 11.3333 -23.9665 0.0000 17.7281 0.0000
# 6 0.0000 0.0000 0.0000 -5.9962 0.0000 19.1403
#
#
#
# Elastic Compliance Matrix: (Units=1/GPa)
#
#
# Indices 1 2 3 4 5 6 
#
# 1 0.014462 0.000846 -0.006466 0.000000 -0.015349 0.000000
# 2 0.000846 0.039985 -0.027955 0.000000 -0.063708 0.000000
# 3 -0.006466 -0.027955 0.032667 0.000000 0.064745 0.000000
# 4 0.000000 0.000000 0.000000 0.014836 0.000000 0.004648
# 5 -0.015349 -0.063708 0.064745 0.000000 0.191102 0.000000
# 6 0.000000 0.000000 0.000000 0.004648 0.000000 0.053702
#
#
# Mechanical properties :
#
#
# Convention : Reuss Voigt Hill
#
# Bulk Modulus (GPa) = 50.09327 55.85446 52.97387
# Shear Modulus (GPa) = 11.88897 33.47876 22.68387
#
# Velocity S-wave (km/s) = 2.51719 4.22404 3.47698
# Velocity P-wave (km/s) = 5.92837 7.31831 6.65970
#
# Compressibility (1/GPa) = 0.01996276
#
# Stress axis : x y z
#
# Youngs Moduli (GPa) = 69.14580 25.00966 30.61240
#
# Poissons Ratio (x) = -0.02115 0.19794
# Poissons Ratio (y) = -0.05848 0.85576
# Poissons Ratio (z) = 0.44711 0.69914
#
# Static dielectric constant tensor:
#      x y z
#    x 1.611540 0.000000 0.007210 
#    y 0.000000 1.712260 0.000000 
#    z 0.007210 0.000000 1.697280 
# 
# From -- ./inp_files/61598.got.cif
#   From: 2010.05.17/outbox.ucp.g08.bks.cvg/sg15_31_cif.got.tgz:61598.got - 2010.06.11 12:40:34.
