data_PCOD9309198
_publ_section_title
;
Structure prediction by ZEFSAII (Michael W. Deem and Ramdas Pophale) SiO2 
 PCOD9309198
Probable space group: C 2/C
;
_chemical_formula_sum "Si O2"
_cell_formula_units_Z 24
_cell_length_a 21.000000
_cell_length_b 15.000000
_cell_length_c 9.000000
_cell_angle_alpha 90.000000
_cell_angle_beta 70.000000
_cell_angle_gamma 90.000000
_cell_volume 2664.028580
_symmetry_space_group_name_H-M "C 2/C"
_symmetry_group_IT_number 15
_symmetry_cell_setting 'monoclinic'
loop_
_space_group_symop_operation_xyz
x,y,z
-x,y,1/2-z
-x,-y,-z
x,-y,1/2+z
1/2+x,1/2+y,z
1/2-x,1/2+y,1/2-z
1/2-x,1/2-y,-z
1/2+x,1/2-y,1/2+z
loop_
_atom_site_type_symbol
_atom_site_label
_atom_site_fract_x
_atom_site_fract_y
_atom_site_fract_z
Si Si1 0.752020 0.546560 0.909467
Si Si2 0.543094 0.430310 0.865485
Si Si3 0.335780 0.434793 0.294179
Si Si4 0.080259 0.598700 0.179248
Si Si5 0.654075 0.952020 0.912295
Si Si6 0.571327 0.297910 0.106580
O O1 0.695925 0.589342 0.842792
O O2 0.799722 0.503974 0.744886
O O3 0.716922 0.470467 0.039324
O O4 0.797513 0.595714 0.001135
O O5 0.500000 0.410777 0.750000
O O6 0.611751 0.483344 0.770788
O O7 0.500000 0.500000 0.000000
O O8 0.560672 0.345586 0.955431
O O9 0.375828 0.354504 0.338436
O O10 0.107407 0.600613 0.329671
O O11 0.092302 0.694487 0.091912
O O12 0.000000 0.582806 0.250000
O O13 0.113261 0.522145 0.048763
O O14 0.500000 0.303347 0.250000
#
# Coordination Sequence:
#
# PCOD9309198 Si02
#       6
#     8   8   8   8   8   8
#     4   9  19  32  59  81 108 160 193 222 269 357
#     4  12  19  32  55  83 123 162 186 221 275 335
#     4  11  17  32  56  83 116 156 191 211 279 345
#     4  10  21  39  65  84 108 144 189 245 301 342
#     4   9  19  40  59  81 108 144 196 244 290 330
#     4  11  22  35  54  92 121 146 191 240 278 337
#
# _framework density 9.0089120000000005
#
# number of rings (size 3 to 8) (size 9 to 14) (size 15 to 20)
#    0.000    1.667    5.000    0.500    0.000    0.000 
#    0.000   15.833    0.000    0.000    0.000    0.000 
#    0.000    0.000    0.000    0.000    0.000    0.000 
#
# Total GULP energy -133604.883892 kJ/mol
# GULP energy per Si atom -5566.870162 kJ/mol
# Density = 0.898841 g / cm^3
# Si number density = 9.008912 Si / 1000 Ang^3
#
#
#
# Elastic Constant Matrix: (Units=GPa)
#
#
# Indices 1 2 3 4 5 6 
#
# 1 118.6690 25.9019 43.8523 0.0000 45.0086 0.0000
# 2 25.9019 70.3413 25.1199 0.0000 12.5900 0.0000
# 3 43.8523 25.1199 109.2348 0.0000 32.9031 0.0000
# 4 0.0000 0.0000 0.0000 24.8619 0.0000 10.3947
# 5 45.0086 12.5900 32.9031 0.0000 58.0731 0.0000
# 6 0.0000 0.0000 0.0000 10.3947 0.0000 3.9667
#
#
#
# Elastic Compliance Matrix: (Units=1/GPa)
#
#
# Indices 1 2 3 4 5 6 
#
# 1 0.012882 -0.002515 -0.002110 0.000000 -0.008243 0.000000
# 2 -0.002515 0.016106 -0.002688 0.000000 -0.000020 0.000000
# 3 -0.002110 -0.002688 0.012000 0.000000 -0.004580 0.000000
# 4 0.000000 0.000000 0.000000 -0.420595 0.000000 1.102173
# 5 -0.008243 -0.000020 -0.004580 0.000000 0.026208 0.000000
# 6 0.000000 0.000000 0.000000 1.102173 0.000000 -2.636155
#
#
# Mechanical properties :
#
#
# Convention : Reuss Voigt Hill
#
# Bulk Modulus (GPa) = 37.93457 54.22148 46.07802
# Shear Modulus (GPa) = -1.68569 30.93839 14.62635
#
# Velocity S-wave (km/s) = -0.96830 4.14828 2.85225
# Velocity P-wave (km/s) = 4.45528 7.28718 6.03955
#
# Compressibility (1/GPa) = 0.02636118
#
# Stress axis : x y z
#
# Youngs Moduli (GPa) = 77.62824 62.08899 83.33562
#
# Poissons Ratio (x) = 0.15613 0.17586
# Poissons Ratio (y) = 0.19520 0.22404
# Poissons Ratio (z) = 0.16381 0.16692
#
# Static dielectric constant tensor:
#      x y z
#    x 1.726240 0.000000 -0.001630 
#    y 0.000000 1.607450 0.000000 
#    z -0.001630 0.000000 1.598300 
# 
# From -- ./inp_files/55253.got.cif
#   From: 2010.05.17/outbox.ucp.g08.bks.cvg/sg15_28_cif.got.tgz:55253.got - 2010.06.11 12:40:34.
