data_PCOD9309938
_publ_section_title
;
Structure prediction by ZEFSAII (Michael W. Deem and Ramdas Pophale) SiO2 
 PCOD9309938
Probable space group: P 2 2 2
;
_chemical_formula_sum "Si O2"
_cell_formula_units_Z 28
_cell_length_a 5.391768
_cell_length_b 11.566425
_cell_length_c 21.428618
_cell_angle_alpha 90.000000
_cell_angle_beta 90.000000
_cell_angle_gamma 90.000000
_cell_volume 1336.363194
_symmetry_space_group_name_H-M "P 2 2 2"
_symmetry_group_IT_number 16
_symmetry_cell_setting 'orthorhombic'
loop_
_space_group_symop_operation_xyz
x,y,z
-x,-y,z
x,-y,-z
-x,y,-z
loop_
_atom_site_type_symbol
_atom_site_label
_atom_site_fract_x
_atom_site_fract_y
_atom_site_fract_z
Si Si1 0.264463 0.687976 0.165349
Si Si2 0.749583 0.055961 0.731909
Si Si3 0.487744 0.361293 0.574252
Si Si4 0.974579 0.372751 0.627096
Si Si5 0.252772 0.041675 0.872665
Si Si6 0.252652 0.630250 0.025877
Si Si7 0.234009 0.323660 0.243421
O O1 0.271233 0.823827 0.146019
O O2 0.270958 0.622741 0.099937
O O3 0.499310 0.655741 0.209911
O O4 0.996631 0.667663 0.196113
O O5 0.752496 0.192995 0.730720
O O6 0.500000 0.000000 0.705603
O O7 0.749420 0.025892 0.806076
O O8 0.000000 0.000000 0.705777
O O9 0.500000 0.500000 0.587654
O O10 0.500000 0.347971 0.500000
O O11 0.746366 0.306816 0.596172
O O12 0.244893 0.319506 0.612842
O O13 0.863908 0.392784 0.696462
O O14 0.000000 0.500000 0.596603
O O15 0.500000 0.000000 0.906504
O O16 0.000000 0.000000 0.904345
O O17 0.251170 0.500000 0.000000
O O18 0.500000 0.689736 0.000000
O O19 0.000000 0.685989 0.000000
#
# Coordination Sequence:
#
# PCOD9309938 Si02
#       7
#     4   4   4   4   4   4   4
#     4  12  21  35  61  80 103 147 180 217 301 346
#     4  10  16  30  49  76 113 141 173 217 256 351
#     4   9  17  33  57  74  99 159 204 228 275 316
#     4  10  21  35  47  78 127 142 180 248 266 326
#     4  10  16  30  51  81 106 132 168 222 262 351
#     4  10  23  45  62  76 100 133 192 253 254 310
#     4  12  21  33  54  89 113 150 173 216 306 353
#
# _framework density 20.952387999999999
#
# number of rings (size 3 to 8) (size 9 to 14) (size 15 to 20)
#    0.000    1.571    5.714    2.143    0.000    1.714 
#    7.714    0.000    0.000    2.571    0.000    0.000 
#    0.000    8.571    0.000    0.000    0.000    0.000 
#
# Total GULP energy -155976.559874 kJ/mol
# GULP energy per Si atom -5570.591424 kJ/mol
# Density = 2.090470 g / cm^3
# Si number density = 20.952388 Si / 1000 Ang^3
#
#
#
# Elastic Constant Matrix: (Units=GPa)
#
#
# Indices 1 2 3 4 5 6 
#
# 1 231.3401 -1.8026 42.0880 0.0000 0.0000 0.0000
# 2 -1.8026 32.5617 2.4732 0.0000 0.0000 0.0000
# 3 42.0880 2.4732 70.8874 0.0000 0.0000 0.0000
# 4 0.0000 0.0000 0.0000 8.4830 0.0000 0.0000
# 5 0.0000 0.0000 0.0000 0.0000 -38.2236 0.0000
# 6 0.0000 0.0000 0.0000 0.0000 0.0000 6.0398
#
#
#
# Elastic Compliance Matrix: (Units=1/GPa)
#
#
# Indices 1 2 3 4 5 6 
#
# 1 0.004854 0.000489 -0.002899 0.000000 0.000000 0.000000
# 2 0.000489 0.030842 -0.001366 0.000000 0.000000 0.000000
# 3 -0.002899 -0.001366 0.015876 0.000000 0.000000 0.000000
# 4 0.000000 0.000000 0.000000 0.117883 0.000000 0.000000
# 5 0.000000 0.000000 0.000000 0.000000 -0.026162 0.000000
# 6 0.000000 0.000000 0.000000 0.000000 0.000000 0.165568
#
#
# Mechanical properties :
#
#
# Convention : Reuss Voigt Hill
#
# Bulk Modulus (GPa) = 22.71766 46.70071 34.70919
# Shear Modulus (GPa) = 15.10181 14.72854 14.91518
#
# Velocity S-wave (km/s) = 2.68763 2.65420 2.67097
# Velocity P-wave (km/s) = 4.52738 5.63298 5.11016
#
# Compressibility (1/GPa) = 0.04401862
#
# Stress axis : x y z
#
# Youngs Moduli (GPa) = 206.02169 32.42360 62.98919
#
# Poissons Ratio (x) = -0.01585 0.18260
# Poissons Ratio (y) = -0.10072 0.08606
# Poissons Ratio (z) = 0.59724 0.04430
#
# Static dielectric constant tensor:
#      x y z
#    x 1.900520 0.000000 0.000000 
#    y 0.000000 1.760770 0.000000 
#    z 0.000000 0.000000 1.776540 
# 
# From -- ./inp_files/9237.got.cif
#   From: 2010.05.17/outbox.cif.g08.bks.cpg/sg16_5_cif.got.tgz:9237.got - 2010.06.03 22:28:35.
