data_PCOD9309444
_publ_section_title
;
Structure prediction by ZEFSAII (Michael W. Deem and Ramdas Pophale) SiO2 
 PCOD9309444
Probable space group: C 2/C
;
_chemical_formula_sum "Si O2"
_cell_formula_units_Z 24
_cell_length_a 21.000000
_cell_length_b 12.000000
_cell_length_c 15.000000
_cell_angle_alpha 90.000000
_cell_angle_beta 40.000000
_cell_angle_gamma 90.000000
_cell_volume 2429.737165
_symmetry_space_group_name_H-M "C 2/C"
_symmetry_group_IT_number 15
_symmetry_cell_setting 'monoclinic'
loop_
_space_group_symop_operation_xyz
x,y,z
-x,y,1/2-z
-x,-y,-z
x,-y,1/2+z
1/2+x,1/2+y,z
1/2-x,1/2+y,1/2-z
1/2-x,1/2-y,-z
1/2+x,1/2-y,1/2+z
loop_
_atom_site_type_symbol
_atom_site_label
_atom_site_fract_x
_atom_site_fract_y
_atom_site_fract_z
Si Si1 0.113625 0.488149 0.651199
Si Si2 0.756847 0.320644 0.900501
Si Si3 0.267644 0.086804 0.654467
Si Si4 0.397636 0.418482 0.728772
Si Si5 0.875921 0.043895 0.465968
Si Si6 0.682679 0.834153 0.215441
O O1 0.145202 0.393285 0.688435
O O2 0.172576 0.460570 0.496052
O O3 0.140097 0.602642 0.673586
O O4 0.000000 0.484779 0.750000
O O5 0.758162 0.218624 0.830480
O O6 0.750000 0.250000 0.000000
O O7 0.673480 0.418106 0.972462
O O8 0.333151 0.095574 0.674935
O O9 0.168979 0.008136 0.756040
O O10 0.517304 0.441043 0.600057
O O11 0.379647 0.438295 0.854480
O O12 0.359393 0.293085 0.742245
O O13 0.800979 0.141042 0.579285
#
# Coordination Sequence:
#
# PCOD9309444 Si02
#       6
#     8   8   8   8   8   8
#     4  10  23  42  66  90 127 176 219 266 333 393
#     4   9  18  41  61  92 126 164 212 269 322 376
#     4  11  24  42  66  94 136 169 217 283 324 390
#     4  11  23  41  70  98 127 176 226 269 332 394
#     4  10  22  42  70  96 126 177 222 270 331 396
#     4  11  25  42  65  96 136 170 217 280 328 387
#
# _framework density 9.8776119999999992
#
# number of rings (size 3 to 8) (size 9 to 14) (size 15 to 20)
#    0.000    1.667    5.000    0.500    7.000    4.000 
#    3.000    0.000    0.000    0.000    0.000    0.000 
#    0.000    0.000    0.000    0.000    0.000    0.000 
#
# Total GULP energy -133619.535301 kJ/mol
# GULP energy per Si atom -5567.480638 kJ/mol
# Density = 0.985513 g / cm^3
# Si number density = 9.877612 Si / 1000 Ang^3
#
#
#
# Elastic Constant Matrix: (Units=GPa)
#
#
# Indices 1 2 3 4 5 6 
#
# 1 131.8107 75.0060 53.6720 0.0000 -24.8542 0.0000
# 2 75.0060 171.2251 39.4680 0.0000 -23.7140 0.0000
# 3 53.6720 39.4680 66.1724 0.0000 -19.0702 0.0000
# 4 0.0000 0.0000 0.0000 20.1285 0.0000 4.4986
# 5 -24.8542 -23.7140 -19.0702 0.0000 50.1883 0.0000
# 6 0.0000 0.0000 0.0000 4.4986 0.0000 38.2579
#
#
#
# Elastic Compliance Matrix: (Units=1/GPa)
#
#
# Indices 1 2 3 4 5 6 
#
# 1 0.013335 -0.003734 -0.008079 0.000000 0.001770 0.000000
# 2 -0.003734 0.007977 -0.001320 0.000000 0.001418 0.000000
# 3 -0.008079 -0.001320 0.023716 0.000000 0.004387 0.000000
# 4 0.000000 0.000000 0.000000 0.051022 0.000000 -0.005999
# 5 0.001770 0.001418 0.004387 0.000000 0.023138 0.000000
# 6 0.000000 0.000000 0.000000 -0.005999 0.000000 0.026844
#
#
# Mechanical properties :
#
#
# Convention : Reuss Voigt Hill
#
# Bulk Modulus (GPa) = 53.29947 78.38891 65.84419
# Shear Modulus (GPa) = 28.00315 35.11908 31.56111
#
# Velocity S-wave (km/s) = 3.76906 4.22087 4.00135
# Velocity P-wave (km/s) = 6.78083 7.96998 7.39933
#
# Compressibility (1/GPa) = 0.01876191
#
# Stress axis : x y z
#
# Youngs Moduli (GPa) = 74.99254 125.36448 42.16518
#
# Poissons Ratio (x) = 0.46812 0.34063
# Poissons Ratio (y) = 0.28003 0.05567
# Poissons Ratio (z) = 0.60583 0.16551
#
# Static dielectric constant tensor:
#      x y z
#    x 1.717940 0.000000 0.041880 
#    y 0.000000 1.702030 0.000000 
#    z 0.041880 0.000000 1.797380 
# 
# From -- ./inp_files/167850.got.cif
#   From: 2010.05.17/outbox.ucp.g08.bks.cvg/sg15_84_cif.got.tgz:167850.got - 2010.06.11 12:40:34.
