data_PCOD9309226
_publ_section_title
;
Structure prediction by ZEFSAII (Michael W. Deem and Ramdas Pophale) SiO2 
 PCOD9309226
Probable space group: C 2/C
;
_chemical_formula_sum "Si O2"
_cell_formula_units_Z 32
_cell_length_a 30.000000
_cell_length_b 12.000000
_cell_length_c 18.000000
_cell_angle_alpha 90.000000
_cell_angle_beta 150.000000
_cell_angle_gamma 90.000000
_cell_volume 3240.000000
_symmetry_space_group_name_H-M "C 2/C"
_symmetry_group_IT_number 15
_symmetry_cell_setting 'monoclinic'
loop_
_space_group_symop_operation_xyz
x,y,z
-x,y,1/2-z
-x,-y,-z
x,-y,1/2+z
1/2+x,1/2+y,z
1/2-x,1/2+y,1/2-z
1/2-x,1/2-y,-z
1/2+x,1/2-y,1/2+z
loop_
_atom_site_type_symbol
_atom_site_label
_atom_site_fract_x
_atom_site_fract_y
_atom_site_fract_z
Si Si1 0.816053 0.611003 0.448648
Si Si2 0.319311 0.789175 0.800875
Si Si3 0.847077 0.305839 0.152068
Si Si4 0.445822 0.176877 0.269475
Si Si5 0.396745 0.989987 0.821992
Si Si6 0.641220 0.147216 0.516408
Si Si7 0.887887 0.885172 0.804233
Si Si8 0.930599 0.133475 0.852462
O O1 0.845272 0.691378 0.423940
O O2 0.864448 0.636593 0.597226
O O3 0.827688 0.481639 0.441826
O O4 0.710615 0.634283 0.306434
O O5 0.336933 0.912201 0.789917
O O6 0.220794 0.733325 0.649958
O O7 0.382454 0.703046 0.848149
O O8 0.856438 0.393332 0.234115
O O9 0.905984 0.201575 0.263964
O O10 0.750000 0.250000 0.000000
O O11 0.400828 0.082925 0.253659
O O12 0.551931 0.159974 0.436355
O O13 0.404001 0.169527 0.128437
O O14 0.420441 0.295965 0.264345
O O15 0.500000 0.000000 0.000000
O O16 0.889801 0.012816 0.782348
O O17 0.965942 0.875386 0.976735
#
# Coordination Sequence:
#
# PCOD9309226 Si02
#       8
#     8   8   8   8   8   8   8   8
#     4  11  22  40  62  95 128 163 213 268 322 376
#     4  11  24  38  66  96 127 166 218 270 319 391
#     4  10  22  39  63  95 127 172 212 261 323 384
#     4  10  22  38  64  88 126 163 210 266 315 384
#     4  11  22  41  64  98 126 171 218 263 321 395
#     4  11  22  40  60  94 124 164 209 269 328 368
#     4  10  21  40  66  86 129 167 207 257 319 387
#     4  10  21  41  63  91 122 169 211 255 321 386
#
# _framework density 9.8765429999999999
#
# number of rings (size 3 to 8) (size 9 to 14) (size 15 to 20)
#    0.000    1.500    2.500    3.000    0.000    7.000 
#    0.000    0.000    5.500    0.000    0.000    0.000 
#    0.000    0.000    0.000    0.000    0.000    0.000 
#
# Total GULP energy -178336.313115 kJ/mol
# GULP energy per Si atom -5573.009785 kJ/mol
# Density = 0.985406 g / cm^3
# Si number density = 9.876543 Si / 1000 Ang^3
#
#
#
# Elastic Constant Matrix: (Units=GPa)
#
#
# Indices 1 2 3 4 5 6 
#
# 1 57.1041 36.0488 0.3444 0.0000 -5.6161 0.0000
# 2 36.0488 127.4556 20.8601 0.0000 -13.6050 0.0000
# 3 0.3444 20.8601 27.4825 0.0000 -1.8447 0.0000
# 4 0.0000 0.0000 0.0000 30.6412 0.0000 2.5402
# 5 -5.6161 -13.6050 -1.8447 0.0000 19.7142 0.0000
# 6 0.0000 0.0000 0.0000 2.5402 0.0000 -1.9647
#
#
#
# Elastic Compliance Matrix: (Units=1/GPa)
#
#
# Indices 1 2 3 4 5 6 
#
# 1 0.021992 -0.006830 0.005044 0.000000 0.002024 0.000000
# 2 -0.006830 0.011735 -0.008462 0.000000 0.005361 0.000000
# 3 0.005044 -0.008462 0.042719 0.000000 -0.000405 0.000000
# 4 0.000000 0.000000 0.000000 0.029476 0.000000 0.038111
# 5 0.002024 0.005361 -0.000405 0.000000 0.054963 0.000000
# 6 0.000000 0.000000 0.000000 0.038111 0.000000 -0.459706
#
#
# Mechanical properties :
#
#
# Convention : Reuss Voigt Hill
#
# Bulk Modulus (GPa) = 17.87264 36.28321 27.07793
# Shear Modulus (GPa) = -19.25468 19.99739 0.37135
#
# Velocity S-wave (km/s) = -3.12552 3.18522 0.43406
# Velocity P-wave (km/s) = 1.98934 5.65118 3.74021
#
# Compressibility (1/GPa) = 0.05595143
#
# Stress axis : x y z
#
# Youngs Moduli (GPa) = 45.47140 85.21812 23.40880
#
# Poissons Ratio (x) = 0.58200 -0.11808
# Poissons Ratio (y) = 0.31055 0.19807
# Poissons Ratio (z) = -0.22936 0.72107
#
# Static dielectric constant tensor:
#      x y z
#    x 1.784290 0.000000 0.004360 
#    y 0.000000 1.731020 0.000000 
#    z 0.004360 0.000000 1.687610 
# 
# From -- ./inp_files/225182.got.cif
#   From: 2010.05.17/outbox.ucp.g08.bks.cvg/sg15_113_cif.got.tgz:225182.got - 2010.06.11 12:40:34.
