data_PCOD9309866
_publ_section_title
;
Structure prediction by ZEFSAII (Michael W. Deem and Ramdas Pophale) SiO2 
 PCOD9309866
Probable space group: C 2/C
;
_chemical_formula_sum "Si O2"
_cell_formula_units_Z 30
_cell_length_a 27.000000
_cell_length_b 9.000000
_cell_length_c 12.000000
_cell_angle_alpha 90.000000
_cell_angle_beta 90.000000
_cell_angle_gamma 90.000000
_cell_volume 2916.000000
_symmetry_space_group_name_H-M "C 2/C"
_symmetry_group_IT_number 15
_symmetry_cell_setting 'monoclinic'
loop_
_space_group_symop_operation_xyz
x,y,z
-x,y,1/2-z
-x,-y,-z
x,-y,1/2+z
1/2+x,1/2+y,z
1/2-x,1/2+y,1/2-z
1/2-x,1/2-y,-z
1/2+x,1/2-y,1/2+z
loop_
_atom_site_type_symbol
_atom_site_label
_atom_site_fract_x
_atom_site_fract_y
_atom_site_fract_z
Si Si1 0.347373 0.819230 0.683158
Si Si2 0.665832 0.922247 0.162352
Si Si3 0.319278 0.427802 0.856798
Si Si4 0.028155 0.281309 0.447143
Si Si5 0.078187 0.579954 0.491860
Si Si6 0.500000 0.559352 0.250000
Si Si7 0.587895 0.626980 0.647984
Si Si8 0.222339 0.935940 0.386398
O O1 0.387003 0.820875 0.584930
O O2 0.376884 0.740247 0.784098
O O3 0.298815 0.729613 0.642572
O O4 0.336082 0.986094 0.722706
O O5 0.671743 0.745647 0.166167
O O6 0.615256 0.956752 0.094335
O O7 0.719015 0.967958 0.110455
O O8 0.372675 0.500520 0.880860
O O9 0.297367 0.485440 0.733495
O O10 0.293484 0.457139 0.980623
O O11 0.059879 0.431523 0.427398
O O12 0.020023 0.167027 0.347239
O O13 0.058381 0.201789 0.546340
O O14 0.972571 0.336189 0.477505
O O15 0.454731 0.452634 0.281532
#
# Coordination Sequence:
#
# PCOD9309866 Si02
#       8
#     8   8   8   8   8   4   8   8
#     4  11  25  45  72 102 139 193 230 304 364 430
#     4  12  24  46  72 103 140 191 237 296 360 437
#     4  11  26  46  75 106 144 190 238 304 358 439
#     4  11  26  45  64 107 136 184 236 296 352 432
#     4  11  25  43  73  99 144 179 243 292 361 424
#     4  12  26  38  74  96 140 190 242 290 356 426
#     4  11  25  45  66  99 142 181 238 289 362 420
#     4  11  26  47  73 107 147 184 247 296 372 428
#
# _framework density 10.288066000000001
#
# number of rings (size 3 to 8) (size 9 to 14) (size 15 to 20)
#    0.000    0.800    2.667    3.200    9.333    0.000 
#    0.000    3.333    0.000    0.000    0.000    0.000 
#    0.000    0.000    0.000    0.000    0.000    0.000 
#
# Total GULP energy -167152.058104 kJ/mol
# GULP energy per Si atom -5571.735270 kJ/mol
# Density = 1.026465 g / cm^3
# Si number density = 10.288066 Si / 1000 Ang^3
#
#
#
# Elastic Constant Matrix: (Units=GPa)
#
#
# Indices 1 2 3 4 5 6 
#
# 1 66.9059 5.3275 -8.3741 0.0000 3.3970 0.0000
# 2 5.3275 61.2919 18.5019 0.0000 -4.5994 0.0000
# 3 -8.3741 18.5019 69.2281 0.0000 0.5961 0.0000
# 4 0.0000 0.0000 0.0000 21.2580 0.0000 -4.9454
# 5 3.3970 -4.5994 0.5961 0.0000 19.0920 0.0000
# 6 0.0000 0.0000 0.0000 -4.9454 0.0000 14.0195
#
#
#
# Elastic Compliance Matrix: (Units=1/GPa)
#
#
# Indices 1 2 3 4 5 6 
#
# 1 0.015631 -0.002389 0.002559 0.000000 -0.003437 0.000000
# 2 -0.002389 0.018494 -0.005275 0.000000 0.005045 0.000000
# 3 0.002559 -0.005275 0.016184 0.000000 -0.002231 0.000000
# 4 0.000000 0.000000 0.000000 0.051247 0.000000 0.018077
# 5 -0.003437 0.005045 -0.002231 0.000000 0.054275 0.000000
# 6 0.000000 0.000000 0.000000 0.018077 0.000000 0.077706
#
#
# Mechanical properties :
#
#
# Convention : Reuss Voigt Hill
#
# Bulk Modulus (GPa) = 24.93861 25.37073 25.15467
# Shear Modulus (GPa) = 19.44670 23.00526 21.22598
#
# Velocity S-wave (km/s) = 3.07760 3.34736 3.21531
# Velocity P-wave (km/s) = 4.97748 5.22463 5.10255
#
# Compressibility (1/GPa) = 0.04009846
#
# Stress axis : x y z
#
# Youngs Moduli (GPa) = 63.97397 54.07167 61.79104
#
# Poissons Ratio (x) = 0.12918 -0.15812
# Poissons Ratio (y) = 0.15283 0.32596
# Poissons Ratio (z) = -0.16370 0.28523
#
# Static dielectric constant tensor:
#      x y z
#    x 1.723460 0.000000 -0.015410 
#    y 0.000000 1.775290 0.000000 
#    z -0.015410 0.000000 1.775060 
# 
# From -- ./inp_files/121965.got.cif
#   From: 2010.05.17/outbox.ucp.g08.bks.cvg/sg15_61_cif.got.tgz:121965.got - 2010.06.11 12:40:34.
