data_PCOD9309913
_publ_section_title
;
Structure prediction by ZEFSAII (Michael W. Deem and Ramdas Pophale) SiO2 
 PCOD9309913
Probable space group: C 2/C
;
_chemical_formula_sum "Si O2"
_cell_formula_units_Z 20
_cell_length_a 12.000000
_cell_length_b 12.000000
_cell_length_c 27.000000
_cell_angle_alpha 90.000000
_cell_angle_beta 150.000000
_cell_angle_gamma 90.000000
_cell_volume 1944.000000
_symmetry_space_group_name_H-M "C 2/C"
_symmetry_group_IT_number 15
_symmetry_cell_setting 'monoclinic'
loop_
_space_group_symop_operation_xyz
x,y,z
-x,y,1/2-z
-x,-y,-z
x,-y,1/2+z
1/2+x,1/2+y,z
1/2-x,1/2+y,1/2-z
1/2-x,1/2-y,-z
1/2+x,1/2-y,1/2+z
loop_
_atom_site_type_symbol
_atom_site_label
_atom_site_fract_x
_atom_site_fract_y
_atom_site_fract_z
Si Si1 0.111868 0.318068 0.346449
Si Si2 0.559973 0.622468 0.150661
Si Si3 0.383081 0.289439 0.941324
Si Si4 0.321841 0.940184 0.467644
Si Si5 0.950357 0.552280 0.129228
O O1 0.372221 0.290868 0.440230
O O2 0.091918 0.422972 0.375528
O O3 0.000000 0.339535 0.250000
O O4 0.000401 0.216584 0.332664
O O5 0.572238 0.678241 0.099740
O O6 0.382751 0.522358 0.094558
O O7 0.805602 0.579126 0.256735
O O8 0.270880 0.172076 0.915997
O O9 0.230555 0.382772 0.907564
O O10 0.428025 0.915948 0.562720
O O11 0.500000 0.000000 0.500000
#
# Coordination Sequence:
#
# PCOD9309913 Si02
#       5
#     8   8   8   8   8
#     4  12  25  45  73 104 149 191 241 304 369 442
#     4  12  27  48  72 113 148 193 250 307 373 441
#     4  12  25  50  74 105 147 194 248 303 376 441
#     4  12  26  48  76 107 146 196 243 306 369 443
#     4  12  28  46  76 107 145 194 248 305 373 445
#
# _framework density 10.288066000000001
#
# number of rings (size 3 to 8) (size 9 to 14) (size 15 to 20)
#    0.000    0.000    4.000    6.000    5.600    0.000 
#    3.600    0.000    0.000    0.000    0.000    0.000 
#    0.000    0.000    0.000    0.000    0.000    0.000 
#
# Total GULP energy -111787.081289 kJ/mol
# GULP energy per Si atom -5589.354064 kJ/mol
# Density = 1.026465 g / cm^3
# Si number density = 10.288066 Si / 1000 Ang^3
#
#
#
# Elastic Constant Matrix: (Units=GPa)
#
#
# Indices 1 2 3 4 5 6 
#
# 1 144.0710 25.1069 69.3718 0.0000 2.3415 0.0000
# 2 25.1069 105.5200 -3.5660 -0.0001 4.0455 0.0000
# 3 69.3718 -3.5660 -40.5339 -0.0003 -33.3617 0.0002
# 4 0.0000 -0.0001 -0.0003 34.4214 0.0001 9.6948
# 5 2.3415 4.0455 -33.3617 0.0001 23.7848 0.0000
# 6 0.0000 0.0000 0.0002 9.6948 0.0000 63.8828
#
#
#
# Elastic Compliance Matrix: (Units=1/GPa)
#
#
# Indices 1 2 3 4 5 6 
#
# 1 0.005060 -0.001277 0.004179 0.000000 0.005581 0.000000
# 2 -0.001277 0.009857 -0.000824 0.000000 -0.002707 0.000000
# 3 0.004179 -0.000824 -0.007994 0.000000 -0.011484 0.000000
# 4 0.000000 0.000000 0.000000 0.030349 0.000000 -0.004606
# 5 0.005581 -0.002707 -0.011484 0.000000 0.025847 0.000000
# 6 0.000000 0.000000 0.000000 -0.004606 0.000000 0.016353
#
#
# Mechanical properties :
#
#
# Convention : Reuss Voigt Hill
#
# Bulk Modulus (GPa) = 90.25416 43.43142 66.84279
# Shear Modulus (GPa) = 63.28426 32.29410 47.78918
#
# Velocity S-wave (km/s) = 5.55184 3.96598 4.82452
# Velocity P-wave (km/s) = 9.22258 6.49042 7.97438
#
# Compressibility (1/GPa) = 0.01107982
#
# Stress axis : x y z
#
# Youngs Moduli (GPa) = 197.61251 101.45493 -125.09784
#
# Poissons Ratio (x) = 0.12954 0.52283
# Poissons Ratio (y) = 0.25231 -0.10312
# Poissons Ratio (z) = -0.82589 0.08363
#
# Static dielectric constant tensor:
#      x y z
#    x 1.685300 0.000000 0.004160 
#    y 0.000000 1.778760 0.000000 
#    z 0.004160 0.000000 1.738960 
# 
# From -- ./inp_files/142343.got.cif
#   From: 2010.05.17/outbox.ucp.g08.bks.cvg/sg15_72_cif.got.tgz:142343.got - 2010.06.11 12:40:34.
