data_PCOD9310741
_publ_section_title
;
Structure prediction by ZEFSAII (Michael W. Deem and Ramdas Pophale) SiO2 
 PCOD9310741
Probable space group: P 2 2 21
;
_chemical_formula_sum "Si O2"
_cell_formula_units_Z 24
_cell_length_a 6.441581
_cell_length_b 13.513375
_cell_length_c 14.244717
_cell_angle_alpha 90.000000
_cell_angle_beta 90.000000
_cell_angle_gamma 90.000000
_cell_volume 1239.966998
_symmetry_space_group_name_H-M "P 2 2 21"
_symmetry_group_IT_number 17
_symmetry_cell_setting 'orthorhombic'
loop_
_space_group_symop_operation_xyz
x,y,z
-x,-y,1/2+z
x,-y,-z
-x,y,1/2-z
loop_
_atom_site_type_symbol
_atom_site_label
_atom_site_fract_x
_atom_site_fract_y
_atom_site_fract_z
Si Si1 0.381413 0.002031 0.847996
Si Si2 0.118868 0.500000 0.500000
Si Si3 0.808265 0.335014 0.536899
Si Si4 0.000000 0.058783 0.750000
Si Si5 0.180351 0.771955 0.372703
Si Si6 0.518811 0.162264 0.496177
Si Si7 0.566264 0.579179 0.151485
O O1 0.500000 0.007153 0.750000
O O2 0.406544 0.099165 0.912793
O O3 0.468303 0.911702 0.909396
O O4 0.139231 0.995633 0.820781
O O5 0.267266 0.478743 0.588508
O O6 0.968666 0.406328 0.484064
O O7 0.671458 0.254858 0.481717
O O8 0.640344 0.400849 0.591709
O O9 0.955401 0.274507 0.608226
O O10 0.851858 0.132428 0.808897
O O11 0.292565 0.800462 0.470861
O O12 0.325758 0.686390 0.329754
O O13 0.500000 0.533116 0.250000
#
# Coordination Sequence:
#
# PCOD9310741 Si02
#       7
#     4   2   4   2   4   4   4
#     4  11  23  38  57  88 128 164 207 255 308 369
#     4  10  22  38  62  96 124 160 202 262 318 382
#     4  10  20  39  63  89 124 158 206 251 316 375
#     4  12  20  34  60  90 120 152 208 254 308 370
#     4  10  20  33  60  90 119 156 200 252 315 364
#     4  10  22  39  58  86 126 168 200 257 311 363
#     4  10  21  36  62  92 125 154 196 261 321 363
#
# _framework density 19.355354999999999
#
# number of rings (size 3 to 8) (size 9 to 14) (size 15 to 20)
#    0.000    1.667    3.333    1.500    2.333    3.333 
#    0.000    0.000    0.000   32.000    0.000    0.000 
#    0.000    0.000    0.000    0.000    0.000    0.000 
#
# Total GULP energy -133932.593494 kJ/mol
# GULP energy per Si atom -5580.524729 kJ/mol
# Density = 1.931130 g / cm^3
# Si number density = 19.355355 Si / 1000 Ang^3
#
#
#
# Elastic Constant Matrix: (Units=GPa)
#
#
# Indices 1 2 3 4 5 6 
#
# 1 114.5431 37.1492 41.0544 0.0000 0.0000 0.0000
# 2 37.1492 73.2762 45.3020 0.0000 0.0000 0.0000
# 3 41.0544 45.3020 83.9554 0.0000 0.0000 0.0000
# 4 0.0000 0.0000 0.0000 22.1977 0.0000 0.0000
# 5 0.0000 0.0000 0.0000 0.0000 18.5679 0.0000
# 6 0.0000 0.0000 0.0000 0.0000 0.0000 20.1388
#
#
#
# Elastic Compliance Matrix: (Units=1/GPa)
#
#
# Indices 1 2 3 4 5 6 
#
# 1 0.011128 -0.003418 -0.003598 0.000000 0.000000 0.000000
# 2 -0.003418 0.021528 -0.009945 0.000000 0.000000 0.000000
# 3 -0.003598 -0.009945 0.019037 0.000000 0.000000 0.000000
# 4 0.000000 0.000000 0.000000 0.045050 0.000000 0.000000
# 5 0.000000 0.000000 0.000000 0.000000 0.053856 0.000000
# 6 0.000000 0.000000 0.000000 0.000000 0.000000 0.049655
#
#
# Mechanical properties :
#
#
# Convention : Reuss Voigt Hill
#
# Bulk Modulus (GPa) = 56.26776 57.64290 56.95533
# Shear Modulus (GPa) = 20.82469 22.06549 21.44509
#
# Velocity S-wave (km/s) = 3.28367 3.38008 3.33222
# Velocity P-wave (km/s) = 6.59626 6.71411 6.65545
#
# Compressibility (1/GPa) = 0.01777217
#
# Stress axis : x y z
#
# Youngs Moduli (GPa) = 89.86188 46.45078 52.52985
#
# Poissons Ratio (x) = 0.15875 0.18898
# Poissons Ratio (y) = 0.30711 0.52243
# Poissons Ratio (z) = 0.32329 0.46197
#
# Static dielectric constant tensor:
#      x y z
#    x 1.706050 0.000000 0.000000 
#    y 0.000000 1.690200 0.000000 
#    z 0.000000 0.000000 1.667270 
# 
# From -- ./inp_files/7759.got.cif
#   From: 2010.05.17/outbox.cif.g08.bks.cpg/sg17_4_cif.got.tgz:7759.got - 2010.06.03 22:34:06.
