data_PCOD9310184
_publ_section_title
;
Structure prediction by ZEFSAII (Michael W. Deem and Ramdas Pophale) SiO2 
 PCOD9310184
Probable space group: P 2 2 2
;
_chemical_formula_sum "Si O2"
_cell_formula_units_Z 32
_cell_length_a 10.613455
_cell_length_b 9.122576
_cell_length_c 17.355147
_cell_angle_alpha 90.000000
_cell_angle_beta 90.000000
_cell_angle_gamma 90.000000
_cell_volume 1680.360908
_symmetry_space_group_name_H-M "P 2 2 2"
_symmetry_group_IT_number 16
_symmetry_cell_setting 'orthorhombic'
loop_
_space_group_symop_operation_xyz
x,y,z
-x,-y,z
x,-y,-z
-x,y,-z
loop_
_atom_site_type_symbol
_atom_site_label
_atom_site_fract_x
_atom_site_fract_y
_atom_site_fract_z
Si Si1 0.641160 0.856965 0.052309
Si Si2 0.080086 0.234511 0.808624
Si Si3 0.822344 0.904163 0.194573
Si Si4 0.474821 0.324247 0.587770
Si Si5 0.861828 0.331493 0.025085
Si Si6 0.481879 0.663648 0.155140
Si Si7 0.271775 0.626434 0.289293
Si Si8 0.322033 0.289914 0.292568
O O1 0.718943 0.905723 0.127985
O O2 0.514787 0.778442 0.086928
O O3 0.740140 0.748258 0.010027
O O4 0.627240 0.000000 0.000000
O O5 0.135979 0.314337 0.883267
O O6 0.135365 0.313161 0.733523
O O7 0.930989 0.216350 0.821204
O O8 0.126072 0.067300 0.803190
O O9 0.766069 0.846089 0.274269
O O10 0.500000 0.500000 0.591014
O O11 0.500000 0.279109 0.500000
O O12 0.344315 0.307358 0.635888
O O13 0.583864 0.254771 0.639056
O O14 0.858000 0.500000 0.000000
O O15 0.000000 0.269065 0.000000
O O16 0.500000 0.500000 0.122500
O O17 0.361154 0.663376 0.213512
O O18 0.593722 0.686614 0.216380
O O19 0.263174 0.451410 0.302616
#
# Coordination Sequence:
#
# PCOD9310184 Si02
#       8
#     4   4   4   4   4   4   4   4
#     4  11  20  37  60  75 101 138 188 236 286 335
#     4  11  22  35  54  75 106 145 184 235 285 331
#     4  10  21  35  54  77 103 143 185 234 283 323
#     4   8  14  30  58  91 119 143 173 220 278 332
#     4  11  24  35  52  79 105 139 189 245 293 330
#     4   8  17  33  55  75 105 140 175 223 277 330
#     4   9  18  33  56  82 110 141 182 221 271 336
#     4   8  16  31  55  84 109 140 179 223 265 329
#
# _framework density 19.043527999999998
#
# number of rings (size 3 to 8) (size 9 to 14) (size 15 to 20)
#    0.000    2.500    2.500    1.500    5.250    0.750 
#    0.000    6.250    2.750    2.250    0.000    5.250 
#    0.000    0.000    0.000    0.000    0.000    0.000 
#
# Total GULP energy -178225.360541 kJ/mol
# GULP energy per Si atom -5569.542517 kJ/mol
# Density = 1.900018 g / cm^3
# Si number density = 19.043528 Si / 1000 Ang^3
#
#
#
# Elastic Constant Matrix: (Units=GPa)
#
#
# Indices 1 2 3 4 5 6 
#
# 1 38.5934 19.8692 18.9269 0.0000 0.0000 0.0000
# 2 19.8692 56.1927 35.1691 0.0000 0.0000 0.0000
# 3 18.9269 35.1691 109.0214 0.0000 0.0000 0.0000
# 4 0.0000 0.0000 0.0000 -0.8689 0.0000 0.0000
# 5 0.0000 0.0000 0.0000 0.0000 18.9579 0.0000
# 6 0.0000 0.0000 0.0000 0.0000 0.0000 26.3024
#
#
#
# Elastic Compliance Matrix: (Units=1/GPa)
#
#
# Indices 1 2 3 4 5 6 
#
# 1 0.032171 -0.009873 -0.002400 0.000000 0.000000 0.000000
# 2 -0.009873 0.025328 -0.006456 0.000000 0.000000 0.000000
# 3 -0.002400 -0.006456 0.011672 0.000000 0.000000 0.000000
# 4 0.000000 0.000000 0.000000 -1.150844 0.000000 0.000000
# 5 0.000000 0.000000 0.000000 0.000000 0.052748 0.000000
# 6 0.000000 0.000000 0.000000 0.000000 0.000000 0.038019
#
#
# Mechanical properties :
#
#
# Convention : Reuss Voigt Hill
#
# Bulk Modulus (GPa) = 31.53436 39.08197 35.30817
# Shear Modulus (GPa) = -5.30293 17.53442 6.11575
#
# Velocity S-wave (km/s) = -1.67053 3.03769 1.79400
# Velocity P-wave (km/s) = 3.58805 5.73327 4.78249
#
# Compressibility (1/GPa) = 0.03171144
#
# Stress axis : x y z
#
# Youngs Moduli (GPa) = 31.08354 39.48221 85.67538
#
# Poissons Ratio (x) = 0.38982 0.20563
# Poissons Ratio (y) = 0.30690 0.55316
# Poissons Ratio (z) = 0.07461 0.25491
#
# Static dielectric constant tensor:
#      x y z
#    x 1.762520 0.000000 0.000000 
#    y 0.000000 1.681580 0.000000 
#    z 0.000000 0.000000 1.665650 
# 
# From -- ./inp_files/9042.got.cif
#   From: 2010.05.17/outbox.cif.g08.bks.cpg/sg16_5_cif.got.tgz:9042.got - 2010.06.03 22:28:35.
