data_PCOD9310768
_publ_section_title
;
Structure prediction by ZEFSAII (Michael W. Deem and Ramdas Pophale) SiO2 
 PCOD9310768
Probable space group: P 2 2 21
;
_chemical_formula_sum "Si O2"
_cell_formula_units_Z 32
_cell_length_a 16.739387
_cell_length_b 15.130913
_cell_length_c 5.545421
_cell_angle_alpha 90.000000
_cell_angle_beta 90.000000
_cell_angle_gamma 90.000000
_cell_volume 1404.556477
_symmetry_space_group_name_H-M "P 2 2 21"
_symmetry_group_IT_number 17
_symmetry_cell_setting 'orthorhombic'
loop_
_space_group_symop_operation_xyz
x,y,z
-x,-y,1/2+z
x,-y,-z
-x,y,1/2-z
loop_
_atom_site_type_symbol
_atom_site_label
_atom_site_fract_x
_atom_site_fract_y
_atom_site_fract_z
Si Si1 0.843269 0.221770 0.297842
Si Si2 0.311674 0.951553 0.246414
Si Si3 0.233653 0.417099 0.674119
Si Si4 0.608418 0.408446 0.534765
Si Si5 0.865665 0.982622 0.751679
Si Si6 0.319533 0.707785 0.671741
Si Si7 0.907007 0.300428 0.782225
Si Si8 0.412817 0.782679 0.294392
O O1 0.838805 0.118662 0.244546
O O2 0.751746 0.255740 0.333806
O O3 0.885946 0.237032 0.554968
O O4 0.886305 0.265511 0.057447
O O5 0.346228 0.853162 0.217542
O O6 0.336634 0.000000 0.500000
O O7 0.214926 0.957365 0.251604
O O8 0.336544 0.000000 0.000000
O O9 0.222718 0.500000 0.500000
O O10 0.308346 0.435574 0.842178
O O11 0.266890 0.329011 0.545934
O O12 0.148460 0.386313 0.770712
O O13 0.559436 0.500000 0.500000
O O14 0.631821 0.373863 0.273675
O O15 0.584603 0.316073 0.670329
O O16 0.907942 0.000000 0.500000
O O17 0.909960 0.000000 0.000000
O O18 0.387502 0.771304 0.573172
O O19 0.000000 0.320228 0.750000
O O20 0.500000 0.820819 0.250000
#
# Coordination Sequence:
#
# PCOD9310768 Si02
#       8
#     4   4   4   4   4   4   4   4
#     4  11  22  40  68 100 133 181 234 288 341 421
#     4  10  23  42  68  99 137 175 227 291 357 434
#     4  10  20  38  62  97 130 168 231 298 347 411
#     4  11  22  41  69  96 130 181 244 300 347 414
#     4  10  20  34  62  98 126 160 223 289 341 400
#     4  10  21  38  68  92 128 175 237 293 343 411
#     4  11  24  42  66 100 142 187 227 279 362 439
#     4  11  27  44  63 101 143 188 232 297 379 439
#
# _framework density 22.782992
#
# number of rings (size 3 to 8) (size 9 to 14) (size 15 to 20)
#    0.000    1.500    2.500    2.625    5.250    1.000 
#    2.250    3.125    0.000    7.500    0.000    0.000 
#    0.000    0.000    0.000    0.000    0.000    0.000 
#
# Total GULP energy -178200.905748 kJ/mol
# GULP energy per Si atom -5568.778305 kJ/mol
# Density = 2.273114 g / cm^3
# Si number density = 22.782992 Si / 1000 Ang^3
#
#
#
# Elastic Constant Matrix: (Units=GPa)
#
#
# Indices 1 2 3 4 5 6 
#
# 1 97.9306 19.0878 14.1720 0.0000 0.0000 0.0000
# 2 19.0878 81.5136 20.7142 0.0000 0.0000 0.0000
# 3 14.1720 20.7142 115.4818 0.0000 0.0000 0.0000
# 4 0.0000 0.0000 0.0000 42.3589 0.0000 0.0000
# 5 0.0000 0.0000 0.0000 0.0000 12.8004 0.0000
# 6 0.0000 0.0000 0.0000 0.0000 0.0000 10.7132
#
#
#
# Elastic Compliance Matrix: (Units=1/GPa)
#
#
# Indices 1 2 3 4 5 6 
#
# 1 0.010791 -0.002295 -0.000913 0.000000 0.000000 0.000000
# 2 -0.002295 0.013342 -0.002112 0.000000 0.000000 0.000000
# 3 -0.000913 -0.002112 0.009150 0.000000 0.000000 0.000000
# 4 0.000000 0.000000 0.000000 0.023608 0.000000 0.000000
# 5 0.000000 0.000000 0.000000 0.000000 0.078122 0.000000
# 6 0.000000 0.000000 0.000000 0.000000 0.000000 0.093343
#
#
# Mechanical properties :
#
#
# Convention : Reuss Voigt Hill
#
# Bulk Modulus (GPa) = 44.16063 44.76377 44.46220
# Shear Modulus (GPa) = 20.28052 29.23797 24.75925
#
# Velocity S-wave (km/s) = 2.98679 3.58624 3.30015
# Velocity P-wave (km/s) = 5.59641 6.06949 5.83774
#
# Compressibility (1/GPa) = 0.02264460
#
# Stress axis : x y z
#
# Youngs Moduli (GPa) = 92.67251 74.95209 109.28825
#
# Poissons Ratio (x) = 0.17201 0.09974
# Poissons Ratio (y) = 0.21267 0.23076
# Poissons Ratio (z) = 0.08457 0.15826
#
# Static dielectric constant tensor:
#      x y z
#    x 1.823100 0.000000 0.000000 
#    y 0.000000 1.865440 0.000000 
#    z 0.000000 0.000000 1.941150 
# 
# From -- ./inp_files/2719.got.cif
#   From: 2010.05.17/outbox.cif.g08.bks.cpg/sg17_2_cif.got.tgz:2719.got - 2010.06.03 22:34:06.
