data_PCOD9310155
_publ_section_title
;
Structure prediction by ZEFSAII (Michael W. Deem and Ramdas Pophale) SiO2 
 PCOD9310155
Probable space group: P 2 2 2
;
_chemical_formula_sum "Si O2"
_cell_formula_units_Z 20
_cell_length_a 5.722014
_cell_length_b 19.718628
_cell_length_c 7.746094
_cell_angle_alpha 90.000000
_cell_angle_beta 90.000000
_cell_angle_gamma 90.000000
_cell_volume 873.993842
_symmetry_space_group_name_H-M "P 2 2 2"
_symmetry_group_IT_number 16
_symmetry_cell_setting 'orthorhombic'
loop_
_space_group_symop_operation_xyz
x,y,z
-x,-y,z
x,-y,-z
-x,y,-z
loop_
_atom_site_type_symbol
_atom_site_label
_atom_site_fract_x
_atom_site_fract_y
_atom_site_fract_z
Si Si1 0.500000 0.759785 0.500000
Si Si2 0.868190 0.327288 0.683431
Si Si3 0.882247 0.066414 0.808785
Si Si4 0.753194 0.474015 0.801734
Si Si5 0.500000 0.124656 0.000000
Si Si6 0.142277 0.802891 0.235427
O O1 0.365623 0.712393 0.633855
O O2 0.311863 0.801724 0.397881
O O3 0.789206 0.393526 0.785959
O O4 0.000000 0.343817 0.500000
O O5 0.030513 0.271661 0.778007
O O6 0.609365 0.076040 0.852663
O O7 0.957966 0.137818 0.730512
O O8 0.000000 0.000000 0.724639
O O9 0.000000 0.065930 0.000000
O O10 0.500000 0.500000 0.729795
O O11 0.000000 0.500000 0.722471
O O12 0.752116 0.500000 0.000000
O O13 0.300060 0.173442 0.924899
#
# Coordination Sequence:
#
# PCOD9310155 Si02
#       6
#     2   4   4   4   2   4
#     4  10  22  42  65  91 128 174 222 272 328 390
#     4  10  23  43  68  95 128 176 223 274 329 409
#     4   9  19  35  58  94 135 171 221 273 331 396
#     4  10  24  48  67  99 136 173 217 279 343 407
#     4  10  20  39  62  98 131 178 214 288 335 396
#     4  10  21  39  64  98 128 176 226 269 331 404
#
# _framework density 22.883454
#
# number of rings (size 3 to 8) (size 9 to 14) (size 15 to 20)
#    0.000    2.200    0.000    1.200    5.600    6.800 
#   18.000    0.000    0.000   24.600    0.000    0.000 
#    0.000    0.000    0.000    0.000    0.000    0.000 
#
# Total GULP energy -111541.132021 kJ/mol
# GULP energy per Si atom -5577.056601 kJ/mol
# Density = 2.283137 g / cm^3
# Si number density = 22.883454 Si / 1000 Ang^3
#
#
#
# Elastic Constant Matrix: (Units=GPa)
#
#
# Indices 1 2 3 4 5 6 
#
# 1 148.6388 71.2120 20.6575 0.0000 0.0000 0.0000
# 2 71.2120 172.9628 56.7152 0.0000 0.0000 0.0000
# 3 20.6575 56.7152 54.9945 0.0000 0.0000 0.0000
# 4 0.0000 0.0000 0.0000 51.6420 0.0000 0.0000
# 5 0.0000 0.0000 0.0000 0.0000 29.0040 0.0000
# 6 0.0000 0.0000 0.0000 0.0000 0.0000 14.8050
#
#
#
# Elastic Compliance Matrix: (Units=1/GPa)
#
#
# Indices 1 2 3 4 5 6 
#
# 1 0.008395 -0.003660 0.000621 0.000000 0.000000 0.000000
# 2 -0.003660 0.010331 -0.009280 0.000000 0.000000 0.000000
# 3 0.000621 -0.009280 0.027520 0.000000 0.000000 0.000000
# 4 0.000000 0.000000 0.000000 0.019364 0.000000 0.000000
# 5 0.000000 0.000000 0.000000 0.000000 0.034478 0.000000
# 6 0.000000 0.000000 0.000000 0.000000 0.000000 0.067545
#
#
# Mechanical properties :
#
#
# Convention : Reuss Voigt Hill
#
# Bulk Modulus (GPa) = 46.27613 74.86283 60.56948
# Shear Modulus (GPa) = 25.06592 34.29095 29.67843
#
# Velocity S-wave (km/s) = 3.31323 3.87525 3.60521
# Velocity P-wave (km/s) = 5.90789 7.26700 6.62240
#
# Compressibility (1/GPa) = 0.02160941
#
# Stress axis : x y z
#
# Youngs Moduli (GPa) = 119.12029 96.79261 36.33655
#
# Poissons Ratio (x) = 0.35426 -0.02257
# Poissons Ratio (y) = 0.43598 0.33720
# Poissons Ratio (z) = -0.07399 0.89822
#
# Static dielectric constant tensor:
#      x y z
#    x 1.953590 0.000000 0.000000 
#    y 0.000000 1.902500 0.000000 
#    z 0.000000 0.000000 1.971690 
# 
# From -- ./inp_files/3155.got.cif
#   From: 2010.05.17/outbox.cif.g08.bks.cpg/sg16_2_cif.got.tgz:3155.got - 2010.06.03 22:28:35.
