data_PCOD9310314
_publ_section_title
;
Structure prediction by ZEFSAII (Michael W. Deem and Ramdas Pophale) SiO2 
 PCOD9310314
Probable space group: P 2 2 2
;
_chemical_formula_sum "Si O2"
_cell_formula_units_Z 18
_cell_length_a 26.801729
_cell_length_b 5.269020
_cell_length_c 5.154973
_cell_angle_alpha 90.000000
_cell_angle_beta 90.000000
_cell_angle_gamma 90.000000
_cell_volume 727.979339
_symmetry_space_group_name_H-M "P 2 2 2"
_symmetry_group_IT_number 16
_symmetry_cell_setting 'orthorhombic'
loop_
_space_group_symop_operation_xyz
x,y,z
-x,-y,z
x,-y,-z
-x,y,-z
loop_
_atom_site_type_symbol
_atom_site_label
_atom_site_fract_x
_atom_site_fract_y
_atom_site_fract_z
Si Si1 0.296308 0.346058 0.236241
Si Si2 0.500000 0.500000 0.000000
Si Si3 0.193402 0.760846 0.662805
Si Si4 0.377498 0.000000 0.500000
Si Si5 0.437414 0.000000 0.000000
Si Si6 0.915876 0.324917 0.751656
Si Si7 0.000000 0.000000 0.000000
O O1 0.286894 0.500000 0.500000
O O2 0.240393 0.266103 0.146264
O O3 0.338125 0.154906 0.325478
O O4 0.318083 0.500000 0.000000
O O5 0.463285 0.268553 0.109071
O O6 0.186938 0.500000 0.500000
O O7 0.136951 0.820999 0.746076
O O8 0.210697 0.000000 0.500000
O O9 0.411511 0.103869 0.735374
O O10 0.922833 0.500000 0.500000
O O11 0.963532 0.155951 0.812571
O O12 0.910592 0.500000 0.000000
#
# Coordination Sequence:
#
# PCOD9310314 Si02
#       7
#     4   1   4   2   2   4   1
#     4  11  24  45  73 112 162 208 256 320 394 479
#     4  10  28  56  76 116 148 224 264 336 384 470
#     4  10  23  48  75 109 151 205 260 313 391 483
#     4  12  26  45  76 122 154 211 256 340 392 474
#     4  11  28  48  83 108 163 202 278 323 400 456
#     4  11  28  51  74 108 146 196 259 326 398 485
#     4  12  30  50  82 108 150 198 262 338 418 468
#
# _framework density 24.725973
#
# number of rings (size 3 to 8) (size 9 to 14) (size 15 to 20)
#    0.000    1.111    1.111    2.333   10.889    5.333 
#    0.000    0.000    0.000    0.000    0.000    0.000 
#    0.000    0.000    0.000    0.000    0.000    0.000 
#
# Total GULP energy -100203.323520 kJ/mol
# GULP energy per Si atom -5566.851307 kJ/mol
# Density = 2.466970 g / cm^3
# Si number density = 24.725973 Si / 1000 Ang^3
#
#
#
# Elastic Constant Matrix: (Units=GPa)
#
#
# Indices 1 2 3 4 5 6 
#
# 1 103.0142 25.1018 30.3459 0.0000 0.0000 0.0000
# 2 25.1018 110.5897 34.1846 0.0000 0.0000 0.0000
# 3 30.3459 34.1846 150.0597 0.0000 0.0000 0.0000
# 4 0.0000 0.0000 0.0000 1250.3854 0.0000 0.0000
# 5 0.0000 0.0000 0.0000 0.0000 -33.1050 0.0000
# 6 0.0000 0.0000 0.0000 0.0000 0.0000 33.8600
#
#
#
# Elastic Compliance Matrix: (Units=1/GPa)
#
#
# Indices 1 2 3 4 5 6 
#
# 1 0.010677 -0.001889 -0.001729 0.000000 0.000000 0.000000
# 2 -0.001889 0.010062 -0.001910 0.000000 0.000000 0.000000
# 3 -0.001729 -0.001910 0.007449 0.000000 0.000000 0.000000
# 4 0.000000 0.000000 0.000000 0.000800 0.000000 0.000000
# 5 0.000000 0.000000 0.000000 0.000000 -0.030207 0.000000
# 6 0.000000 0.000000 0.000000 0.000000 0.000000 0.029533
#
#
# Mechanical properties :
#
#
# Convention : Reuss Voigt Hill
#
# Bulk Modulus (GPa) = 58.37227 60.32538 59.34882
# Shear Modulus (GPa) = 110.91376 268.49684 189.70530
#
# Velocity S-wave (km/s) = 6.70482 10.43191 8.76867
# Velocity P-wave (km/s) = 9.14321 13.02114 11.25052
#
# Compressibility (1/GPa) = 0.01713142
#
# Stress axis : x y z
#
# Youngs Moduli (GPa) = 93.65938 99.38728 134.25057
#
# Poissons Ratio (x) = 0.18775 0.23209
# Poissons Ratio (y) = 0.17693 0.25643
# Poissons Ratio (z) = 0.16192 0.18984
#
# Static dielectric constant tensor:
#      x y z
#    x -3.687540 0.000000 0.000000 
#    y 0.000000 2.046840 0.000000 
#    z 0.000000 0.000000 1.933730 
# 
# From -- ./inp_files/2806.got.cif
#   From: 2010.05.17/outbox.cif.g08.bks.cpg/sg16_2_cif.got.tgz:2806.got - 2010.06.03 22:28:35.
