data_PCOD9310133
_publ_section_title
;
Structure prediction by ZEFSAII (Michael W. Deem and Ramdas Pophale) SiO2 
 PCOD9310133
Probable space group: P 2 2 2
;
_chemical_formula_sum "Si O2"
_cell_formula_units_Z 32
_cell_length_a 14.225119
_cell_length_b 13.426738
_cell_length_c 7.365194
_cell_angle_alpha 90.000000
_cell_angle_beta 90.000000
_cell_angle_gamma 90.000000
_cell_volume 1406.729559
_symmetry_space_group_name_H-M "P 2 2 2"
_symmetry_group_IT_number 16
_symmetry_cell_setting 'orthorhombic'
loop_
_space_group_symop_operation_xyz
x,y,z
-x,-y,z
x,-y,-z
-x,y,-z
loop_
_atom_site_type_symbol
_atom_site_label
_atom_site_fract_x
_atom_site_fract_y
_atom_site_fract_z
Si Si1 0.371585 0.799512 0.207857
Si Si2 0.104153 0.287989 0.330996
Si Si3 0.300827 0.383658 0.228286
Si Si4 0.061373 0.398133 0.714740
Si Si5 0.095334 0.948087 0.693952
Si Si6 0.726990 0.400928 0.192318
Si Si7 0.589816 0.198932 0.768609
Si Si8 0.699150 0.991222 0.204895
O O1 0.313855 0.702054 0.269867
O O2 0.479596 0.807419 0.266139
O O3 0.317940 0.897850 0.275428
O O4 0.382959 0.797319 0.985657
O O5 0.201851 0.327565 0.255475
O O6 0.093102 0.347101 0.523032
O O7 0.092741 0.169991 0.342565
O O8 0.016368 0.323354 0.210297
O O9 0.301510 0.497544 0.293794
O O10 0.375246 0.305326 0.303191
O O11 0.311527 0.398141 0.012225
O O12 0.159449 0.407755 0.817163
O O13 0.000000 0.500000 0.700815
O O14 0.190805 0.967329 0.802097
O O15 0.109006 0.000000 0.500000
O O16 0.000000 0.000000 0.768901
O O17 0.644500 0.100343 0.702983
O O18 0.660546 0.000000 0.000000
#
# Coordination Sequence:
#
# PCOD9310133 Si02
#       8
#     4   4   4   4   4   4   4   4
#     4   9  19  32  59  85 116 149 188 239 289 353
#     4  11  22  38  58  79 110 155 196 235 278 349
#     4  10  20  37  56  85 120 148 184 239 293 332
#     4  11  22  37  57  82 109 151 199 230 277 343
#     4  11  24  40  56  84 116 156 192 237 293 348
#     4  10  22  35  55  89 119 144 188 240 288 338
#     4   9  17  36  56  85 114 152 191 232 295 349
#     4  10  20  36  60  87 115 148 194 243 290 348
#
# _framework density 22.747799000000001
#
# number of rings (size 3 to 8) (size 9 to 14) (size 15 to 20)
#    0.000    1.875    2.500    2.625    3.500    2.750 
#    0.000    3.750    0.000    3.750    0.000    1.750 
#    0.000    0.000    0.000    0.000    0.000    0.000 
#
# Total GULP energy -178465.725353 kJ/mol
# GULP energy per Si atom -5577.053917 kJ/mol
# Density = 2.269602 g / cm^3
# Si number density = 22.747799 Si / 1000 Ang^3
#
#
#
# Elastic Constant Matrix: (Units=GPa)
#
#
# Indices 1 2 3 4 5 6 
#
# 1 85.2500 75.2077 -24.0715 0.0000 0.0000 0.0000
# 2 75.2077 262.6609 7.6539 0.0000 0.0000 0.0000
# 3 -24.0715 7.6539 48.4860 0.0000 0.0000 0.0000
# 4 0.0000 0.0000 0.0000 0.8678 0.0000 0.0000
# 5 0.0000 0.0000 0.0000 0.0000 50.5120 0.0000
# 6 0.0000 0.0000 0.0000 0.0000 0.0000 342.6995
#
#
#
# Elastic Compliance Matrix: (Units=1/GPa)
#
#
# Indices 1 2 3 4 5 6 
#
# 1 0.020233 -0.006114 0.011010 0.000000 0.000000 0.000000
# 2 -0.006114 0.005672 -0.003931 0.000000 0.000000 0.000000
# 3 0.011010 -0.003931 0.026711 0.000000 0.000000 0.000000
# 4 0.000000 0.000000 0.000000 1.152292 0.000000 0.000000
# 5 0.000000 0.000000 0.000000 0.000000 0.019797 0.000000
# 6 0.000000 0.000000 0.000000 0.000000 0.000000 0.002918
#
#
# Mechanical properties :
#
#
# Convention : Reuss Voigt Hill
#
# Bulk Modulus (GPa) = 18.33297 57.10856 37.72077
# Shear Modulus (GPa) = 4.01969 101.32299 52.67134
#
# Velocity S-wave (km/s) = 1.33075 6.68121 4.81713
# Velocity P-wave (km/s) = 3.23078 9.20205 6.89622
#
# Compressibility (1/GPa) = 0.05454653
#
# Stress axis : x y z
#
# Youngs Moduli (GPa) = 49.42439 176.29250 37.43763
#
# Poissons Ratio (x) = 1.07787 -0.41219
# Poissons Ratio (y) = 0.30219 0.14716
# Poissons Ratio (z) = -0.54416 0.69298
#
# Static dielectric constant tensor:
#      x y z
#    x 1.861710 0.000000 0.000000 
#    y 0.000000 1.879880 0.000000 
#    z 0.000000 0.000000 1.763900 
# 
# From -- ./inp_files/5242.got.cif
#   From: 2010.05.17/outbox.cif.g08.bks.cpg/sg16_3_cif.got.tgz:5242.got - 2010.06.03 22:28:35.
