data_PCOD9310252
_publ_section_title
;
Structure prediction by ZEFSAII (Michael W. Deem and Ramdas Pophale) SiO2 
 PCOD9310252
Probable space group: P 2 2 2
;
_chemical_formula_sum "Si O2"
_cell_formula_units_Z 22
_cell_length_a 11.442034
_cell_length_b 13.935255
_cell_length_c 6.202640
_cell_angle_alpha 90.000000
_cell_angle_beta 90.000000
_cell_angle_gamma 90.000000
_cell_volume 988.996443
_symmetry_space_group_name_H-M "P 2 2 2"
_symmetry_group_IT_number 16
_symmetry_cell_setting 'orthorhombic'
loop_
_space_group_symop_operation_xyz
x,y,z
-x,-y,z
x,-y,-z
-x,y,-z
loop_
_atom_site_type_symbol
_atom_site_label
_atom_site_fract_x
_atom_site_fract_y
_atom_site_fract_z
Si Si1 0.874201 0.849927 0.952342
Si Si2 0.330576 0.910833 0.342231
Si Si3 0.638301 0.385878 0.008606
Si Si4 0.500000 0.000000 0.000000
Si Si5 0.000000 0.500000 0.500000
Si Si6 0.151687 0.662846 0.302704
Si Si7 0.738576 0.236460 0.670726
O O1 0.795036 0.901027 0.773330
O O2 0.895455 0.741675 0.862961
O O3 0.794194 0.839477 0.164109
O O4 0.000000 0.892390 0.000000
O O5 0.342979 0.818456 0.498238
O O6 0.336415 0.000000 0.500000
O O7 0.423228 0.931154 0.153798
O O8 0.716553 0.355965 0.214778
O O9 0.656812 0.500000 0.000000
O O10 0.500000 0.369024 0.000000
O O11 0.684352 0.321924 0.810405
O O12 0.920433 0.433061 0.346080
O O13 0.159438 0.715475 0.531520
#
# Coordination Sequence:
#
# PCOD9310252 Si02
#       7
#     4   4   4   1   1   4   4
#     4  10  22  44  69  98 142 177 225 284 345 423
#     4  11  25  48  71 102 139 181 227 294 356 430
#     4  10  22  42  64  95 141 185 238 294 353 425
#     4  12  26  52  70 102 140 178 234 302 364 430
#     4  12  20  36  70  98 138 190 244 298 354 416
#     4  10  22  38  61 100 134 183 235 288 352 410
#     4  10  22  45  66 101 137 183 238 283 357 416
#
# _framework density 22.244769999999999
#
# number of rings (size 3 to 8) (size 9 to 14) (size 15 to 20)
#    0.000    1.636    0.000    3.545    0.000    4.364 
#   39.273   12.273    0.000    0.000    0.000    0.000 
#    0.000    0.000    0.000    0.000    0.000    0.000 
#
# Total GULP energy -122913.514745 kJ/mol
# GULP energy per Si atom -5586.977943 kJ/mol
# Density = 2.219414 g / cm^3
# Si number density = 22.244770 Si / 1000 Ang^3
#
#
#
# Elastic Constant Matrix: (Units=GPa)
#
#
# Indices 1 2 3 4 5 6 
#
# 1 104.9186 48.8888 56.9973 0.0000 0.0000 0.0000
# 2 48.8888 109.2450 52.1244 0.0000 0.0000 0.0000
# 3 56.9973 52.1244 126.6575 0.0000 0.0000 0.0000
# 4 0.0000 0.0000 0.0000 24.5036 0.0000 0.0000
# 5 0.0000 0.0000 0.0000 0.0000 24.1491 0.0000
# 6 0.0000 0.0000 0.0000 0.0000 0.0000 11.5117
#
#
#
# Elastic Compliance Matrix: (Units=1/GPa)
#
#
# Indices 1 2 3 4 5 6 
#
# 1 0.013908 -0.004029 -0.004601 0.000000 0.000000 0.000000
# 2 -0.004029 0.012557 -0.003355 0.000000 0.000000 0.000000
# 3 -0.004601 -0.003355 0.011346 0.000000 0.000000 0.000000
# 4 0.000000 0.000000 0.000000 0.040810 0.000000 0.000000
# 5 0.000000 0.000000 0.000000 0.000000 0.041409 0.000000
# 6 0.000000 0.000000 0.000000 0.000000 0.000000 0.086868
#
#
# Mechanical properties :
#
#
# Convention : Reuss Voigt Hill
#
# Bulk Modulus (GPa) = 72.23930 72.98245 72.61087
# Shear Modulus (GPa) = 21.23304 24.22028 22.72666
#
# Velocity S-wave (km/s) = 3.09288 3.30329 3.19981
# Velocity P-wave (km/s) = 6.73051 6.88687 6.80914
#
# Compressibility (1/GPa) = 0.01384288
#
# Stress axis : x y z
#
# Youngs Moduli (GPa) = 71.90193 79.63432 88.13452
#
# Poissons Ratio (x) = 0.32083 0.40548
# Poissons Ratio (y) = 0.28968 0.29568
# Poissons Ratio (z) = 0.33080 0.26716
#
# Static dielectric constant tensor:
#      x y z
#    x 1.826020 0.000000 0.000000 
#    y 0.000000 1.848450 0.000000 
#    z 0.000000 0.000000 1.938740 
# 
# From -- ./inp_files/1466.got.cif
#   From: 2010.05.17/outbox.cif.g08.bks.cpg/sg16_1_cif.got.tgz:1466.got - 2010.06.03 22:28:35.
