data_PCOD9310167
_publ_section_title
;
Structure prediction by ZEFSAII (Michael W. Deem and Ramdas Pophale) SiO2 
 PCOD9310167
Probable space group: P 2 2 2
;
_chemical_formula_sum "Si O2"
_cell_formula_units_Z 15
_cell_length_a 8.906870
_cell_length_b 16.675630
_cell_length_c 5.051147
_cell_angle_alpha 90.000000
_cell_angle_beta 90.000000
_cell_angle_gamma 90.000000
_cell_volume 750.235088
_symmetry_space_group_name_H-M "P 2 2 2"
_symmetry_group_IT_number 16
_symmetry_cell_setting 'orthorhombic'
loop_
_space_group_symop_operation_xyz
x,y,z
-x,-y,z
x,-y,-z
-x,y,-z
loop_
_atom_site_type_symbol
_atom_site_label
_atom_site_fract_x
_atom_site_fract_y
_atom_site_fract_z
Si Si1 0.668944 0.281352 0.381534
Si Si2 0.098790 0.155870 0.759765
Si Si3 0.500000 0.500000 0.000000
Si Si4 0.000000 0.500000 0.000000
Si Si5 0.000000 0.000000 0.000000
Si Si6 0.743349 0.383703 0.855839
O O1 0.500000 0.274529 0.500000
O O2 0.743106 0.198374 0.286560
O O3 0.756656 0.318254 0.629637
O O4 0.699643 0.341051 0.134241
O O5 0.000000 0.164795 0.500000
O O6 0.101540 0.061457 0.832256
O O7 0.000000 0.193020 0.000000
O O8 0.605189 0.555194 0.181436
O O9 0.889015 0.560515 0.148208
#
# Coordination Sequence:
#
# PCOD9310167 Si02
#       6
#     4   4   1   1   1   4
#     4  12  24  42  66  99 133 176 220 277 340 403
#     4  10  22  40  70 100 131 171 218 270 332 403
#     4  10  20  44  60  88 128 190 212 276 336 400
#     4  10  28  42  60  96 124 178 232 288 332 378
#     4   8  22  42  70 102 130 170 210 270 338 398
#     4  11  25  41  65  90 132 173 229 276 334 396
#
# _framework density 19.993734
#
# number of rings (size 3 to 8) (size 9 to 14) (size 15 to 20)
#    0.800    0.533    2.667    2.000    5.600    6.400 
#    0.000    0.000    0.000    4.800    0.000    0.000 
#    0.000    0.000    0.000    0.000    0.000    0.000 
#
# Total GULP energy -83625.338861 kJ/mol
# GULP energy per Si atom -5575.022591 kJ/mol
# Density = 1.994823 g / cm^3
# Si number density = 19.993734 Si / 1000 Ang^3
#
#
#
# Elastic Constant Matrix: (Units=GPa)
#
#
# Indices 1 2 3 4 5 6 
#
# 1 117.5882 75.3827 37.6560 0.0000 0.0000 0.0000
# 2 75.3827 126.7729 42.0852 0.0000 0.0000 0.0000
# 3 37.6560 42.0852 132.4856 0.0000 0.0000 0.0000
# 4 0.0000 0.0000 0.0000 52.4878 0.0000 0.0000
# 5 0.0000 0.0000 0.0000 0.0000 15.3818 0.0000
# 6 0.0000 0.0000 0.0000 0.0000 0.0000 22.0336
#
#
#
# Elastic Compliance Matrix: (Units=1/GPa)
#
#
# Indices 1 2 3 4 5 6 
#
# 1 0.014002 -0.007831 -0.001492 0.000000 0.000000 0.000000
# 2 -0.007831 0.013197 -0.001967 0.000000 0.000000 0.000000
# 3 -0.001492 -0.001967 0.008597 0.000000 0.000000 0.000000
# 4 0.000000 0.000000 0.000000 0.019052 0.000000 0.000000
# 5 0.000000 0.000000 0.000000 0.000000 0.065012 0.000000
# 6 0.000000 0.000000 0.000000 0.000000 0.000000 0.045385
#
#
# Mechanical properties :
#
#
# Convention : Reuss Voigt Hill
#
# Bulk Modulus (GPa) = 75.65876 76.34384 76.00130
# Shear Modulus (GPa) = 26.01043 32.76215 29.38629
#
# Velocity S-wave (km/s) = 3.61075 4.05238 3.83792
# Velocity P-wave (km/s) = 7.43685 7.75645 7.59833
#
# Compressibility (1/GPa) = 0.01321724
#
# Stress axis : x y z
#
# Youngs Moduli (GPa) = 71.41731 75.77301 116.32180
#
# Poissons Ratio (x) = 0.59336 0.17359
# Poissons Ratio (y) = 0.55925 0.22875
# Poissons Ratio (z) = 0.10658 0.14901
#
# Static dielectric constant tensor:
#      x y z
#    x 1.701200 0.000000 0.000000 
#    y 0.000000 1.776670 0.000000 
#    z 0.000000 0.000000 1.757940 
# 
# From -- ./inp_files/718.got.cif
#   From: 2010.05.17/outbox.cif.g08.bks.cpg/sg16_1_cif.got.tgz:718.got - 2010.06.03 22:28:35.
