data_PCOD9310842
_publ_section_title
;
Structure prediction by ZEFSAII (Michael W. Deem and Ramdas Pophale) SiO2 
 PCOD9310842
Probable space group: P 2 2 21
;
_chemical_formula_sum "Si O2"
_cell_formula_units_Z 24
_cell_length_a 13.432661
_cell_length_b 15.658744
_cell_length_c 5.913009
_cell_angle_alpha 90.000000
_cell_angle_beta 90.000000
_cell_angle_gamma 90.000000
_cell_volume 1243.734034
_symmetry_space_group_name_H-M "P 2 2 21"
_symmetry_group_IT_number 17
_symmetry_cell_setting 'orthorhombic'
loop_
_space_group_symop_operation_xyz
x,y,z
-x,-y,1/2+z
x,-y,-z
-x,y,1/2-z
loop_
_atom_site_type_symbol
_atom_site_label
_atom_site_fract_x
_atom_site_fract_y
_atom_site_fract_z
Si Si1 0.389376 0.586017 0.849445
Si Si2 0.098132 0.568988 0.152385
Si Si3 0.903485 0.731112 0.632131
Si Si4 0.244185 0.348014 0.496150
Si Si5 0.703563 0.752676 0.398459
Si Si6 0.553105 0.900187 0.500092
O O1 0.500000 0.599810 0.750000
O O2 0.317290 0.589068 0.633404
O O3 0.388908 0.500000 0.000000
O O4 0.345748 0.667742 0.987699
O O5 0.176237 0.601274 0.330152
O O6 0.000000 0.525176 0.250000
O O7 0.151867 0.500000 0.000000
O O8 0.058796 0.649409 0.009752
O O9 0.819687 0.770130 0.464861
O O10 0.000000 0.773697 0.750000
O O11 0.832342 0.695801 0.826724
O O12 0.299744 0.272991 0.634521
O O13 0.641836 0.832870 0.481824
O O14 0.500000 0.886152 0.750000
O O15 0.582591 0.000000 0.500000
O O16 0.500000 0.888268 0.250000
#
# Coordination Sequence:
#
# PCOD9310842 Si02
#       6
#     4   4   4   4   4   4
#     4  11  27  43  57  80 118 170 221 264 322 378
#     4  11  22  35  53  79 109 153 203 271 329 382
#     4  10  20  38  57  81 116 154 205 254 317 384
#     4  10  24  41  56  80 115 158 210 269 318 383
#     4  10  24  38  66  93 119 167 210 268 324 391
#     4  10  23  43  72 107 140 170 210 269 337 402
#
# _framework density 19.296728999999999
#
# number of rings (size 3 to 8) (size 9 to 14) (size 15 to 20)
#    0.000    1.667    1.667    1.000    9.333    7.333 
#    0.000    0.000    0.000    0.000    4.333    0.000 
#    0.000    0.000    0.000    0.000    0.000    0.000 
#
# Total GULP energy -133751.763054 kJ/mol
# GULP energy per Si atom -5572.990127 kJ/mol
# Density = 1.925281 g / cm^3
# Si number density = 19.296729 Si / 1000 Ang^3
#
#
#
# Elastic Constant Matrix: (Units=GPa)
#
#
# Indices 1 2 3 4 5 6 
#
# 1 99.8814 41.9830 31.0909 0.0000 0.0000 0.0000
# 2 41.9830 49.3950 19.3555 0.0000 0.0000 0.0000
# 3 31.0909 19.3555 99.4638 0.0000 0.0000 0.0000
# 4 0.0000 0.0000 0.0000 11.3502 0.0000 0.0000
# 5 0.0000 0.0000 0.0000 0.0000 21.8613 0.0000
# 6 0.0000 0.0000 0.0000 0.0000 0.0000 2.9435
#
#
#
# Elastic Compliance Matrix: (Units=1/GPa)
#
#
# Indices 1 2 3 4 5 6 
#
# 1 0.016164 -0.012729 -0.002576 0.000000 0.000000 0.000000
# 2 -0.012729 0.031941 -0.002237 0.000000 0.000000 0.000000
# 3 -0.002576 -0.002237 0.011294 0.000000 0.000000 0.000000
# 4 0.000000 0.000000 0.000000 0.088105 0.000000 0.000000
# 5 0.000000 0.000000 0.000000 0.000000 0.045743 0.000000
# 6 0.000000 0.000000 0.000000 0.000000 0.000000 0.339726
#
#
# Mechanical properties :
#
#
# Convention : Reuss Voigt Hill
#
# Bulk Modulus (GPa) = 41.12523 48.17765 44.65144
# Shear Modulus (GPa) = 8.67813 17.65172 13.16493
#
# Velocity S-wave (km/s) = 2.12296 3.02777 2.61480
# Velocity P-wave (km/s) = 5.23140 6.10280 5.68382
#
# Compressibility (1/GPa) = 0.02431598
#
# Stress axis : x y z
#
# Youngs Moduli (GPa) = 61.86553 31.30812 88.54083
#
# Poissons Ratio (x) = 0.39853 0.22804
# Poissons Ratio (y) = 0.78751 0.19803
# Poissons Ratio (z) = 0.15934 0.07002
#
# Static dielectric constant tensor:
#      x y z
#    x 1.698830 0.000000 0.000000 
#    y 0.000000 1.659270 0.000000 
#    z 0.000000 0.000000 1.804390 
# 
# From -- ./inp_files/2211.got.cif
#   From: 2010.05.17/outbox.cif.g08.bks.cpg/sg17_2_cif.got.tgz:2211.got - 2010.06.03 22:34:06.
