data_PCOD9310101
_publ_section_title
;
Structure prediction by ZEFSAII (Michael W. Deem and Ramdas Pophale) SiO2 
 PCOD9310101
Probable space group: P 2 2 2
;
_chemical_formula_sum "Si O2"
_cell_formula_units_Z 20
_cell_length_a 7.884099
_cell_length_b 9.325517
_cell_length_c 11.654649
_cell_angle_alpha 90.000000
_cell_angle_beta 90.000000
_cell_angle_gamma 90.000000
_cell_volume 856.888246
_symmetry_space_group_name_H-M "P 2 2 2"
_symmetry_group_IT_number 16
_symmetry_cell_setting 'orthorhombic'
loop_
_space_group_symop_operation_xyz
x,y,z
-x,-y,z
x,-y,-z
-x,y,-z
loop_
_atom_site_type_symbol
_atom_site_label
_atom_site_fract_x
_atom_site_fract_y
_atom_site_fract_z
Si Si1 0.428205 0.313880 0.875305
Si Si2 0.763111 0.028641 0.133170
Si Si3 0.203492 0.335779 0.516422
Si Si4 0.892815 0.297070 0.233182
Si Si5 0.730253 0.735957 0.273403
O O1 0.393187 0.142014 0.867532
O O2 0.238106 0.372975 0.853623
O O3 0.572261 0.346186 0.782184
O O4 0.500000 0.345284 0.000000
O O5 0.903841 0.135095 0.186053
O O6 0.737607 0.888227 0.208935
O O7 0.797925 0.000000 0.000000
O O8 0.258897 0.500000 0.500000
O O9 0.215108 0.291517 0.648472
O O10 0.284470 0.249499 0.411106
O O11 0.000000 0.329537 0.500000
O O12 0.086742 0.342846 0.252800
#
# Coordination Sequence:
#
# PCOD9310101 Si02
#       5
#     4   4   4   4   4
#     4  10  21  34  55  84 118 154 183 225 283 342
#     4  10  20  34  55  85 121 153 181 225 285 346
#     4   9  20  41  63  82 112 154 198 244 288 332
#     4   9  22  34  54  88 113 146 198 229 279 348
#     4  11  19  34  59  84 113 153 187 234 285 336
#
# _framework density 23.340266
#
# number of rings (size 3 to 8) (size 9 to 14) (size 15 to 20)
#    1.200    1.000    2.000    1.200    0.000    5.600 
#    0.000    5.000    4.400    6.000    0.000   22.400 
#    0.000    0.000    0.000    0.000    0.000    0.000 
#
# Total GULP energy -111471.513839 kJ/mol
# GULP energy per Si atom -5573.575692 kJ/mol
# Density = 2.328714 g / cm^3
# Si number density = 23.340266 Si / 1000 Ang^3
#
#
#
# Elastic Constant Matrix: (Units=GPa)
#
#
# Indices 1 2 3 4 5 6 
#
# 1 125.8778 -3.2244 26.1229 0.0000 0.0000 0.0000
# 2 -3.2244 85.2205 25.5243 0.0000 0.0000 0.0000
# 3 26.1229 25.5243 152.3193 0.0000 0.0000 0.0000
# 4 0.0000 0.0000 0.0000 99.9673 0.0000 0.0000
# 5 0.0000 0.0000 0.0000 0.0000 36.2282 0.0000
# 6 0.0000 0.0000 0.0000 0.0000 0.0000 22.9994
#
#
#
# Elastic Compliance Matrix: (Units=1/GPa)
#
#
# Indices 1 2 3 4 5 6 
#
# 1 0.008286 0.000778 -0.001551 0.000000 0.000000 0.000000
# 2 0.000778 0.012427 -0.002216 0.000000 0.000000 0.000000
# 3 -0.001551 -0.002216 0.007203 0.000000 0.000000 0.000000
# 4 0.000000 0.000000 0.000000 0.010003 0.000000 0.000000
# 5 0.000000 0.000000 0.000000 0.000000 0.027603 0.000000
# 6 0.000000 0.000000 0.000000 0.000000 0.000000 0.043479
#
#
# Mechanical properties :
#
#
# Convention : Reuss Voigt Hill
#
# Bulk Modulus (GPa) = 45.58375 51.14035 48.36205
# Shear Modulus (GPa) = 40.88559 52.83863 46.86211
#
# Velocity S-wave (km/s) = 4.18989 4.76314 4.48569
# Velocity P-wave (km/s) = 6.55587 7.22554 6.89884
#
# Compressibility (1/GPa) = 0.02193764
#
# Stress axis : x y z
#
# Youngs Moduli (GPa) = 120.68373 80.46740 138.83947
#
# Poissons Ratio (x) = -0.06262 0.21541
# Poissons Ratio (y) = -0.09392 0.30766
# Poissons Ratio (z) = 0.18724 0.17831
#
# Static dielectric constant tensor:
#      x y z
#    x 1.891450 0.000000 0.000000 
#    y 0.000000 1.835830 0.000000 
#    z 0.000000 0.000000 1.877770 
# 
# From -- ./inp_files/3816.got.cif
#   From: 2010.05.17/outbox.cif.g08.bks.cpg/sg16_2_cif.got.tgz:3816.got - 2010.06.03 22:28:35.
