data_PCOD9310500
_publ_section_title
;
Structure prediction by ZEFSAII (Michael W. Deem and Ramdas Pophale) SiO2 
 PCOD9310500
Probable space group: P 2 2 21
;
_chemical_formula_sum "Si O2"
_cell_formula_units_Z 12
_cell_length_a 6.879647
_cell_length_b 13.441587
_cell_length_c 5.136630
_cell_angle_alpha 90.000000
_cell_angle_beta 90.000000
_cell_angle_gamma 90.000000
_cell_volume 475.001505
_symmetry_space_group_name_H-M "P 2 2 21"
_symmetry_group_IT_number 17
_symmetry_cell_setting 'orthorhombic'
loop_
_space_group_symop_operation_xyz
x,y,z
-x,-y,1/2+z
x,-y,-z
-x,y,1/2-z
loop_
_atom_site_type_symbol
_atom_site_label
_atom_site_fract_x
_atom_site_fract_y
_atom_site_fract_z
Si Si1 0.770727 0.099640 0.332344
Si Si2 0.639160 0.608782 0.999804
Si Si3 0.219404 0.188695 0.672683
O O1 0.697897 0.184288 0.534769
O O2 0.000000 0.105431 0.250000
O O3 0.741718 0.000000 0.500000
O O4 0.688684 0.115044 0.041992
O O5 0.500000 0.609472 0.250000
O O6 0.776499 0.703569 0.040279
O O7 0.738622 0.500000 0.000000
O O8 0.500000 0.617114 0.750000
O O9 0.000000 0.158947 0.750000
#
# Coordination Sequence:
#
# PCOD9310500 Si02
#       3
#     4   4   4
#     4  10  18  31  53  81 113 146 182 225 279 341
#     4  10  21  39  60  80 109 153 194 229 286 358
#     4  10  20  34  56  85 111 141 186 238 281 323
#
# _framework density 25.263076999999999
#
# number of rings (size 3 to 8) (size 9 to 14) (size 15 to 20)
#    0.000    2.000    0.000    6.000    0.000    0.000 
#    0.000   10.000    0.000   20.000    0.000    0.000 
#    0.000    0.000    0.000    0.000    0.000    0.000 
#
# Total GULP energy -66933.821692 kJ/mol
# GULP energy per Si atom -5577.818474 kJ/mol
# Density = 2.520558 g / cm^3
# Si number density = 25.263077 Si / 1000 Ang^3
#
#
#
# Elastic Constant Matrix: (Units=GPa)
#
#
# Indices 1 2 3 4 5 6 
#
# 1 55.1484 -4.6897 34.3875 0.0000 0.0000 0.0000
# 2 -4.6897 176.5365 75.0673 0.0000 0.0000 0.0000
# 3 34.3875 75.0673 251.6730 0.0000 0.0000 0.0000
# 4 0.0000 0.0000 0.0000 55.0961 0.0000 0.0000
# 5 0.0000 0.0000 0.0000 0.0000 11.5706 0.0000
# 6 0.0000 0.0000 0.0000 0.0000 0.0000 26.9494
#
#
#
# Elastic Compliance Matrix: (Units=1/GPa)
#
#
# Indices 1 2 3 4 5 6 
#
# 1 0.020408 0.001979 -0.003379 0.000000 0.000000 0.000000
# 2 0.001979 0.006679 -0.002263 0.000000 0.000000 0.000000
# 3 -0.003379 -0.002263 0.005110 0.000000 0.000000 0.000000
# 4 0.000000 0.000000 0.000000 0.018150 0.000000 0.000000
# 5 0.000000 0.000000 0.000000 0.000000 0.086426 0.000000
# 6 0.000000 0.000000 0.000000 0.000000 0.000000 0.037107
#
#
# Mechanical properties :
#
#
# Convention : Reuss Voigt Hill
#
# Bulk Modulus (GPa) = 40.20558 76.98755 58.59656
# Shear Modulus (GPa) = 26.38591 43.96274 35.17433
#
# Velocity S-wave (km/s) = 3.23529 4.17609 3.73543
# Velocity P-wave (km/s) = 5.46859 7.33441 6.46912
#
# Compressibility (1/GPa) = 0.02487217
#
# Stress axis : x y z
#
# Youngs Moduli (GPa) = 49.00053 149.71775 195.69717
#
# Poissons Ratio (x) = -0.29627 0.66120
# Poissons Ratio (y) = -0.09696 0.44279
# Poissons Ratio (z) = 0.16556 0.33875
#
# Static dielectric constant tensor:
#      x y z
#    x 2.124800 0.000000 0.000000 
#    y 0.000000 2.093360 0.000000 
#    z 0.000000 0.000000 2.069150 
# 
# From -- ./inp_files/519.got.cif
#   From: 2010.05.17/outbox.cif.g08.bks.cpg/sg17_1_cif.got.tgz:519.got - 2010.06.03 22:34:06.
