data_PCOD9310136
_publ_section_title
;
Structure prediction by ZEFSAII (Michael W. Deem and Ramdas Pophale) SiO2 
 PCOD9310136
Probable space group: P 2 2 2
;
_chemical_formula_sum "Si O2"
_cell_formula_units_Z 32
_cell_length_a 14.687087
_cell_length_b 11.422975
_cell_length_c 8.656478
_cell_angle_alpha 90.000000
_cell_angle_beta 90.000000
_cell_angle_gamma 90.000000
_cell_volume 1452.299284
_symmetry_space_group_name_H-M "P 2 2 2"
_symmetry_group_IT_number 16
_symmetry_cell_setting 'orthorhombic'
loop_
_space_group_symop_operation_xyz
x,y,z
-x,-y,z
x,-y,-z
-x,y,-z
loop_
_atom_site_type_symbol
_atom_site_label
_atom_site_fract_x
_atom_site_fract_y
_atom_site_fract_z
Si Si1 0.191750 0.013380 0.278863
Si Si2 0.229158 0.383442 0.586944
Si Si3 0.040245 0.167934 0.845614
Si Si4 0.832190 0.618233 0.934404
Si Si5 0.339015 0.827229 0.293208
Si Si6 0.907917 0.780696 0.411153
Si Si7 0.522716 0.860794 0.172416
Si Si8 0.285103 0.196505 0.070985
O O1 0.108398 0.923803 0.239837
O O2 0.282303 0.944039 0.329371
O O3 0.158143 0.891104 0.598446
O O4 0.000000 0.809143 0.500000
O O5 0.259054 0.500000 0.500000
O O6 0.208712 0.412393 0.765983
O O7 0.299591 0.277342 0.605495
O O8 0.143262 0.327057 0.492527
O O9 0.101610 0.276960 0.892622
O O10 0.953615 0.224424 0.757030
O O11 0.000000 0.115841 0.000000
O O12 0.873425 0.500000 0.000000
O O13 0.762095 0.676326 0.059010
O O14 0.447955 0.821041 0.295203
O O15 0.313521 0.819975 0.108627
O O16 0.781641 0.905797 0.130298
O O17 0.627498 0.822159 0.182636
O O18 0.500000 0.000000 0.167339
O O19 0.500000 0.815428 0.000000
#
# Coordination Sequence:
#
# PCOD9310136 Si02
#       8
#     4   4   4   4   4   4   4   4
#     4  12  23  38  68  98 141 173 216 278 349 415
#     4  11  26  48  67  92 131 190 239 283 334 414
#     4  12  27  43  64 102 138 179 230 298 347 398
#     4  11  25  46  68  98 132 176 239 290 339 410
#     4  10  20  38  64 103 139 172 218 273 340 414
#     4  12  27  47  63  97 134 187 234 281 348 413
#     4   9  16  30  63 107 143 165 197 272 346 417
#     4  10  20  36  65 107 139 168 212 278 354 405
#
# _framework density 22.034023999999999
#
# number of rings (size 3 to 8) (size 9 to 14) (size 15 to 20)
#    0.000    1.125    5.000    1.500    5.250    5.500 
#    0.000    0.000    0.000   10.125    3.250    0.000 
#    0.000    0.000    0.000    0.000    0.000    0.000 
#
# Total GULP energy -178463.204434 kJ/mol
# GULP energy per Si atom -5576.975139 kJ/mol
# Density = 2.198387 g / cm^3
# Si number density = 22.034024 Si / 1000 Ang^3
#
#
#
# Elastic Constant Matrix: (Units=GPa)
#
#
# Indices 1 2 3 4 5 6 
#
# 1 109.2458 28.7783 31.7810 0.0000 0.0000 0.0000
# 2 28.7783 115.2547 38.7690 0.0000 0.0000 0.0000
# 3 31.7810 38.7690 63.7297 0.0000 0.0000 0.0000
# 4 0.0000 0.0000 0.0000 38.3621 0.0000 0.0000
# 5 0.0000 0.0000 0.0000 0.0000 32.2453 0.0000
# 6 0.0000 0.0000 0.0000 0.0000 0.0000 4.6812
#
#
#
# Elastic Compliance Matrix: (Units=1/GPa)
#
#
# Indices 1 2 3 4 5 6 
#
# 1 0.010820 -0.001115 -0.004717 0.000000 0.000000 0.000000
# 2 -0.001115 0.011024 -0.006150 0.000000 0.000000 0.000000
# 3 -0.004717 -0.006150 0.021785 0.000000 0.000000 0.000000
# 4 0.000000 0.000000 0.000000 0.026067 0.000000 0.000000
# 5 0.000000 0.000000 0.000000 0.000000 0.031012 0.000000
# 6 0.000000 0.000000 0.000000 0.000000 0.000000 0.213622
#
#
# Mechanical properties :
#
#
# Convention : Reuss Voigt Hill
#
# Bulk Modulus (GPa) = 50.85510 54.09855 52.47683
# Shear Modulus (GPa) = 14.49909 27.65117 21.07513
#
# Velocity S-wave (km/s) = 2.56800 3.54634 3.09606
# Velocity P-wave (km/s) = 5.65006 6.43229 6.05382
#
# Compressibility (1/GPa) = 0.01966371
#
# Stress axis : x y z
#
# Youngs Moduli (GPa) = 92.42401 90.71498 45.90290
#
# Poissons Ratio (x) = 0.10113 0.21655
# Poissons Ratio (y) = 0.10303 0.28231
# Poissons Ratio (z) = 0.43601 0.55791
#
# Static dielectric constant tensor:
#      x y z
#    x 1.887850 0.000000 0.000000 
#    y 0.000000 1.775070 0.000000 
#    z 0.000000 0.000000 2.005050 
# 
# From -- ./inp_files/4833.got.cif
#   From: 2010.05.17/outbox.cif.g08.bks.cpg/sg16_3_cif.got.tgz:4833.got - 2010.06.03 22:28:35.
