data_PCOD9310148
_publ_section_title
;
Structure prediction by ZEFSAII (Michael W. Deem and Ramdas Pophale) SiO2 
 PCOD9310148
Probable space group: P 2 2 2
;
_chemical_formula_sum "Si O2"
_cell_formula_units_Z 17
_cell_length_a 7.529352
_cell_length_b 14.013682
_cell_length_c 7.364732
_cell_angle_alpha 90.000000
_cell_angle_beta 90.000000
_cell_angle_gamma 90.000000
_cell_volume 777.081924
_symmetry_space_group_name_H-M "P 2 2 2"
_symmetry_group_IT_number 16
_symmetry_cell_setting 'orthorhombic'
loop_
_space_group_symop_operation_xyz
x,y,z
-x,-y,z
x,-y,-z
-x,y,-z
loop_
_atom_site_type_symbol
_atom_site_label
_atom_site_fract_x
_atom_site_fract_y
_atom_site_fract_z
Si Si1 0.000000 0.500000 0.000000
Si Si2 0.691276 0.355513 0.948542
Si Si3 0.287740 0.999159 0.710084
Si Si4 0.813154 0.793829 0.743594
Si Si5 0.775296 0.210319 0.671296
O O1 0.145458 0.428049 0.088871
O O2 0.665356 0.290078 0.772808
O O3 0.500000 0.397577 0.000000
O O4 0.745770 0.281974 0.110121
O O5 0.244179 0.892339 0.767271
O O6 0.500000 0.000000 0.713877
O O7 0.223264 0.000000 0.500000
O O8 0.211963 0.094812 0.800142
O O9 0.727049 0.791910 0.541588
O O10 0.017404 0.769273 0.703429
#
# Coordination Sequence:
#
# PCOD9310148 Si02
#       5
#     1   4   4   4   4
#     4  12  26  52  66  92 124 150 210 272 330 376
#     4  12  25  44  70  93 121 162 207 261 320 375
#     4   9  17  30  53  90 132 169 207 246 290 358
#     4  10  20  38  63  93 131 170 207 249 302 367
#     4  10  20  38  63  93 131 170 207 249 302 367
#
# _framework density 21.876715999999998
#
# number of rings (size 3 to 8) (size 9 to 14) (size 15 to 20)
#    0.000    1.647    2.353    2.471    0.000    6.588 
#    0.000    7.059    0.000    2.824    0.000    0.000 
#    0.000    0.000    0.000    0.000    0.000    0.000 
#
# Total GULP energy -94793.595136 kJ/mol
# GULP energy per Si atom -5576.093832 kJ/mol
# Density = 2.182692 g / cm^3
# Si number density = 21.876716 Si / 1000 Ang^3
#
#
#
# Elastic Constant Matrix: (Units=GPa)
#
#
# Indices 1 2 3 4 5 6 
#
# 1 77.6741 10.5623 -10.8560 0.0000 0.0000 0.0000
# 2 10.5623 123.9242 31.9181 0.0000 0.0000 0.0000
# 3 -10.8560 31.9181 77.9097 0.0000 0.0000 0.0000
# 4 0.0000 0.0000 0.0000 3.9446 0.0000 0.0000
# 5 0.0000 0.0000 0.0000 0.0000 19.0405 0.0000
# 6 0.0000 0.0000 0.0000 0.0000 0.0000 9.0993
#
#
#
# Elastic Compliance Matrix: (Units=1/GPa)
#
#
# Indices 1 2 3 4 5 6 
#
# 1 0.013490 -0.001827 0.002628 0.000000 0.000000 0.000000
# 2 -0.001827 0.009269 -0.004052 0.000000 0.000000 0.000000
# 3 0.002628 -0.004052 0.014861 0.000000 0.000000 0.000000
# 4 0.000000 0.000000 0.000000 0.253510 0.000000 0.000000
# 5 0.000000 0.000000 0.000000 0.000000 0.052520 0.000000
# 6 0.000000 0.000000 0.000000 0.000000 0.000000 0.109899
#
#
# Mechanical properties :
#
#
# Convention : Reuss Voigt Hill
#
# Bulk Modulus (GPa) = 32.13416 38.08406 35.10911
# Shear Modulus (GPa) = 10.62876 22.94246 16.78561
#
# Velocity S-wave (km/s) = 2.20659 3.24190 2.77299
# Velocity P-wave (km/s) = 4.60572 5.60888 5.13187
#
# Compressibility (1/GPa) = 0.03111953
#
# Stress axis : x y z
#
# Youngs Moduli (GPa) = 74.12894 107.88989 67.28801
#
# Poissons Ratio (x) = 0.19708 -0.17684
# Poissons Ratio (y) = 0.13541 0.27263
# Poissons Ratio (z) = -0.19482 0.43714
#
# Static dielectric constant tensor:
#      x y z
#    x 1.822390 0.000000 0.000000 
#    y 0.000000 1.827430 0.000000 
#    z 0.000000 0.000000 1.846880 
# 
# From -- ./inp_files/3684.got.cif
#   From: 2010.05.17/outbox.cif.g08.bks.cpg/sg16_2_cif.got.tgz:3684.got - 2010.06.03 22:28:35.
