data_PCOD9310869
_publ_section_title
;
Structure prediction by ZEFSAII (Michael W. Deem and Ramdas Pophale) SiO2 
 PCOD9310869
Probable space group: P 2 2 21
;
_chemical_formula_sum "Si O2"
_cell_formula_units_Z 20
_cell_length_a 12.344427
_cell_length_b 14.562352
_cell_length_c 5.370505
_cell_angle_alpha 90.000000
_cell_angle_beta 90.000000
_cell_angle_gamma 90.000000
_cell_volume 965.422877
_symmetry_space_group_name_H-M "P 2 2 21"
_symmetry_group_IT_number 17
_symmetry_cell_setting 'orthorhombic'
loop_
_space_group_symop_operation_xyz
x,y,z
-x,-y,1/2+z
x,-y,-z
-x,y,1/2-z
loop_
_atom_site_type_symbol
_atom_site_label
_atom_site_fract_x
_atom_site_fract_y
_atom_site_fract_z
Si Si1 0.630967 0.557347 0.247519
Si Si2 0.500000 0.225494 0.250000
Si Si3 0.927689 0.703912 0.502699
Si Si4 0.391734 0.085136 0.627572
Si Si5 0.930272 0.500000 0.500000
Si Si6 0.306139 0.252990 0.922802
O O1 0.659447 0.500000 0.500000
O O2 0.500000 0.567016 0.250000
O O3 0.682832 0.659843 0.236429
O O4 0.662297 0.500000 0.000000
O O5 0.435608 0.159478 0.434217
O O6 0.595760 0.278735 0.388566
O O7 0.880156 0.599903 0.500928
O O8 0.815969 0.758316 0.515822
O O9 0.000000 0.717514 0.250000
O O10 0.000000 0.716201 0.750000
O O11 0.500000 0.043013 0.750000
O O12 0.333761 0.151608 0.821277
O O13 0.331423 0.000000 0.500000
O O14 0.000000 0.500510 0.250000
#
# Coordination Sequence:
#
# PCOD9310869 Si02
#       6
#     4   2   4   4   2   4
#     4  10  23  39  57  87 138 183 218 261 328 406
#     4  10  22  38  68  96 134 164 214 272 348 406
#     4  10  23  42  63  92 129 177 229 282 331 385
#     4  10  20  38  63  99 134 168 210 276 350 407
#     4   8  16  36  58  82 116 162 224 276 318 364
#     4  11  25  38  66 100 131 178 227 281 334 419
#
# _framework density 20.716308999999999
#
# number of rings (size 3 to 8) (size 9 to 14) (size 15 to 20)
#    0.000    2.000    1.000    1.800   11.200    0.000 
#    7.200    0.000    0.000    0.000    5.200    0.000 
#    0.000    0.000    0.000    0.000    0.000    0.000 
#
# Total GULP energy -111444.267532 kJ/mol
# GULP energy per Si atom -5572.213377 kJ/mol
# Density = 2.066916 g / cm^3
# Si number density = 20.716309 Si / 1000 Ang^3
#
#
#
# Elastic Constant Matrix: (Units=GPa)
#
#
# Indices 1 2 3 4 5 6 
#
# 1 123.3504 43.2971 48.7394 0.0000 0.0000 0.0000
# 2 43.2971 78.3157 25.4293 0.0000 0.0000 0.0000
# 3 48.7394 25.4293 114.1730 0.0000 0.0000 0.0000
# 4 0.0000 0.0000 0.0000 30.4891 0.0000 0.0000
# 5 0.0000 0.0000 0.0000 0.0000 8.8932 0.0000
# 6 0.0000 0.0000 0.0000 0.0000 0.0000 13.5784
#
#
#
# Elastic Compliance Matrix: (Units=1/GPa)
#
#
# Indices 1 2 3 4 5 6 
#
# 1 0.011356 -0.005071 -0.003718 0.000000 0.000000 0.000000
# 2 -0.005071 0.016029 -0.001405 0.000000 0.000000 0.000000
# 3 -0.003718 -0.001405 0.010659 0.000000 0.000000 0.000000
# 4 0.000000 0.000000 0.000000 0.032799 0.000000 0.000000
# 5 0.000000 0.000000 0.000000 0.000000 0.112446 0.000000
# 6 0.000000 0.000000 0.000000 0.000000 0.000000 0.073646
#
#
# Mechanical properties :
#
#
# Convention : Reuss Voigt Hill
#
# Bulk Modulus (GPa) = 56.64256 61.19674 58.91965
# Shear Modulus (GPa) = 17.65482 23.81701 20.73592
#
# Velocity S-wave (km/s) = 2.92245 3.39436 3.16721
# Velocity P-wave (km/s) = 6.22808 6.70573 6.47131
#
# Compressibility (1/GPa) = 0.01765457
#
# Stress axis : x y z
#
# Youngs Moduli (GPa) = 88.05763 62.38846 93.81754
#
# Poissons Ratio (x) = 0.31637 0.34885
# Poissons Ratio (y) = 0.44653 0.13184
# Poissons Ratio (z) = 0.32744 0.08767
#
# Static dielectric constant tensor:
#      x y z
#    x 1.740940 0.000000 0.000000 
#    y 0.000000 1.777880 0.000000 
#    z 0.000000 0.000000 1.863640 
# 
# From -- ./inp_files/1547.got.cif
#   From: 2010.05.17/outbox.cif.g08.bks.cpg/sg17_1_cif.got.tgz:1547.got - 2010.06.03 22:34:06.
