data_PCOD9310933
_publ_section_title
;
Structure prediction by ZEFSAII (Michael W. Deem and Ramdas Pophale) SiO2 
 PCOD9310933
Probable space group: P 2 2 21
;
_chemical_formula_sum "Si O2"
_cell_formula_units_Z 20
_cell_length_a 6.110260
_cell_length_b 11.295842
_cell_length_c 13.986909
_cell_angle_alpha 90.000000
_cell_angle_beta 90.000000
_cell_angle_gamma 90.000000
_cell_volume 965.383894
_symmetry_space_group_name_H-M "P 2 2 21"
_symmetry_group_IT_number 17
_symmetry_cell_setting 'orthorhombic'
loop_
_space_group_symop_operation_xyz
x,y,z
-x,-y,1/2+z
x,-y,-z
-x,y,1/2-z
loop_
_atom_site_type_symbol
_atom_site_label
_atom_site_fract_x
_atom_site_fract_y
_atom_site_fract_z
Si Si1 0.052698 0.314538 0.862693
Si Si2 0.058194 0.748086 0.848277
Si Si3 0.316065 0.138579 0.985260
Si Si4 0.679184 0.677698 0.989315
Si Si5 0.370671 0.529387 0.848620
O O1 0.142730 0.190845 0.907342
O O2 0.247147 0.409727 0.878554
O O3 0.000000 0.307832 0.750000
O O4 0.842341 0.359536 0.924209
O O5 0.181106 0.624885 0.827944
O O6 0.000000 0.809434 0.750000
O O7 0.842272 0.724051 0.908094
O O8 0.220838 0.820159 0.913530
O O9 0.536498 0.213451 0.970939
O O10 0.348741 0.000000 0.000000
O O11 0.524154 0.586917 0.930571
O O12 0.500000 0.509932 0.750000
#
# Coordination Sequence:
#
# PCOD9310933 Si02
#       5
#     4   4   4   4   4
#     4  11  27  45  67 103 142 181 229 281 347 411
#     4  10  20  40  69 101 129 170 221 275 342 404
#     4  10  25  45  67  95 130 179 237 285 336 398
#     4  10  24  44  66  95 141 176 222 276 345 398
#     4  11  23  41  69 101 140 174 219 274 340 422
#
# _framework density 20.717148999999999
#
# number of rings (size 3 to 8) (size 9 to 14) (size 15 to 20)
#    0.000    1.600    2.000    0.600    2.800   12.800 
#    0.000    2.000    0.000    0.000    0.000    0.000 
#    0.000    0.000    0.000    0.000    0.000    0.000 
#
# Total GULP energy -111721.033448 kJ/mol
# GULP energy per Si atom -5586.051672 kJ/mol
# Density = 2.067000 g / cm^3
# Si number density = 20.717149 Si / 1000 Ang^3
#
#
#
# Elastic Constant Matrix: (Units=GPa)
#
#
# Indices 1 2 3 4 5 6 
#
# 1 106.9387 50.5098 43.8142 0.0000 0.0000 0.0000
# 2 50.5098 122.2239 32.3863 0.0000 0.0000 0.0000
# 3 43.8142 32.3863 138.7182 0.0000 0.0000 0.0000
# 4 0.0000 0.0000 0.0000 8.1201 0.0000 0.0000
# 5 0.0000 0.0000 0.0000 0.0000 48.0043 0.0000
# 6 0.0000 0.0000 0.0000 0.0000 0.0000 13.2497
#
#
#
# Elastic Compliance Matrix: (Units=1/GPa)
#
#
# Indices 1 2 3 4 5 6 
#
# 1 0.012666 -0.004450 -0.002962 0.000000 0.000000 0.000000
# 2 -0.004450 0.010284 -0.000996 0.000000 0.000000 0.000000
# 3 -0.002962 -0.000996 0.008377 0.000000 0.000000 0.000000
# 4 0.000000 0.000000 0.000000 0.123151 0.000000 0.000000
# 5 0.000000 0.000000 0.000000 0.000000 0.020831 0.000000
# 6 0.000000 0.000000 0.000000 0.000000 0.000000 0.075473
#
#
# Mechanical properties :
#
#
# Convention : Reuss Voigt Hill
#
# Bulk Modulus (GPa) = 68.90238 69.03350 68.96794
# Shear Modulus (GPa) = 18.35296 29.95285 24.15291
#
# Velocity S-wave (km/s) = 2.97961 3.80649 3.41815
# Velocity P-wave (km/s) = 6.72073 7.26040 6.99577
#
# Compressibility (1/GPa) = 0.01451329
#
# Stress axis : x y z
#
# Youngs Moduli (GPa) = 78.94959 97.23498 119.37726
#
# Poissons Ratio (x) = 0.43266 0.35357
# Poissons Ratio (y) = 0.35130 0.11886
# Poissons Ratio (z) = 0.23383 0.09681
#
# Static dielectric constant tensor:
#      x y z
#    x 1.755330 0.000000 0.000000 
#    y 0.000000 1.761180 0.000000 
#    z 0.000000 0.000000 1.762250 
# 
# From -- ./inp_files/7607.got.cif
#   From: 2010.05.17/outbox.cif.g08.bks.cpg/sg17_4_cif.got.tgz:7607.got - 2010.06.03 22:34:06.
