data_PCOD9310797
_publ_section_title
;
Structure prediction by ZEFSAII (Michael W. Deem and Ramdas Pophale) SiO2 
 PCOD9310797
Probable space group: P 2 2 21
;
_chemical_formula_sum "Si O2"
_cell_formula_units_Z 32
_cell_length_a 15.804963
_cell_length_b 13.237332
_cell_length_c 7.588779
_cell_angle_alpha 90.000000
_cell_angle_beta 90.000000
_cell_angle_gamma 90.000000
_cell_volume 1587.690515
_symmetry_space_group_name_H-M "P 2 2 21"
_symmetry_group_IT_number 17
_symmetry_cell_setting 'orthorhombic'
loop_
_space_group_symop_operation_xyz
x,y,z
-x,-y,1/2+z
x,-y,-z
-x,y,1/2-z
loop_
_atom_site_type_symbol
_atom_site_label
_atom_site_fract_x
_atom_site_fract_y
_atom_site_fract_z
Si Si1 0.407868 0.238875 0.191134
Si Si2 0.163804 0.685006 0.662770
Si Si3 0.656689 0.380166 0.019167
Si Si4 0.762366 0.105796 0.729744
Si Si5 0.403777 0.229938 0.774862
Si Si6 0.906960 0.265264 0.819093
Si Si7 0.901249 0.487441 0.789200
Si Si8 0.756968 0.118432 0.308000
O O1 0.500000 0.203087 0.250000
O O2 0.610652 0.338747 0.194367
O O3 0.337060 0.156428 0.239420
O O4 0.398072 0.256353 0.982384
O O5 0.246963 0.657452 0.547032
O O6 0.088582 0.708449 0.526659
O O7 0.145809 0.586721 0.781872
O O8 0.183305 0.788533 0.759540
O O9 0.654787 0.500000 0.000000
O O10 0.614410 0.324888 0.852292
O O11 0.669818 0.150336 0.775738
O O12 0.837043 0.179206 0.793724
O O13 0.762945 0.107401 0.517532
O O14 0.774735 0.989053 0.780692
O O15 0.500000 0.192981 0.750000
O O16 0.878160 0.373413 0.735264
O O17 0.000000 0.238832 0.750000
O O18 0.000000 0.497088 0.750000
O O19 0.887535 0.500000 0.000000
#
# Coordination Sequence:
#
# PCOD9310797 Si02
#       8
#     4   4   4   4   4   4   4   4
#     4  10  21  40  58  87 124 153 210 259 299 373
#     4  10  20  38  59  89 118 160 204 244 306 366
#     4  11  22  38  62  87 126 166 204 253 305 367
#     4  10  21  42  60  84 121 152 201 257 303 366
#     4  11  22  39  63  89 121 165 202 251 315 362
#     4  10  20  36  59  86 120 158 196 245 300 363
#     4   9  19  34  57  86 119 153 198 244 298 353
#     4   9  22  39  61  83 116 159 194 258 312 348
#
# _framework density 20.155059000000001
#
# number of rings (size 3 to 8) (size 9 to 14) (size 15 to 20)
#    0.000    2.000    2.500    1.125    0.000    5.000 
#    0.000    3.125    0.000    0.000    0.000    0.000 
#    0.000    0.000    0.000    0.000    0.000    0.000 
#
# Total GULP energy -178456.340453 kJ/mol
# GULP energy per Si atom -5576.760639 kJ/mol
# Density = 2.010919 g / cm^3
# Si number density = 20.155059 Si / 1000 Ang^3
#
#
#
# Elastic Constant Matrix: (Units=GPa)
#
#
# Indices 1 2 3 4 5 6 
#
# 1 61.0853 39.1667 -8.8318 0.0000 0.0000 0.0000
# 2 39.1667 176.9227 17.0114 0.0000 0.0000 0.0000
# 3 -8.8318 17.0114 45.9843 0.0000 0.0000 0.0000
# 4 0.0000 0.0000 0.0000 20.3281 0.0000 0.0000
# 5 0.0000 0.0000 0.0000 0.0000 28.0747 0.0000
# 6 0.0000 0.0000 0.0000 0.0000 0.0000 18.9978
#
#
#
# Elastic Compliance Matrix: (Units=1/GPa)
#
#
# Indices 1 2 3 4 5 6 
#
# 1 0.020477 -0.005092 0.005817 0.000000 0.000000 0.000000
# 2 -0.005092 0.007127 -0.003615 0.000000 0.000000 0.000000
# 3 0.005817 -0.003615 0.024201 0.000000 0.000000 0.000000
# 4 0.000000 0.000000 0.000000 0.049193 0.000000 0.000000
# 5 0.000000 0.000000 0.000000 0.000000 0.035619 0.000000
# 6 0.000000 0.000000 0.000000 0.000000 0.000000 0.052638
#
#
# Mechanical properties :
#
#
# Convention : Reuss Voigt Hill
#
# Bulk Modulus (GPa) = 21.72782 42.07608 31.90195
# Shear Modulus (GPa) = 23.76691 29.25652 26.51172
#
# Velocity S-wave (km/s) = 3.43768 3.81408 3.63076
# Velocity P-wave (km/s) = 5.15370 6.34963 5.78266
#
# Compressibility (1/GPa) = 0.04602395
#
# Stress axis : x y z
#
# Youngs Moduli (GPa) = 48.83612 140.31015 41.32080
#
# Poissons Ratio (x) = 0.71451 -0.24035
# Poissons Ratio (y) = 0.24869 0.14936
# Poissons Ratio (z) = -0.28406 0.50717
#
# Static dielectric constant tensor:
#      x y z
#    x 1.725110 0.000000 0.000000 
#    y 0.000000 1.755810 0.000000 
#    z 0.000000 0.000000 1.779950 
# 
# From -- ./inp_files/5255.got.cif
#   From: 2010.05.17/outbox.cif.g08.bks.cpg/sg17_3_cif.got.tgz:5255.got - 2010.06.03 22:34:06.
