data_PCOD9310571
_publ_section_title
;
Structure prediction by ZEFSAII (Michael W. Deem and Ramdas Pophale) SiO2 
 PCOD9310571
Probable space group: P 2 2 21
;
_chemical_formula_sum "Si O2"
_cell_formula_units_Z 32
_cell_length_a 15.711652
_cell_length_b 5.406553
_cell_length_c 18.382242
_cell_angle_alpha 90.000000
_cell_angle_beta 90.000000
_cell_angle_gamma 90.000000
_cell_volume 1561.495709
_symmetry_space_group_name_H-M "P 2 2 21"
_symmetry_group_IT_number 17
_symmetry_cell_setting 'orthorhombic'
loop_
_space_group_symop_operation_xyz
x,y,z
-x,-y,1/2+z
x,-y,-z
-x,y,1/2-z
loop_
_atom_site_type_symbol
_atom_site_label
_atom_site_fract_x
_atom_site_fract_y
_atom_site_fract_z
Si Si1 0.689511 0.942678 0.423508
Si Si2 0.048156 0.314275 0.135248
Si Si3 0.132529 0.676181 0.702670
Si Si4 0.370261 0.441212 0.085774
Si Si5 0.865796 0.186626 0.604914
Si Si6 0.413225 0.251253 0.701154
Si Si7 0.778756 0.175182 0.765529
Si Si8 0.466508 0.753621 0.666250
O O1 0.643507 0.717147 0.383136
O O2 0.781238 0.829497 0.442833
O O3 0.643363 0.000000 0.500000
O O4 0.694742 0.220039 0.390415
O O5 0.091066 0.318891 0.215926
O O6 0.082620 0.561461 0.096985
O O7 0.947438 0.321687 0.148354
O O8 0.078079 0.059470 0.098561
O O9 0.185973 0.424370 0.697257
O O10 0.187919 0.924433 0.697261
O O11 0.457723 0.331282 0.114430
O O12 0.365921 0.500000 0.000000
O O13 0.821645 0.179070 0.685327
O O14 0.500000 0.274689 0.750000
O O15 0.323246 0.178032 0.736301
O O16 0.402367 0.524156 0.668089
O O17 0.432946 0.024206 0.647153
O O18 0.500000 0.780017 0.750000
#
# Coordination Sequence:
#
# PCOD9310571 Si02
#       8
#     4   4   4   4   4   4   4   4
#     4  10  21  34  50  71 100 135 172 212 240 297
#     4   9  17  30  44  70  92 125 159 196 241 279
#     4   9  17  30  46  64  98 125 160 199 231 303
#     4  10  21  36  52  70  97 137 180 210 253 306
#     4  10  19  28  48  69  96 128 167 195 237 305
#     4  10  21  33  44  71 102 133 165 211 261 303
#     4  10  19  29  46  69  95 136 163 196 250 304
#     4  10  21  32  50  70  97 133 162 221 258 296
#
# _framework density 20.493172000000001
#
# number of rings (size 3 to 8) (size 9 to 14) (size 15 to 20)
#    0.000    2.250    0.000    3.000    7.000    3.000 
#    0.000    0.000    0.000    0.000    0.000    0.000 
#    0.000   20.000    0.000    0.000    0.000    0.000 
#
# Total GULP energy -178293.556865 kJ/mol
# GULP energy per Si atom -5571.673652 kJ/mol
# Density = 2.044653 g / cm^3
# Si number density = 20.493172 Si / 1000 Ang^3
#
#
#
# Elastic Constant Matrix: (Units=GPa)
#
#
# Indices 1 2 3 4 5 6 
#
# 1 100.8167 28.3025 11.2941 0.0000 0.0000 0.0000
# 2 28.3025 136.7815 4.4827 0.0000 0.0000 0.0000
# 3 11.2941 4.4827 17.0584 0.0000 0.0000 0.0000
# 4 0.0000 0.0000 0.0000 15.4527 0.0000 0.0000
# 5 0.0000 0.0000 0.0000 0.0000 18.9939 0.0000
# 6 0.0000 0.0000 0.0000 0.0000 0.0000 41.1841
#
#
#
# Elastic Compliance Matrix: (Units=1/GPa)
#
#
# Indices 1 2 3 4 5 6 
#
# 1 0.011286 -0.002109 -0.006918 0.000000 0.000000 0.000000
# 2 -0.002109 0.007768 -0.000645 0.000000 0.000000 0.000000
# 3 -0.006918 -0.000645 0.063372 0.000000 0.000000 0.000000
# 4 0.000000 0.000000 0.000000 0.064713 0.000000 0.000000
# 5 0.000000 0.000000 0.000000 0.000000 0.052648 0.000000
# 6 0.000000 0.000000 0.000000 0.000000 0.000000 0.024281
#
#
# Mechanical properties :
#
#
# Convention : Reuss Voigt Hill
#
# Bulk Modulus (GPa) = 15.85232 38.09057 26.97144
# Shear Modulus (GPa) = 18.90780 29.16463 24.03621
#
# Velocity S-wave (km/s) = 3.04079 3.77654 3.42846
# Velocity P-wave (km/s) = 4.48116 6.13544 5.37236
#
# Compressibility (1/GPa) = 0.06308225
#
# Stress axis : x y z
#
# Youngs Moduli (GPa) = 88.60580 128.72705 15.77982
#
# Poissons Ratio (x) = 0.27143 0.10917
# Poissons Ratio (y) = 0.18683 0.01018
# Poissons Ratio (z) = 0.61299 0.08308
#
# Static dielectric constant tensor:
#      x y z
#    x 1.698690 0.000000 0.000000 
#    y 0.000000 1.860430 0.000000 
#    z 0.000000 0.000000 1.778470 
# 
# From -- ./inp_files/9737.got.cif
#   From: 2010.05.17/outbox.cif.g08.bks.cpg/sg17_5_cif.got.tgz:9737.got - 2010.06.03 22:34:06.
