data_PCOD9310651
_publ_section_title
;
Structure prediction by ZEFSAII (Michael W. Deem and Ramdas Pophale) SiO2 
 PCOD9310651
Probable space group: P 2 2 21
;
_chemical_formula_sum "Si O2"
_cell_formula_units_Z 18
_cell_length_a 5.933373
_cell_length_b 8.371820
_cell_length_c 15.210287
_cell_angle_alpha 90.000000
_cell_angle_beta 90.000000
_cell_angle_gamma 90.000000
_cell_volume 755.542575
_symmetry_space_group_name_H-M "P 2 2 21"
_symmetry_group_IT_number 17
_symmetry_cell_setting 'orthorhombic'
loop_
_space_group_symop_operation_xyz
x,y,z
-x,-y,1/2+z
x,-y,-z
-x,y,1/2-z
loop_
_atom_site_type_symbol
_atom_site_label
_atom_site_fract_x
_atom_site_fract_y
_atom_site_fract_z
Si Si1 0.110728 0.261855 0.945908
Si Si2 0.758921 0.000000 0.000000
Si Si3 0.495711 0.718162 0.560063
Si Si4 0.280510 0.579336 0.379781
Si Si5 0.740803 0.856034 0.265121
O O1 0.261056 0.200576 0.865803
O O2 0.979839 0.418407 0.911861
O O3 0.922139 0.125490 0.954380
O O4 0.240838 0.273901 0.037909
O O5 0.605654 0.104879 0.064855
O O6 0.407278 0.650290 0.465498
O O7 0.396055 0.593662 0.630075
O O8 0.277411 0.698484 0.297436
O O9 0.500000 0.944681 0.250000
O O10 0.000000 0.921428 0.250000
#
# Coordination Sequence:
#
# PCOD9310651 Si02
#       5
#     4   2   4   4   4
#     4  10  20  37  61  89 123 166 208 263 310 382
#     4  10  22  36  54  92 120 168 206 258 304 384
#     4  10  19  35  57  87 126 154 208 253 318 361
#     4   9  20  34  58  93 116 154 208 262 311 369
#     4  10  19  37  60  92 119 158 208 260 318 376
#
# _framework density 23.823938999999999
#
# number of rings (size 3 to 8) (size 9 to 14) (size 15 to 20)
#    0.000    2.222    2.222    0.667    0.000    7.111 
#    0.000    0.000    0.000   20.000    0.000    0.000 
#    0.000    0.000    0.000    0.000    0.000    0.000 
#
# Total GULP energy -100223.630877 kJ/mol
# GULP energy per Si atom -5567.979493 kJ/mol
# Density = 2.376971 g / cm^3
# Si number density = 23.823939 Si / 1000 Ang^3
#
#
#
# Elastic Constant Matrix: (Units=GPa)
#
#
# Indices 1 2 3 4 5 6 
#
# 1 145.9513 34.4234 7.5133 0.0000 0.0000 0.0000
# 2 34.4234 92.8415 11.4427 0.0000 0.0000 0.0000
# 3 7.5133 11.4427 46.8637 0.0000 0.0000 0.0000
# 4 0.0000 0.0000 0.0000 24.5091 0.0000 0.0000
# 5 0.0000 0.0000 0.0000 0.0000 32.1375 0.0000
# 6 0.0000 0.0000 0.0000 0.0000 0.0000 30.2519
#
#
#
# Elastic Compliance Matrix: (Units=1/GPa)
#
#
# Indices 1 2 3 4 5 6 
#
# 1 0.007521 -0.002722 -0.000541 0.000000 0.000000 0.000000
# 2 -0.002722 0.012090 -0.002516 0.000000 0.000000 0.000000
# 3 -0.000541 -0.002516 0.022040 0.000000 0.000000 0.000000
# 4 0.000000 0.000000 0.000000 0.040801 0.000000 0.000000
# 5 0.000000 0.000000 0.000000 0.000000 0.031116 0.000000
# 6 0.000000 0.000000 0.000000 0.000000 0.000000 0.033056
#
#
# Mechanical properties :
#
#
# Convention : Reuss Voigt Hill
#
# Bulk Modulus (GPa) = 33.22987 43.60169 38.41578
# Shear Modulus (GPa) = 29.72408 32.86483 31.29446
#
# Velocity S-wave (km/s) = 3.53605 3.71817 3.62826
# Velocity P-wave (km/s) = 5.53624 6.06419 5.80622
#
# Compressibility (1/GPa) = 0.03009341
#
# Stress axis : x y z
#
# Youngs Moduli (GPa) = 132.95256 82.71032 45.37302
#
# Poissons Ratio (x) = 0.22514 0.02456
# Poissons Ratio (y) = 0.36191 0.11414
# Poissons Ratio (z) = 0.07196 0.20807
#
# Static dielectric constant tensor:
#      x y z
#    x 2.133980 0.000000 0.000000 
#    y 0.000000 2.026780 0.000000 
#    z 0.000000 0.000000 1.925080 
# 
# From -- ./inp_files/8927.got.cif
#   From: 2010.05.17/outbox.cif.g08.bks.cpg/sg17_5_cif.got.tgz:8927.got - 2010.06.03 22:34:06.
