data_PCOD9310877
_publ_section_title
;
Structure prediction by ZEFSAII (Michael W. Deem and Ramdas Pophale) SiO2 
 PCOD9310877
Probable space group: P 2 2 21
;
_chemical_formula_sum "Si O2"
_cell_formula_units_Z 20
_cell_length_a 13.781489
_cell_length_b 8.278788
_cell_length_c 8.822891
_cell_angle_alpha 90.000000
_cell_angle_beta 90.000000
_cell_angle_gamma 90.000000
_cell_volume 1006.639153
_symmetry_space_group_name_H-M "P 2 2 21"
_symmetry_group_IT_number 17
_symmetry_cell_setting 'orthorhombic'
loop_
_space_group_symop_operation_xyz
x,y,z
-x,-y,1/2+z
x,-y,-z
-x,y,1/2-z
loop_
_atom_site_type_symbol
_atom_site_label
_atom_site_fract_x
_atom_site_fract_y
_atom_site_fract_z
Si Si1 0.673544 0.995300 0.320136
Si Si2 0.714172 0.317341 0.164531
Si Si3 0.500000 0.247341 0.750000
Si Si4 0.451018 0.500000 0.500000
Si Si5 0.831879 0.858266 0.105849
Si Si6 0.099812 0.476950 0.678861
O O1 0.668319 0.179685 0.267356
O O2 0.673250 0.000000 0.500000
O O3 0.591849 0.873621 0.256517
O O4 0.772415 0.939468 0.240359
O O5 0.623893 0.425874 0.120358
O O6 0.803636 0.424894 0.229084
O O7 0.758627 0.232109 0.012740
O O8 0.503516 0.360674 0.598753
O O9 0.890851 0.716401 0.187424
O O10 0.878319 0.000000 0.000000
O O11 0.093307 0.500000 0.500000
O O12 0.000000 0.536936 0.750000
#
# Coordination Sequence:
#
# PCOD9310877 Si02
#       6
#     4   4   2   2   4   4
#     4  11  25  39  61  94 131 165 218 275 329 380
#     4  10  20  42  67  84 130 180 207 258 348 390
#     4  12  28  40  62  98 126 172 228 276 316 398
#     4  12  24  44  66  92 130 170 224 266 332 394
#     4   9  18  40  62  85 125 178 211 253 341 398
#     4  10  20  38  65  97 123 168 224 269 319 396
#
# _framework density 19.868092000000001
#
# number of rings (size 3 to 8) (size 9 to 14) (size 15 to 20)
#    0.000    1.600    5.000    0.000    5.600    1.600 
#    0.000   10.000    0.000    0.000    0.000    0.000 
#    0.000    0.000    0.000    0.000    0.000    0.000 
#
# Total GULP energy -111392.890740 kJ/mol
# GULP energy per Si atom -5569.644537 kJ/mol
# Density = 1.982287 g / cm^3
# Si number density = 19.868092 Si / 1000 Ang^3
#
#
#
# Elastic Constant Matrix: (Units=GPa)
#
#
# Indices 1 2 3 4 5 6 
#
# 1 56.4458 46.9185 23.0656 0.0000 0.0000 0.0000
# 2 46.9185 128.7730 30.0996 0.0000 0.0000 0.0000
# 3 23.0656 30.0996 56.1870 0.0000 0.0000 0.0000
# 4 0.0000 0.0000 0.0000 23.9381 0.0000 0.0000
# 5 0.0000 0.0000 0.0000 0.0000 42.3557 0.0000
# 6 0.0000 0.0000 0.0000 0.0000 0.0000 2326.3089
#
#
#
# Elastic Compliance Matrix: (Units=1/GPa)
#
#
# Indices 1 2 3 4 5 6 
#
# 1 0.027493 -0.008435 -0.006767 0.000000 0.000000 0.000000
# 2 -0.008435 0.011465 -0.002679 0.000000 0.000000 0.000000
# 3 -0.006767 -0.002679 0.022011 0.000000 0.000000 0.000000
# 4 0.000000 0.000000 0.000000 0.041774 0.000000 0.000000
# 5 0.000000 0.000000 0.000000 0.000000 0.023610 0.000000
# 6 0.000000 0.000000 0.000000 0.000000 0.000000 0.000430
#
#
# Mechanical properties :
#
#
# Convention : Reuss Voigt Hill
#
# Bulk Modulus (GPa) = 39.67383 49.06368 44.36876
# Shear Modulus (GPa) = 29.24853 487.94202 258.59528
#
# Velocity S-wave (km/s) = 3.84100 15.68834 11.42097
# Velocity P-wave (km/s) = 6.29945 18.78599 14.01065
#
# Compressibility (1/GPa) = 0.02520553
#
# Stress axis : x y z
#
# Youngs Moduli (GPa) = 36.37292 87.22032 45.43165
#
# Poissons Ratio (x) = 0.73572 0.30746
# Poissons Ratio (y) = 0.30681 0.12172
# Poissons Ratio (z) = 0.24615 0.23368
#
# Static dielectric constant tensor:
#      x y z
#    x 1.727680 0.000000 0.000000 
#    y 0.000000 -0.964610 0.000000 
#    z 0.000000 0.000000 -5.983900 
# 
# From -- ./inp_files/4663.got.cif
#   From: 2010.05.17/outbox.cif.g08.bks.cpg/sg17_3_cif.got.tgz:4663.got - 2010.06.03 22:34:06.
