data_PCOD9310482
_publ_section_title
;
Structure prediction by ZEFSAII (Michael W. Deem and Ramdas Pophale) SiO2 
 PCOD9310482
Probable space group: P 2 2 21
;
_chemical_formula_sum "Si O2"
_cell_formula_units_Z 32
_cell_length_a 5.483374
_cell_length_b 8.701668
_cell_length_c 30.075313
_cell_angle_alpha 90.000000
_cell_angle_beta 90.000000
_cell_angle_gamma 90.000000
_cell_volume 1435.028524
_symmetry_space_group_name_H-M "P 2 2 21"
_symmetry_group_IT_number 17
_symmetry_cell_setting 'orthorhombic'
loop_
_space_group_symop_operation_xyz
x,y,z
-x,-y,1/2+z
x,-y,-z
-x,y,1/2-z
loop_
_atom_site_type_symbol
_atom_site_label
_atom_site_fract_x
_atom_site_fract_y
_atom_site_fract_z
Si Si1 0.749786 0.486491 0.764798
Si Si2 0.251287 0.837707 0.771019
Si Si3 0.037151 0.505079 0.450329
Si Si4 0.548717 0.992287 0.050159
Si Si5 0.304725 0.379761 0.361144
Si Si6 0.048295 0.149941 0.919969
Si Si7 0.319551 0.282280 0.081060
Si Si8 0.991574 0.908769 0.641890
O O1 0.500000 0.407502 0.750000
O O2 0.748557 0.652914 0.738403
O O3 0.744743 0.521033 0.817394
O O4 0.000000 0.408812 0.750000
O O5 0.500000 0.897120 0.750000
O O6 0.215968 0.883156 0.821806
O O7 0.000000 0.897491 0.750000
O O8 0.153379 0.500000 0.500000
O O9 0.796660 0.397547 0.453632
O O10 0.180476 0.440227 0.406806
O O11 0.969830 0.674770 0.434583
O O12 0.821011 0.926484 0.052800
O O13 0.334555 0.895244 0.074135
O O14 0.534153 0.168665 0.066406
O O15 0.462534 0.000000 0.000000
O O16 0.586038 0.373932 0.375882
O O17 0.210972 0.208205 0.347136
O O18 0.971954 0.085943 0.870748
O O19 0.111949 0.165106 0.096522
#
# Coordination Sequence:
#
# PCOD9310482 Si02
#       8
#     4   4   4   4   4   4   4   4
#     4  10  19  32  58  95 126 154 210 276 340 395
#     4  10  18  29  56  93 125 155 201 265 335 392
#     4  11  27  43  63  93 140 189 241 287 357 426
#     4  11  23  40  67  90 126 163 230 285 341 392
#     4  11  21  38  64  96 127 177 223 284 339 421
#     4  11  25  42  63  95 130 178 217 284 350 408
#     4  10  22  38  63  90 125 171 226 281 333 403
#     4  10  20  38  60  97 127 162 220 278 334 408
#
# _framework density 22.299206999999999
#
# number of rings (size 3 to 8) (size 9 to 14) (size 15 to 20)
#    0.000    1.500    3.750    2.625    5.250    0.500 
#    0.000    0.000    0.000    0.750    0.000    0.875 
#    0.000    0.000    0.000    0.000    0.000    0.000 
#
# Total GULP energy -178184.849016 kJ/mol
# GULP energy per Si atom -5568.276532 kJ/mol
# Density = 2.224845 g / cm^3
# Si number density = 22.299207 Si / 1000 Ang^3
#
#
#
# Elastic Constant Matrix: (Units=GPa)
#
#
# Indices 1 2 3 4 5 6 
#
# 1 112.6345 19.7674 14.2297 0.0000 0.0000 0.0000
# 2 19.7674 70.8391 25.9527 0.0000 0.0000 0.0000
# 3 14.2297 25.9527 90.6784 0.0000 0.0000 0.0000
# 4 0.0000 0.0000 0.0000 16.5294 0.0000 0.0000
# 5 0.0000 0.0000 0.0000 0.0000 35.0407 0.0000
# 6 0.0000 0.0000 0.0000 0.0000 0.0000 23.8609
#
#
#
# Elastic Compliance Matrix: (Units=1/GPa)
#
#
# Indices 1 2 3 4 5 6 
#
# 1 0.009388 -0.002324 -0.000808 0.000000 0.000000 0.000000
# 2 -0.002324 0.016345 -0.004313 0.000000 0.000000 0.000000
# 3 -0.000808 -0.004313 0.012389 0.000000 0.000000 0.000000
# 4 0.000000 0.000000 0.000000 0.060498 0.000000 0.000000
# 5 0.000000 0.000000 0.000000 0.000000 0.028538 0.000000
# 6 0.000000 0.000000 0.000000 0.000000 0.000000 0.041910
#
#
# Mechanical properties :
#
#
# Convention : Reuss Voigt Hill
#
# Bulk Modulus (GPa) = 43.04385 43.78350 43.41367
# Shear Modulus (GPa) = 26.08195 29.36636 27.72415
#
# Velocity S-wave (km/s) = 3.42370 3.63288 3.52984
# Velocity P-wave (km/s) = 5.91386 6.10527 6.01033
#
# Compressibility (1/GPa) = 0.02323213
#
# Stress axis : x y z
#
# Youngs Moduli (GPa) = 106.51698 61.18016 80.71455
#
# Poissons Ratio (x) = 0.14216 0.06523
# Poissons Ratio (y) = 0.24751 0.34816
# Poissons Ratio (z) = 0.08609 0.26390
#
# Static dielectric constant tensor:
#      x y z
#    x 1.922940 0.000000 0.000000 
#    y 0.000000 1.967620 0.000000 
#    z 0.000000 0.000000 1.913900 
# 
# From -- ./inp_files/11180.got.cif
#   From: 2010.05.17/outbox.cif.g08.bks.cpg/sg17_6_cif.got.tgz:11180.got - 2010.06.03 22:34:06.
