data_PCOD9310644
_publ_section_title
;
Structure prediction by ZEFSAII (Michael W. Deem and Ramdas Pophale) SiO2 
 PCOD9310644
Probable space group: P 2 2 21
;
_chemical_formula_sum "Si O2"
_cell_formula_units_Z 32
_cell_length_a 22.516314
_cell_length_b 13.888076
_cell_length_c 5.573828
_cell_angle_alpha 90.000000
_cell_angle_beta 90.000000
_cell_angle_gamma 90.000000
_cell_volume 1742.982167
_symmetry_space_group_name_H-M "P 2 2 21"
_symmetry_group_IT_number 17
_symmetry_cell_setting 'orthorhombic'
loop_
_space_group_symop_operation_xyz
x,y,z
-x,-y,1/2+z
x,-y,-z
-x,y,1/2-z
loop_
_atom_site_type_symbol
_atom_site_label
_atom_site_fract_x
_atom_site_fract_y
_atom_site_fract_z
Si Si1 0.193841 0.600963 0.352024
Si Si2 0.738793 0.255956 0.121507
Si Si3 0.373950 0.753682 0.315780
Si Si4 0.689939 0.607262 0.492849
Si Si5 0.593605 0.970178 0.253054
Si Si6 0.064184 0.439688 0.752681
Si Si7 0.270134 0.954247 0.753925
Si Si8 0.536710 0.609222 0.997661
O O1 0.196959 0.500000 0.500000
O O2 0.203236 0.696044 0.511958
O O3 0.250137 0.601602 0.170997
O O4 0.128781 0.608833 0.238182
O O5 0.710257 0.345767 0.260814
O O6 0.744702 0.158848 0.270010
O O7 0.690830 0.225029 0.923707
O O8 0.359630 0.678464 0.107584
O O9 0.399624 0.855393 0.241880
O O10 0.415445 0.694573 0.495759
O O11 0.665779 0.500000 0.500000
O O12 0.563952 0.000000 0.500000
O O13 0.658464 0.024543 0.253827
O O14 0.566641 0.000000 0.000000
O O15 0.065516 0.500000 0.500000
O O16 0.000000 0.386530 0.750000
O O17 0.062519 0.500000 0.000000
O O18 0.248881 0.000000 0.500000
O O19 0.247027 0.000000 0.000000
O O20 0.500000 0.618869 0.250000
O O21 0.562463 0.500000 0.000000
O O22 0.500000 0.616757 0.750000
#
# Coordination Sequence:
#
# PCOD9310644 Si02
#       8
#     4   4   4   4   4   4   4   4
#     4  10  20  33  47  76 121 158 188 237 283 332
#     4  11  22  34  53  85 111 155 185 223 288 347
#     4  11  24  36  61  85 107 147 193 226 280 349
#     4  11  22  32  51  81 119 150 183 228 281 346
#     4  10  19  35  56  84 108 137 175 223 271 326
#     4   9  18  32  52  73 101 157 214 242 273 324
#     4  10  19  35  52  75 108 143 181 223 266 331
#     4  10  25  45  63  84 113 148 185 234 278 321
#
# _framework density 18.359338999999999
#
# number of rings (size 3 to 8) (size 9 to 14) (size 15 to 20)
#    0.000    1.750    3.750    1.875    7.000    0.500 
#    0.000    0.000    0.000    1.500    0.000    0.000 
#    0.000    0.000    4.250    0.000    0.500    0.000 
#
# Total GULP energy -178315.791741 kJ/mol
# GULP energy per Si atom -5572.368492 kJ/mol
# Density = 1.831755 g / cm^3
# Si number density = 18.359339 Si / 1000 Ang^3
#
#
#
# Elastic Constant Matrix: (Units=GPa)
#
#
# Indices 1 2 3 4 5 6 
#
# 1 72.0586 41.3575 19.7390 0.0000 0.0000 0.0000
# 2 41.3575 121.1565 27.2184 0.0000 0.0000 0.0000
# 3 19.7390 27.2184 105.6237 0.0000 0.0000 0.0000
# 4 0.0000 0.0000 0.0000 30.1879 0.0000 0.0000
# 5 0.0000 0.0000 0.0000 0.0000 17.9459 0.0000
# 6 0.0000 0.0000 0.0000 0.0000 0.0000 8.6689
#
#
#
# Elastic Compliance Matrix: (Units=1/GPa)
#
#
# Indices 1 2 3 4 5 6 
#
# 1 0.017592 -0.005590 -0.001847 0.000000 0.000000 0.000000
# 2 -0.005590 0.010537 -0.001671 0.000000 0.000000 0.000000
# 3 -0.001847 -0.001671 0.010243 0.000000 0.000000 0.000000
# 4 0.000000 0.000000 0.000000 0.033126 0.000000 0.000000
# 5 0.000000 0.000000 0.000000 0.000000 0.055723 0.000000
# 6 0.000000 0.000000 0.000000 0.000000 0.000000 0.115355
#
#
# Mechanical properties :
#
#
# Convention : Reuss Voigt Hill
#
# Bulk Modulus (GPa) = 49.61114 52.82985 51.22050
# Shear Modulus (GPa) = 18.69077 25.39547 22.04312
#
# Velocity S-wave (km/s) = 3.19415 3.72324 3.46880
# Velocity P-wave (km/s) = 6.37844 6.87904 6.63346
#
# Compressibility (1/GPa) = 0.02015676
#
# Stress axis : x y z
#
# Youngs Moduli (GPa) = 56.84405 94.90041 97.62501
#
# Poissons Ratio (x) = 0.53051 0.18032
# Poissons Ratio (y) = 0.31777 0.16310
# Poissons Ratio (z) = 0.10499 0.15855
#
# Static dielectric constant tensor:
#      x y z
#    x 1.647100 0.000000 0.000000 
#    y 0.000000 1.711210 0.000000 
#    z 0.000000 0.000000 1.603420 
# 
# From -- ./inp_files/3121.got.cif
#   From: 2010.05.17/outbox.cif.g08.bks.cpg/sg17_2_cif.got.tgz:3121.got - 2010.06.03 22:34:06.
