data_PCOD9310031
_publ_section_title
;
Structure prediction by ZEFSAII (Michael W. Deem and Ramdas Pophale) SiO2 
 PCOD9310031
Probable space group: P 2 2 2
;
_chemical_formula_sum "Si O2"
_cell_formula_units_Z 32
_cell_length_a 7.476323
_cell_length_b 15.219916
_cell_length_c 12.377759
_cell_angle_alpha 90.000000
_cell_angle_beta 90.000000
_cell_angle_gamma 90.000000
_cell_volume 1408.452918
_symmetry_space_group_name_H-M "P 2 2 2"
_symmetry_group_IT_number 16
_symmetry_cell_setting 'orthorhombic'
loop_
_space_group_symop_operation_xyz
x,y,z
-x,-y,z
x,-y,-z
-x,y,-z
loop_
_atom_site_type_symbol
_atom_site_label
_atom_site_fract_x
_atom_site_fract_y
_atom_site_fract_z
Si Si1 0.290899 0.289174 0.506821
Si Si2 0.272799 0.180575 0.133577
Si Si3 0.212352 0.492786 0.876086
Si Si4 0.198110 0.087762 0.549207
Si Si5 0.713693 0.003352 0.230811
Si Si6 0.291301 0.340840 0.272452
Si Si7 0.284174 0.319646 0.740830
Si Si8 0.292529 0.833953 0.107055
O O1 0.500000 0.312455 0.500000
O O2 0.279618 0.182668 0.520352
O O3 0.218055 0.327996 0.394078
O O4 0.211629 0.326548 0.618735
O O5 0.210116 0.265336 0.197680
O O6 0.490740 0.176375 0.118779
O O7 0.223783 0.094216 0.202386
O O8 0.216618 0.187625 0.009771
O O9 0.274537 0.567994 0.791884
O O10 0.252101 0.400135 0.820582
O O11 0.000000 0.500000 0.883395
O O12 0.283377 0.500000 0.000000
O O13 0.196837 0.058894 0.673603
O O14 0.000000 0.092709 0.500000
O O15 0.288667 0.000000 0.500000
O O16 0.740957 0.064073 0.127240
O O17 0.500000 0.000000 0.254620
O O18 0.501623 0.317048 0.275486
O O19 0.222623 0.231610 0.801154
#
# Coordination Sequence:
#
# PCOD9310031 Si02
#       8
#     4   4   4   4   4   4   4   4
#     4  10  22  39  63  91 122 160 203 245 300 363
#     4   9  17  29  54  89 126 155 196 254 301 355
#     4  11  25  43  63  89 119 158 202 247 310 376
#     4  11  24  37  53  84 122 166 208 252 301 353
#     4  10  19  32  55  87 122 163 207 250 302 358
#     4  10  21  38  60  92 121 157 202 248 302 355
#     4  10  20  38  63  91 123 155 200 254 302 362
#     4   9  16  30  53  90 124 155 197 249 308 352
#
# _framework density 22.719963
#
# number of rings (size 3 to 8) (size 9 to 14) (size 15 to 20)
#    0.000    2.000    1.250    2.250    3.500    5.000 
#    0.000    2.500    0.000    0.000    0.000    3.500 
#    0.000    0.000    0.000    0.000    0.000    0.500 
#
# Total GULP energy -178573.676791 kJ/mol
# GULP energy per Si atom -5580.427400 kJ/mol
# Density = 2.266825 g / cm^3
# Si number density = 22.719963 Si / 1000 Ang^3
#
#
#
# Elastic Constant Matrix: (Units=GPa)
#
#
# Indices 1 2 3 4 5 6 
#
# 1 58.5564 -17.5027 11.4013 0.0000 0.0000 0.0000
# 2 -17.5027 98.7800 41.4219 0.0000 0.0000 0.0000
# 3 11.4013 41.4219 172.6777 0.0000 0.0000 0.0000
# 4 0.0000 0.0000 0.0000 34.8282 0.0000 0.0000
# 5 0.0000 0.0000 0.0000 0.0000 -1.0060 0.0000
# 6 0.0000 0.0000 0.0000 0.0000 0.0000 -67.1995
#
#
#
# Elastic Compliance Matrix: (Units=1/GPa)
#
#
# Indices 1 2 3 4 5 6 
#
# 1 0.018799 0.004282 -0.002268 0.000000 0.000000 0.000000
# 2 0.004282 0.012231 -0.003217 0.000000 0.000000 0.000000
# 3 -0.002268 -0.003217 0.006713 0.000000 0.000000 0.000000
# 4 0.000000 0.000000 0.000000 0.028712 0.000000 0.000000
# 5 0.000000 0.000000 0.000000 0.000000 -0.994063 0.000000
# 6 0.000000 0.000000 0.000000 0.000000 0.000000 -0.014881
#
#
# Mechanical properties :
#
#
# Convention : Reuss Voigt Hill
#
# Bulk Modulus (GPa) = 28.29891 44.51721 36.40806
# Shear Modulus (GPa) = -5.38617 12.97076 3.79230
#
# Velocity S-wave (km/s) = -1.54137 2.39194 1.29336
# Velocity P-wave (km/s) = 3.05202 5.22158 4.27666
#
# Compressibility (1/GPa) = 0.03533704
#
# Stress axis : x y z
#
# Youngs Moduli (GPa) = 53.19365 81.75823 148.97461
#
# Poissons Ratio (x) = -0.35011 0.33795
# Poissons Ratio (y) = -0.22779 0.47922
# Poissons Ratio (z) = 0.12067 0.26300
#
# Static dielectric constant tensor:
#      x y z
#    x 1.899510 0.000000 0.000000 
#    y 0.000000 1.815120 0.000000 
#    z 0.000000 0.000000 1.898340 
# 
# From -- ./inp_files/6637.got.cif
#   From: 2010.05.17/outbox.cif.g08.bks.cpg/sg16_4_cif.got.tgz:6637.got - 2010.06.03 22:28:35.
