data_PCOD9310655
_publ_section_title
;
Structure prediction by ZEFSAII (Michael W. Deem and Ramdas Pophale) SiO2 
 PCOD9310655
Probable space group: P 2 2 21
;
_chemical_formula_sum "Si O2"
_cell_formula_units_Z 20
_cell_length_a 7.211042
_cell_length_b 8.032489
_cell_length_c 14.637588
_cell_angle_alpha 90.000000
_cell_angle_beta 90.000000
_cell_angle_gamma 90.000000
_cell_volume 847.847382
_symmetry_space_group_name_H-M "P 2 2 21"
_symmetry_group_IT_number 17
_symmetry_cell_setting 'orthorhombic'
loop_
_space_group_symop_operation_xyz
x,y,z
-x,-y,1/2+z
x,-y,-z
-x,y,1/2-z
loop_
_atom_site_type_symbol
_atom_site_label
_atom_site_fract_x
_atom_site_fract_y
_atom_site_fract_z
Si Si1 0.725911 0.767573 0.251141
Si Si2 0.149856 0.872460 0.688462
Si Si3 0.286847 0.652192 0.438335
Si Si4 0.500000 0.327021 0.250000
Si Si5 0.128336 0.000000 0.500000
Si Si6 0.695569 0.555160 0.405986
O O1 0.500000 0.776937 0.250000
O O2 0.770145 0.643329 0.167591
O O3 0.797911 0.693251 0.345860
O O4 0.800721 0.950161 0.233569
O O5 0.345364 0.775493 0.691989
O O6 0.000000 0.779406 0.750000
O O7 0.049945 0.919235 0.592787
O O8 0.216462 0.500000 0.500000
O O9 0.508549 0.640921 0.443129
O O10 0.239754 0.839067 0.466232
O O11 0.615938 0.427107 0.328690
O O12 0.792178 0.500000 0.500000
#
# Coordination Sequence:
#
# PCOD9310655 Si02
#       6
#     4   4   4   2   2   4
#     4   9  17  36  59  85 125 164 206 265 326 379
#     4  11  24  43  64  96 135 170 225 274 329 400
#     4   9  16  31  59  91 123 162 216 264 314 393
#     4  12  22  42  72  96 128 174 218 280 336 392
#     4  10  22  38  68  94 130 186 218 266 346 388
#     4  10  19  35  60  95 128 160 215 269 331 394
#
# _framework density 23.589148999999999
#
# number of rings (size 3 to 8) (size 9 to 14) (size 15 to 20)
#    0.000    2.000    4.000    2.400    0.000    0.000 
#    3.600    1.000    0.000    1.200    0.000    0.000 
#    0.000    0.000    0.000    0.000    0.000    0.000 
#
# Total GULP energy -111439.371800 kJ/mol
# GULP energy per Si atom -5571.968590 kJ/mol
# Density = 2.353546 g / cm^3
# Si number density = 23.589149 Si / 1000 Ang^3
#
#
#
# Elastic Constant Matrix: (Units=GPa)
#
#
# Indices 1 2 3 4 5 6 
#
# 1 76.5738 -6.5255 -1.1477 0.0000 0.0000 0.0000
# 2 -6.5255 78.6813 23.9942 0.0000 0.0000 0.0000
# 3 -1.1477 23.9942 133.6982 0.0000 0.0000 0.0000
# 4 0.0000 0.0000 0.0000 35.3854 0.0000 0.0000
# 5 0.0000 0.0000 0.0000 0.0000 18.9242 0.0000
# 6 0.0000 0.0000 0.0000 0.0000 0.0000 -4.7167
#
#
#
# Elastic Compliance Matrix: (Units=1/GPa)
#
#
# Indices 1 2 3 4 5 6 
#
# 1 0.013153 0.001118 -0.000088 0.000000 0.000000 0.000000
# 2 0.001118 0.013540 -0.002420 0.000000 0.000000 0.000000
# 3 -0.000088 -0.002420 0.007913 0.000000 0.000000 0.000000
# 4 0.000000 0.000000 0.000000 0.028260 0.000000 0.000000
# 5 0.000000 0.000000 0.000000 0.000000 0.052842 0.000000
# 6 0.000000 0.000000 0.000000 0.000000 0.000000 -0.212013
#
#
# Mechanical properties :
#
#
# Convention : Reuss Voigt Hill
#
# Bulk Modulus (GPa) = 31.42109 35.73280 33.57694
# Shear Modulus (GPa) = -60.30361 28.09407 -16.10477
#
# Velocity S-wave (km/s) = -5.06158 3.45479 -2.61572
# Velocity P-wave (km/s) = 4.56185 5.57629 2.26766
#
# Compressibility (1/GPa) = 0.03182576
#
# Stress axis : x y z
#
# Youngs Moduli (GPa) = 76.02695 73.85356 126.37175
#
# Poissons Ratio (x) = -0.08254 0.01108
# Poissons Ratio (y) = -0.08497 0.30587
# Poissons Ratio (z) = 0.00666 0.17876
#
# Static dielectric constant tensor:
#      x y z
#    x 1.923600 0.000000 0.000000 
#    y 0.000000 1.877640 0.000000 
#    z 0.000000 0.000000 2.080670 
# 
# From -- ./inp_files/8030.got.cif
#   From: 2010.05.17/outbox.cif.g08.bks.cpg/sg17_5_cif.got.tgz:8030.got - 2010.06.03 22:34:06.
