data_PCOD9310057
_publ_section_title
;
Structure prediction by ZEFSAII (Michael W. Deem and Ramdas Pophale) SiO2 
 PCOD9310057
Probable space group: P 2 2 2
;
_chemical_formula_sum "Si O2"
_cell_formula_units_Z 18
_cell_length_a 12.082559
_cell_length_b 8.826772
_cell_length_c 8.308994
_cell_angle_alpha 90.000000
_cell_angle_beta 90.000000
_cell_angle_gamma 90.000000
_cell_volume 886.154156
_symmetry_space_group_name_H-M "P 2 2 2"
_symmetry_group_IT_number 16
_symmetry_cell_setting 'orthorhombic'
loop_
_space_group_symop_operation_xyz
x,y,z
-x,-y,z
x,-y,-z
-x,y,-z
loop_
_atom_site_type_symbol
_atom_site_label
_atom_site_fract_x
_atom_site_fract_y
_atom_site_fract_z
Si Si1 0.711747 0.157649 0.598339
Si Si2 0.680404 0.500000 0.000000
Si Si3 0.525273 0.242739 0.834223
Si Si4 0.725254 0.295838 0.278137
Si Si5 0.126837 0.004126 0.808272
O O1 0.600113 0.168548 0.699522
O O2 0.729595 0.295147 0.472924
O O3 0.707795 0.000000 0.500000
O O4 0.809539 0.135718 0.726508
O O5 0.600383 0.381942 0.904167
O O6 0.750510 0.576642 0.856124
O O7 0.406049 0.275023 0.757507
O O8 0.500000 0.156565 0.000000
O O9 0.804296 0.154583 0.235928
O O10 0.000000 0.000000 0.751843
O O11 0.128344 0.000000 0.000000
#
# Coordination Sequence:
#
# PCOD9310057 Si02
#       5
#     4   2   4   4   4
#     4  10  22  36  55  87 120 154 198 251 307 360
#     4  10  21  38  58  87 122 163 204 236 291 362
#     4  10  19  35  56  80 118 156 193 239 288 352
#     4  10  20  34  57  85 118 154 191 242 294 356
#     4  10  21  38  60  84 113 152 199 251 307 361
#
# _framework density 20.312494999999998
#
# number of rings (size 3 to 8) (size 9 to 14) (size 15 to 20)
#    0.000    2.000    0.000    6.333    0.000   11.111 
#    0.000   18.889    0.000   10.667    0.000   18.667 
#    0.000    0.000    0.000    0.000    0.000    0.000 
#
# Total GULP energy -100207.244301 kJ/mol
# GULP energy per Si atom -5567.069128 kJ/mol
# Density = 2.026626 g / cm^3
# Si number density = 20.312495 Si / 1000 Ang^3
#
#
#
# Elastic Constant Matrix: (Units=GPa)
#
#
# Indices 1 2 3 4 5 6 
#
# 1 88.7043 17.1805 34.5521 0.0000 0.0000 0.0000
# 2 17.1805 64.7698 27.4537 0.0000 0.0000 0.0000
# 3 34.5521 27.4537 128.8849 0.0000 0.0000 0.0000
# 4 0.0000 0.0000 0.0000 33.9661 0.0000 0.0000
# 5 0.0000 0.0000 0.0000 0.0000 -181.9156 0.0000
# 6 0.0000 0.0000 0.0000 0.0000 0.0000 7.6148
#
#
#
# Elastic Compliance Matrix: (Units=1/GPa)
#
#
# Indices 1 2 3 4 5 6 
#
# 1 0.012853 -0.002142 -0.002989 0.000000 0.000000 0.000000
# 2 -0.002142 0.017329 -0.003117 0.000000 0.000000 0.000000
# 3 -0.002989 -0.003117 0.009224 0.000000 0.000000 0.000000
# 4 0.000000 0.000000 0.000000 0.029441 0.000000 0.000000
# 5 0.000000 0.000000 0.000000 0.000000 -0.005497 0.000000
# 6 0.000000 0.000000 0.000000 0.000000 0.000000 0.131323
#
#
# Mechanical properties :
#
#
# Convention : Reuss Voigt Hill
#
# Bulk Modulus (GPa) = 43.65136 48.97019 46.31078
# Shear Modulus (GPa) = 22.85130 -14.52210 4.16460
#
# Velocity S-wave (km/s) = 3.35772 -2.67673 1.43343
# Velocity P-wave (km/s) = 6.04723 3.82199 5.05849
#
# Compressibility (1/GPa) = 0.02290879
#
# Stress axis : x y z
#
# Youngs Moduli (GPa) = 77.80453 57.70785 108.41069
#
# Poissons Ratio (x) = 0.12362 0.32407
# Poissons Ratio (y) = 0.16667 0.33790
# Poissons Ratio (z) = 0.23258 0.17987
#
# Static dielectric constant tensor:
#      x y z
#    x 1.697880 0.000000 0.000000 
#    y 0.000000 1.817630 0.000000 
#    z 0.000000 0.000000 1.788650 
# 
# From -- ./inp_files/4501.got.cif
#   From: 2010.05.17/outbox.cif.g08.bks.cpg/sg16_3_cif.got.tgz:4501.got - 2010.06.03 22:28:35.
