data_PCOD9311928
_publ_section_title
;
Structure prediction by ZEFSAII (Michael W. Deem and Ramdas Pophale) SiO2 
 PCOD9311928
Probable space group: P 21 21 2
;
_chemical_formula_sum "Si O2"
_cell_formula_units_Z 24
_cell_length_a 14.969379
_cell_length_b 9.573674
_cell_length_c 9.287236
_cell_angle_alpha 90.000000
_cell_angle_beta 90.000000
_cell_angle_gamma 90.000000
_cell_volume 1330.971943
_symmetry_space_group_name_H-M "P 21 21 2"
_symmetry_group_IT_number 18
_symmetry_cell_setting 'orthorhombic'
loop_
_space_group_symop_operation_xyz
x,y,z
-x,-y,z
1/2+x,1/2-y,-z
1/2-x,1/2+y,-z
loop_
_atom_site_type_symbol
_atom_site_label
_atom_site_fract_x
_atom_site_fract_y
_atom_site_fract_z
Si Si1 0.762602 0.977513 0.849106
Si Si2 0.816716 0.764325 0.089049
Si Si3 0.929998 0.874904 0.664653
Si Si4 0.980489 0.659820 0.902185
Si Si5 0.546112 0.348989 0.661904
Si Si6 0.432589 0.131548 0.814111
O O1 0.840430 0.929391 0.741682
O O2 0.666942 0.921753 0.794620
O O3 0.753725 0.144702 0.866794
O O4 0.780274 0.895928 0.999419
O O5 0.875715 0.818849 0.222771
O O6 0.885951 0.682271 0.983715
O O7 0.973641 0.754863 0.762798
O O8 0.917190 0.831843 0.499285
O O9 0.000000 0.000000 0.662859
O O10 0.000000 0.500000 0.864337
O O11 0.052268 0.698818 0.026702
O O12 0.500000 0.500000 0.679972
O O13 0.468098 0.238449 0.696518
O O14 0.500000 0.000000 0.812418
#
# Coordination Sequence:
#
# PCOD9311928 Si02
#       6
#     4   4   4   4   4   4
#     4  11  22  39  62  95 118 158 204 257 304 362
#     4  10  22  37  63  90 118 153 207 248 307 362
#     4  10  24  40  57  88 128 161 199 245 306 368
#     4   9  17  36  58  85 116 147 201 252 292 350
#     4  10  22  43  58  85 125 166 202 244 306 365
#     4  10  19  39  65  87 119 156 208 256 298 359
#
# _framework density 18.031936000000002
#
# number of rings (size 3 to 8) (size 9 to 14) (size 15 to 20)
#    0.000    2.000    5.000    0.000    4.667    5.333 
#    6.000    0.000    0.000    0.000    0.000    0.000 
#    0.000    0.000    0.000    0.000    0.000    0.000 
#
# Total GULP energy -133830.009251 kJ/mol
# GULP energy per Si atom -5576.250385 kJ/mol
# Density = 1.799089 g / cm^3
# Si number density = 18.031936 Si / 1000 Ang^3
#
#
#
# Elastic Constant Matrix: (Units=GPa)
#
#
# Indices 1 2 3 4 5 6 
#
# 1 84.5113 17.5751 41.2927 0.0000 0.0000 0.0000
# 2 17.5751 83.5936 64.7792 0.0000 0.0000 0.0000
# 3 41.2927 64.7792 130.6995 0.0000 0.0000 0.0000
# 4 0.0000 0.0000 0.0000 17.4508 0.0000 0.0000
# 5 0.0000 0.0000 0.0000 0.0000 20.0159 0.0000
# 6 0.0000 0.0000 0.0000 0.0000 0.0000 33.2937
#
#
#
# Elastic Compliance Matrix: (Units=1/GPa)
#
#
# Indices 1 2 3 4 5 6 
#
# 1 0.014025 0.000787 -0.004821 0.000000 0.000000 0.000000
# 2 0.000787 0.019467 -0.009897 0.000000 0.000000 0.000000
# 3 -0.004821 -0.009897 0.014080 0.000000 0.000000 0.000000
# 4 0.000000 0.000000 0.000000 0.057304 0.000000 0.000000
# 5 0.000000 0.000000 0.000000 0.000000 0.049960 0.000000
# 6 0.000000 0.000000 0.000000 0.000000 0.000000 0.030036
#
#
# Mechanical properties :
#
#
# Convention : Reuss Voigt Hill
#
# Bulk Modulus (GPa) = 50.73754 60.67760 55.70757
# Shear Modulus (GPa) = 22.79957 25.82924 24.31440
#
# Velocity S-wave (km/s) = 3.55970 3.78883 3.67605
# Velocity P-wave (km/s) = 6.71520 7.27073 6.99848
#
# Compressibility (1/GPa) = 0.01970927
#
# Stress axis : x y z
#
# Youngs Moduli (GPa) = 71.30312 51.36988 71.02427
#
# Poissons Ratio (x) = -0.04045 0.34242
# Poissons Ratio (y) = -0.05615 0.70294
# Poissons Ratio (z) = 0.34377 0.50841
#
# Static dielectric constant tensor:
#      x y z
#    x 1.618840 0.000000 0.000000 
#    y 0.000000 1.640030 0.000000 
#    z 0.000000 0.000000 1.619730 
# 
# From -- ./inp_files/4477.got.cif
#   From: 2010.05.17/outbox.cif.g08.bks.cpg/sg18_3_cif.got.tgz:4477.got - 2010.06.03 22:40:56.
