data_PCOD9311346
_publ_section_title
;
Structure prediction by ZEFSAII (Michael W. Deem and Ramdas Pophale) SiO2 
 PCOD9311346
Probable space group: P 2 2 21
;
_chemical_formula_sum "Si O2"
_cell_formula_units_Z 18
_cell_length_a 5.749842
_cell_length_b 14.431131
_cell_length_c 9.158379
_cell_angle_alpha 90.000000
_cell_angle_beta 90.000000
_cell_angle_gamma 90.000000
_cell_volume 759.932279
_symmetry_space_group_name_H-M "P 2 2 21"
_symmetry_group_IT_number 17
_symmetry_cell_setting 'orthorhombic'
loop_
_space_group_symop_operation_xyz
x,y,z
-x,-y,1/2+z
x,-y,-z
-x,y,1/2-z
loop_
_atom_site_type_symbol
_atom_site_label
_atom_site_fract_x
_atom_site_fract_y
_atom_site_fract_z
Si Si1 0.731658 0.278097 0.463701
Si Si2 0.884735 0.154315 0.889418
Si Si3 0.752965 0.531850 0.670278
Si Si4 0.500000 0.283525 0.750000
Si Si5 0.502664 0.081461 0.086299
O O1 0.759662 0.355629 0.342041
O O2 0.601154 0.326742 0.602320
O O3 0.596838 0.185393 0.416639
O O4 0.962582 0.230600 0.526270
O O5 0.699295 0.216536 0.805345
O O6 0.000000 0.103230 0.750000
O O7 0.749507 0.094083 0.006739
O O8 0.764327 0.500000 0.500000
O O9 0.500000 0.509712 0.750000
O O10 0.000000 0.502037 0.750000
O O11 0.500000 0.048597 0.250000
O O12 0.369804 0.000000 0.000000
#
# Coordination Sequence:
#
# PCOD9311346 Si02
#       5
#     4   4   4   2   4
#     4  10  23  42  76 102 151 198 263 311 403 458
#     4   9  20  40  66  98 138 193 247 315 383 459
#     4  12  30  53  85 122 166 205 266 328 407 485
#     4   8  18  36  66 102 136 186 248 306 376 456
#     4  11  26  42  68 101 151 196 261 322 384 459
#
# _framework density 23.686322000000001
#
# number of rings (size 3 to 8) (size 9 to 14) (size 15 to 20)
#    0.000    1.778    0.000    1.333   20.222    3.556 
#    0.000    0.000    0.000    0.000    0.000    0.000 
#    0.000    0.000    0.000    0.000    0.000    0.000 
#
# Total GULP energy -100289.405537 kJ/mol
# GULP energy per Si atom -5571.633641 kJ/mol
# Density = 2.363241 g / cm^3
# Si number density = 23.686322 Si / 1000 Ang^3
#
#
#
# Elastic Constant Matrix: (Units=GPa)
#
#
# Indices 1 2 3 4 5 6 
#
# 1 123.2265 18.0065 57.1686 0.0000 0.0000 0.0000
# 2 18.0065 98.1104 27.0484 0.0000 0.0000 0.0000
# 3 57.1686 27.0484 144.1382 0.0000 0.0000 0.0000
# 4 0.0000 0.0000 0.0000 5.7936 0.0000 0.0000
# 5 0.0000 0.0000 0.0000 0.0000 34.7735 0.0000
# 6 0.0000 0.0000 0.0000 0.0000 0.0000 -36.7167
#
#
#
# Elastic Compliance Matrix: (Units=1/GPa)
#
#
# Indices 1 2 3 4 5 6 
#
# 1 0.010002 -0.000782 -0.003820 0.000000 0.000000 0.000000
# 2 -0.000782 0.010810 -0.001718 0.000000 0.000000 0.000000
# 3 -0.003820 -0.001718 0.008775 0.000000 0.000000 0.000000
# 4 0.000000 0.000000 0.000000 0.172604 0.000000 0.000000
# 5 0.000000 0.000000 0.000000 0.000000 0.028758 0.000000
# 6 0.000000 0.000000 0.000000 0.000000 0.000000 -0.027236
#
#
# Mechanical properties :
#
#
# Convention : Reuss Voigt Hill
#
# Bulk Modulus (GPa) = 59.01279 63.32467 61.16873
# Shear Modulus (GPa) = 22.52220 18.32018 20.42119
#
# Velocity S-wave (km/s) = 3.08694 2.78411 2.93943
# Velocity P-wave (km/s) = 6.13791 6.09326 6.11562
#
# Compressibility (1/GPa) = 0.01694548
#
# Stress axis : x y z
#
# Youngs Moduli (GPa) = 99.98259 92.50777 113.95548
#
# Poissons Ratio (x) = 0.07239 0.43532
# Poissons Ratio (y) = 0.07823 0.19580
# Poissons Ratio (z) = 0.38194 0.15895
#
# Static dielectric constant tensor:
#      x y z
#    x 1.949620 0.000000 0.000000 
#    y 0.000000 1.910280 0.000000 
#    z 0.000000 0.000000 1.894320 
# 
# From -- ./inp_files/3478.got.cif
#   From: 2010.05.17/outbox.cif.g08.bks.cpg/sg17_2_cif.got.tgz:3478.got - 2010.06.03 22:34:06.
