data_PCOD9311183
_publ_section_title
;
Structure prediction by ZEFSAII (Michael W. Deem and Ramdas Pophale) SiO2 
 PCOD9311183
Probable space group: P 2 2 21
;
_chemical_formula_sum "Si O2"
_cell_formula_units_Z 32
_cell_length_a 5.526367
_cell_length_b 18.725672
_cell_length_c 14.296932
_cell_angle_alpha 90.000000
_cell_angle_beta 90.000000
_cell_angle_gamma 90.000000
_cell_volume 1479.517090
_symmetry_space_group_name_H-M "P 2 2 21"
_symmetry_group_IT_number 17
_symmetry_cell_setting 'orthorhombic'
loop_
_space_group_symop_operation_xyz
x,y,z
-x,-y,1/2+z
x,-y,-z
-x,y,1/2-z
loop_
_atom_site_type_symbol
_atom_site_label
_atom_site_fract_x
_atom_site_fract_y
_atom_site_fract_z
Si Si1 0.256191 0.998515 0.700513
Si Si2 0.248492 0.598752 0.310706
Si Si3 0.250578 0.557481 0.689029
Si Si4 0.595125 0.253505 0.856343
Si Si5 0.397476 0.150935 0.371023
Si Si6 0.775596 0.794025 0.513540
Si Si7 0.156192 0.880332 0.430284
Si Si8 0.879504 0.291763 0.147351
O O1 0.500000 0.027067 0.750000
O O2 0.304905 0.914605 0.688650
O O3 0.000000 0.010141 0.750000
O O4 0.220990 0.042301 0.605596
O O5 0.500000 0.597564 0.250000
O O6 0.251719 0.520699 0.358757
O O7 0.264183 0.671757 0.369053
O O8 0.000000 0.603410 0.250000
O O9 0.500000 0.563491 0.750000
O O10 0.000000 0.555465 0.750000
O O11 0.229516 0.629877 0.629398
O O12 0.500000 0.255170 0.750000
O O13 0.405049 0.245869 0.942035
O O14 0.753411 0.181994 0.861875
O O15 0.675553 0.162520 0.396290
O O16 0.284681 0.134586 0.472056
O O17 0.312946 0.228611 0.340933
O O18 0.952243 0.736443 0.562366
O O19 0.882941 0.857964 0.450342
O O20 0.000000 0.295901 0.250000
#
# Coordination Sequence:
#
# PCOD9311183 Si02
#       8
#     4   4   4   4   4   4   4   4
#     4  12  29  44  71 102 130 168 226 275 330 407
#     4   9  19  35  61 100 131 170 225 276 331 400
#     4   9  19  35  61 100 131 170 225 276 331 400
#     4  10  22  38  69  97 130 180 225 283 336 405
#     4  10  24  44  64  94 134 174 220 273 339 396
#     4  10  24  42  67  99 136 176 232 274 340 417
#     4  10  24  44  64  94 134 174 220 273 339 396
#     4  10  22  38  69  97 130 180 225 283 336 405
#
# _framework density 21.628679000000002
#
# number of rings (size 3 to 8) (size 9 to 14) (size 15 to 20)
#    0.000    2.000    0.000    1.125   17.500    0.000 
#    0.000    0.000    0.000    8.250    0.000    0.000 
#    0.000    0.000    0.000    0.000    0.000    0.000 
#
# Total GULP energy -178189.719436 kJ/mol
# GULP energy per Si atom -5568.428732 kJ/mol
# Density = 2.157945 g / cm^3
# Si number density = 21.628679 Si / 1000 Ang^3
#
#
#
# Elastic Constant Matrix: (Units=GPa)
#
#
# Indices 1 2 3 4 5 6 
#
# 1 99.2980 21.1952 21.1514 0.0000 0.0000 0.0000
# 2 21.1952 80.2483 8.8828 0.0000 0.0000 0.0000
# 3 21.1514 8.8828 62.1313 0.0000 0.0000 0.0000
# 4 0.0000 0.0000 0.0000 -528.1264 0.0000 0.0000
# 5 0.0000 0.0000 0.0000 0.0000 18.4386 0.0000
# 6 0.0000 0.0000 0.0000 0.0000 0.0000 4.4631
#
#
#
# Elastic Compliance Matrix: (Units=1/GPa)
#
#
# Indices 1 2 3 4 5 6 
#
# 1 0.011374 -0.002617 -0.003498 0.000000 0.000000 0.000000
# 2 -0.002617 0.013264 -0.001005 0.000000 0.000000 0.000000
# 3 -0.003498 -0.001005 0.017430 0.000000 0.000000 0.000000
# 4 0.000000 0.000000 0.000000 -0.001893 0.000000 0.000000
# 5 0.000000 0.000000 0.000000 0.000000 0.054234 0.000000
# 6 0.000000 0.000000 0.000000 0.000000 0.000000 0.224057
#
#
# Mechanical properties :
#
#
# Convention : Reuss Voigt Hill
#
# Bulk Modulus (GPa) = 35.93650 38.23737 37.08693
# Shear Modulus (GPa) = 14.62065 -88.34837 -36.86386
#
# Velocity S-wave (km/s) = 2.60279 -6.39816 -4.13291
# Velocity P-wave (km/s) = 5.06794 6.07162 2.36438
#
# Compressibility (1/GPa) = 0.02782686
#
# Stress axis : x y z
#
# Youngs Moduli (GPa) = 87.91665 75.39311 57.37387
#
# Poissons Ratio (x) = 0.19730 0.20070
# Poissons Ratio (y) = 0.23008 0.05768
# Poissons Ratio (z) = 0.30754 0.07580
#
# Static dielectric constant tensor:
#      x y z
#    x 5.054060 0.000000 0.000000 
#    y 0.000000 1.794010 0.000000 
#    z 0.000000 0.000000 1.728800 
# 
# From -- ./inp_files/7816.got.cif
#   From: 2010.05.17/outbox.cif.g08.bks.cpg/sg17_4_cif.got.tgz:7816.got - 2010.06.03 22:34:06.
