data_PCOD9311879
_publ_section_title
;
Structure prediction by ZEFSAII (Michael W. Deem and Ramdas Pophale) SiO2 
 PCOD9311879
Probable space group: P 21 21 2
;
_chemical_formula_sum "Si O2"
_cell_formula_units_Z 24
_cell_length_a 16.671634
_cell_length_b 14.987989
_cell_length_c 5.042927
_cell_angle_alpha 90.000000
_cell_angle_beta 90.000000
_cell_angle_gamma 90.000000
_cell_volume 1260.097688
_symmetry_space_group_name_H-M "P 21 21 2"
_symmetry_group_IT_number 18
_symmetry_cell_setting 'orthorhombic'
loop_
_space_group_symop_operation_xyz
x,y,z
-x,-y,z
1/2+x,1/2-y,-z
1/2-x,1/2+y,-z
loop_
_atom_site_type_symbol
_atom_site_label
_atom_site_fract_x
_atom_site_fract_y
_atom_site_fract_z
Si Si1 0.445042 0.584995 0.955124
Si Si2 0.678283 0.998651 0.410618
Si Si3 0.581462 0.944169 0.909932
Si Si4 0.479649 0.783444 0.031354
Si Si5 0.870152 0.692848 0.471479
Si Si6 0.838033 0.892456 0.546334
O O1 0.500000 0.500000 0.001824
O O2 0.408989 0.585283 0.660413
O O3 0.491796 0.677860 0.001353
O O4 0.371050 0.588547 0.160749
O O5 0.612108 0.959548 0.613669
O O6 0.761035 0.949939 0.474102
O O7 0.679798 0.104355 0.467909
O O8 0.647970 0.978620 0.114987
O O9 0.500000 0.000000 0.953389
O O10 0.556578 0.842754 0.968362
O O11 0.443986 0.804502 0.320060
O O12 0.409903 0.808609 0.819120
O O13 0.824031 0.786078 0.513332
#
# Coordination Sequence:
#
# PCOD9311879 Si02
#       6
#     4   4   4   4   4   4
#     4  10  21  42  63  81 111 152 194 231 283 335
#     4  12  22  37  58  83 120 149 186 238 278 340
#     4  12  21  35  59  88 113 147 192 229 285 332
#     4  10  20  35  58  83 110 143 189 232 271 340
#     4  10  19  37  57  77 112 156 177 222 291 331
#     4  10  23  39  58  85 116 149 191 229 287 342
#
# _framework density 19.046143000000001
#
# number of rings (size 3 to 8) (size 9 to 14) (size 15 to 20)
#    0.000    1.333    3.333    3.000    0.000    0.000 
#    6.000    0.000    0.000    0.000    0.000    0.000 
#    0.000    0.000    0.000    0.000    0.000    0.000 
#
# Total GULP energy -134114.667687 kJ/mol
# GULP energy per Si atom -5588.111154 kJ/mol
# Density = 1.900279 g / cm^3
# Si number density = 19.046143 Si / 1000 Ang^3
#
#
#
# Elastic Constant Matrix: (Units=GPa)
#
#
# Indices 1 2 3 4 5 6 
#
# 1 30.9977 47.9368 -17.5374 0.0000 0.0000 0.0000
# 2 47.9368 140.4488 -13.7854 0.0000 0.0000 0.0000
# 3 -17.5374 -13.7854 52.4156 0.0000 0.0000 0.0000
# 4 0.0000 0.0000 0.0000 19.1401 0.0000 0.0000
# 5 0.0000 0.0000 0.0000 0.0000 18.4073 0.0000
# 6 0.0000 0.0000 0.0000 0.0000 0.0000 31.7625
#
#
#
# Elastic Compliance Matrix: (Units=1/GPa)
#
#
# Indices 1 2 3 4 5 6 
#
# 1 0.087631 -0.027748 0.022022 0.000000 0.000000 0.000000
# 2 -0.027748 0.016095 -0.005051 0.000000 0.000000 0.000000
# 3 0.022022 -0.005051 0.025118 0.000000 0.000000 0.000000
# 4 0.000000 0.000000 0.000000 0.052246 0.000000 0.000000
# 5 0.000000 0.000000 0.000000 0.000000 0.054326 0.000000
# 6 0.000000 0.000000 0.000000 0.000000 0.000000 0.031484
#
#
# Mechanical properties :
#
#
# Convention : Reuss Voigt Hill
#
# Bulk Modulus (GPa) = 9.32053 28.56556 18.94304
# Shear Modulus (GPa) = 15.42179 27.67853 21.55016
#
# Velocity S-wave (km/s) = 2.84862 3.81627 3.36738
# Velocity P-wave (km/s) = 3.96533 5.86934 5.00864
#
# Compressibility (1/GPa) = 0.10729003
#
# Stress axis : x y z
#
# Youngs Moduli (GPa) = 11.41154 62.13148 39.81198
#
# Poissons Ratio (x) = 1.72401 -0.87674
# Poissons Ratio (y) = 0.31665 0.20109
# Poissons Ratio (z) = -0.25130 0.31382
#
# Static dielectric constant tensor:
#      x y z
#    x 1.612480 0.000000 0.000000 
#    y 0.000000 1.683250 0.000000 
#    z 0.000000 0.000000 1.647580 
# 
# From -- ./inp_files/1480.got.cif
#   From: 2010.05.17/outbox.cif.g08.bks.cpg/sg18_1_cif.got.tgz:1480.got - 2010.06.03 22:40:56.
