data_PCOD9311281
_publ_section_title
;
Structure prediction by ZEFSAII (Michael W. Deem and Ramdas Pophale) SiO2 
 PCOD9311281
Probable space group: P 2 2 21
;
_chemical_formula_sum "Si O2"
_cell_formula_units_Z 20
_cell_length_a 9.413512
_cell_length_b 7.104383
_cell_length_c 14.132120
_cell_angle_alpha 90.000000
_cell_angle_beta 90.000000
_cell_angle_gamma 90.000000
_cell_volume 945.116540
_symmetry_space_group_name_H-M "P 2 2 21"
_symmetry_group_IT_number 17
_symmetry_cell_setting 'orthorhombic'
loop_
_space_group_symop_operation_xyz
x,y,z
-x,-y,1/2+z
x,-y,-z
-x,y,1/2-z
loop_
_atom_site_type_symbol
_atom_site_label
_atom_site_fract_x
_atom_site_fract_y
_atom_site_fract_z
Si Si1 0.395995 0.269309 0.876745
Si Si2 0.164481 0.232495 0.255937
Si Si3 0.318585 0.058209 0.608648
Si Si4 0.299182 0.350529 0.066672
Si Si5 0.158827 0.674569 0.279928
O O1 0.534265 0.149842 0.855255
O O2 0.412028 0.499813 0.887500
O O3 0.267644 0.255529 0.802426
O O4 0.359544 0.219837 0.985331
O O5 0.223794 0.241266 0.149182
O O6 0.168848 0.450214 0.288031
O O7 0.000000 0.171577 0.250000
O O8 0.260884 0.108537 0.324754
O O9 0.204030 0.223578 0.624577
O O10 0.328556 0.000000 0.500000
O O11 0.209452 0.500000 0.000000
O O12 0.000000 0.720879 0.250000
#
# Coordination Sequence:
#
# PCOD9311281 Si02
#       5
#     4   4   4   4   4
#     4   8  19  39  62  93 130 168 220 271 330 389
#     4  10  22  43  71 100 132 175 227 275 342 400
#     4  12  26  40  58  98 140 176 222 270 332 403
#     4   7  17  39  68  93 127 175 223 272 335 399
#     4  10  22  44  70  95 132 169 220 284 333 395
#
# _framework density 21.161414000000001
#
# number of rings (size 3 to 8) (size 9 to 14) (size 15 to 20)
#    1.200    1.200    0.000    1.200    0.000    8.800 
#    0.000    7.000    0.000    0.000    0.000    0.000 
#    0.000    0.000    0.000    0.000    0.000    0.000 
#
# Total GULP energy -111380.190010 kJ/mol
# GULP energy per Si atom -5569.009500 kJ/mol
# Density = 2.111325 g / cm^3
# Si number density = 21.161414 Si / 1000 Ang^3
#
#
#
# Elastic Constant Matrix: (Units=GPa)
#
#
# Indices 1 2 3 4 5 6 
#
# 1 152.7411 65.5683 71.5179 0.0000 0.0000 0.0000
# 2 65.5683 95.7885 46.1698 0.0000 0.0000 0.0000
# 3 71.5179 46.1698 124.1362 0.0000 0.0000 0.0000
# 4 0.0000 0.0000 0.0000 82.0151 0.0000 0.0000
# 5 0.0000 0.0000 0.0000 0.0000 22.3806 0.0000
# 6 0.0000 0.0000 0.0000 0.0000 0.0000 42.3115
#
#
#
# Elastic Compliance Matrix: (Units=1/GPa)
#
#
# Indices 1 2 3 4 5 6 
#
# 1 0.010843 -0.005375 -0.004248 0.000000 0.000000 0.000000
# 2 -0.005375 0.015384 -0.002625 0.000000 0.000000 0.000000
# 3 -0.004248 -0.002625 0.011479 0.000000 0.000000 0.000000
# 4 0.000000 0.000000 0.000000 0.012193 0.000000 0.000000
# 5 0.000000 0.000000 0.000000 0.000000 0.044681 0.000000
# 6 0.000000 0.000000 0.000000 0.000000 0.000000 0.023634
#
#
# Mechanical properties :
#
#
# Convention : Reuss Voigt Hill
#
# Bulk Modulus (GPa) = 75.69608 82.13086 78.91347
# Shear Modulus (GPa) = 33.98687 41.96877 37.97782
#
# Velocity S-wave (km/s) = 4.01194 4.45822 4.24095
# Velocity P-wave (km/s) = 7.57029 8.08683 7.83282
#
# Compressibility (1/GPa) = 0.01321072
#
# Stress axis : x y z
#
# Youngs Moduli (GPa) = 92.22178 65.00186 87.11182
#
# Poissons Ratio (x) = 0.34938 0.37006
# Poissons Ratio (y) = 0.49568 0.22869
# Poissons Ratio (z) = 0.39177 0.17064
#
# Static dielectric constant tensor:
#      x y z
#    x 1.759040 0.000000 0.000000 
#    y 0.000000 1.824970 0.000000 
#    z 0.000000 0.000000 1.782150 
# 
# From -- ./inp_files/8001.got.cif
#   From: 2010.05.17/outbox.cif.g08.bks.cpg/sg17_5_cif.got.tgz:8001.got - 2010.06.03 22:34:06.
