data_PCOD9311981
_publ_section_title
;
Structure prediction by ZEFSAII (Michael W. Deem and Ramdas Pophale) SiO2 
 PCOD9311981
Probable space group: P 21 21 2
;
_chemical_formula_sum "Si O2"
_cell_formula_units_Z 24
_cell_length_a 7.821146
_cell_length_b 15.570250
_cell_length_c 8.537930
_cell_angle_alpha 90.000000
_cell_angle_beta 90.000000
_cell_angle_gamma 90.000000
_cell_volume 1039.725196
_symmetry_space_group_name_H-M "P 21 21 2"
_symmetry_group_IT_number 18
_symmetry_cell_setting 'orthorhombic'
loop_
_space_group_symop_operation_xyz
x,y,z
-x,-y,z
1/2+x,1/2-y,-z
1/2-x,1/2+y,-z
loop_
_atom_site_type_symbol
_atom_site_label
_atom_site_fract_x
_atom_site_fract_y
_atom_site_fract_z
Si Si1 0.500000 0.000000 0.719057
Si Si2 0.613334 0.709353 0.697116
Si Si3 0.000000 0.000000 0.889828
Si Si4 0.387363 0.118868 0.223658
Si Si5 0.248798 0.134410 0.886572
Si Si6 0.241129 0.946500 0.157435
Si Si7 0.905267 0.660108 0.472680
O O1 0.390407 0.067161 0.820720
O O2 0.601565 0.066918 0.608444
O O3 0.721959 0.775423 0.801723
O O4 0.597823 0.618894 0.782837
O O5 0.451312 0.763501 0.645610
O O6 0.727852 0.682295 0.550976
O O7 0.163659 0.977259 0.995582
O O8 0.929199 0.909469 0.826272
O O9 0.575326 0.099238 0.148303
O O10 0.447324 0.158111 0.390195
O O11 0.287693 0.029768 0.259741
O O12 0.280321 0.152794 0.072658
#
# Coordination Sequence:
#
# PCOD9311981 Si02
#       7
#     2   4   2   4   4   4   4
#     4  10  20  38  58  76 108 154 184 206 262 348
#     4  10  22  37  54  82 110 140 181 228 271 317
#     4  10  20  34  54  84 110 136 176 232 276 310
#     4   9  18  38  59  75 106 153 184 209 267 345
#     4  10  21  36  57  83 109 140 184 226 268 317
#     4   9  18  33  55  79 106 138 179 220 268 321
#     4  10  21  37  57  79 110 146 182 221 271 324
#
# _framework density 23.083023000000001
#
# number of rings (size 3 to 8) (size 9 to 14) (size 15 to 20)
#    0.000    2.333    0.000    4.000    0.000    6.667 
#    0.000    5.000    0.000    1.000    0.000    0.000 
#    0.000    0.000    0.000    0.000    0.000    0.000 
#
# Total GULP energy -133609.681436 kJ/mol
# GULP energy per Si atom -5567.070060 kJ/mol
# Density = 2.303049 g / cm^3
# Si number density = 23.083023 Si / 1000 Ang^3
#
#
#
# Elastic Constant Matrix: (Units=GPa)
#
#
# Indices 1 2 3 4 5 6 
#
# 1 37.6504 2.5844 -6.5067 0.0000 0.0000 0.0000
# 2 2.5844 61.3248 16.1260 0.0000 0.0000 0.0000
# 3 -6.5067 16.1260 48.6587 0.0000 0.0000 0.0000
# 4 0.0000 0.0000 0.0000 98.4890 0.0000 0.0000
# 5 0.0000 0.0000 0.0000 0.0000 15.5121 0.0000
# 6 0.0000 0.0000 0.0000 0.0000 0.0000 28.2208
#
#
#
# Elastic Compliance Matrix: (Units=1/GPa)
#
#
# Indices 1 2 3 4 5 6 
#
# 1 0.027489 -0.002328 0.004447 0.000000 0.000000 0.000000
# 2 -0.002328 0.018061 -0.006297 0.000000 0.000000 0.000000
# 3 0.004447 -0.006297 0.023233 0.000000 0.000000 0.000000
# 4 0.000000 0.000000 0.000000 0.010153 0.000000 0.000000
# 5 0.000000 0.000000 0.000000 0.000000 0.064466 0.000000
# 6 0.000000 0.000000 0.000000 0.000000 0.000000 0.035435
#
#
# Mechanical properties :
#
#
# Convention : Reuss Voigt Hill
#
# Bulk Modulus (GPa) = 16.54885 19.11570 17.83228
# Shear Modulus (GPa) = 24.11579 37.47308 30.79443
#
# Velocity S-wave (km/s) = 3.23575 4.03352 3.65646
# Velocity P-wave (km/s) = 4.59837 5.47646 5.05651
#
# Compressibility (1/GPa) = 0.06042714
#
# Stress axis : x y z
#
# Youngs Moduli (GPa) = 36.37885 55.36935 43.04258
#
# Poissons Ratio (x) = 0.12890 -0.19142
# Poissons Ratio (y) = 0.08469 0.27103
# Poissons Ratio (z) = -0.16179 0.34865
#
# Static dielectric constant tensor:
#      x y z
#    x 1.887780 0.000000 0.000000 
#    y 0.000000 1.966920 0.000000 
#    z 0.000000 0.000000 1.915480 
# 
# From -- ./inp_files/3328.got.cif
#   From: 2010.05.17/outbox.cif.g08.bks.cpg/sg18_2_cif.got.tgz:3328.got - 2010.06.03 22:40:56.
