data_PCOD9311299
_publ_section_title
;
Structure prediction by ZEFSAII (Michael W. Deem and Ramdas Pophale) SiO2 
 PCOD9311299
Probable space group: P 2 2 21
;
_chemical_formula_sum "Si O2"
_cell_formula_units_Z 14
_cell_length_a 12.071825
_cell_length_b 4.920781
_cell_length_c 9.608304
_cell_angle_alpha 90.000000
_cell_angle_beta 90.000000
_cell_angle_gamma 90.000000
_cell_volume 570.760229
_symmetry_space_group_name_H-M "P 2 2 21"
_symmetry_group_IT_number 17
_symmetry_cell_setting 'orthorhombic'
loop_
_space_group_symop_operation_xyz
x,y,z
-x,-y,1/2+z
x,-y,-z
-x,y,1/2-z
loop_
_atom_site_type_symbol
_atom_site_label
_atom_site_fract_x
_atom_site_fract_y
_atom_site_fract_z
Si Si1 0.905900 0.661432 0.366823
Si Si2 0.230476 0.500000 0.500000
Si Si3 0.408352 0.874882 0.353526
Si Si4 0.214013 0.191296 0.242017
O O1 0.953778 0.500000 0.500000
O O2 0.800786 0.468501 0.339537
O O3 0.000000 0.634749 0.250000
O O4 0.859063 0.965970 0.339661
O O5 0.312487 0.670916 0.402182
O O6 0.173620 0.277618 0.398817
O O7 0.500000 0.760486 0.250000
O O8 0.451932 0.000000 0.500000
O O9 0.338777 0.095309 0.265167
#
# Coordination Sequence:
#
# PCOD9311299 Si02
#       4
#     4   2   4   4
#     4  12  28  47  75 108 146 191 246 307 375 442
#     4  10  22  44  76 102 146 200 240 300 370 428
#     4  10  23  43  71 106 144 190 239 296 366 433
#     4  11  24  48  71 106 146 188 247 297 369 434
#
# _framework density 24.528689
#
# number of rings (size 3 to 8) (size 9 to 14) (size 15 to 20)
#    0.000    1.143    2.857    1.714    2.000    6.857 
#    2.571    0.000    0.000    0.000    0.000    0.000 
#    0.000    0.000    0.000    0.000    0.000    0.000 
#
# Total GULP energy -77993.735466 kJ/mol
# GULP energy per Si atom -5570.981105 kJ/mol
# Density = 2.447286 g / cm^3
# Si number density = 24.528689 Si / 1000 Ang^3
#
#
#
# Elastic Constant Matrix: (Units=GPa)
#
#
# Indices 1 2 3 4 5 6 
#
# 1 33.2566 -2.3363 27.5140 0.0000 0.0000 0.0000
# 2 -2.3363 123.2765 29.8007 0.0000 0.0000 0.0000
# 3 27.5140 29.8007 143.2469 0.0000 0.0000 0.0000
# 4 0.0000 0.0000 0.0000 44.1114 0.0000 0.0000
# 5 0.0000 0.0000 0.0000 0.0000 55.6258 0.0000
# 6 0.0000 0.0000 0.0000 0.0000 0.0000 27.0028
#
#
#
# Elastic Compliance Matrix: (Units=1/GPa)
#
#
# Indices 1 2 3 4 5 6 
#
# 1 0.036474 0.002511 -0.007528 0.000000 0.000000 0.000000
# 2 0.002511 0.008714 -0.002295 0.000000 0.000000 0.000000
# 3 -0.007528 -0.002295 0.008904 0.000000 0.000000 0.000000
# 4 0.000000 0.000000 0.000000 0.022670 0.000000 0.000000
# 5 0.000000 0.000000 0.000000 0.000000 0.017977 0.000000
# 6 0.000000 0.000000 0.000000 0.000000 0.000000 0.037033
#
#
# Mechanical properties :
#
#
# Convention : Reuss Voigt Hill
#
# Bulk Modulus (GPa) = 25.33694 45.52632 35.43163
# Shear Modulus (GPa) = 31.33750 41.66811 36.50281
#
# Velocity S-wave (km/s) = 3.57821 4.12606 3.86186
# Velocity P-wave (km/s) = 5.23673 6.42650 5.86188
#
# Compressibility (1/GPa) = 0.03946807
#
# Stress axis : x y z
#
# Youngs Moduli (GPa) = 27.41694 114.75416 112.30419
#
# Poissons Ratio (x) = -0.28816 0.84543
# Poissons Ratio (y) = -0.06885 0.25776
# Poissons Ratio (z) = 0.20640 0.26338
#
# Static dielectric constant tensor:
#      x y z
#    x 1.936350 0.000000 0.000000 
#    y 0.000000 2.078990 0.000000 
#    z 0.000000 0.000000 2.340050 
# 
# From -- ./inp_files/5012.got.cif
#   From: 2010.05.17/outbox.cif.g08.bks.cpg/sg17_3_cif.got.tgz:5012.got - 2010.06.03 22:34:06.
