data_PCOD9311460
_publ_section_title
;
Structure prediction by ZEFSAII (Michael W. Deem and Ramdas Pophale) SiO2 
 PCOD9311460
Probable space group: P 2 2 21
;
_chemical_formula_sum "Si O2"
_cell_formula_units_Z 24
_cell_length_a 5.229795
_cell_length_b 10.962091
_cell_length_c 19.199143
_cell_angle_alpha 90.000000
_cell_angle_beta 90.000000
_cell_angle_gamma 90.000000
_cell_volume 1100.677052
_symmetry_space_group_name_H-M "P 2 2 21"
_symmetry_group_IT_number 17
_symmetry_cell_setting 'orthorhombic'
loop_
_space_group_symop_operation_xyz
x,y,z
-x,-y,1/2+z
x,-y,-z
-x,y,1/2-z
loop_
_atom_site_type_symbol
_atom_site_label
_atom_site_fract_x
_atom_site_fract_y
_atom_site_fract_z
Si Si1 0.236203 0.343841 0.442366
Si Si2 0.548201 0.465710 0.633604
Si Si3 0.405597 0.140102 0.082191
Si Si4 0.875052 0.093477 0.550327
Si Si5 0.065428 0.326162 0.600201
Si Si6 0.847490 0.327395 0.319815
O O1 0.468126 0.436201 0.426365
O O2 0.322118 0.204261 0.426983
O O3 0.142251 0.356734 0.520482
O O4 0.032410 0.371363 0.382406
O O5 0.296322 0.383135 0.645212
O O6 0.787070 0.379797 0.616202
O O7 0.653339 0.561035 0.690182
O O8 0.286719 0.208000 0.148523
O O9 0.336708 0.996655 0.084549
O O10 0.269179 0.174672 0.008214
O O11 0.034180 0.179356 0.600130
O O12 0.030614 0.000000 0.500000
O O13 0.000000 0.301967 0.250000
#
# Coordination Sequence:
#
# PCOD9311460 Si02
#       6
#     4   4   4   4   4   4
#     4  11  21  37  64  92 133 167 214 269 342 395
#     4  11  26  36  61  98 126 175 213 269 335 400
#     4   8  19  38  57  94 125 171 213 264 336 385
#     4   8  18  39  57  93 137 161 210 270 333 404
#     4  12  22  38  62  94 140 166 206 274 343 400
#     4  11  23  42  62  93 133 176 227 270 328 405
#
# _framework density 21.804760999999999
#
# number of rings (size 3 to 8) (size 9 to 14) (size 15 to 20)
#    1.000    0.667    3.333    1.500    4.667    2.667 
#   15.000    0.000    0.000    1.000    0.000    0.000 
#    0.000    0.000    0.000    0.000    0.000    0.000 
#
# Total GULP energy -133697.460093 kJ/mol
# GULP energy per Si atom -5570.727504 kJ/mol
# Density = 2.175513 g / cm^3
# Si number density = 21.804761 Si / 1000 Ang^3
#
#
#
# Elastic Constant Matrix: (Units=GPa)
#
#
# Indices 1 2 3 4 5 6 
#
# 1 113.0849 48.4444 20.2985 0.0000 0.0000 0.0000
# 2 48.4444 130.6527 6.2733 0.0000 0.0000 0.0000
# 3 20.2985 6.2733 56.2079 0.0000 0.0000 0.0000
# 4 0.0000 0.0000 0.0000 6.4287 0.0000 0.0000
# 5 0.0000 0.0000 0.0000 0.0000 23.8389 0.0000
# 6 0.0000 0.0000 0.0000 0.0000 0.0000 23.7510
#
#
#
# Elastic Compliance Matrix: (Units=1/GPa)
#
#
# Indices 1 2 3 4 5 6 
#
# 1 0.011193 -0.003977 -0.003598 0.000000 0.000000 0.000000
# 2 -0.003977 0.009108 0.000420 0.000000 0.000000 0.000000
# 3 -0.003598 0.000420 0.019044 0.000000 0.000000 0.000000
# 4 0.000000 0.000000 0.000000 0.155551 0.000000 0.000000
# 5 0.000000 0.000000 0.000000 0.000000 0.041948 0.000000
# 6 0.000000 0.000000 0.000000 0.000000 0.000000 0.042104
#
#
# Mechanical properties :
#
#
# Convention : Reuss Voigt Hill
#
# Bulk Modulus (GPa) = 39.94669 49.99755 44.97212
# Shear Modulus (GPa) = 16.57805 25.79901 21.18853
#
# Velocity S-wave (km/s) = 2.76034 3.44347 3.12065
# Velocity P-wave (km/s) = 5.34034 6.22812 5.80123
#
# Compressibility (1/GPa) = 0.02503336
#
# Stress axis : x y z
#
# Youngs Moduli (GPa) = 89.34470 109.78801 52.51091
#
# Poissons Ratio (x) = 0.43666 0.18894
# Poissons Ratio (y) = 0.35535 -0.02204
# Poissons Ratio (z) = 0.32147 -0.04608
#
# Static dielectric constant tensor:
#      x y z
#    x 1.921710 0.000000 0.000000 
#    y 0.000000 1.901370 0.000000 
#    z 0.000000 0.000000 1.792770 
# 
# From -- ./inp_files/9871.got.cif
#   From: 2010.05.17/outbox.cif.g08.bks.cpg/sg17_5_cif.got.tgz:9871.got - 2010.06.03 22:34:06.
