data_PCOD9311933
_publ_section_title
;
Structure prediction by ZEFSAII (Michael W. Deem and Ramdas Pophale) SiO2 
 PCOD9311933
Probable space group: P 21 21 2
;
_chemical_formula_sum "Si O2"
_cell_formula_units_Z 30
_cell_length_a 22.644019
_cell_length_b 7.849802
_cell_length_c 7.900529
_cell_angle_alpha 90.000000
_cell_angle_beta 90.000000
_cell_angle_gamma 90.000000
_cell_volume 1404.327449
_symmetry_space_group_name_H-M "P 21 21 2"
_symmetry_group_IT_number 18
_symmetry_cell_setting 'orthorhombic'
loop_
_space_group_symop_operation_xyz
x,y,z
-x,-y,z
1/2+x,1/2-y,-z
1/2-x,1/2+y,-z
loop_
_atom_site_type_symbol
_atom_site_label
_atom_site_fract_x
_atom_site_fract_y
_atom_site_fract_z
Si Si1 0.000000 0.500000 0.869681
Si Si2 0.938668 0.015734 0.125872
Si Si3 0.799427 0.693720 0.313076
Si Si4 0.806910 0.708271 0.707693
Si Si5 0.387612 0.858402 0.975200
Si Si6 0.537494 0.657376 0.233303
Si Si7 0.329141 0.391608 0.329630
Si Si8 0.319479 0.399627 0.711117
O O1 0.056840 0.477507 0.988762
O O2 0.005146 0.664352 0.749886
O O3 0.882840 0.113542 0.202788
O O4 0.913274 0.832766 0.062075
O O5 0.000000 0.000000 0.232196
O O6 0.960107 0.122830 0.966482
O O7 0.806957 0.639014 0.511899
O O8 0.732325 0.668388 0.249363
O O9 0.809291 0.896668 0.302912
O O10 0.845489 0.605592 0.185418
O O11 0.850217 0.635213 0.850329
O O12 0.825430 0.904636 0.688298
O O13 0.740333 0.684852 0.778975
O O14 0.500000 0.500000 0.309310
O O15 0.606109 0.663697 0.277167
O O16 0.324125 0.331702 0.522008
#
# Coordination Sequence:
#
# PCOD9311933 Si02
#       8
#     2   4   4   4   4   4   4   4
#     4  12  24  40  66  96 120 170 222 260 310 388
#     4  10  19  40  59  84 124 161 211 258 301 382
#     4   9  22  38  57  93 128 156 209 264 310 385
#     4  10  20  38  61  89 127 162 205 262 321 373
#     4  11  22  39  62  87 122 169 206 258 324 370
#     4  11  22  40  63  88 129 161 214 265 305 380
#     4  10  20  39  59  88 127 163 203 262 321 373
#     4   9  21  36  61  90 121 164 207 260 320 373
#
# _framework density 21.362539999999999
#
# number of rings (size 3 to 8) (size 9 to 14) (size 15 to 20)
#    0.000    1.867    4.000    0.000    3.733    1.600 
#    0.000    2.000    0.000    0.000    0.000    0.000 
#    0.000    0.000    0.000    0.000    0.000    0.000 
#
# Total GULP energy -167201.980630 kJ/mol
# GULP energy per Si atom -5573.399354 kJ/mol
# Density = 2.131392 g / cm^3
# Si number density = 21.362540 Si / 1000 Ang^3
#
#
#
# Elastic Constant Matrix: (Units=GPa)
#
#
# Indices 1 2 3 4 5 6 
#
# 1 167.6071 9.9041 50.7092 0.0000 0.0000 0.0000
# 2 9.9041 46.9976 7.4511 0.0000 0.0000 0.0000
# 3 50.7092 7.4511 57.4559 0.0000 0.0000 0.0000
# 4 0.0000 0.0000 0.0000 1.5198 0.0000 0.0000
# 5 0.0000 0.0000 0.0000 0.0000 60.6685 0.0000
# 6 0.0000 0.0000 0.0000 0.0000 0.0000 39.0746
#
#
#
# Elastic Compliance Matrix: (Units=1/GPa)
#
#
# Indices 1 2 3 4 5 6 
#
# 1 0.008156 -0.000590 -0.007122 0.000000 0.000000 0.000000
# 2 -0.000590 0.021767 -0.002302 0.000000 0.000000 0.000000
# 3 -0.007122 -0.002302 0.023989 0.000000 0.000000 0.000000
# 4 0.000000 0.000000 0.000000 0.657970 0.000000 0.000000
# 5 0.000000 0.000000 0.000000 0.000000 0.016483 0.000000
# 6 0.000000 0.000000 0.000000 0.000000 0.000000 0.025592
#
#
# Mechanical properties :
#
#
# Convention : Reuss Voigt Hill
#
# Bulk Modulus (GPa) = 29.51245 45.35437 37.43341
# Shear Modulus (GPa) = 6.36717 33.85234 20.10975
#
# Velocity S-wave (km/s) = 1.72829 3.98510 3.07148
# Velocity P-wave (km/s) = 4.22229 6.51548 5.48996
#
# Compressibility (1/GPa) = 0.03388400
#
# Stress axis : x y z
#
# Youngs Moduli (GPa) = 122.61169 45.94113 41.68637
#
# Poissons Ratio (x) = 0.02709 0.29688
# Poissons Ratio (y) = 0.07230 0.09598
# Poissons Ratio (z) = 0.87320 0.10578
#
# Static dielectric constant tensor:
#      x y z
#    x 1.949530 0.000000 0.000000 
#    y 0.000000 1.827080 0.000000 
#    z 0.000000 0.000000 1.798190 
# 
# From -- ./inp_files/4705.got.cif
#   From: 2010.05.17/outbox.cif.g08.bks.cpg/sg18_3_cif.got.tgz:4705.got - 2010.06.03 22:40:56.
