data_PCOD9311204
_publ_section_title
;
Structure prediction by ZEFSAII (Michael W. Deem and Ramdas Pophale) SiO2 
 PCOD9311204
Probable space group: P 2 2 21
;
_chemical_formula_sum "Si O2"
_cell_formula_units_Z 24
_cell_length_a 9.140919
_cell_length_b 23.037196
_cell_length_c 5.149975
_cell_angle_alpha 90.000000
_cell_angle_beta 90.000000
_cell_angle_gamma 90.000000
_cell_volume 1084.487620
_symmetry_space_group_name_H-M "P 2 2 21"
_symmetry_group_IT_number 17
_symmetry_cell_setting 'orthorhombic'
loop_
_space_group_symop_operation_xyz
x,y,z
-x,-y,1/2+z
x,-y,-z
-x,y,1/2-z
loop_
_atom_site_type_symbol
_atom_site_label
_atom_site_fract_x
_atom_site_fract_y
_atom_site_fract_z
Si Si1 0.673349 0.412908 0.287053
Si Si2 0.755380 0.877315 0.053416
Si Si3 0.103682 0.000000 0.500000
Si Si4 0.899124 0.500000 0.000000
Si Si5 0.245051 0.223997 0.922434
Si Si6 0.500000 0.818697 0.750000
Si Si7 0.000000 0.194571 0.250000
Si Si8 0.329407 0.661145 0.298581
O O1 0.500000 0.431728 0.250000
O O2 0.787766 0.458623 0.165169
O O3 0.707589 0.387799 0.576175
O O4 0.691487 0.360268 0.088030
O O5 0.761155 0.842236 0.321037
O O6 0.795700 0.944346 0.061019
O O7 0.600580 0.859618 0.929493
O O8 0.883742 0.846069 0.892774
O O9 0.000000 0.010691 0.250000
O O10 0.000000 0.522068 0.250000
O O11 0.259394 0.275645 0.723094
O O12 0.388607 0.222408 0.097950
O O13 0.094258 0.233832 0.064098
O O14 0.500000 0.669558 0.250000
#
# Coordination Sequence:
#
# PCOD9311204 Si02
#       8
#     4   4   2   2   4   2   2   4
#     4  10  24  45  71 103 136 189 250 288 338 432
#     4  11  23  44  65  96 129 176 230 278 352 413
#     4  12  26  46  72  96 130 180 230 294 344 422
#     4  12  26  48  72 106 154 196 232 304 376 416
#     4  11  23  41  67  97 140 180 223 288 353 419
#     4  10  24  40  66  98 128 180 218 284 354 414
#     4  10  22  40  62  94 128 172 232 266 340 426
#     4  10  22  40  69 103 136 179 236 295 345 405
#
# _framework density 22.130265999999999
#
# number of rings (size 3 to 8) (size 9 to 14) (size 15 to 20)
#    0.000    1.333    0.833    4.000   10.500    2.667 
#    7.500    0.000    0.000    0.000    0.000    0.000 
#    0.000    0.000    0.000    0.000    0.000    0.000 
#
# Total GULP energy -133953.610530 kJ/mol
# GULP energy per Si atom -5581.400439 kJ/mol
# Density = 2.207990 g / cm^3
# Si number density = 22.130266 Si / 1000 Ang^3
#
#
#
# Elastic Constant Matrix: (Units=GPa)
#
#
# Indices 1 2 3 4 5 6 
#
# 1 113.7942 41.0294 35.9153 0.0000 0.0000 0.0000
# 2 41.0294 71.4751 -2.2721 0.0000 0.0000 0.0000
# 3 35.9153 -2.2721 80.6902 0.0000 0.0000 0.0000
# 4 0.0000 0.0000 0.0000 18.2666 0.0000 0.0000
# 5 0.0000 0.0000 0.0000 0.0000 13.3091 0.0000
# 6 0.0000 0.0000 0.0000 0.0000 0.0000 -13.6679
#
#
#
# Elastic Compliance Matrix: (Units=1/GPa)
#
#
# Indices 1 2 3 4 5 6 
#
# 1 0.013688 -0.008058 -0.006319 0.000000 0.000000 0.000000
# 2 -0.008058 0.018747 0.004115 0.000000 0.000000 0.000000
# 3 -0.006319 0.004115 0.015322 0.000000 0.000000 0.000000
# 4 0.000000 0.000000 0.000000 0.054745 0.000000 0.000000
# 5 0.000000 0.000000 0.000000 0.000000 0.075137 0.000000
# 6 0.000000 0.000000 0.000000 0.000000 0.000000 -0.073164
#
#
# Mechanical properties :
#
#
# Convention : Reuss Voigt Hill
#
# Bulk Modulus (GPa) = 36.72286 46.14495 41.43391
# Shear Modulus (GPa) = 37.29204 16.33401 26.81303
#
# Velocity S-wave (km/s) = 4.10947 2.71972 3.48458
# Velocity P-wave (km/s) = 6.25675 5.54610 5.91212
#
# Compressibility (1/GPa) = 0.02723099
#
# Stress axis : x y z
#
# Youngs Moduli (GPa) = 73.05835 53.34088 65.26701
#
# Poissons Ratio (x) = 0.42983 0.41244
# Poissons Ratio (y) = 0.58871 -0.26855
# Poissons Ratio (z) = 0.46168 -0.21948
#
# Static dielectric constant tensor:
#      x y z
#    x 1.783140 0.000000 0.000000 
#    y 0.000000 1.814130 0.000000 
#    z 0.000000 0.000000 1.911480 
# 
# From -- ./inp_files/1045.got.cif
#   From: 2010.05.17/outbox.cif.g08.bks.cpg/sg17_1_cif.got.tgz:1045.got - 2010.06.03 22:34:06.
