data_PCOD9311290
_publ_section_title
;
Structure prediction by ZEFSAII (Michael W. Deem and Ramdas Pophale) SiO2 
 PCOD9311290
Probable space group: P 2 2 21
;
_chemical_formula_sum "Si O2"
_cell_formula_units_Z 18
_cell_length_a 9.309782
_cell_length_b 16.553360
_cell_length_c 6.027717
_cell_angle_alpha 90.000000
_cell_angle_beta 90.000000
_cell_angle_gamma 90.000000
_cell_volume 928.920454
_symmetry_space_group_name_H-M "P 2 2 21"
_symmetry_group_IT_number 17
_symmetry_cell_setting 'orthorhombic'
loop_
_space_group_symop_operation_xyz
x,y,z
-x,-y,1/2+z
x,-y,-z
-x,y,1/2-z
loop_
_atom_site_type_symbol
_atom_site_label
_atom_site_fract_x
_atom_site_fract_y
_atom_site_fract_z
Si Si1 0.500000 0.715835 0.750000
Si Si2 0.844655 0.713951 0.143757
Si Si3 0.728706 0.171268 0.512763
Si Si4 0.000000 0.779720 0.750000
Si Si5 0.366289 0.586911 0.409157
Si Si6 0.575880 0.000000 0.500000
O O1 0.386263 0.772319 0.881106
O O2 0.417383 0.654591 0.585486
O O3 0.752002 0.787154 0.246464
O O4 0.765162 0.631946 0.205912
O O5 0.000000 0.715058 0.250000
O O6 0.888124 0.726193 0.889878
O O7 0.888039 0.170914 0.401856
O O8 0.666761 0.081992 0.520135
O O9 0.323591 0.500000 0.500000
O O10 0.500000 0.572638 0.250000
O O11 0.500000 0.994041 0.750000
#
# Coordination Sequence:
#
# PCOD9311290 Si02
#       6
#     2   4   4   2   4   2
#     4  12  22  40  70  92 128 180 222 282 346 404
#     4  10  23  43  67  92 131 182 225 276 346 415
#     4  11  24  44  71  96 134 181 228 282 344 415
#     4  10  22  44  68  96 130 182 230 272 346 414
#     4  12  24  40  63  97 130 168 230 282 338 407
#     4  12  30  46  72 112 142 176 238 290 346 414
#
# _framework density 19.377333
#
# number of rings (size 3 to 8) (size 9 to 14) (size 15 to 20)
#    0.000    0.889    6.667    0.000    6.222    0.000 
#    8.000    0.000    0.000    0.000    0.000    0.000 
#    0.000    0.000    0.000    0.000    0.000    0.000 
#
# Total GULP energy -100273.664380 kJ/mol
# GULP energy per Si atom -5570.759132 kJ/mol
# Density = 1.933323 g / cm^3
# Si number density = 19.377333 Si / 1000 Ang^3
#
#
#
# Elastic Constant Matrix: (Units=GPa)
#
#
# Indices 1 2 3 4 5 6 
#
# 1 76.3004 40.3192 11.9760 0.0000 0.0000 0.0000
# 2 40.3192 152.1334 15.8264 0.0000 0.0000 0.0000
# 3 11.9760 15.8264 50.7045 0.0000 0.0000 0.0000
# 4 0.0000 0.0000 0.0000 30.4216 0.0000 0.0000
# 5 0.0000 0.0000 0.0000 0.0000 16.4450 0.0000
# 6 0.0000 0.0000 0.0000 0.0000 0.0000 -92.0551
#
#
#
# Elastic Compliance Matrix: (Units=1/GPa)
#
#
# Indices 1 2 3 4 5 6 
#
# 1 0.015533 -0.003860 -0.002464 0.000000 0.000000 0.000000
# 2 -0.003860 0.007753 -0.001508 0.000000 0.000000 0.000000
# 3 -0.002464 -0.001508 0.020775 0.000000 0.000000 0.000000
# 4 0.000000 0.000000 0.000000 0.032871 0.000000 0.000000
# 5 0.000000 0.000000 0.000000 0.000000 0.060809 0.000000
# 6 0.000000 0.000000 0.000000 0.000000 0.000000 -0.010863
#
#
# Mechanical properties :
#
#
# Convention : Reuss Voigt Hill
#
# Bulk Modulus (GPa) = 35.21612 46.15350 40.68481
# Shear Modulus (GPa) = 32.89306 5.03007 18.96156
#
# Velocity S-wave (km/s) = 4.12454 1.61291 3.13156
# Velocity P-wave (km/s) = 6.39498 5.22864 5.84100
#
# Compressibility (1/GPa) = 0.02839608
#
# Stress axis : x y z
#
# Youngs Moduli (GPa) = 64.38048 128.98004 48.13518
#
# Poissons Ratio (x) = 0.49789 0.11860
# Poissons Ratio (y) = 0.24852 0.07260
# Poissons Ratio (z) = 0.15862 0.19453
#
# Static dielectric constant tensor:
#      x y z
#    x 1.737170 0.000000 0.000000 
#    y 0.000000 1.616370 0.000000 
#    z 0.000000 0.000000 1.839780 
# 
# From -- ./inp_files/893.got.cif
#   From: 2010.05.17/outbox.cif.g08.bks.cpg/sg17_1_cif.got.tgz:893.got - 2010.06.03 22:34:06.
