data_PCOD9311192
_publ_section_title
;
Structure prediction by ZEFSAII (Michael W. Deem and Ramdas Pophale) SiO2 
 PCOD9311192
Probable space group: P 2 2 21
;
_chemical_formula_sum "Si O2"
_cell_formula_units_Z 32
_cell_length_a 8.829787
_cell_length_b 11.856731
_cell_length_c 14.289277
_cell_angle_alpha 90.000000
_cell_angle_beta 90.000000
_cell_angle_gamma 90.000000
_cell_volume 1495.978836
_symmetry_space_group_name_H-M "P 2 2 21"
_symmetry_group_IT_number 17
_symmetry_cell_setting 'orthorhombic'
loop_
_space_group_symop_operation_xyz
x,y,z
-x,-y,1/2+z
x,-y,-z
-x,y,1/2-z
loop_
_atom_site_type_symbol
_atom_site_label
_atom_site_fract_x
_atom_site_fract_y
_atom_site_fract_z
Si Si1 0.463235 0.221192 0.993828
Si Si2 0.065454 0.704923 0.442840
Si Si3 0.151605 0.130603 0.022435
Si Si4 0.854723 0.521200 0.206490
Si Si5 0.692890 0.124939 0.853327
Si Si6 0.266220 0.684691 0.619413
Si Si7 0.646914 0.306933 0.696937
Si Si8 0.116164 0.902566 0.669656
O O1 0.552353 0.131183 0.926304
O O2 0.398218 0.300369 0.911137
O O3 0.317921 0.174941 0.049647
O O4 0.584653 0.279321 0.061936
O O5 0.080396 0.596153 0.378200
O O6 0.184682 0.794120 0.401427
O O7 0.131527 0.669138 0.543272
O O8 0.910398 0.776878 0.447411
O O9 0.002733 0.121948 0.086950
O O10 0.178078 0.000000 0.000000
O O11 0.730330 0.431675 0.174465
O O12 0.783877 0.611603 0.277659
O O13 0.000000 0.459148 0.250000
O O14 0.668228 0.185489 0.751788
O O15 0.765325 0.002217 0.847487
O O16 0.211600 0.788674 0.683763
O O17 0.500000 0.354624 0.750000
O O18 0.000000 0.936497 0.750000
#
# Coordination Sequence:
#
# PCOD9311192 Si02
#       8
#     4   4   4   4   4   4   4   4
#     4  10  22  39  63  94 131 168 214 260 321 388
#     4   9  19  37  62  93 126 165 219 265 318 368
#     4  11  22  36  61  96 132 165 214 268 320 382
#     4  11  21  38  68  95 124 164 217 277 319 370
#     4   9  19  37  61  90 129 168 205 260 322 373
#     4  10  23  41  63  89 130 175 213 251 323 397
#     4   9  20  39  63  96 124 159 213 271 322 373
#     4  11  24  41  60  88 131 172 212 259 318 384
#
# _framework density 21.390675000000002
#
# number of rings (size 3 to 8) (size 9 to 14) (size 15 to 20)
#    0.000    2.000    1.250    2.250    3.500    2.000 
#    0.000    4.375    0.000    9.000    0.000    0.000 
#    0.000    0.000    0.000    0.000    0.000    0.000 
#
# Total GULP energy -178270.422471 kJ/mol
# GULP energy per Si atom -5570.950702 kJ/mol
# Density = 2.134199 g / cm^3
# Si number density = 21.390675 Si / 1000 Ang^3
#
#
#
# Elastic Constant Matrix: (Units=GPa)
#
#
# Indices 1 2 3 4 5 6 
#
# 1 104.5452 40.9767 11.2160 0.0000 0.0000 0.0000
# 2 40.9767 115.6095 20.0716 0.0000 0.0000 0.0000
# 3 11.2160 20.0716 13.4114 0.0000 0.0000 0.0000
# 4 0.0000 0.0000 0.0000 0.8972 0.0000 0.0000
# 5 0.0000 0.0000 0.0000 0.0000 22.0485 0.0000
# 6 0.0000 0.0000 0.0000 0.0000 0.0000 19.8202
#
#
#
# Elastic Compliance Matrix: (Units=1/GPa)
#
#
# Indices 1 2 3 4 5 6 
#
# 1 0.011322 -0.003201 -0.004678 0.000000 0.000000 0.000000
# 2 -0.003201 0.012591 -0.016167 0.000000 0.000000 0.000000
# 3 -0.004678 -0.016167 0.102672 0.000000 0.000000 0.000000
# 4 0.000000 0.000000 0.000000 1.114635 0.000000 0.000000
# 5 0.000000 0.000000 0.000000 0.000000 0.045355 0.000000
# 6 0.000000 0.000000 0.000000 0.000000 0.000000 0.050453
#
#
# Mechanical properties :
#
#
# Convention : Reuss Voigt Hill
#
# Bulk Modulus (GPa) = 12.74009 42.01051 27.37530
# Shear Modulus (GPa) = 3.54287 19.30664 11.42476
#
# Velocity S-wave (km/s) = 1.28836 3.00754 2.31357
# Velocity P-wave (km/s) = 2.86042 5.63407 4.46792
#
# Compressibility (1/GPa) = 0.07849235
#
# Stress axis : x y z
#
# Youngs Moduli (GPa) = 88.32651 79.42094 9.73977
#
# Poissons Ratio (x) = 0.25420 0.04556
# Poissons Ratio (y) = 0.28270 0.15747
# Poissons Ratio (z) = 0.41321 1.28402
#
# Static dielectric constant tensor:
#      x y z
#    x 1.792490 0.000000 0.000000 
#    y 0.000000 1.832730 0.000000 
#    z 0.000000 0.000000 2.062230 
# 
# From -- ./inp_files/8277.got.cif
#   From: 2010.05.17/outbox.cif.g08.bks.cpg/sg17_5_cif.got.tgz:8277.got - 2010.06.03 22:34:06.
