data_PCOD9311588
_publ_section_title
;
Structure prediction by ZEFSAII (Michael W. Deem and Ramdas Pophale) SiO2 
 PCOD9311588
Probable space group: P 2 2 21
;
_chemical_formula_sum "Si O2"
_cell_formula_units_Z 20
_cell_length_a 5.494212
_cell_length_b 5.062675
_cell_length_c 31.538775
_cell_angle_alpha 90.000000
_cell_angle_beta 90.000000
_cell_angle_gamma 90.000000
_cell_volume 877.263949
_symmetry_space_group_name_H-M "P 2 2 21"
_symmetry_group_IT_number 17
_symmetry_cell_setting 'orthorhombic'
loop_
_space_group_symop_operation_xyz
x,y,z
-x,-y,1/2+z
x,-y,-z
-x,y,1/2-z
loop_
_atom_site_type_symbol
_atom_site_label
_atom_site_fract_x
_atom_site_fract_y
_atom_site_fract_z
Si Si1 0.249992 0.250005 0.918781
Si Si2 0.250009 0.750000 0.470440
Si Si3 0.608026 0.994184 0.206796
Si Si4 0.891972 0.505818 0.206796
Si Si5 0.249996 0.750005 0.861141
O O1 0.499662 0.190644 0.944591
O O2 0.321845 0.505458 0.890761
O O3 0.000321 0.309357 0.944591
O O4 0.178141 0.994559 0.890759
O O5 0.304199 0.500000 0.500000
O O6 0.195819 0.000000 0.500000
O O7 0.500000 0.874103 0.250000
O O8 0.749997 0.250002 0.223323
O O9 0.442132 0.119414 0.170794
O O10 0.750001 0.750002 0.186649
O O11 0.000000 0.625897 0.250000
O O12 0.057866 0.380583 0.170795
#
# Coordination Sequence:
#
# PCOD9311588 Si02
#       5
#     4   4   4   4   4
#     4  12  28  47  80 115 152 194 248 319 394 451
#     4  12  26  52  80 112 148 196 244 304 384 492
#     4  12  26  45  70 100 147 206 265 317 377 448
#     4  12  26  45  70 100 147 206 265 317 377 448
#     4  12  28  47  68 113 150 198 250 325 380 447
#
# _framework density 22.798157
#
# number of rings (size 3 to 8) (size 9 to 14) (size 15 to 20)
#    0.000    0.000    2.000    7.200   11.200    0.000 
#    0.000    0.000    0.000    0.000    0.000    0.000 
#    0.000    0.000    0.000    0.000    0.000    0.000 
#
# Total GULP energy -111770.213341 kJ/mol
# GULP energy per Si atom -5588.510667 kJ/mol
# Density = 2.274627 g / cm^3
# Si number density = 22.798157 Si / 1000 Ang^3
#
#
#
# Elastic Constant Matrix: (Units=GPa)
#
#
# Indices 1 2 3 4 5 6 
#
# 1 121.6295 37.8853 49.8323 0.0000 0.0000 0.0000
# 2 37.8853 168.8831 39.0305 0.0000 0.0000 0.0000
# 3 49.8323 39.0305 102.4857 0.0000 0.0000 0.0000
# 4 0.0000 0.0000 0.0000 63.6415 0.0000 0.0000
# 5 0.0000 0.0000 0.0000 0.0000 24.1469 0.0000
# 6 0.0000 0.0000 0.0000 0.0000 0.0000 59.0671
#
#
#
# Elastic Compliance Matrix: (Units=1/GPa)
#
#
# Indices 1 2 3 4 5 6 
#
# 1 0.010518 -0.001291 -0.004622 0.000000 0.000000 0.000000
# 2 -0.001291 0.006651 -0.001905 0.000000 0.000000 0.000000
# 3 -0.004622 -0.001905 0.012731 0.000000 0.000000 0.000000
# 4 0.000000 0.000000 0.000000 0.015713 0.000000 0.000000
# 5 0.000000 0.000000 0.000000 0.000000 0.041413 0.000000
# 6 0.000000 0.000000 0.000000 0.000000 0.000000 0.016930
#
#
# Mechanical properties :
#
#
# Convention : Reuss Voigt Hill
#
# Bulk Modulus (GPa) = 70.11636 71.83274 70.97455
# Shear Modulus (GPa) = 40.21005 47.12112 43.66558
#
# Velocity S-wave (km/s) = 4.20425 4.55123 4.38118
# Velocity P-wave (km/s) = 7.37493 7.69382 7.53606
#
# Compressibility (1/GPa) = 0.01426201
#
# Stress axis : x y z
#
# Youngs Moduli (GPa) = 95.07816 150.34848 78.55087
#
# Poissons Ratio (x) = 0.19412 0.36309
# Poissons Ratio (y) = 0.12276 0.14966
# Poissons Ratio (z) = 0.43948 0.28645
#
# Static dielectric constant tensor:
#      x y z
#    x 2.025270 0.000000 0.000000 
#    y 0.000000 1.822500 0.000000 
#    z 0.000000 0.000000 1.877020 
# 
# From -- ./inp_files/10752.got.cif
#   From: 2010.05.17/outbox.cif.g08.bks.cpg/sg17_6_cif.got.tgz:10752.got - 2010.06.03 22:34:06.
