data_PCOD9311187
_publ_section_title
;
Structure prediction by ZEFSAII (Michael W. Deem and Ramdas Pophale) SiO2 
 PCOD9311187
Probable space group: P 2 2 21
;
_chemical_formula_sum "Si O2"
_cell_formula_units_Z 32
_cell_length_a 5.746616
_cell_length_b 12.234365
_cell_length_c 18.024761
_cell_angle_alpha 90.000000
_cell_angle_beta 90.000000
_cell_angle_gamma 90.000000
_cell_volume 1267.252410
_symmetry_space_group_name_H-M "P 2 2 21"
_symmetry_group_IT_number 17
_symmetry_cell_setting 'orthorhombic'
loop_
_space_group_symop_operation_xyz
x,y,z
-x,-y,1/2+z
x,-y,-z
-x,y,1/2-z
loop_
_atom_site_type_symbol
_atom_site_label
_atom_site_fract_x
_atom_site_fract_y
_atom_site_fract_z
Si Si1 0.749633 0.783256 0.242740
Si Si2 0.132567 0.012223 0.588274
Si Si3 0.136088 0.389249 0.181066
Si Si4 0.357414 0.020763 0.912318
Si Si5 0.185260 0.241698 0.416139
Si Si6 0.283086 0.393782 0.878136
Si Si7 0.779891 0.679095 0.079110
Si Si8 0.589288 0.190282 0.322234
O O1 0.500000 0.842903 0.250000
O O2 0.731601 0.690824 0.308113
O O3 0.766796 0.728265 0.161909
O O4 0.000000 0.842784 0.250000
O O5 0.384897 0.060977 0.608795
O O6 0.141333 0.883651 0.611886
O O7 0.891008 0.075488 0.605387
O O8 0.130196 0.000000 0.500000
O O9 0.300517 0.483472 0.151825
O O10 0.249768 0.280747 0.215193
O O11 0.000000 0.441728 0.250000
O O12 0.987906 0.333251 0.115149
O O13 0.324599 0.903213 0.875712
O O14 0.366988 0.000000 0.000000
O O15 0.198058 0.247191 0.504961
O O16 0.429806 0.262133 0.376532
O O17 0.517472 0.371563 0.925602
O O18 0.028973 0.385113 0.918339
O O19 0.500000 0.128001 0.250000
#
# Coordination Sequence:
#
# PCOD9311187 Si02
#       8
#     4   4   4   4   4   4   4   4
#     4   8  15  33  56  77  99 140 202 246 305 358
#     4   9  18  35  60  87 118 157 193 237 303 386
#     4  12  24  40  59  84 124 176 217 268 324 398
#     4   9  18  35  60  87 117 157 201 247 308 380
#     4  11  24  39  58  91 128 163 210 267 327 381
#     4  10  23  40  61  79 116 165 219 260 320 377
#     4  10  22  39  59  86 113 160 205 273 314 371
#     4  11  23  39  59  88 128 169 212 263 321 398
#
# _framework density 25.251480999999998
#
# number of rings (size 3 to 8) (size 9 to 14) (size 15 to 20)
#    0.000    2.000    2.500    1.125    3.500    2.000 
#    0.000    0.000    0.000    0.000    0.000   86.625 
#    0.000    0.000    0.000    0.000    0.000    0.000 
#
# Total GULP energy -178301.287930 kJ/mol
# GULP energy per Si atom -5571.915248 kJ/mol
# Density = 2.519401 g / cm^3
# Si number density = 25.251481 Si / 1000 Ang^3
#
#
#
# Elastic Constant Matrix: (Units=GPa)
#
#
# Indices 1 2 3 4 5 6 
#
# 1 213.9966 10.2479 16.4732 0.0000 0.0000 0.0000
# 2 10.2479 52.6849 25.6799 0.0000 0.0000 0.0000
# 3 16.4732 25.6799 101.8531 0.0000 0.0000 0.0000
# 4 0.0000 0.0000 0.0000 29.1882 0.0000 0.0000
# 5 0.0000 0.0000 0.0000 0.0000 -57.6024 0.0000
# 6 0.0000 0.0000 0.0000 0.0000 0.0000 52.7155
#
#
#
# Elastic Compliance Matrix: (Units=1/GPa)
#
#
# Indices 1 2 3 4 5 6 
#
# 1 0.004750 -0.000626 -0.000610 0.000000 0.000000 0.000000
# 2 -0.000626 0.021723 -0.005376 0.000000 0.000000 0.000000
# 3 -0.000610 -0.005376 0.011272 0.000000 0.000000 0.000000
# 4 0.000000 0.000000 0.000000 0.034260 0.000000 0.000000
# 5 0.000000 0.000000 0.000000 0.000000 -0.017360 0.000000
# 6 0.000000 0.000000 0.000000 0.000000 0.000000 0.018970
#
#
# Mechanical properties :
#
#
# Convention : Reuss Voigt Hill
#
# Bulk Modulus (GPa) = 40.78272 52.59296 46.68784
# Shear Modulus (GPa) = 52.62454 25.93584 39.28019
#
# Velocity S-wave (km/s) = 4.57006 3.20832 3.94834
# Velocity P-wave (km/s) = 6.63573 5.88195 6.27018
#
# Compressibility (1/GPa) = 0.02452019
#
# Stress axis : x y z
#
# Youngs Moduli (GPa) = 210.52847 46.03458 88.71468
#
# Poissons Ratio (x) = 0.02884 0.05414
# Poissons Ratio (y) = 0.13189 0.47689
# Poissons Ratio (z) = 0.12848 0.24746
#
# Static dielectric constant tensor:
#      x y z
#    x 2.209890 0.000000 0.000000 
#    y 0.000000 2.034860 0.000000 
#    z 0.000000 0.000000 1.947400 
# 
# From -- ./inp_files/9145.got.cif
#   From: 2010.05.17/outbox.cif.g08.bks.cpg/sg17_5_cif.got.tgz:9145.got - 2010.06.03 22:34:06.
