data_PCOD9311479
_publ_section_title
;
Structure prediction by ZEFSAII (Michael W. Deem and Ramdas Pophale) SiO2 
 PCOD9311479
Probable space group: P 2 2 21
;
_chemical_formula_sum "Si O2"
_cell_formula_units_Z 20
_cell_length_a 4.950440
_cell_length_b 4.903815
_cell_length_c 25.437742
_cell_angle_alpha 90.000000
_cell_angle_beta 90.000000
_cell_angle_gamma 90.000000
_cell_volume 617.527691
_symmetry_space_group_name_H-M "P 2 2 21"
_symmetry_group_IT_number 17
_symmetry_cell_setting 'orthorhombic'
loop_
_space_group_symop_operation_xyz
x,y,z
-x,-y,1/2+z
x,-y,-z
-x,y,1/2-z
loop_
_atom_site_type_symbol
_atom_site_label
_atom_site_fract_x
_atom_site_fract_y
_atom_site_fract_z
Si Si1 0.078190 0.787866 0.194844
Si Si2 0.509537 0.226135 0.417643
Si Si3 0.788860 0.000000 0.500000
Si Si4 0.929844 0.768642 0.081569
Si Si5 0.710182 0.500000 0.000000
Si Si6 0.429920 0.836835 0.695216
O O1 0.025432 0.659923 0.137667
O O2 0.000000 0.648506 0.250000
O O3 0.875723 0.053729 0.194226
O O4 0.380467 0.895268 0.196423
O O5 0.543538 0.250578 0.486979
O O6 0.538380 0.312400 0.356667
O O7 0.794692 0.013366 0.430181
O O8 0.297569 0.987674 0.411427
O O9 0.030702 0.747101 0.485733
O O10 0.710357 0.494565 0.066112
O O11 0.500000 0.693672 0.750000
#
# Coordination Sequence:
#
# PCOD9311479 Si02
#       6
#     4   4   2   4   2   4
#     4   9  18  34  60  86 112 157 204 243 298 358
#     4  11  22  38  57  84 124 154 198 248 299 357
#     4  12  18  38  60  78 122 160 190 252 294 352
#     4  11  22  38  57  84 124 154 198 248 299 357
#     4  12  22  38  56  90 122 160 194 248 308 364
#     4   9  18  34  60  86 112 157 204 243 298 358
#
# _framework density 32.387211999999998
#
# number of rings (size 3 to 8) (size 9 to 14) (size 15 to 20)
#    0.000    1.600    6.000    0.000    0.000    0.800 
#    0.000    0.000    0.000   24.000    0.000    0.000 
#    0.000    0.000    0.000    0.000    0.000    0.000 
#
# Total GULP energy -111847.606091 kJ/mol
# GULP energy per Si atom -5592.380305 kJ/mol
# Density = 3.231350 g / cm^3
# Si number density = 32.387212 Si / 1000 Ang^3
#
#
#
# Elastic Constant Matrix: (Units=GPa)
#
#
# Indices 1 2 3 4 5 6 
#
# 1 242.6147 79.1241 51.7480 0.0000 0.0000 0.0000
# 2 79.1241 224.7109 71.4004 0.0000 0.0000 0.0000
# 3 51.7480 71.4004 368.4244 0.0000 0.0000 0.0000
# 4 0.0000 0.0000 0.0000 -6.4603 0.0000 0.0000
# 5 0.0000 0.0000 0.0000 0.0000 46.3694 0.0000
# 6 0.0000 0.0000 0.0000 0.0000 0.0000 99.1124
#
#
#
# Elastic Compliance Matrix: (Units=1/GPa)
#
#
# Indices 1 2 3 4 5 6 
#
# 1 0.004701 -0.001540 -0.000362 0.000000 0.000000 0.000000
# 2 -0.001540 0.005247 -0.000800 0.000000 0.000000 0.000000
# 3 -0.000362 -0.000800 0.002920 0.000000 0.000000 0.000000
# 4 0.000000 0.000000 0.000000 -0.154793 0.000000 0.000000
# 5 0.000000 0.000000 0.000000 0.000000 0.021566 0.000000
# 6 0.000000 0.000000 0.000000 0.000000 0.000000 0.010090
#
#
# Mechanical properties :
#
#
# Convention : Reuss Voigt Hill
#
# Bulk Modulus (GPa) = 133.99439 137.81056 135.90248
# Shear Modulus (GPa) = -48.83976 70.03614 10.59819
#
# Velocity S-wave (km/s) = -3.88750 4.65527 1.81092
# Velocity P-wave (km/s) = 4.61651 8.45806 6.81362
#
# Compressibility (1/GPa) = 0.00746300
#
# Stress axis : x y z
#
# Youngs Moduli (GPa) = 212.70634 190.58789 342.44094
#
# Poissons Ratio (x) = 0.29359 0.12389
# Poissons Ratio (y) = 0.32766 0.27412
# Poissons Ratio (z) = 0.07696 0.15256
#
# Static dielectric constant tensor:
#      x y z
#    x 2.678360 0.000000 0.000000 
#    y 0.000000 2.661430 0.000000 
#    z 0.000000 0.000000 2.510970 
# 
# From -- ./inp_files/10756.got.cif
#   From: 2010.05.17/outbox.cif.g08.bks.cpg/sg17_6_cif.got.tgz:10756.got - 2010.06.03 22:34:06.
