data_PCOD9311057
_publ_section_title
;
Structure prediction by ZEFSAII (Michael W. Deem and Ramdas Pophale) SiO2 
 PCOD9311057
Probable space group: P 2 2 21
;
_chemical_formula_sum "Si O2"
_cell_formula_units_Z 32
_cell_length_a 11.047277
_cell_length_b 14.605818
_cell_length_c 10.123701
_cell_angle_alpha 90.000000
_cell_angle_beta 90.000000
_cell_angle_gamma 90.000000
_cell_volume 1633.504888
_symmetry_space_group_name_H-M "P 2 2 21"
_symmetry_group_IT_number 17
_symmetry_cell_setting 'orthorhombic'
loop_
_space_group_symop_operation_xyz
x,y,z
-x,-y,1/2+z
x,-y,-z
-x,y,1/2-z
loop_
_atom_site_type_symbol
_atom_site_label
_atom_site_fract_x
_atom_site_fract_y
_atom_site_fract_z
Si Si1 0.496677 0.225320 0.404079
Si Si2 0.564564 0.562372 0.617155
Si Si3 0.134583 0.912427 0.705013
Si Si4 0.138197 0.875785 0.234383
Si Si5 0.896552 0.598121 0.940183
Si Si6 0.230371 0.783766 0.477334
Si Si7 0.751581 0.172295 0.456307
Si Si8 0.832753 0.376361 0.369113
O O1 0.500000 0.195858 0.250000
O O2 0.524950 0.333180 0.402617
O O3 0.366169 0.214932 0.467793
O O4 0.607673 0.177199 0.478429
O O5 0.520173 0.500000 0.500000
O O6 0.500000 0.530163 0.750000
O O7 0.710712 0.564174 0.617587
O O8 0.162510 0.857838 0.571383
O O9 0.222647 0.883310 0.823233
O O10 0.000000 0.885178 0.750000
O O11 0.140010 0.022092 0.704324
O O12 0.222554 0.814617 0.326578
O O13 0.000000 0.842729 0.250000
O O14 0.179451 0.868738 0.082550
O O15 0.862519 0.614939 0.786571
O O16 0.043263 0.599978 0.944785
O O17 0.856940 0.500000 0.000000
O O18 0.833889 0.685085 0.009492
O O19 0.797626 0.274390 0.418083
#
# Coordination Sequence:
#
# PCOD9311057 Si02
#       8
#     4   4   4   4   4   4   4   4
#     4  10  21  42  65  87 121 173 220 257 306 389
#     4  10  21  39  60  85 117 158 213 262 306 364
#     4  11  21  40  71  94 123 170 216 260 321 396
#     4  11  25  41  62 103 133 159 210 271 328 380
#     4  11  22  39  63  94 124 167 218 259 317 384
#     4  12  23  42  66  92 133 167 211 270 324 377
#     4  11  21  42  67  90 131 173 210 259 323 385
#     4  10  21  40  63  88 126 168 212 259 322 384
#
# _framework density 19.589779
#
# number of rings (size 3 to 8) (size 9 to 14) (size 15 to 20)
#    0.000    1.250    2.500    4.875    0.000    4.500 
#   15.750    3.750    0.000    0.000    0.000    0.000 
#    0.000    0.000    0.000    0.000    0.000    0.000 
#
# Total GULP energy -178641.197064 kJ/mol
# GULP energy per Si atom -5582.537408 kJ/mol
# Density = 1.954519 g / cm^3
# Si number density = 19.589779 Si / 1000 Ang^3
#
#
#
# Elastic Constant Matrix: (Units=GPa)
#
#
# Indices 1 2 3 4 5 6 
#
# 1 103.5776 17.3357 8.2161 0.0000 0.0000 0.0000
# 2 17.3357 46.1094 12.6496 0.0000 0.0000 0.0000
# 3 8.2161 12.6496 38.4422 0.0000 0.0000 0.0000
# 4 0.0000 0.0000 0.0000 30.9888 0.0000 0.0000
# 5 0.0000 0.0000 0.0000 0.0000 27.1309 0.0000
# 6 0.0000 0.0000 0.0000 0.0000 0.0000 0.4370
#
#
#
# Elastic Compliance Matrix: (Units=1/GPa)
#
#
# Indices 1 2 3 4 5 6 
#
# 1 0.010339 -0.003607 -0.001023 0.000000 0.000000 0.000000
# 2 -0.003607 0.025098 -0.007488 0.000000 0.000000 0.000000
# 3 -0.001023 -0.007488 0.028696 0.000000 0.000000 0.000000
# 4 0.000000 0.000000 0.000000 0.032270 0.000000 0.000000
# 5 0.000000 0.000000 0.000000 0.000000 0.036858 0.000000
# 6 0.000000 0.000000 0.000000 0.000000 0.000000 2.288551
#
#
# Mechanical properties :
#
#
# Convention : Reuss Voigt Hill
#
# Bulk Modulus (GPa) = 25.06393 29.39245 27.22819
# Shear Modulus (GPa) = 2.03306 21.70652 11.86979
#
# Velocity S-wave (km/s) = 1.01984 3.33235 2.46421
# Velocity P-wave (km/s) = 3.76947 5.46284 4.69316
#
# Compressibility (1/GPa) = 0.03989797
#
# Stress axis : x y z
#
# Youngs Moduli (GPa) = 96.71753 39.84426 34.84854
#
# Poissons Ratio (x) = 0.14370 0.03565
# Poissons Ratio (y) = 0.34882 0.26094
# Poissons Ratio (z) = 0.09894 0.29834
#
# Static dielectric constant tensor:
#      x y z
#    x 1.713300 0.000000 0.000000 
#    y 0.000000 1.689520 0.000000 
#    z 0.000000 0.000000 1.672230 
# 
# From -- ./inp_files/4966.got.cif
#   From: 2010.05.17/outbox.cif.g08.bks.cpg/sg17_3_cif.got.tgz:4966.got - 2010.06.03 22:34:06.
