data_PCOD9311946
_publ_section_title
;
Structure prediction by ZEFSAII (Michael W. Deem and Ramdas Pophale) SiO2 
 PCOD9311946
Probable space group: P 21 21 2
;
_chemical_formula_sum "Si O2"
_cell_formula_units_Z 20
_cell_length_a 8.837519
_cell_length_b 13.614054
_cell_length_c 6.954438
_cell_angle_alpha 90.000000
_cell_angle_beta 90.000000
_cell_angle_gamma 90.000000
_cell_volume 836.719459
_symmetry_space_group_name_H-M "P 21 21 2"
_symmetry_group_IT_number 18
_symmetry_cell_setting 'orthorhombic'
loop_
_space_group_symop_operation_xyz
x,y,z
-x,-y,z
1/2+x,1/2-y,-z
1/2-x,1/2+y,-z
loop_
_atom_site_type_symbol
_atom_site_label
_atom_site_fract_x
_atom_site_fract_y
_atom_site_fract_z
Si Si1 0.407390 0.216206 0.454863
Si Si2 0.000000 0.000000 0.022579
Si Si3 0.273926 0.043601 0.239269
Si Si4 0.223375 0.310501 0.741358
Si Si5 0.500000 0.000000 0.905892
Si Si6 0.749584 0.639091 0.164463
O O1 0.339528 0.109447 0.407678
O O2 0.369415 0.251967 0.667798
O O3 0.575374 0.224881 0.372133
O O4 0.307369 0.290538 0.327334
O O5 0.893028 0.934255 0.159825
O O6 0.112872 0.934022 0.897054
O O7 0.267378 0.928217 0.291528
O O8 0.387261 0.054075 0.056800
O O9 0.208524 0.302188 0.970391
O O10 0.395207 0.926902 0.787123
#
# Coordination Sequence:
#
# PCOD9311946 Si02
#       6
#     4   2   4   4   2   4
#     4  12  24  42  69  94 129 172 225 265 318 399
#     4   8  20  36  64  96 126 168 208 266 326 374
#     4  10  19  42  66  85 138 171 201 274 334 372
#     4  10  25  44  61 102 127 172 219 263 332 380
#     4   8  16  42  62  90 126 172 208 256 328 382
#     4  10  22  43  66  96 131 172 218 262 330 387
#
# _framework density 23.902874000000001
#
# number of rings (size 3 to 8) (size 9 to 14) (size 15 to 20)
#    0.000    2.400    4.000    0.000    8.400    0.000 
#    7.200    0.000    0.000    0.000    0.000    0.000 
#    0.000    0.000    0.000    0.000    0.000    0.000 
#
# Total GULP energy -111896.569481 kJ/mol
# GULP energy per Si atom -5594.828474 kJ/mol
# Density = 2.384847 g / cm^3
# Si number density = 23.902874 Si / 1000 Ang^3
#
#
#
# Elastic Constant Matrix: (Units=GPa)
#
#
# Indices 1 2 3 4 5 6 
#
# 1 135.5123 22.5984 18.0602 0.0000 0.0000 0.0000
# 2 22.5984 53.5537 15.2896 0.0000 0.0000 0.0000
# 3 18.0602 15.2896 40.7639 0.0000 0.0000 0.0000
# 4 0.0000 0.0000 0.0000 27.3138 0.0000 0.0000
# 5 0.0000 0.0000 0.0000 0.0000 28.9232 0.0000
# 6 0.0000 0.0000 0.0000 0.0000 0.0000 41.6227
#
#
#
# Elastic Compliance Matrix: (Units=1/GPa)
#
#
# Indices 1 2 3 4 5 6 
#
# 1 0.008178 -0.002706 -0.002608 0.000000 0.000000 0.000000
# 2 -0.002706 0.021808 -0.006981 0.000000 0.000000 0.000000
# 3 -0.002608 -0.006981 0.028305 0.000000 0.000000 0.000000
# 4 0.000000 0.000000 0.000000 0.036612 0.000000 0.000000
# 5 0.000000 0.000000 0.000000 0.000000 0.034574 0.000000
# 6 0.000000 0.000000 0.000000 0.000000 0.000000 0.024025
#
#
# Mechanical properties :
#
#
# Convention : Reuss Voigt Hill
#
# Bulk Modulus (GPa) = 29.67263 37.96957 33.82110
# Shear Modulus (GPa) = 26.40936 31.16405 28.78671
#
# Velocity S-wave (km/s) = 3.32755 3.61470 3.47410
# Velocity P-wave (km/s) = 5.21577 5.77416 5.50205
#
# Compressibility (1/GPa) = 0.03370110
#
# Stress axis : x y z
#
# Youngs Moduli (GPa) = 122.27419 45.85511 35.32902
#
# Poissons Ratio (x) = 0.12410 0.09215
# Poissons Ratio (y) = 0.33092 0.24662
# Poissons Ratio (z) = 0.31892 0.32009
#
# Static dielectric constant tensor:
#      x y z
#    x 1.939920 0.000000 0.000000 
#    y 0.000000 1.911560 0.000000 
#    z 0.000000 0.000000 1.928820 
# 
# From -- ./inp_files/3107.got.cif
#   From: 2010.05.17/outbox.cif.g08.bks.cpg/sg18_2_cif.got.tgz:3107.got - 2010.06.03 22:40:56.
