data_PCOD9311777
_publ_section_title
;
Structure prediction by ZEFSAII (Michael W. Deem and Ramdas Pophale) SiO2 
 PCOD9311777
Probable space group: P 21 21 2
;
_chemical_formula_sum "Si O2"
_cell_formula_units_Z 32
_cell_length_a 27.301269
_cell_length_b 5.297886
_cell_length_c 12.326276
_cell_angle_alpha 90.000000
_cell_angle_beta 90.000000
_cell_angle_gamma 90.000000
_cell_volume 1782.860368
_symmetry_space_group_name_H-M "P 21 21 2"
_symmetry_group_IT_number 18
_symmetry_cell_setting 'orthorhombic'
loop_
_space_group_symop_operation_xyz
x,y,z
-x,-y,z
1/2+x,1/2-y,-z
1/2-x,1/2+y,-z
loop_
_atom_site_type_symbol
_atom_site_label
_atom_site_fract_x
_atom_site_fract_y
_atom_site_fract_z
Si Si1 0.394987 0.939532 0.174781
Si Si2 0.468660 0.245961 0.299421
Si Si3 0.177911 0.217575 0.961608
Si Si4 0.217738 0.803236 0.372907
Si Si5 0.732513 0.506401 0.850175
Si Si6 0.683339 0.194784 0.513742
Si Si7 0.311167 0.316903 0.231206
Si Si8 0.614751 0.436001 0.367848
O O1 0.439302 0.133032 0.194617
O O2 0.346429 0.078101 0.217807
O O3 0.374895 0.848110 0.058486
O O4 0.402099 0.710636 0.258793
O O5 0.500000 0.500000 0.277970
O O6 0.573780 0.651126 0.381065
O O7 0.500000 0.000000 0.337355
O O8 0.224786 0.396400 0.932742
O O9 0.180008 0.003250 0.869016
O O10 0.188567 0.093293 0.076816
O O11 0.220700 0.792228 0.242360
O O12 0.272212 0.815047 0.425406
O O13 0.192151 0.060763 0.411602
O O14 0.189723 0.563496 0.421090
O O15 0.756880 0.282701 0.779515
O O16 0.630323 0.236927 0.458166
O O17 0.332697 0.438296 0.339018
#
# Coordination Sequence:
#
# PCOD9311777 Si02
#       8
#     4   4   4   4   4   4   4   4
#     4   9  19  33  50  77 105 147 180 225 278 353
#     4  11  21  35  56  85 111 145 177 229 289 356
#     4  10  19  31  48  72 105 151 198 239 284 310
#     4  10  23  33  51  71 106 144 209 240 263 307
#     4  11  20  31  48  73 104 150 203 252 264 317
#     4  10  22  36  49  73 101 154 192 238 275 320
#     4   9  18  29  49  71  99 145 191 236 271 318
#     4  10  20  34  57  74 111 144 190 223 286 341
#
# _framework density 17.948685000000001
#
# number of rings (size 3 to 8) (size 9 to 14) (size 15 to 20)
#    0.000    2.000    2.500    2.250   10.500    0.000 
#    0.000    0.000    0.000    0.000    0.000    0.000 
#    0.000    0.000   17.000    4.375    1.250    0.375 
#
# Total GULP energy -178185.801651 kJ/mol
# GULP energy per Si atom -5568.306302 kJ/mol
# Density = 1.790783 g / cm^3
# Si number density = 17.948685 Si / 1000 Ang^3
#
#
#
# Elastic Constant Matrix: (Units=GPa)
#
#
# Indices 1 2 3 4 5 6 
#
# 1 60.4500 34.9960 32.3006 0.0000 0.0000 0.0000
# 2 34.9960 103.0212 26.1837 0.0000 0.0000 0.0000
# 3 32.3006 26.1837 55.8601 0.0000 0.0000 0.0000
# 4 0.0000 0.0000 0.0000 14.5468 0.0000 0.0000
# 5 0.0000 0.0000 0.0000 0.0000 10.9415 0.0000
# 6 0.0000 0.0000 0.0000 0.0000 0.0000 35.9406
#
#
#
# Elastic Compliance Matrix: (Units=1/GPa)
#
#
# Indices 1 2 3 4 5 6 
#
# 1 0.026718 -0.005846 -0.012709 0.000000 0.000000 0.000000
# 2 -0.005846 0.012299 -0.002384 0.000000 0.000000 0.000000
# 3 -0.012709 -0.002384 0.026369 0.000000 0.000000 0.000000
# 4 0.000000 0.000000 0.000000 0.068744 0.000000 0.000000
# 5 0.000000 0.000000 0.000000 0.000000 0.091395 0.000000
# 6 0.000000 0.000000 0.000000 0.000000 0.000000 0.027824
#
#
# Mechanical properties :
#
#
# Convention : Reuss Voigt Hill
#
# Bulk Modulus (GPa) = 42.54246 45.14355 43.84300
# Shear Modulus (GPa) = 16.49829 20.67585 18.58707
#
# Velocity S-wave (km/s) = 3.03511 3.39771 3.22151
# Velocity P-wave (km/s) = 6.00302 6.37171 6.19011
#
# Compressibility (1/GPa) = 0.02350593
#
# Stress axis : x y z
#
# Youngs Moduli (GPa) = 37.42813 81.31009 37.92401
#
# Poissons Ratio (x) = 0.47533 0.48198
# Poissons Ratio (y) = 0.21880 0.09043
# Poissons Ratio (z) = 0.47568 0.19388
#
# Static dielectric constant tensor:
#      x y z
#    x 1.670700 0.000000 0.000000 
#    y 0.000000 1.733780 0.000000 
#    z 0.000000 0.000000 1.654950 
# 
# From -- ./inp_files/6342.got.cif
#   From: 2010.05.17/outbox.cif.g08.bks.cpg/sg18_4_cif.got.tgz:6342.got - 2010.06.03 22:40:56.
