data_PCOD9311696
_publ_section_title
;
Structure prediction by ZEFSAII (Michael W. Deem and Ramdas Pophale) SiO2 
 PCOD9311696
Probable space group: P 21 21 2
;
_chemical_formula_sum "Si O2"
_cell_formula_units_Z 30
_cell_length_a 14.238381
_cell_length_b 9.078814
_cell_length_c 12.256729
_cell_angle_alpha 90.000000
_cell_angle_beta 90.000000
_cell_angle_gamma 90.000000
_cell_volume 1584.398098
_symmetry_space_group_name_H-M "P 21 21 2"
_symmetry_group_IT_number 18
_symmetry_cell_setting 'orthorhombic'
loop_
_space_group_symop_operation_xyz
x,y,z
-x,-y,z
1/2+x,1/2-y,-z
1/2-x,1/2+y,-z
loop_
_atom_site_type_symbol
_atom_site_label
_atom_site_fract_x
_atom_site_fract_y
_atom_site_fract_z
Si Si1 0.852446 0.238737 0.426297
Si Si2 0.688637 0.018252 0.438184
Si Si3 0.550490 0.157029 0.612389
Si Si4 0.163176 0.778946 0.189903
Si Si5 0.816207 0.483185 0.808237
Si Si6 0.645038 0.264534 0.838322
Si Si7 0.500000 0.500000 0.849112
Si Si8 0.106770 0.520193 0.037835
O O1 0.793091 0.088384 0.433799
O O2 0.814101 0.355447 0.512521
O O3 0.828311 0.301066 0.305601
O O4 0.965643 0.239137 0.430774
O O5 0.624582 0.119134 0.517089
O O6 0.649598 0.005191 0.315122
O O7 0.598648 0.219378 0.721788
O O8 0.500000 0.000000 0.637903
O O9 0.143029 0.667638 0.093981
O O10 0.255034 0.871850 0.166985
O O11 0.077666 0.895335 0.207330
O O12 0.741271 0.349782 0.814303
O O13 0.886517 0.467279 0.908003
O O14 0.571063 0.376643 0.898355
O O15 0.659344 0.120929 0.911916
O O16 0.000000 0.500000 0.073121
#
# Coordination Sequence:
#
# PCOD9311696 Si02
#       8
#     4   4   4   4   4   4   2   4
#     4  10  19  36  57  82 113 143 184 237 278 321
#     4  10  21  36  53  85 114 150 183 222 280 341
#     4  10  19  34  60  83 108 146 187 237 276 323
#     4  10  20  37  57  85 111 137 189 236 281 310
#     4  10  24  37  54  81 121 154 176 223 281 345
#     4  11  20  36  59  88 108 138 192 239 284 306
#     4  10  18  32  56  88 106 124 172 252 278 304
#     4  12  21  36  59  85 111 147 190 227 277 334
#
# _framework density 18.934635
#
# number of rings (size 3 to 8) (size 9 to 14) (size 15 to 20)
#    0.000    1.600    2.667    3.600    0.000    1.600 
#    0.000    0.000    0.000    0.000    0.000    0.000 
#    0.000    0.000    0.000    0.000    0.000    0.000 
#
# Total GULP energy -167190.431170 kJ/mol
# GULP energy per Si atom -5573.014372 kJ/mol
# Density = 1.889154 g / cm^3
# Si number density = 18.934635 Si / 1000 Ang^3
#
#
#
# Elastic Constant Matrix: (Units=GPa)
#
#
# Indices 1 2 3 4 5 6 
#
# 1 34.1357 5.8113 13.0050 0.0000 0.0000 0.0000
# 2 5.8113 63.5345 37.8574 0.0000 0.0000 0.0000
# 3 13.0050 37.8574 109.3584 0.0000 0.0000 0.0000
# 4 0.0000 0.0000 0.0000 25.4313 0.0000 0.0000
# 5 0.0000 0.0000 0.0000 0.0000 24.5050 0.0000
# 6 0.0000 0.0000 0.0000 0.0000 0.0000 24.3611
#
#
#
# Elastic Compliance Matrix: (Units=1/GPa)
#
#
# Indices 1 2 3 4 5 6 
#
# 1 0.030717 -0.000798 -0.003377 0.000000 0.000000 0.000000
# 2 -0.000798 0.019851 -0.006777 0.000000 0.000000 0.000000
# 3 -0.003377 -0.006777 0.011892 0.000000 0.000000 0.000000
# 4 0.000000 0.000000 0.000000 0.039322 0.000000 0.000000
# 5 0.000000 0.000000 0.000000 0.000000 0.040808 0.000000
# 6 0.000000 0.000000 0.000000 0.000000 0.000000 0.041049
#
#
# Mechanical properties :
#
#
# Convention : Reuss Voigt Hill
#
# Bulk Modulus (GPa) = 24.65673 35.59734 30.12704
# Shear Modulus (GPa) = 22.82483 24.88314 23.85399
#
# Velocity S-wave (km/s) = 3.47573 3.62907 3.55323
# Velocity P-wave (km/s) = 5.39981 6.03333 5.72534
#
# Compressibility (1/GPa) = 0.04055687
#
# Stress axis : x y z
#
# Youngs Moduli (GPa) = 32.55516 50.37654 84.09123
#
# Poissons Ratio (x) = 0.04018 0.28396
# Poissons Ratio (y) = 0.02596 0.56988
# Poissons Ratio (z) = 0.10993 0.34140
#
# Static dielectric constant tensor:
#      x y z
#    x 1.682730 0.000000 0.000000 
#    y 0.000000 1.709450 0.000000 
#    z 0.000000 0.000000 1.653960 
# 
# From -- ./inp_files/6091.got.cif
#   From: 2010.05.17/outbox.cif.g08.bks.cpg/sg18_4_cif.got.tgz:6091.got - 2010.06.03 22:40:56.
