data_PCOD9311259
_publ_section_title
;
Structure prediction by ZEFSAII (Michael W. Deem and Ramdas Pophale) SiO2 
 PCOD9311259
Probable space group: P 2 2 21
;
_chemical_formula_sum "Si O2"
_cell_formula_units_Z 18
_cell_length_a 5.533765
_cell_length_b 5.208273
_cell_length_c 23.344368
_cell_angle_alpha 90.000000
_cell_angle_beta 90.000000
_cell_angle_gamma 90.000000
_cell_volume 672.816407
_symmetry_space_group_name_H-M "P 2 2 21"
_symmetry_group_IT_number 17
_symmetry_cell_setting 'orthorhombic'
loop_
_space_group_symop_operation_xyz
x,y,z
-x,-y,1/2+z
x,-y,-z
-x,y,1/2-z
loop_
_atom_site_type_symbol
_atom_site_label
_atom_site_fract_x
_atom_site_fract_y
_atom_site_fract_z
Si Si1 0.839587 0.702318 0.340209
Si Si2 0.070006 0.242587 0.460961
Si Si3 0.500000 0.930329 0.250000
Si Si4 0.118158 0.193397 0.313796
Si Si5 0.432720 0.594567 0.934667
O O1 0.691141 0.748905 0.281840
O O2 0.652818 0.624252 0.390371
O O3 0.999661 0.955724 0.347844
O O4 0.025518 0.467756 0.334320
O O5 0.051897 0.500000 0.500000
O O6 0.306669 0.283124 0.421246
O O7 0.798114 0.219047 0.437179
O O8 0.124450 0.000000 0.500000
O O9 0.392238 0.115948 0.299108
O O10 0.000000 0.176873 0.250000
O O11 0.460074 0.500000 0.000000
#
# Coordination Sequence:
#
# PCOD9311259 Si02
#       5
#     4   4   2   4   4
#     4  11  25  42  72 106 142 193 249 310 379 454
#     4  10  22  42  68  93 138 184 235 294 358 433
#     4  10  24  48  76 102 156 194 252 318 386 452
#     4  10  23  44  67 104 138 184 243 300 371 449
#     4  10  24  46  70 106 145 191 247 307 376 456
#
# _framework density 26.753208000000001
#
# number of rings (size 3 to 8) (size 9 to 14) (size 15 to 20)
#    0.000    1.778    0.000    2.667    3.111   15.111 
#    4.000    0.000    0.000    0.000    0.000    0.000 
#    0.000    0.000    0.000    0.000    0.000    0.000 
#
# Total GULP energy -100788.500593 kJ/mol
# GULP energy per Si atom -5599.361144 kJ/mol
# Density = 2.669232 g / cm^3
# Si number density = 26.753208 Si / 1000 Ang^3
#
#
#
# Elastic Constant Matrix: (Units=GPa)
#
#
# Indices 1 2 3 4 5 6 
#
# 1 212.6030 67.2881 32.6061 0.0000 0.0000 0.0000
# 2 67.2881 192.8466 39.4705 0.0000 0.0000 0.0000
# 3 32.6061 39.4705 74.0522 0.0000 0.0000 0.0000
# 4 0.0000 0.0000 0.0000 47.0669 0.0000 0.0000
# 5 0.0000 0.0000 0.0000 0.0000 40.1559 0.0000
# 6 0.0000 0.0000 0.0000 0.0000 0.0000 18.2747
#
#
#
# Elastic Compliance Matrix: (Units=1/GPa)
#
#
# Indices 1 2 3 4 5 6 
#
# 1 0.005442 -0.001581 -0.001554 0.000000 0.000000 0.000000
# 2 -0.001581 0.006280 -0.002651 0.000000 0.000000 0.000000
# 3 -0.001554 -0.002651 0.015601 0.000000 0.000000 0.000000
# 4 0.000000 0.000000 0.000000 0.021246 0.000000 0.000000
# 5 0.000000 0.000000 0.000000 0.000000 0.024903 0.000000
# 6 0.000000 0.000000 0.000000 0.000000 0.000000 0.054721
#
#
# Mechanical properties :
#
#
# Convention : Reuss Voigt Hill
#
# Bulk Modulus (GPa) = 63.48466 84.24791 73.86628
# Shear Modulus (GPa) = 34.47928 43.77530 39.12729
#
# Velocity S-wave (km/s) = 3.59387 4.04946 3.82845
# Velocity P-wave (km/s) = 6.40331 7.30913 6.87116
#
# Compressibility (1/GPa) = 0.01575184
#
# Stress axis : x y z
#
# Youngs Moduli (GPa) = 183.74808 159.24383 64.09804
#
# Poissons Ratio (x) = 0.25175 0.09959
# Poissons Ratio (y) = 0.29049 0.16993
# Poissons Ratio (z) = 0.28548 0.42216
#
# Static dielectric constant tensor:
#      x y z
#    x 2.160050 0.000000 0.000000 
#    y 0.000000 1.987040 0.000000 
#    z 0.000000 0.000000 2.276740 
# 
# From -- ./inp_files/10322.got.cif
#   From: 2010.05.17/outbox.cif.g08.bks.cpg/sg17_6_cif.got.tgz:10322.got - 2010.06.03 22:34:06.
