data_PCOD9311769
_publ_section_title
;
Structure prediction by ZEFSAII (Michael W. Deem and Ramdas Pophale) SiO2 
 PCOD9311769
Probable space group: P 21 21 2
;
_chemical_formula_sum "Si O2"
_cell_formula_units_Z 24
_cell_length_a 12.892160
_cell_length_b 5.427901
_cell_length_c 17.497888
_cell_angle_alpha 90.000000
_cell_angle_beta 90.000000
_cell_angle_gamma 90.000000
_cell_volume 1224.456151
_symmetry_space_group_name_H-M "P 21 21 2"
_symmetry_group_IT_number 18
_symmetry_cell_setting 'orthorhombic'
loop_
_space_group_symop_operation_xyz
x,y,z
-x,-y,z
1/2+x,1/2-y,-z
1/2-x,1/2+y,-z
loop_
_atom_site_type_symbol
_atom_site_label
_atom_site_fract_x
_atom_site_fract_y
_atom_site_fract_z
Si Si1 0.615767 0.485188 0.512555
Si Si2 0.814878 0.485596 0.407818
Si Si3 0.612095 0.545375 0.849600
Si Si4 0.323675 0.451681 0.094509
Si Si5 0.676038 0.045017 0.772725
Si Si6 0.179516 0.451556 0.953838
O O1 0.500000 0.500000 0.481635
O O2 0.701023 0.489193 0.445910
O O3 0.635556 0.726326 0.565223
O O4 0.629367 0.228774 0.558290
O O5 0.812743 0.508210 0.317007
O O6 0.500000 0.500000 0.887410
O O7 0.627958 0.311373 0.793289
O O8 0.712077 0.545956 0.905076
O O9 0.615244 0.808270 0.806655
O O10 0.285563 0.456081 0.181228
O O11 0.376428 0.702999 0.069731
O O12 0.376511 0.200097 0.069752
O O13 0.218026 0.451224 0.041068
#
# Coordination Sequence:
#
# PCOD9311769 Si02
#       6
#     4   4   4   4   4   4
#     4  10  21  37  55  74 100 133 165 203 250 301
#     4  10  21  35  53  78 101 128 169 205 246 308
#     4  10  19  28  41  65  96 127 155 191 240 282
#     4   8  14  25  41  58  78 110 146 181 220 258
#     4  10  19  30  45  67  94 120 153 196 236 284
#     4   8  14  25  39  56  80 112 149 178 210 267
#
# _framework density 19.600539999999999
#
# number of rings (size 3 to 8) (size 9 to 14) (size 15 to 20)
#    0.000    2.667    0.000    2.000    0.000    4.000 
#    0.000    0.000    0.000    1.000    0.000    0.000 
#    0.000   24.000    0.000    0.000    0.000    5.333 
#
# Total GULP energy -133779.393698 kJ/mol
# GULP energy per Si atom -5574.141404 kJ/mol
# Density = 1.955593 g / cm^3
# Si number density = 19.600540 Si / 1000 Ang^3
#
#
#
# Elastic Constant Matrix: (Units=GPa)
#
#
# Indices 1 2 3 4 5 6 
#
# 1 44.2373 -4.6086 -1.6741 0.0000 0.0000 0.0000
# 2 -4.6086 160.4149 -12.3805 0.0000 0.0000 0.0000
# 3 -1.6741 -12.3805 41.8949 0.0000 0.0000 0.0000
# 4 0.0000 0.0000 0.0000 22.9128 0.0000 0.0000
# 5 0.0000 0.0000 0.0000 0.0000 -1.2540 0.0000
# 6 0.0000 0.0000 0.0000 0.0000 0.0000 2.1139
#
#
#
# Elastic Compliance Matrix: (Units=1/GPa)
#
#
# Indices 1 2 3 4 5 6 
#
# 1 0.022725 0.000740 0.001127 0.000000 0.000000 0.000000
# 2 0.000740 0.006403 0.001922 0.000000 0.000000 0.000000
# 3 0.001127 0.001922 0.024482 0.000000 0.000000 0.000000
# 4 0.000000 0.000000 0.000000 0.043644 0.000000 0.000000
# 5 0.000000 0.000000 0.000000 0.000000 -0.797430 0.000000
# 6 0.000000 0.000000 0.000000 0.000000 0.000000 0.473055
#
#
# Mechanical properties :
#
#
# Convention : Reuss Voigt Hill
#
# Bulk Modulus (GPa) = 16.34320 23.24675 19.79498
# Shear Modulus (GPa) = -23.33158 22.43523 -0.44817
#
# Velocity S-wave (km/s) = -3.45389 3.38690 -0.47870
# Velocity P-wave (km/s) = 2.74765 5.21352 3.13298
#
# Compressibility (1/GPa) = 0.06118751
#
# Stress axis : x y z
#
# Youngs Moduli (GPa) = 44.00422 156.16671 40.84601
#
# Poissons Ratio (x) = -0.11554 -0.04602
# Poissons Ratio (y) = -0.03256 -0.07850
# Poissons Ratio (z) = -0.04958 -0.30013
#
# Static dielectric constant tensor:
#      x y z
#    x 1.694280 0.000000 0.000000 
#    y 0.000000 1.793230 0.000000 
#    z 0.000000 0.000000 1.646690 
# 
# From -- ./inp_files/7358.got.cif
#   From: 2010.05.17/outbox.cif.g08.bks.cpg/sg18_4_cif.got.tgz:7358.got - 2010.06.03 22:40:56.
