data_PCOD9311721
_publ_section_title
;
Structure prediction by ZEFSAII (Michael W. Deem and Ramdas Pophale) SiO2 
 PCOD9311721
Probable space group: P 21 21 2
;
_chemical_formula_sum "Si O2"
_cell_formula_units_Z 24
_cell_length_a 8.849483
_cell_length_b 9.190218
_cell_length_c 12.505165
_cell_angle_alpha 90.000000
_cell_angle_beta 90.000000
_cell_angle_gamma 90.000000
_cell_volume 1017.028537
_symmetry_space_group_name_H-M "P 21 21 2"
_symmetry_group_IT_number 18
_symmetry_cell_setting 'orthorhombic'
loop_
_space_group_symop_operation_xyz
x,y,z
-x,-y,z
1/2+x,1/2-y,-z
1/2-x,1/2+y,-z
loop_
_atom_site_type_symbol
_atom_site_label
_atom_site_fract_x
_atom_site_fract_y
_atom_site_fract_z
Si Si1 0.580346 0.679454 0.695132
Si Si2 0.778775 0.708000 0.245090
Si Si3 0.000000 0.500000 0.104722
Si Si4 0.818055 0.917902 0.672581
Si Si5 0.175124 0.795646 0.069210
Si Si6 0.500000 0.500000 0.513323
Si Si7 0.504648 0.287430 0.123760
O O1 0.399922 0.690273 0.700482
O O2 0.661756 0.832660 0.675883
O O3 0.630460 0.639488 0.815506
O O4 0.613860 0.582779 0.592698
O O5 0.709273 0.589554 0.324123
O O6 0.639291 0.784395 0.184640
O O7 0.883814 0.605368 0.169167
O O8 0.114552 0.626483 0.059456
O O9 0.906562 0.871115 0.781030
O O10 0.912045 0.890855 0.565771
O O11 0.356989 0.798356 0.068024
O O12 0.087516 0.868013 0.970697
#
# Coordination Sequence:
#
# PCOD9311721 Si02
#       7
#     4   4   2   4   4   2   4
#     4  10  24  43  65  96 139 171 228 287 338 403
#     4  11  18  40  66  94 127 174 222 274 334 408
#     4  10  18  34  62  92 128 168 216 260 338 416
#     4  11  22  41  67  97 128 178 237 272 340 415
#     4  10  21  39  61  99 135 173 220 282 341 412
#     4  12  26  42  68 104 130 188 230 286 346 390
#     4  11  21  38  64  96 132 173 221 275 340 409
#
# _framework density 23.598158000000002
#
# number of rings (size 3 to 8) (size 9 to 14) (size 15 to 20)
#    0.000    1.333    6.667    2.000    2.333    0.000 
#    3.000    5.000    0.000    0.000    0.000    0.000 
#    0.000    0.000    0.000    0.000    0.000    0.000 
#
# Total GULP energy -133709.960281 kJ/mol
# GULP energy per Si atom -5571.248345 kJ/mol
# Density = 2.354445 g / cm^3
# Si number density = 23.598158 Si / 1000 Ang^3
#
#
#
# Elastic Constant Matrix: (Units=GPa)
#
#
# Indices 1 2 3 4 5 6 
#
# 1 178.4735 23.6049 49.5083 0.0000 0.0000 0.0000
# 2 23.6049 36.4903 21.9652 0.0000 0.0000 0.0000
# 3 49.5083 21.9652 155.4310 0.0000 0.0000 0.0000
# 4 0.0000 0.0000 0.0000 19.0671 0.0000 0.0000
# 5 0.0000 0.0000 0.0000 0.0000 27.2019 0.0000
# 6 0.0000 0.0000 0.0000 0.0000 0.0000 24.3688
#
#
#
# Elastic Compliance Matrix: (Units=1/GPa)
#
#
# Indices 1 2 3 4 5 6 
#
# 1 0.006475 -0.003221 -0.001607 0.000000 0.000000 0.000000
# 2 -0.003221 0.031555 -0.003433 0.000000 0.000000 0.000000
# 3 -0.001607 -0.003433 0.007431 0.000000 0.000000 0.000000
# 4 0.000000 0.000000 0.000000 0.052446 0.000000 0.000000
# 5 0.000000 0.000000 0.000000 0.000000 0.036762 0.000000
# 6 0.000000 0.000000 0.000000 0.000000 0.000000 0.041036
#
#
# Mechanical properties :
#
#
# Convention : Reuss Voigt Hill
#
# Bulk Modulus (GPa) = 34.55723 62.28351 48.42037
# Shear Modulus (GPa) = 24.76790 32.48198 28.62494
#
# Velocity S-wave (km/s) = 3.24322 3.71410 3.48662
# Velocity P-wave (km/s) = 5.35728 6.69652 6.06398
#
# Compressibility (1/GPa) = 0.02893750
#
# Stress axis : x y z
#
# Youngs Moduli (GPa) = 154.44184 31.69085 134.57419
#
# Poissons Ratio (x) = 0.10208 0.21629
# Poissons Ratio (y) = 0.49747 0.46203
# Poissons Ratio (z) = 0.24822 0.10880
#
# Static dielectric constant tensor:
#      x y z
#    x 1.910410 0.000000 0.000000 
#    y 0.000000 1.973720 0.000000 
#    z 0.000000 0.000000 1.932170 
# 
# From -- ./inp_files/5555.got.cif
#   From: 2010.05.17/outbox.cif.g08.bks.cpg/sg18_3_cif.got.tgz:5555.got - 2010.06.03 22:40:56.
