data_PCOD9311494
_publ_section_title
;
Structure prediction by ZEFSAII (Michael W. Deem and Ramdas Pophale) SiO2 
 PCOD9311494
Probable space group: P 2 2 21
;
_chemical_formula_sum "Si O2"
_cell_formula_units_Z 30
_cell_length_a 11.672773
_cell_length_b 13.335199
_cell_length_c 9.251571
_cell_angle_alpha 90.000000
_cell_angle_beta 90.000000
_cell_angle_gamma 90.000000
_cell_volume 1440.087985
_symmetry_space_group_name_H-M "P 2 2 21"
_symmetry_group_IT_number 17
_symmetry_cell_setting 'orthorhombic'
loop_
_space_group_symop_operation_xyz
x,y,z
-x,-y,1/2+z
x,-y,-z
-x,y,1/2-z
loop_
_atom_site_type_symbol
_atom_site_label
_atom_site_fract_x
_atom_site_fract_y
_atom_site_fract_z
Si Si1 0.757135 0.614455 0.989782
Si Si2 0.344151 0.234956 0.926770
Si Si3 0.868843 0.756655 0.229119
Si Si4 0.113894 0.009379 0.824945
Si Si5 0.309928 0.943370 0.633138
Si Si6 0.500000 0.081683 0.750000
Si Si7 0.635787 0.734612 0.761304
Si Si8 0.501531 0.421982 0.899438
O O1 0.823228 0.700181 0.083471
O O2 0.630270 0.602538 0.057495
O O3 0.806866 0.500000 0.000000
O O4 0.722745 0.652602 0.828605
O O5 0.225223 0.265873 0.851946
O O6 0.408326 0.142548 0.847821
O O7 0.432316 0.322277 0.892516
O O8 0.333230 0.230418 0.099324
O O9 0.874036 0.878326 0.254342
O O10 0.000000 0.722905 0.250000
O O11 0.000000 0.965929 0.750000
O O12 0.225061 0.952285 0.768205
O O13 0.106884 0.000000 0.000000
O O14 0.349973 0.828536 0.627524
O O15 0.248592 0.000000 0.500000
O O16 0.421174 0.010718 0.655074
O O17 0.500000 0.707997 0.750000
O O18 0.500000 0.477085 0.750000
O O19 0.440355 0.500000 0.000000
#
# Coordination Sequence:
#
# PCOD9311494 Si02
#       8
#     4   4   4   4   4   2   4   4
#     4  11  25  45  68  99 138 177 227 292 348 417
#     4  12  23  41  64  99 133 180 225 278 335 421
#     4  11  24  47  72  94 134 188 236 283 350 401
#     4  11  24  44  70 101 138 183 235 288 333 409
#     4  12  25  39  64  97 139 181 219 268 343 420
#     4  12  24  38  66  94 144 178 218 266 360 414
#     4  12  25  40  65 104 139 172 221 279 346 423
#     4  11  23  37  65  98 133 171 220 285 349 404
#
# _framework density 20.832062000000001
#
# number of rings (size 3 to 8) (size 9 to 14) (size 15 to 20)
#    0.000    0.533    5.333    2.800    3.733    1.067 
#    0.000    2.667    0.000    0.000    0.000    0.000 
#    0.000    0.000    0.000    0.000    0.000    0.000 
#
# Total GULP energy -167187.228331 kJ/mol
# GULP energy per Si atom -5572.907611 kJ/mol
# Density = 2.078465 g / cm^3
# Si number density = 20.832062 Si / 1000 Ang^3
#
#
#
# Elastic Constant Matrix: (Units=GPa)
#
#
# Indices 1 2 3 4 5 6 
#
# 1 104.5305 18.1398 34.3782 0.0000 0.0000 0.0000
# 2 18.1398 99.1884 26.8306 0.0000 0.0000 0.0000
# 3 34.3782 26.8306 130.7086 0.0000 0.0000 0.0000
# 4 0.0000 0.0000 0.0000 19.6159 0.0000 0.0000
# 5 0.0000 0.0000 0.0000 0.0000 27.6801 0.0000
# 6 0.0000 0.0000 0.0000 0.0000 0.0000 24.8875
#
#
#
# Elastic Compliance Matrix: (Units=1/GPa)
#
#
# Indices 1 2 3 4 5 6 
#
# 1 0.010618 -0.001256 -0.002535 0.000000 0.000000 0.000000
# 2 -0.001256 0.010823 -0.001891 0.000000 0.000000 0.000000
# 3 -0.002535 -0.001891 0.008706 0.000000 0.000000 0.000000
# 4 0.000000 0.000000 0.000000 0.050979 0.000000 0.000000
# 5 0.000000 0.000000 0.000000 0.000000 0.036127 0.000000
# 6 0.000000 0.000000 0.000000 0.000000 0.000000 0.040181
#
#
# Mechanical properties :
#
#
# Convention : Reuss Voigt Hill
#
# Bulk Modulus (GPa) = 53.24182 54.79162 54.01672
# Shear Modulus (GPa) = 28.56175 31.44197 30.00186
#
# Velocity S-wave (km/s) = 3.70678 3.88919 3.79908
# Velocity P-wave (km/s) = 6.62823 6.82103 6.72532
#
# Compressibility (1/GPa) = 0.01878223
#
# Stress axis : x y z
#
# Youngs Moduli (GPa) = 94.17737 92.39452 114.86938
#
# Poissons Ratio (x) = 0.11607 0.29118
# Poissons Ratio (y) = 0.11831 0.21725
# Poissons Ratio (z) = 0.23873 0.17474
#
# Static dielectric constant tensor:
#      x y z
#    x 1.767410 0.000000 0.000000 
#    y 0.000000 1.806450 0.000000 
#    z 0.000000 0.000000 1.810160 
# 
# From -- ./inp_files/4917.got.cif
#   From: 2010.05.17/outbox.cif.g08.bks.cpg/sg17_3_cif.got.tgz:4917.got - 2010.06.03 22:34:06.
