data_PCOD9312398
_publ_section_title
;
Structure prediction by ZEFSAII (Michael W. Deem and Ramdas Pophale) SiO2 
 PCOD9312398
Probable space group: P 21 21 2
;
_chemical_formula_sum "Si O2"
_cell_formula_units_Z 24
_cell_length_a 16.014612
_cell_length_b 10.093740
_cell_length_c 6.575670
_cell_angle_alpha 90.000000
_cell_angle_beta 90.000000
_cell_angle_gamma 90.000000
_cell_volume 1062.939497
_symmetry_space_group_name_H-M "P 21 21 2"
_symmetry_group_IT_number 18
_symmetry_cell_setting 'orthorhombic'
loop_
_space_group_symop_operation_xyz
x,y,z
-x,-y,z
1/2+x,1/2-y,-z
1/2-x,1/2+y,-z
loop_
_atom_site_type_symbol
_atom_site_label
_atom_site_fract_x
_atom_site_fract_y
_atom_site_fract_z
Si Si1 0.972837 0.848856 0.463250
Si Si2 0.669990 0.742223 0.981752
Si Si3 0.640052 0.467123 0.880660
Si Si4 0.924325 0.402346 0.332757
Si Si5 0.707991 0.878212 0.378083
Si Si6 0.323300 0.705553 0.254268
O O1 0.911224 0.781248 0.629535
O O2 0.042096 0.738086 0.419407
O O3 0.923069 0.878805 0.251639
O O4 0.000000 0.000000 0.526497
O O5 0.615300 0.618119 0.913337
O O6 0.631420 0.868521 0.864484
O O7 0.765666 0.714213 0.907990
O O8 0.671873 0.772701 0.219024
O O9 0.724430 0.459648 0.748009
O O10 0.658375 0.417997 0.106746
O O11 0.864526 0.459161 0.510104
O O12 0.000000 0.500000 0.287583
O O13 0.758875 0.811539 0.560717
#
# Coordination Sequence:
#
# PCOD9312398 Si02
#       6
#     4   4   4   4   4   4
#     4  11  23  41  65  97 129 166 216 265 318 384
#     4  10  21  42  66  93 127 168 217 271 317 378
#     4  10  21  41  66  95 127 165 220 270 318 376
#     4  11  25  43  63  94 135 173 211 261 327 385
#     4   9  22  42  63  92 125 170 212 264 318 383
#     4   9  22  40  63  95 121 168 212 265 314 378
#
# _framework density 22.578893999999998
#
# number of rings (size 3 to 8) (size 9 to 14) (size 15 to 20)
#    0.000    2.000    1.667    0.000    4.667    4.000 
#   24.000    0.000    0.000    0.000    0.000    0.000 
#    0.000    0.000    0.000    0.000    0.000    0.000 
#
# Total GULP energy -133657.776225 kJ/mol
# GULP energy per Si atom -5569.074009 kJ/mol
# Density = 2.252750 g / cm^3
# Si number density = 22.578894 Si / 1000 Ang^3
#
#
#
# Elastic Constant Matrix: (Units=GPa)
#
#
# Indices 1 2 3 4 5 6 
#
# 1 76.2405 -3.2993 26.9222 0.0000 0.0000 0.0000
# 2 -3.2993 29.8666 7.9869 0.0000 0.0000 0.0000
# 3 26.9222 7.9869 127.2435 0.0000 0.0000 0.0000
# 4 0.0000 0.0000 0.0000 -26.2616 0.0000 0.0000
# 5 0.0000 0.0000 0.0000 0.0000 23.7295 0.0000
# 6 0.0000 0.0000 0.0000 0.0000 0.0000 13.0766
#
#
#
# Elastic Compliance Matrix: (Units=1/GPa)
#
#
# Indices 1 2 3 4 5 6 
#
# 1 0.014348 0.002438 -0.003189 0.000000 0.000000 0.000000
# 2 0.002438 0.034468 -0.002679 0.000000 0.000000 0.000000
# 3 -0.003189 -0.002679 0.008702 0.000000 0.000000 0.000000
# 4 0.000000 0.000000 0.000000 -0.038078 0.000000 0.000000
# 5 0.000000 0.000000 0.000000 0.000000 0.042142 0.000000
# 6 0.000000 0.000000 0.000000 0.000000 0.000000 0.076472
#
#
# Mechanical properties :
#
#
# Convention : Reuss Voigt Hill
#
# Bulk Modulus (GPa) = 19.74058 32.95223 26.34640
# Shear Modulus (GPa) = 30.90244 15.55830 23.23037
#
# Velocity S-wave (km/s) = 3.70353 2.62785 3.21105
# Velocity P-wave (km/s) = 5.20097 4.88195 5.04398
#
# Compressibility (1/GPa) = 0.05065708
#
# Stress axis : x y z
#
# Youngs Moduli (GPa) = 69.69666 29.01241 114.91879
#
# Poissons Ratio (x) = -0.07072 0.36645
# Poissons Ratio (y) = -0.16990 0.30790
# Poissons Ratio (z) = 0.22224 0.07773
#
# Static dielectric constant tensor:
#      x y z
#    x 1.871430 0.000000 0.000000 
#    y 0.000000 1.849600 0.000000 
#    z 0.000000 0.000000 1.840860 
# 
# From -- ./inp_files/1780.got.cif
#   From: 2010.05.17/outbox.cif.g08.bks.cpg/sg18_1_cif.got.tgz:1780.got - 2010.06.03 22:40:56.
