data_PCOD9312809
_publ_section_title
;
Structure prediction by ZEFSAII (Michael W. Deem and Ramdas Pophale) SiO2 
 PCOD9312809
Probable space group: P 21 21 2
;
_chemical_formula_sum "Si O2"
_cell_formula_units_Z 30
_cell_length_a 19.628283
_cell_length_b 5.668918
_cell_length_c 11.630132
_cell_angle_alpha 90.000000
_cell_angle_beta 90.000000
_cell_angle_gamma 90.000000
_cell_volume 1294.097893
_symmetry_space_group_name_H-M "P 21 21 2"
_symmetry_group_IT_number 18
_symmetry_cell_setting 'orthorhombic'
loop_
_space_group_symop_operation_xyz
x,y,z
-x,-y,z
1/2+x,1/2-y,-z
1/2-x,1/2+y,-z
loop_
_atom_site_type_symbol
_atom_site_label
_atom_site_fract_x
_atom_site_fract_y
_atom_site_fract_z
Si Si1 0.428717 0.627794 0.959804
Si Si2 0.130936 0.123962 0.793857
Si Si3 0.744831 0.773417 0.928924
Si Si4 0.119989 0.794606 0.222951
Si Si5 0.077176 0.397622 0.575649
Si Si6 0.335480 0.580198 0.574071
Si Si7 0.805569 0.226691 0.635915
Si Si8 0.000000 0.500000 0.151130
O O1 0.500000 0.500000 0.945283
O O2 0.386058 0.533222 0.852929
O O3 0.443970 0.896678 0.935449
O O4 0.407383 0.580662 0.088017
O O5 0.194747 0.278864 0.837142
O O6 0.086044 0.237387 0.691893
O O7 0.163709 0.882040 0.750482
O O8 0.679029 0.829780 0.850431
O O9 0.740170 0.523997 0.002188
O O10 0.046425 0.671470 0.225750
O O11 0.140394 0.861788 0.350351
O O12 0.101821 0.245867 0.464764
O O13 0.137919 0.588621 0.591383
O O14 0.000000 0.500000 0.568178
O O15 0.271809 0.689187 0.642101
O O16 0.304290 0.488620 0.454746
#
# Coordination Sequence:
#
# PCOD9312809 Si02
#       8
#     4   4   4   4   4   4   4   2
#     4  10  23  44  67 106 142 192 238 301 374 464
#     4  11  26  42  76 108 150 194 250 319 387 466
#     4  12  27  46  75 121 162 202 265 325 391 480
#     4  11  25  44  74 103 151 198 255 314 393 466
#     4  11  27  48  75 111 147 197 265 332 399 474
#     4  11  25  48  77 105 144 199 256 324 395 476
#     4  11  25  47  73 107 143 197 255 316 401 460
#     4  10  24  46  68 102 150 200 252 300 394 472
#
# _framework density 23.182172000000001
#
# number of rings (size 3 to 8) (size 9 to 14) (size 15 to 20)
#    0.000    1.067    2.667    1.600    8.400    3.733 
#    9.600    0.000    0.000    0.000    0.000    0.000 
#    0.000    0.000    0.000    0.000    0.000    0.000 
#
# Total GULP energy -167352.958001 kJ/mol
# GULP energy per Si atom -5578.431933 kJ/mol
# Density = 2.312941 g / cm^3
# Si number density = 23.182172 Si / 1000 Ang^3
#
#
#
# Elastic Constant Matrix: (Units=GPa)
#
#
# Indices 1 2 3 4 5 6 
#
# 1 118.3045 19.8871 48.5562 0.0000 0.0000 0.0000
# 2 19.8871 55.7910 23.4311 0.0000 0.0000 0.0000
# 3 48.5562 23.4311 51.3452 0.0000 0.0000 0.0000
# 4 0.0000 0.0000 0.0000 35.5539 0.0000 0.0000
# 5 0.0000 0.0000 0.0000 0.0000 43.4282 0.0000
# 6 0.0000 0.0000 0.0000 0.0000 0.0000 34.9679
#
#
#
# Elastic Compliance Matrix: (Units=1/GPa)
#
#
# Indices 1 2 3 4 5 6 
#
# 1 0.013837 0.000697 -0.013403 0.000000 0.000000 0.000000
# 2 0.000697 0.022209 -0.010794 0.000000 0.000000 0.000000
# 3 -0.013403 -0.010794 0.037077 0.000000 0.000000 0.000000
# 4 0.000000 0.000000 0.000000 0.028126 0.000000 0.000000
# 5 0.000000 0.000000 0.000000 0.000000 0.023027 0.000000
# 6 0.000000 0.000000 0.000000 0.000000 0.000000 0.028598
#
#
# Mechanical properties :
#
#
# Convention : Reuss Voigt Hill
#
# Bulk Modulus (GPa) = 38.28177 45.46550 41.87363
# Shear Modulus (GPa) = 23.97154 31.69443 27.83299
#
# Velocity S-wave (km/s) = 3.21915 3.70156 3.46876
# Velocity P-wave (km/s) = 5.51059 6.15822 5.84338
#
# Compressibility (1/GPa) = 0.02612209
#
# Stress axis : x y z
#
# Youngs Moduli (GPa) = 72.27137 45.02713 26.97098
#
# Poissons Ratio (x) = -0.03138 0.36150
# Poissons Ratio (y) = -0.05036 0.29112
# Poissons Ratio (z) = 0.96867 0.48602
#
# Static dielectric constant tensor:
#      x y z
#    x 1.931390 0.000000 0.000000 
#    y 0.000000 1.841760 0.000000 
#    z 0.000000 0.000000 1.881640 
# 
# From -- ./inp_files/6290.got.cif
#   From: 2010.05.17/outbox.cif.g08.bks.cpg/sg18_4_cif.got.tgz:6290.got - 2010.06.03 22:40:56.
