data_PCOD9312001
_publ_section_title
;
Structure prediction by ZEFSAII (Michael W. Deem and Ramdas Pophale) SiO2 
 PCOD9312001
Probable space group: P 21 21 2
;
_chemical_formula_sum "Si O2"
_cell_formula_units_Z 30
_cell_length_a 8.738208
_cell_length_b 17.750890
_cell_length_c 8.647078
_cell_angle_alpha 90.000000
_cell_angle_beta 90.000000
_cell_angle_gamma 90.000000
_cell_volume 1341.256648
_symmetry_space_group_name_H-M "P 21 21 2"
_symmetry_group_IT_number 18
_symmetry_cell_setting 'orthorhombic'
loop_
_space_group_symop_operation_xyz
x,y,z
-x,-y,z
1/2+x,1/2-y,-z
1/2-x,1/2+y,-z
loop_
_atom_site_type_symbol
_atom_site_label
_atom_site_fract_x
_atom_site_fract_y
_atom_site_fract_z
Si Si1 0.617854 0.263204 0.156435
Si Si2 0.401165 0.342602 0.911992
Si Si3 0.550474 0.243711 0.690310
Si Si4 0.000000 0.000000 0.689813
Si Si5 0.744916 0.520069 0.047492
Si Si6 0.230063 0.112724 0.594979
Si Si7 0.876537 0.290773 0.629186
Si Si8 0.058751 0.598637 0.141489
O O1 0.752691 0.213332 0.082581
O O2 0.685481 0.314784 0.296681
O O3 0.494340 0.206917 0.231825
O O4 0.520842 0.318417 0.046062
O O5 0.491013 0.322596 0.756070
O O6 0.341965 0.428235 0.923382
O O7 0.732820 0.237711 0.671194
O O8 0.470773 0.231792 0.524881
O O9 0.490851 0.183803 0.818550
O O10 0.921439 0.935884 0.590922
O O11 0.132730 0.973723 0.805940
O O12 0.803701 0.432906 0.030477
O O13 0.903209 0.561242 0.087231
O O14 0.292806 0.134483 0.429113
O O15 0.368131 0.074947 0.692530
#
# Coordination Sequence:
#
# PCOD9312001 Si02
#       8
#     4   4   4   2   4   4   4   4
#     4  12  22  37  58  95 130 161 206 269 323 383
#     4  12  23  36  59  97 123 164 209 266 330 374
#     4  11  21  38  61  94 126 162 213 265 331 388
#     4  10  20  38  62  90 122 164 220 254 312 390
#     4  10  20  35  57  85 125 158 208 263 311 369
#     4  10  20  37  61  90 123 161 215 260 314 381
#     4  11  21  39  61  92 130 162 209 269 323 388
#     4   9  19  36  54  85 121 161 205 250 313 380
#
# _framework density 22.367083000000001
#
# number of rings (size 3 to 8) (size 9 to 14) (size 15 to 20)
#    0.000    1.333    5.333    2.400    0.000    0.000 
#    0.000    0.000    0.000    5.600    0.000   26.133 
#    0.000    0.000    0.000    0.000    0.000    0.000 
#
# Total GULP energy -167153.524275 kJ/mol
# GULP energy per Si atom -5571.784142 kJ/mol
# Density = 2.231617 g / cm^3
# Si number density = 22.367083 Si / 1000 Ang^3
#
#
#
# Elastic Constant Matrix: (Units=GPa)
#
#
# Indices 1 2 3 4 5 6 
#
# 1 123.6777 9.8733 20.4366 0.0000 0.0000 0.0000
# 2 9.8733 41.0767 5.3820 0.0000 0.0000 0.0000
# 3 20.4366 5.3820 23.6553 0.0000 0.0000 0.0000
# 4 0.0000 0.0000 0.0000 25.3144 0.0000 0.0000
# 5 0.0000 0.0000 0.0000 0.0000 34.2895 0.0000
# 6 0.0000 0.0000 0.0000 0.0000 0.0000 27.4353
#
#
#
# Elastic Compliance Matrix: (Units=1/GPa)
#
#
# Indices 1 2 3 4 5 6 
#
# 1 0.009493 -0.001244 -0.007919 0.000000 0.000000 0.000000
# 2 -0.001244 0.025256 -0.004671 0.000000 0.000000 0.000000
# 3 -0.007919 -0.004671 0.050178 0.000000 0.000000 0.000000
# 4 0.000000 0.000000 0.000000 0.039503 0.000000 0.000000
# 5 0.000000 0.000000 0.000000 0.000000 0.029163 0.000000
# 6 0.000000 0.000000 0.000000 0.000000 0.000000 0.036449
#
#
# Mechanical properties :
#
#
# Convention : Reuss Voigt Hill
#
# Bulk Modulus (GPa) = 17.46455 28.86595 23.16525
# Shear Modulus (GPa) = 21.11512 27.58902 24.35207
#
# Velocity S-wave (km/s) = 3.07583 3.51588 3.30319
# Velocity P-wave (km/s) = 4.52100 5.42360 4.99274
#
# Compressibility (1/GPa) = 0.05725885
#
# Stress axis : x y z
#
# Youngs Moduli (GPa) = 105.33711 39.59483 19.92918
#
# Poissons Ratio (x) = 0.04927 0.15781
# Poissons Ratio (y) = 0.13107 0.09309
# Poissons Ratio (z) = 0.83411 0.18495
#
# Static dielectric constant tensor:
#      x y z
#    x 1.858640 0.000000 0.000000 
#    y 0.000000 1.980790 0.000000 
#    z 0.000000 0.000000 1.828840 
# 
# From -- ./inp_files/3499.got.cif
#   From: 2010.05.17/outbox.cif.g08.bks.cpg/sg18_2_cif.got.tgz:3499.got - 2010.06.03 22:40:56.
