data_PCOD9312064
_publ_section_title
;
Structure prediction by ZEFSAII (Michael W. Deem and Ramdas Pophale) SiO2 
 PCOD9312064
Probable space group: P 21 21 2
;
_chemical_formula_sum "Si O2"
_cell_formula_units_Z 20
_cell_length_a 8.723183
_cell_length_b 8.370935
_cell_length_c 12.404895
_cell_angle_alpha 90.000000
_cell_angle_beta 90.000000
_cell_angle_gamma 90.000000
_cell_volume 905.820293
_symmetry_space_group_name_H-M "P 21 21 2"
_symmetry_group_IT_number 18
_symmetry_cell_setting 'orthorhombic'
loop_
_space_group_symop_operation_xyz
x,y,z
-x,-y,z
1/2+x,1/2-y,-z
1/2-x,1/2+y,-z
loop_
_atom_site_type_symbol
_atom_site_label
_atom_site_fract_x
_atom_site_fract_y
_atom_site_fract_z
Si Si1 0.179772 0.986746 0.763711
Si Si2 0.333288 0.076862 0.556614
Si Si3 0.302551 0.316441 0.864904
Si Si4 0.326938 0.441466 0.639227
Si Si5 0.102953 0.340030 0.078643
O O1 0.217573 0.985704 0.637383
O O2 0.253542 0.147754 0.812262
O O3 0.271270 0.848758 0.826420
O O4 0.000000 0.000000 0.783240
O O5 0.325129 0.261511 0.590790
O O6 0.500000 0.000000 0.575516
O O7 0.282755 0.047892 0.434498
O O8 0.284198 0.436436 0.765284
O O9 0.479160 0.299547 0.903098
O O10 0.194685 0.340148 0.967195
O O11 0.500000 0.500000 0.629697
O O12 0.000000 0.500000 0.080218
#
# Coordination Sequence:
#
# PCOD9312064 Si02
#       5
#     4   4   4   4   4
#     4  10  20  37  61  86 119 166 215 268 335 397
#     4  11  23  42  64  91 129 170 219 275 332 401
#     4  10  22  39  61  92 126 168 219 271 333 403
#     4  11  24  42  64  94 129 173 224 275 335 398
#     4  10  21  38  60  89 127 167 216 275 337 403
#
# _framework density 22.079433999999999
#
# number of rings (size 3 to 8) (size 9 to 14) (size 15 to 20)
#    0.000    1.600    0.000    6.000    0.000    6.400 
#    0.000    2.000    0.000    0.000    0.000    0.000 
#    0.000    0.000    0.000    0.000    0.000    0.000 
#
# Total GULP energy -111836.812507 kJ/mol
# GULP energy per Si atom -5591.840625 kJ/mol
# Density = 2.202918 g / cm^3
# Si number density = 22.079434 Si / 1000 Ang^3
#
#
#
# Elastic Constant Matrix: (Units=GPa)
#
#
# Indices 1 2 3 4 5 6 
#
# 1 129.7170 10.9279 64.7797 0.0000 0.0000 0.0000
# 2 10.9279 46.1848 31.6540 0.0000 0.0000 0.0000
# 3 64.7797 31.6540 160.6969 0.0000 0.0000 0.0000
# 4 0.0000 0.0000 0.0000 18.8543 0.0000 0.0000
# 5 0.0000 0.0000 0.0000 0.0000 32.8219 0.0000
# 6 0.0000 0.0000 0.0000 0.0000 0.0000 22.9764
#
#
#
# Elastic Compliance Matrix: (Units=1/GPa)
#
#
# Indices 1 2 3 4 5 6 
#
# 1 0.009660 0.000443 -0.003981 0.000000 0.000000 0.000000
# 2 0.000443 0.025052 -0.005113 0.000000 0.000000 0.000000
# 3 -0.003981 -0.005113 0.008835 0.000000 0.000000 0.000000
# 4 0.000000 0.000000 0.000000 0.053038 0.000000 0.000000
# 5 0.000000 0.000000 0.000000 0.000000 0.030467 0.000000
# 6 0.000000 0.000000 0.000000 0.000000 0.000000 0.043523
#
#
# Mechanical properties :
#
#
# Convention : Reuss Voigt Hill
#
# Bulk Modulus (GPa) = 38.10436 61.25798 49.68117
# Shear Modulus (GPa) = 25.42888 30.21300 27.82094
#
# Velocity S-wave (km/s) = 3.39735 3.70317 3.55355
# Velocity P-wave (km/s) = 5.71705 6.78891 6.27590
#
# Compressibility (1/GPa) = 0.02624371
#
# Stress axis : x y z
#
# Youngs Moduli (GPa) = 103.51911 39.91720 113.18500
#
# Poissons Ratio (x) = -0.01769 0.45064
# Poissons Ratio (y) = -0.04587 0.57875
# Poissons Ratio (z) = 0.41215 0.20411
#
# Static dielectric constant tensor:
#      x y z
#    x 1.797080 0.000000 0.000000 
#    y 0.000000 1.862250 0.000000 
#    z 0.000000 0.000000 1.817570 
# 
# From -- ./inp_files/5399.got.cif
#   From: 2010.05.17/outbox.cif.g08.bks.cpg/sg18_3_cif.got.tgz:5399.got - 2010.06.03 22:40:56.
