data_PCOD9312579
_publ_section_title
;
Structure prediction by ZEFSAII (Michael W. Deem and Ramdas Pophale) SiO2 
 PCOD9312579
Probable space group: P 21 21 2
;
_chemical_formula_sum "Si O2"
_cell_formula_units_Z 26
_cell_length_a 20.660847
_cell_length_b 6.037257
_cell_length_c 8.573228
_cell_angle_alpha 90.000000
_cell_angle_beta 90.000000
_cell_angle_gamma 90.000000
_cell_volume 1069.380250
_symmetry_space_group_name_H-M "P 21 21 2"
_symmetry_group_IT_number 18
_symmetry_cell_setting 'orthorhombic'
loop_
_space_group_symop_operation_xyz
x,y,z
-x,-y,z
1/2+x,1/2-y,-z
1/2-x,1/2+y,-z
loop_
_atom_site_type_symbol
_atom_site_label
_atom_site_fract_x
_atom_site_fract_y
_atom_site_fract_z
Si Si1 0.088481 0.071642 0.973672
Si Si2 0.686570 0.700051 0.234277
Si Si3 0.597699 0.093007 0.275420
Si Si4 0.850246 0.938626 0.481663
Si Si5 0.827196 0.636973 0.203580
Si Si6 0.000000 0.500000 0.478802
Si Si7 0.069494 0.766485 0.248937
O O1 0.137892 0.197751 0.086397
O O2 0.055270 0.888088 0.086186
O O3 0.062377 0.279340 0.868095
O O4 0.128251 0.920521 0.854592
O O5 0.687984 0.611902 0.412106
O O6 0.752475 0.613524 0.153162
O O7 0.662562 0.956853 0.229224
O O8 0.613169 0.287977 0.395183
O O9 0.555609 0.944189 0.394456
O O10 0.816782 0.764122 0.367313
O O11 0.895598 0.070173 0.366258
O O12 0.877045 0.431037 0.222751
O O13 0.006312 0.692091 0.347463
#
# Coordination Sequence:
#
# PCOD9312579 Si02
#       7
#     4   4   4   4   4   2   4
#     4  10  26  44  71 106 146 187 250 300 378 438
#     4  11  24  41  71 103 149 189 241 299 370 443
#     4  11  24  48  70 108 140 193 245 302 371 432
#     4  10  22  40  68 104 135 179 238 298 358 432
#     4  11  24  41  71 103 149 189 241 299 370 443
#     4  12  24  48  86  96 156 194 256 316 356 446
#     4  11  24  48  70 108 140 193 245 302 371 432
#
# _framework density 24.313144999999999
#
# number of rings (size 3 to 8) (size 9 to 14) (size 15 to 20)
#    0.000    1.231    3.077    0.923    8.615    3.077 
#    0.000    4.615    0.000    0.000    0.000    0.000 
#    0.000    0.000    0.000    0.000    0.000    0.000 
#
# Total GULP energy -144757.668890 kJ/mol
# GULP energy per Si atom -5567.602650 kJ/mol
# Density = 2.425781 g / cm^3
# Si number density = 24.313145 Si / 1000 Ang^3
#
#
#
# Elastic Constant Matrix: (Units=GPa)
#
#
# Indices 1 2 3 4 5 6 
#
# 1 51.4105 21.9595 10.6338 0.0000 0.0000 0.0000
# 2 21.9595 91.8391 53.2275 0.0000 0.0000 0.0000
# 3 10.6338 53.2275 117.4250 0.0000 0.0000 0.0000
# 4 0.0000 0.0000 0.0000 67.5427 0.0000 0.0000
# 5 0.0000 0.0000 0.0000 0.0000 13.7849 0.0000
# 6 0.0000 0.0000 0.0000 0.0000 0.0000 -19.8091
#
#
#
# Elastic Compliance Matrix: (Units=1/GPa)
#
#
# Indices 1 2 3 4 5 6 
#
# 1 0.021688 -0.005490 0.000524 0.000000 0.000000 0.000000
# 2 -0.005490 0.016158 -0.006827 0.000000 0.000000 0.000000
# 3 0.000524 -0.006827 0.011563 0.000000 0.000000 0.000000
# 4 0.000000 0.000000 0.000000 0.014805 0.000000 0.000000
# 5 0.000000 0.000000 0.000000 0.000000 0.072543 0.000000
# 6 0.000000 0.000000 0.000000 0.000000 0.000000 -0.050482
#
#
# Mechanical properties :
#
#
# Convention : Reuss Voigt Hill
#
# Bulk Modulus (GPa) = 38.72332 48.03511 43.37921
# Shear Modulus (GPa) = 42.20520 23.96060 33.08290
#
# Velocity S-wave (km/s) = 4.17093 3.14267 3.69277
# Velocity P-wave (km/s) = 6.25756 5.74180 6.00522
#
# Compressibility (1/GPa) = 0.02582424
#
# Stress axis : x y z
#
# Youngs Moduli (GPa) = 46.10918 61.88865 86.48082
#
# Poissons Ratio (x) = 0.33974 -0.04535
# Poissons Ratio (y) = 0.25312 0.59042
# Poissons Ratio (z) = -0.02418 0.42252
#
# Static dielectric constant tensor:
#      x y z
#    x 1.903420 0.000000 0.000000 
#    y 0.000000 2.036100 0.000000 
#    z 0.000000 0.000000 1.949230 
# 
# From -- ./inp_files/4739.got.cif
#   From: 2010.05.17/outbox.cif.g08.bks.cpg/sg18_3_cif.got.tgz:4739.got - 2010.06.03 22:40:56.
