data_PCOD9312543
_publ_section_title
;
Structure prediction by ZEFSAII (Michael W. Deem and Ramdas Pophale) SiO2 
 PCOD9312543
Probable space group: P 21 21 2
;
_chemical_formula_sum "Si O2"
_cell_formula_units_Z 24
_cell_length_a 8.232466
_cell_length_b 13.796665
_cell_length_c 9.851198
_cell_angle_alpha 90.000000
_cell_angle_beta 90.000000
_cell_angle_gamma 90.000000
_cell_volume 1118.904738
_symmetry_space_group_name_H-M "P 21 21 2"
_symmetry_group_IT_number 18
_symmetry_cell_setting 'orthorhombic'
loop_
_space_group_symop_operation_xyz
x,y,z
-x,-y,z
1/2+x,1/2-y,-z
1/2-x,1/2+y,-z
loop_
_atom_site_type_symbol
_atom_site_label
_atom_site_fract_x
_atom_site_fract_y
_atom_site_fract_z
Si Si1 0.382416 0.729950 0.588559
Si Si2 0.156866 0.229054 0.907534
Si Si3 0.790871 0.175989 0.835578
Si Si4 0.188868 0.024395 0.499438
Si Si5 0.245348 0.829500 0.344868
Si Si6 0.314803 0.032179 0.802303
O O1 0.279177 0.799250 0.686541
O O2 0.307207 0.622945 0.585577
O O3 0.371123 0.768706 0.435565
O O4 0.568331 0.717599 0.630746
O O5 0.217784 0.316355 0.811908
O O6 0.972743 0.208840 0.865436
O O7 0.260699 0.132494 0.871651
O O8 0.177915 0.264271 0.060658
O O9 0.785516 0.060565 0.853989
O O10 0.248055 0.936421 0.406544
O O11 0.282630 0.039006 0.640365
O O12 0.000000 0.000000 0.534133
O O13 0.500000 0.000000 0.825306
#
# Coordination Sequence:
#
# PCOD9312543 Si02
#       6
#     4   4   4   4   4   4
#     4  11  22  39  64  96 130 170 219 269 323 382
#     4  12  26  45  67  95 134 175 220 272 330 392
#     4  12  26  45  67  95 134 175 220 272 330 392
#     4  10  22  39  64  95 132 172 216 268 326 383
#     4  11  22  39  64  96 130 170 219 269 323 382
#     4  12  24  41  68  97 128 170 220 268 330 397
#
# _framework density 21.449546000000002
#
# number of rings (size 3 to 8) (size 9 to 14) (size 15 to 20)
#    0.000    0.667    3.333    5.500    0.000    2.667 
#    0.000    5.000    0.000    0.000    0.000    0.000 
#    0.000    0.000    0.000    0.000    0.000    0.000 
#
# Total GULP energy -134323.989026 kJ/mol
# GULP energy per Si atom -5596.832876 kJ/mol
# Density = 2.140073 g / cm^3
# Si number density = 21.449546 Si / 1000 Ang^3
#
#
#
# Elastic Constant Matrix: (Units=GPa)
#
#
# Indices 1 2 3 4 5 6 
#
# 1 29.9942 -25.6810 4.6311 0.0000 0.0000 0.0000
# 2 -25.6810 78.4533 10.6985 0.0000 0.0000 0.0000
# 3 4.6311 10.6985 50.7072 0.0000 0.0000 0.0000
# 4 0.0000 0.0000 0.0000 16.8457 0.0000 0.0000
# 5 0.0000 0.0000 0.0000 0.0000 27.5297 0.0000
# 6 0.0000 0.0000 0.0000 0.0000 0.0000 27.0370
#
#
#
# Elastic Compliance Matrix: (Units=1/GPa)
#
#
# Indices 1 2 3 4 5 6 
#
# 1 0.049396 0.017282 -0.008158 0.000000 0.000000 0.000000
# 2 0.017282 0.019170 -0.005623 0.000000 0.000000 0.000000
# 3 -0.008158 -0.005623 0.021652 0.000000 0.000000 0.000000
# 4 0.000000 0.000000 0.000000 0.059362 0.000000 0.000000
# 5 0.000000 0.000000 0.000000 0.000000 0.036324 0.000000
# 6 0.000000 0.000000 0.000000 0.000000 0.000000 0.036986
#
#
# Mechanical properties :
#
#
# Convention : Reuss Voigt Hill
#
# Bulk Modulus (GPa) = 10.28584 15.38356 12.83470
# Shear Modulus (GPa) = 20.13722 25.58289 22.86005
#
# Velocity S-wave (km/s) = 3.06734 3.45730 3.26814
# Velocity P-wave (km/s) = 4.16540 4.80882 4.49863
#
# Compressibility (1/GPa) = 0.09722102
#
# Stress axis : x y z
#
# Youngs Moduli (GPa) = 20.24457 52.16414 46.18413
#
# Poissons Ratio (x) = -0.90149 0.37675
# Poissons Ratio (y) = -0.34986 0.25969
# Poissons Ratio (z) = 0.16515 0.29332
#
# Static dielectric constant tensor:
#      x y z
#    x 1.801600 0.000000 0.000000 
#    y 0.000000 1.772090 0.000000 
#    z 0.000000 0.000000 1.713240 
# 
# From -- ./inp_files/3149.got.cif
#   From: 2010.05.17/outbox.cif.g08.bks.cpg/sg18_2_cif.got.tgz:3149.got - 2010.06.03 22:40:56.
