data_PCOD9312045
_publ_section_title
;
Structure prediction by ZEFSAII (Michael W. Deem and Ramdas Pophale) SiO2 
 PCOD9312045
Probable space group: P 21 21 2
;
_chemical_formula_sum "Si O2"
_cell_formula_units_Z 30
_cell_length_a 4.942634
_cell_length_b 21.125430
_cell_length_c 12.297878
_cell_angle_alpha 90.000000
_cell_angle_beta 90.000000
_cell_angle_gamma 90.000000
_cell_volume 1284.086234
_symmetry_space_group_name_H-M "P 21 21 2"
_symmetry_group_IT_number 18
_symmetry_cell_setting 'orthorhombic'
loop_
_space_group_symop_operation_xyz
x,y,z
-x,-y,z
1/2+x,1/2-y,-z
1/2-x,1/2+y,-z
loop_
_atom_site_type_symbol
_atom_site_label
_atom_site_fract_x
_atom_site_fract_y
_atom_site_fract_z
Si Si1 0.221297 0.850048 0.911398
Si Si2 0.500000 0.000000 0.284151
Si Si3 0.167610 0.631207 0.381881
Si Si4 0.536556 0.134749 0.383534
Si Si5 0.562209 0.337618 0.747691
Si Si6 0.098248 0.938395 0.106437
Si Si7 0.347863 0.433776 0.301418
Si Si8 0.773435 0.283370 0.171198
O O1 0.213838 0.889125 0.021659
O O2 0.138839 0.897291 0.813336
O O3 0.522986 0.826229 0.897441
O O4 0.014541 0.791935 0.887510
O O5 0.445899 0.061222 0.361512
O O6 0.716306 0.030785 0.200505
O O7 0.038140 0.652586 0.494331
O O8 0.466195 0.602299 0.390127
O O9 0.202215 0.686391 0.292539
O O10 0.962175 0.576900 0.336885
O O11 0.844835 0.143259 0.345493
O O12 0.346603 0.178302 0.306525
O O13 0.408834 0.284689 0.816612
O O14 0.616319 0.397045 0.826514
O O15 0.000000 0.000000 0.042796
O O16 0.500000 0.500000 0.289467
#
# Coordination Sequence:
#
# PCOD9312045 Si02
#       8
#     4   2   4   4   4   4   4   4
#     4  10  23  39  65  87 124 160 206 255 315 366
#     4  10  24  40  60  90 130 156 210 256 306 382
#     4  10  22  38  60  88 128 160 210 253 311 364
#     4  11  23  40  61  93 119 172 202 254 314 362
#     4  11  24  41  65  89 129 162 212 256 305 361
#     4  11  23  42  63  91 125 163 204 257 312 375
#     4  10  20  37  55  90 120 161 202 258 308 373
#     4  10  23  43  61  95 124 161 210 261 298 377
#
# _framework density 23.362915000000001
#
# number of rings (size 3 to 8) (size 9 to 14) (size 15 to 20)
#    0.000    1.600    1.333    2.400    3.733    2.133 
#    2.400    0.000    0.000    0.000    0.000    0.000 
#    0.000    0.000    0.000    0.000    0.000    0.000 
#
# Total GULP energy -167446.665950 kJ/mol
# GULP energy per Si atom -5581.555532 kJ/mol
# Density = 2.330974 g / cm^3
# Si number density = 23.362915 Si / 1000 Ang^3
#
#
#
# Elastic Constant Matrix: (Units=GPa)
#
#
# Indices 1 2 3 4 5 6 
#
# 1 66.2260 -17.1140 -4.1701 0.0000 0.0000 0.0000
# 2 -17.1140 58.0818 5.5747 0.0000 0.0000 0.0000
# 3 -4.1701 5.5747 66.2893 0.0000 0.0000 0.0000
# 4 0.0000 0.0000 0.0000 16.6264 0.0000 0.0000
# 5 0.0000 0.0000 0.0000 0.0000 17.4136 0.0000
# 6 0.0000 0.0000 0.0000 0.0000 0.0000 22.6205
#
#
#
# Elastic Compliance Matrix: (Units=1/GPa)
#
#
# Indices 1 2 3 4 5 6 
#
# 1 0.016370 0.004763 0.000629 0.000000 0.000000 0.000000
# 2 0.004763 0.018743 -0.001277 0.000000 0.000000 0.000000
# 3 0.000629 -0.001277 0.015232 0.000000 0.000000 0.000000
# 4 0.000000 0.000000 0.000000 0.060145 0.000000 0.000000
# 5 0.000000 0.000000 0.000000 0.000000 0.057426 0.000000
# 6 0.000000 0.000000 0.000000 0.000000 0.000000 0.044208
#
#
# Mechanical properties :
#
#
# Convention : Reuss Voigt Hill
#
# Bulk Modulus (GPa) = 17.07143 17.68649 17.37896
# Shear Modulus (GPa) = 22.37945 25.08587 23.73266
#
# Velocity S-wave (km/s) = 3.09836 3.28036 3.19066
# Velocity P-wave (km/s) = 4.48584 4.68343 4.58569
#
# Compressibility (1/GPa) = 0.05857739
#
# Stress axis : x y z
#
# Youngs Moduli (GPa) = 61.08613 53.35297 65.64987
#
# Poissons Ratio (x) = -0.25413 -0.04131
# Poissons Ratio (y) = -0.29096 0.08381
# Poissons Ratio (z) = -0.03844 0.06811
#
# Static dielectric constant tensor:
#      x y z
#    x 1.876180 0.000000 0.000000 
#    y 0.000000 1.945210 0.000000 
#    z 0.000000 0.000000 1.867550 
# 
# From -- ./inp_files/5236.got.cif
#   From: 2010.05.17/outbox.cif.g08.bks.cpg/sg18_3_cif.got.tgz:5236.got - 2010.06.03 22:40:56.
