data_PCOD9312189
_publ_section_title
;
Structure prediction by ZEFSAII (Michael W. Deem and Ramdas Pophale) SiO2 
 PCOD9312189
Probable space group: P 21 21 2
;
_chemical_formula_sum "Si O2"
_cell_formula_units_Z 32
_cell_length_a 16.788836
_cell_length_b 7.812135
_cell_length_c 11.289070
_cell_angle_alpha 90.000000
_cell_angle_beta 90.000000
_cell_angle_gamma 90.000000
_cell_volume 1480.636640
_symmetry_space_group_name_H-M "P 21 21 2"
_symmetry_group_IT_number 18
_symmetry_cell_setting 'orthorhombic'
loop_
_space_group_symop_operation_xyz
x,y,z
-x,-y,z
1/2+x,1/2-y,-z
1/2-x,1/2+y,-z
loop_
_atom_site_type_symbol
_atom_site_label
_atom_site_fract_x
_atom_site_fract_y
_atom_site_fract_z
Si Si1 0.863016 0.166981 0.333839
Si Si2 0.984319 0.309488 0.173373
Si Si3 0.825306 0.314690 0.726716
Si Si4 0.811132 0.702632 0.665942
Si Si5 0.118235 0.166395 0.900647
Si Si6 0.560380 0.719777 0.083126
Si Si7 0.091183 0.987211 0.577106
Si Si8 0.344379 0.656535 0.825160
O O1 0.923766 0.302908 0.281459
O O2 0.778681 0.239548 0.374221
O O3 0.902754 0.064890 0.440450
O O4 0.843418 0.034875 0.227356
O O5 0.000000 0.500000 0.132821
O O6 0.068568 0.227919 0.208636
O O7 0.944999 0.221002 0.058999
O O8 0.824883 0.498380 0.660432
O O9 0.879172 0.338791 0.845343
O O10 0.735722 0.265885 0.768148
O O11 0.863572 0.163399 0.648871
O O12 0.823013 0.762953 0.801954
O O13 0.869461 0.827630 0.595706
O O14 0.031738 0.255450 0.884658
O O15 0.092942 0.968658 0.884384
O O16 0.154234 0.178358 0.032536
O O17 0.000000 0.000000 0.616943
#
# Coordination Sequence:
#
# PCOD9312189 Si02
#       8
#     4   4   4   4   4   4   4   4
#     4  11  26  49  71 100 140 188 244 298 351 432
#     4  11  24  41  68 107 142 189 240 293 358 439
#     4  11  26  43  70 106 142 184 240 299 352 435
#     4  11  27  45  74 106 141 181 242 295 360 434
#     4  10  20  40  68  98 139 192 221 283 366 427
#     4  10  21  39  66  98 147 181 229 285 355 427
#     4  12  27  51  76  99 142 197 235 304 368 419
#     4  10  23  43  67  98 142 189 230 293 363 426
#
# _framework density 21.612324999999998
#
# number of rings (size 3 to 8) (size 9 to 14) (size 15 to 20)
#    0.000    1.250    2.500    1.875   10.500    1.500 
#    4.500    0.000    0.000    0.000    0.000    0.000 
#    0.000    0.000    0.000    0.000    0.000    0.000 
#
# Total GULP energy -178718.693585 kJ/mol
# GULP energy per Si atom -5584.959175 kJ/mol
# Density = 2.156313 g / cm^3
# Si number density = 21.612325 Si / 1000 Ang^3
#
#
#
# Elastic Constant Matrix: (Units=GPa)
#
#
# Indices 1 2 3 4 5 6 
#
# 1 94.7910 26.9717 23.8883 0.0000 0.0000 0.0000
# 2 26.9717 38.4528 -4.8931 0.0000 0.0000 0.0000
# 3 23.8883 -4.8931 48.2143 0.0000 0.0000 0.0000
# 4 0.0000 0.0000 0.0000 26.7965 0.0000 0.0000
# 5 0.0000 0.0000 0.0000 0.0000 23.9321 0.0000
# 6 0.0000 0.0000 0.0000 0.0000 0.0000 32.4820
#
#
#
# Elastic Compliance Matrix: (Units=1/GPa)
#
#
# Indices 1 2 3 4 5 6 
#
# 1 0.016614 -0.012867 -0.009538 0.000000 0.000000 0.000000
# 2 -0.012867 0.036312 0.010060 0.000000 0.000000 0.000000
# 3 -0.009538 0.010060 0.026487 0.000000 0.000000 0.000000
# 4 0.000000 0.000000 0.000000 0.037318 0.000000 0.000000
# 5 0.000000 0.000000 0.000000 0.000000 0.041785 0.000000
# 6 0.000000 0.000000 0.000000 0.000000 0.000000 0.030786
#
#
# Mechanical properties :
#
#
# Convention : Reuss Voigt Hill
#
# Bulk Modulus (GPa) = 18.27352 30.37688 24.32520
# Shear Modulus (GPa) = 21.53009 25.67486 23.60247
#
# Velocity S-wave (km/s) = 3.15968 3.45044 3.30825
# Velocity P-wave (km/s) = 4.66743 5.47356 5.08649
#
# Compressibility (1/GPa) = 0.05472399
#
# Stress axis : x y z
#
# Youngs Moduli (GPa) = 60.18890 27.53944 37.75402
#
# Poissons Ratio (x) = 0.35436 0.36008
# Poissons Ratio (y) = 0.77447 -0.37982
# Poissons Ratio (z) = 0.57406 -0.27706
#
# Static dielectric constant tensor:
#      x y z
#    x 1.910580 0.000000 0.000000 
#    y 0.000000 1.796300 0.000000 
#    z 0.000000 0.000000 1.804560 
# 
# From -- ./inp_files/6157.got.cif
#   From: 2010.05.17/outbox.cif.g08.bks.cpg/sg18_4_cif.got.tgz:6157.got - 2010.06.03 22:40:56.
