data_PCOD9312329
_publ_section_title
;
Structure prediction by ZEFSAII (Michael W. Deem and Ramdas Pophale) SiO2 
 PCOD9312329
Probable space group: P 21 21 2
;
_chemical_formula_sum "Si O2"
_cell_formula_units_Z 22
_cell_length_a 12.090327
_cell_length_b 5.211870
_cell_length_c 15.856936
_cell_angle_alpha 90.000000
_cell_angle_beta 90.000000
_cell_angle_gamma 90.000000
_cell_volume 999.196479
_symmetry_space_group_name_H-M "P 21 21 2"
_symmetry_group_IT_number 18
_symmetry_cell_setting 'orthorhombic'
loop_
_space_group_symop_operation_xyz
x,y,z
-x,-y,z
1/2+x,1/2-y,-z
1/2-x,1/2+y,-z
loop_
_atom_site_type_symbol
_atom_site_label
_atom_site_fract_x
_atom_site_fract_y
_atom_site_fract_z
Si Si1 0.841599 0.602127 0.072076
Si Si2 0.277294 0.646744 0.451583
Si Si3 0.094728 0.681090 0.338054
Si Si4 0.000000 0.000000 0.491808
Si Si5 0.884726 0.858880 0.905093
Si Si6 0.679458 0.616368 0.826755
O O1 0.846318 0.845753 0.132689
O O2 0.708329 0.558710 0.059644
O O3 0.878280 0.343314 0.118938
O O4 0.897817 0.668577 0.984110
O O5 0.243174 0.443496 0.524652
O O6 0.208482 0.556472 0.370695
O O7 0.406923 0.612698 0.449002
O O8 0.132988 0.878282 0.267498
O O9 0.000000 0.500000 0.302899
O O10 0.045231 0.791566 0.425220
O O11 0.809784 0.703606 0.835737
O O12 0.000000 0.000000 0.882517
#
# Coordination Sequence:
#
# PCOD9312329 Si02
#       6
#     4   4   4   2   4   4
#     4  10  21  42  58  95 120 165 220 259 306 386
#     4  10  21  39  62  91 124 161 216 245 309 396
#     4  11  23  40  65  95 132 169 207 275 329 377
#     4  10  22  40  68  92 128 176 206 262 326 384
#     4  10  21  41  66  82 129 173 213 264 318 374
#     4  10  23  39  57  91 132 156 217 264 316 381
#
# _framework density 22.017692
#
# number of rings (size 3 to 8) (size 9 to 14) (size 15 to 20)
#    1.091    0.727    3.636    0.000    2.545    2.182 
#    1.636    0.000    0.000    8.727    0.000    0.000 
#    0.000    0.000    0.000    0.000    0.000    0.000 
#
# Total GULP energy -122613.278923 kJ/mol
# GULP energy per Si atom -5573.330860 kJ/mol
# Density = 2.196758 g / cm^3
# Si number density = 22.017692 Si / 1000 Ang^3
#
#
#
# Elastic Constant Matrix: (Units=GPa)
#
#
# Indices 1 2 3 4 5 6 
#
# 1 98.5450 16.5845 37.8614 0.0000 0.0000 0.0000
# 2 16.5845 90.4197 11.9723 0.0000 0.0000 0.0000
# 3 37.8614 11.9723 44.7821 0.0000 0.0000 0.0000
# 4 0.0000 0.0000 0.0000 28.0685 0.0000 0.0000
# 5 0.0000 0.0000 0.0000 0.0000 6.7186 0.0000
# 6 0.0000 0.0000 0.0000 0.0000 0.0000 19.6702
#
#
#
# Elastic Compliance Matrix: (Units=1/GPa)
#
#
# Indices 1 2 3 4 5 6 
#
# 1 0.015139 -0.001122 -0.012499 0.000000 0.000000 0.000000
# 2 -0.001122 0.011549 -0.002139 0.000000 0.000000 0.000000
# 3 -0.012499 -0.002139 0.033470 0.000000 0.000000 0.000000
# 4 0.000000 0.000000 0.000000 0.035627 0.000000 0.000000
# 5 0.000000 0.000000 0.000000 0.000000 0.148842 0.000000
# 6 0.000000 0.000000 0.000000 0.000000 0.000000 0.050838
#
#
# Mechanical properties :
#
#
# Convention : Reuss Voigt Hill
#
# Bulk Modulus (GPa) = 34.91995 40.73146 37.82571
# Shear Modulus (GPa) = 14.85753 22.04670 18.45212
#
# Velocity S-wave (km/s) = 2.60051 3.16779 2.89806
# Velocity P-wave (km/s) = 4.99112 5.64973 5.33061
#
# Compressibility (1/GPa) = 0.02863692
#
# Stress axis : x y z
#
# Youngs Moduli (GPa) = 66.05605 86.59130 29.87772
#
# Poissons Ratio (x) = 0.09713 0.37345
# Poissons Ratio (y) = 0.07409 0.06391
# Poissons Ratio (z) = 0.82565 0.18523
#
# Static dielectric constant tensor:
#      x y z
#    x 1.939920 0.000000 0.000000 
#    y 0.000000 1.851700 0.000000 
#    z 0.000000 0.000000 1.788800 
# 
# From -- ./inp_files/6950.got.cif
#   From: 2010.05.17/outbox.cif.g08.bks.cpg/sg18_4_cif.got.tgz:6950.got - 2010.06.03 22:40:56.
