data_PCOD9312236
_publ_section_title
;
Structure prediction by ZEFSAII (Michael W. Deem and Ramdas Pophale) SiO2 
 PCOD9312236
Probable space group: P 21 21 2
;
_chemical_formula_sum "Si O2"
_cell_formula_units_Z 18
_cell_length_a 12.064454
_cell_length_b 7.592424
_cell_length_c 8.463691
_cell_angle_alpha 90.000000
_cell_angle_beta 90.000000
_cell_angle_gamma 90.000000
_cell_volume 775.260978
_symmetry_space_group_name_H-M "P 21 21 2"
_symmetry_group_IT_number 18
_symmetry_cell_setting 'orthorhombic'
loop_
_space_group_symop_operation_xyz
x,y,z
-x,-y,z
1/2+x,1/2-y,-z
1/2-x,1/2+y,-z
loop_
_atom_site_type_symbol
_atom_site_label
_atom_site_fract_x
_atom_site_fract_y
_atom_site_fract_z
Si Si1 0.251652 0.356515 0.690795
Si Si2 0.829599 0.289017 0.630369
Si Si3 0.000000 0.500000 0.413468
Si Si4 0.521731 0.212159 0.155295
Si Si5 0.013066 0.804296 0.197262
O O1 0.246835 0.567789 0.717822
O O2 0.273198 0.327820 0.503676
O O3 0.354297 0.272801 0.786032
O O4 0.136104 0.273636 0.748497
O O5 0.916192 0.205392 0.752926
O O6 0.910103 0.413405 0.525566
O O7 0.956307 0.654924 0.301895
O O8 0.500000 0.000000 0.138749
O O9 0.527348 0.290493 0.980992
O O10 0.000000 0.000000 0.263895
#
# Coordination Sequence:
#
# PCOD9312236 Si02
#       5
#     4   4   2   4   4
#     4  10  23  39  65  96 123 179 216 262 338 381
#     4  10  21  40  67  91 129 173 220 270 324 385
#     4  10  20  44  64  88 134 172 196 286 316 372
#     4  10  21  44  62  89 138 172 215 266 333 391
#     4  11  25  40  65  99 132 167 222 268 318 396
#
# _framework density 23.217988999999999
#
# number of rings (size 3 to 8) (size 9 to 14) (size 15 to 20)
#    0.000    1.778    4.444    0.000    3.111    5.333 
#    0.000    1.111    0.000    0.000    0.000    0.000 
#    0.000    0.000    0.000    0.000    0.000    0.000 
#
# Total GULP energy -100581.131148 kJ/mol
# GULP energy per Si atom -5587.840619 kJ/mol
# Density = 2.316514 g / cm^3
# Si number density = 23.217989 Si / 1000 Ang^3
#
#
#
# Elastic Constant Matrix: (Units=GPa)
#
#
# Indices 1 2 3 4 5 6 
#
# 1 51.4008 -18.7554 -9.9160 0.0000 0.0000 0.0000
# 2 -18.7554 52.3260 0.1864 0.0000 0.0000 0.0000
# 3 -9.9160 0.1864 75.6030 0.0000 0.0000 0.0000
# 4 0.0000 0.0000 0.0000 27.4513 0.0000 0.0000
# 5 0.0000 0.0000 0.0000 0.0000 35.6310 0.0000
# 6 0.0000 0.0000 0.0000 0.0000 0.0000 28.2777
#
#
#
# Elastic Compliance Matrix: (Units=1/GPa)
#
#
# Indices 1 2 3 4 5 6 
#
# 1 0.023044 0.008249 0.003002 0.000000 0.000000 0.000000
# 2 0.008249 0.022064 0.001028 0.000000 0.000000 0.000000
# 3 0.003002 0.001028 0.013618 0.000000 0.000000 0.000000
# 4 0.000000 0.000000 0.000000 0.036428 0.000000 0.000000
# 5 0.000000 0.000000 0.000000 0.000000 0.028065 0.000000
# 6 0.000000 0.000000 0.000000 0.000000 0.000000 0.035364
#
#
# Mechanical properties :
#
#
# Convention : Reuss Voigt Hill
#
# Bulk Modulus (GPa) = 12.00716 13.59554 12.80135
# Shear Modulus (GPa) = 30.90477 32.12631 31.51554
#
# Velocity S-wave (km/s) = 3.65234 3.72382 3.68826
# Velocity P-wave (km/s) = 4.79258 4.93533 4.86448
#
# Compressibility (1/GPa) = 0.08328363
#
# Stress axis : x y z
#
# Youngs Moduli (GPa) = 43.39516 45.32265 73.43109
#
# Poissons Ratio (x) = -0.37387 -0.22045
# Poissons Ratio (y) = -0.35797 -0.07545
# Poissons Ratio (z) = -0.13028 -0.04657
#
# Static dielectric constant tensor:
#      x y z
#    x 1.950010 0.000000 0.000000 
#    y 0.000000 1.936900 0.000000 
#    z 0.000000 0.000000 1.841010 
# 
# From -- ./inp_files/2880.got.cif
#   From: 2010.05.17/outbox.cif.g08.bks.cpg/sg18_2_cif.got.tgz:2880.got - 2010.06.03 22:40:56.
