data_PCOD9312104
_publ_section_title
;
Structure prediction by ZEFSAII (Michael W. Deem and Ramdas Pophale) SiO2 
 PCOD9312104
Probable space group: P 21 21 2
;
_chemical_formula_sum "Si O2"
_cell_formula_units_Z 30
_cell_length_a 20.219709
_cell_length_b 10.516601
_cell_length_c 6.184512
_cell_angle_alpha 90.000000
_cell_angle_beta 90.000000
_cell_angle_gamma 90.000000
_cell_volume 1315.090785
_symmetry_space_group_name_H-M "P 21 21 2"
_symmetry_group_IT_number 18
_symmetry_cell_setting 'orthorhombic'
loop_
_space_group_symop_operation_xyz
x,y,z
-x,-y,z
1/2+x,1/2-y,-z
1/2-x,1/2+y,-z
loop_
_atom_site_type_symbol
_atom_site_label
_atom_site_fract_x
_atom_site_fract_y
_atom_site_fract_z
Si Si1 0.491097 0.249405 0.186957
Si Si2 0.274367 0.728111 0.882515
Si Si3 0.631140 0.175423 0.264778
Si Si4 0.134447 0.661263 0.084837
Si Si5 0.676074 0.414802 0.508827
Si Si6 0.000000 0.000000 0.084913
Si Si7 0.693572 0.027159 0.627563
Si Si8 0.090172 0.860596 0.423495
O O1 0.555147 0.160805 0.200408
O O2 0.462179 0.295285 0.417206
O O3 0.430600 0.186154 0.056576
O O4 0.514551 0.377754 0.062610
O O5 0.308301 0.608449 0.762008
O O6 0.274567 0.841471 0.707969
O O7 0.319662 0.780947 0.075673
O O8 0.200773 0.694526 0.954940
O O9 0.633514 0.296915 0.426310
O O10 0.659000 0.056707 0.399675
O O11 0.143233 0.523056 0.191330
O O12 0.128848 0.754594 0.290625
O O13 0.747930 0.425430 0.398912
O O14 0.638643 0.544322 0.453453
O O15 0.943448 0.048551 0.245472
#
# Coordination Sequence:
#
# PCOD9312104 Si02
#       8
#     4   4   4   4   4   2   4   4
#     4  11  24  42  69  99 147 187 231 286 362 418
#     4  11  25  44  72  99 136 179 236 288 353 414
#     4  11  24  44  68 102 136 188 232 293 351 416
#     4  11  26  43  68 103 136 186 238 286 350 426
#     4  11  23  40  72 101 134 171 232 296 351 411
#     4  10  20  38  64 102 136 174 230 286 350 422
#     4  11  26  43  68 102 139 179 235 285 351 419
#     4  11  23  40  69 101 136 177 229 296 352 411
#
# _framework density 22.812111000000002
#
# number of rings (size 3 to 8) (size 9 to 14) (size 15 to 20)
#    0.000    1.067    1.333    4.400    7.467    5.333 
#    0.000    4.000    0.000    0.000    0.000    0.000 
#    0.000    0.000    0.000    0.000    0.000    0.000 
#
# Total GULP energy -167851.399365 kJ/mol
# GULP energy per Si atom -5595.046646 kJ/mol
# Density = 2.276019 g / cm^3
# Si number density = 22.812111 Si / 1000 Ang^3
#
#
#
# Elastic Constant Matrix: (Units=GPa)
#
#
# Indices 1 2 3 4 5 6 
#
# 1 106.6862 15.7434 18.4994 0.0000 0.0000 0.0000
# 2 15.7434 44.0172 -6.0839 0.0000 0.0000 0.0000
# 3 18.4994 -6.0839 54.5670 0.0000 0.0000 0.0000
# 4 0.0000 0.0000 0.0000 39.7446 0.0000 0.0000
# 5 0.0000 0.0000 0.0000 0.0000 34.4988 0.0000
# 6 0.0000 0.0000 0.0000 0.0000 0.0000 35.7350
#
#
#
# Elastic Compliance Matrix: (Units=1/GPa)
#
#
# Indices 1 2 3 4 5 6 
#
# 1 0.010741 -0.004413 -0.004134 0.000000 0.000000 0.000000
# 2 -0.004413 0.024887 0.004271 0.000000 0.000000 0.000000
# 3 -0.004134 0.004271 0.020204 0.000000 0.000000 0.000000
# 4 0.000000 0.000000 0.000000 0.025161 0.000000 0.000000
# 5 0.000000 0.000000 0.000000 0.000000 0.028987 0.000000
# 6 0.000000 0.000000 0.000000 0.000000 0.000000 0.027984
#
#
# Mechanical properties :
#
#
# Convention : Reuss Voigt Hill
#
# Bulk Modulus (GPa) = 21.15036 29.06536 25.10786
# Shear Modulus (GPa) = 30.81197 33.80311 32.30754
#
# Velocity S-wave (km/s) = 3.67915 3.85360 3.76739
# Velocity P-wave (km/s) = 5.22876 5.70694 5.47307
#
# Compressibility (1/GPa) = 0.04728051
#
# Stress axis : x y z
#
# Youngs Moduli (GPa) = 93.09890 40.18145 49.49608
#
# Poissons Ratio (x) = 0.17732 0.20459
# Poissons Ratio (y) = 0.41085 -0.21139
# Poissons Ratio (z) = 0.38483 -0.17161
#
# Static dielectric constant tensor:
#      x y z
#    x 1.830200 0.000000 0.000000 
#    y 0.000000 1.879640 0.000000 
#    z 0.000000 0.000000 1.894670 
# 
# From -- ./inp_files/1252.got.cif
#   From: 2010.05.17/outbox.cif.g08.bks.cpg/sg18_1_cif.got.tgz:1252.got - 2010.06.03 22:40:56.
