data_PCOD9312381
_publ_section_title
;
Structure prediction by ZEFSAII (Michael W. Deem and Ramdas Pophale) SiO2 
 PCOD9312381
Probable space group: P 21 21 2
;
_chemical_formula_sum "Si O2"
_cell_formula_units_Z 16
_cell_length_a 13.678699
_cell_length_b 7.300824
_cell_length_c 6.783980
_cell_angle_alpha 90.000000
_cell_angle_beta 90.000000
_cell_angle_gamma 90.000000
_cell_volume 677.487413
_symmetry_space_group_name_H-M "P 21 21 2"
_symmetry_group_IT_number 18
_symmetry_cell_setting 'orthorhombic'
loop_
_space_group_symop_operation_xyz
x,y,z
-x,-y,z
1/2+x,1/2-y,-z
1/2-x,1/2+y,-z
loop_
_atom_site_type_symbol
_atom_site_label
_atom_site_fract_x
_atom_site_fract_y
_atom_site_fract_z
Si Si1 0.138892 0.433429 0.178934
Si Si2 0.309116 0.327413 0.437154
Si Si3 0.508892 0.753835 0.591654
Si Si4 0.140407 0.421884 0.712501
O O1 0.248406 0.425588 0.264529
O O2 0.081072 0.603640 0.282313
O O3 0.082008 0.251968 0.258020
O O4 0.133764 0.426854 0.945905
O O5 0.413084 0.397091 0.519831
O O6 0.233306 0.319977 0.617524
O O7 0.338187 0.130017 0.352583
O O8 0.453088 0.833227 0.397188
#
# Coordination Sequence:
#
# PCOD9312381 Si02
#       4
#     4   4   4   4
#     4  10  22  34  66  93 112 167 202 240 306 361
#     4  11  21  40  60  94 124 157 200 263 295 354
#     4  10  21  41  60  90 122 165 201 250 297 358
#     4  11  24  40  66  89 128 157 210 248 300 370
#
# _framework density 23.616675000000001
#
# number of rings (size 3 to 8) (size 9 to 14) (size 15 to 20)
#    0.000    1.500    7.500    0.000   10.500    0.000 
#    0.000    5.000    0.000    3.000    0.000    0.000 
#    0.000    0.000    0.000    0.000    0.000    0.000 
#
# Total GULP energy -89090.355442 kJ/mol
# GULP energy per Si atom -5568.147215 kJ/mol
# Density = 2.356292 g / cm^3
# Si number density = 23.616675 Si / 1000 Ang^3
#
#
#
# Elastic Constant Matrix: (Units=GPa)
#
#
# Indices 1 2 3 4 5 6 
#
# 1 150.2705 6.0559 39.4989 0.0000 0.0000 0.0000
# 2 6.0559 48.0421 13.4104 0.0000 0.0000 0.0000
# 3 39.4989 13.4104 248.6029 0.0000 0.0000 0.0000
# 4 0.0000 0.0000 0.0000 19.5654 0.0000 0.0000
# 5 0.0000 0.0000 0.0000 0.0000 6.6135 0.0000
# 6 0.0000 0.0000 0.0000 0.0000 0.0000 39.8302
#
#
#
# Elastic Compliance Matrix: (Units=1/GPa)
#
#
# Indices 1 2 3 4 5 6 
#
# 1 0.006960 -0.000577 -0.001075 0.000000 0.000000 0.000000
# 2 -0.000577 0.021181 -0.001051 0.000000 0.000000 0.000000
# 3 -0.001075 -0.001051 0.004250 0.000000 0.000000 0.000000
# 4 0.000000 0.000000 0.000000 0.051111 0.000000 0.000000
# 5 0.000000 0.000000 0.000000 0.000000 0.151206 0.000000
# 6 0.000000 0.000000 0.000000 0.000000 0.000000 0.025107
#
#
# Mechanical properties :
#
#
# Convention : Reuss Voigt Hill
#
# Bulk Modulus (GPa) = 37.05679 62.76065 49.90872
# Shear Modulus (GPa) = 18.23380 39.06517 28.64948
#
# Velocity S-wave (km/s) = 2.78163 4.07152 3.48674
# Velocity P-wave (km/s) = 5.10310 6.98108 6.11462
#
# Compressibility (1/GPa) = 0.02698561
#
# Stress axis : x y z
#
# Youngs Moduli (GPa) = 143.66920 47.21166 235.29829
#
# Poissons Ratio (x) = 0.02726 0.25289
# Poissons Ratio (y) = 0.08295 0.24726
# Poissons Ratio (z) = 0.15441 0.04961
#
# Static dielectric constant tensor:
#      x y z
#    x 2.068050 0.000000 0.000000 
#    y 0.000000 2.236210 0.000000 
#    z 0.000000 0.000000 1.832420 
# 
# From -- ./inp_files/1698.got.cif
#   From: 2010.05.17/outbox.cif.g08.bks.cpg/sg18_1_cif.got.tgz:1698.got - 2010.06.03 22:40:56.
