data_PCOD9312747
_publ_section_title
;
Structure prediction by ZEFSAII (Michael W. Deem and Ramdas Pophale) SiO2 
 PCOD9312747
Probable space group: P 21 21 2
;
_chemical_formula_sum "Si O2"
_cell_formula_units_Z 18
_cell_length_a 13.629406
_cell_length_b 9.830422
_cell_length_c 5.015762
_cell_angle_alpha 90.000000
_cell_angle_beta 90.000000
_cell_angle_gamma 90.000000
_cell_volume 672.025900
_symmetry_space_group_name_H-M "P 21 21 2"
_symmetry_group_IT_number 18
_symmetry_cell_setting 'orthorhombic'
loop_
_space_group_symop_operation_xyz
x,y,z
-x,-y,z
1/2+x,1/2-y,-z
1/2-x,1/2+y,-z
loop_
_atom_site_type_symbol
_atom_site_label
_atom_site_fract_x
_atom_site_fract_y
_atom_site_fract_z
Si Si1 0.989377 0.284761 0.624153
Si Si2 0.713328 0.165798 0.454773
Si Si3 0.500000 0.500000 0.683241
Si Si4 0.364996 0.153645 0.855846
Si Si5 0.290953 0.573384 0.789220
O O1 0.985412 0.132431 0.502242
O O2 0.932283 0.373374 0.400656
O O3 0.101886 0.328337 0.643488
O O4 0.936209 0.296944 0.906757
O O5 0.788338 0.234489 0.247449
O O6 0.714280 0.268828 0.703874
O O7 0.758057 0.015479 0.466721
O O8 0.402343 0.533362 0.852136
O O9 0.293876 0.045400 0.997930
#
# Coordination Sequence:
#
# PCOD9312747 Si02
#       5
#     4   4   2   4   4
#     4  11  27  47  75 114 155 204 259 318 385 460
#     4  11  27  49  80 114 154 209 258 323 385 458
#     4  10  22  48  80 112 150 204 264 314 376 462
#     4  12  25  50  71 113 155 197 255 319 383 453
#     4  11  24  49  79 115 155 204 259 321 385 460
#
# _framework density 26.784680999999999
#
# number of rings (size 3 to 8) (size 9 to 14) (size 15 to 20)
#    0.000    0.889    4.444    0.000    6.222    7.111 
#    4.000    0.000    0.000    0.000    0.000    0.000 
#    0.000    0.000    0.000    0.000    0.000    0.000 
#
# Total GULP energy -100844.926233 kJ/mol
# GULP energy per Si atom -5602.495902 kJ/mol
# Density = 2.672372 g / cm^3
# Si number density = 26.784681 Si / 1000 Ang^3
#
#
#
# Elastic Constant Matrix: (Units=GPa)
#
#
# Indices 1 2 3 4 5 6 
#
# 1 222.2597 16.4169 54.5412 0.0000 0.0000 0.0000
# 2 16.4169 99.3588 4.9623 0.0000 0.0000 0.0000
# 3 54.5412 4.9623 121.8300 0.0000 0.0000 0.0000
# 4 0.0000 0.0000 0.0000 21.3417 0.0000 0.0000
# 5 0.0000 0.0000 0.0000 0.0000 24.3329 0.0000
# 6 0.0000 0.0000 0.0000 0.0000 0.0000 44.9095
#
#
#
# Elastic Compliance Matrix: (Units=1/GPa)
#
#
# Indices 1 2 3 4 5 6 
#
# 1 0.005107 -0.000731 -0.002257 0.000000 0.000000 0.000000
# 2 -0.000731 0.010190 -0.000088 0.000000 0.000000 0.000000
# 3 -0.002257 -0.000088 0.009222 0.000000 0.000000 0.000000
# 4 0.000000 0.000000 0.000000 0.046857 0.000000 0.000000
# 5 0.000000 0.000000 0.000000 0.000000 0.041097 0.000000
# 6 0.000000 0.000000 0.000000 0.000000 0.000000 0.022267
#
#
# Mechanical properties :
#
#
# Convention : Reuss Voigt Hill
#
# Bulk Modulus (GPa) = 54.44285 66.14325 60.29305
# Shear Modulus (GPa) = 34.01076 42.61869 38.31473
#
# Velocity S-wave (km/s) = 3.56727 3.99326 3.78626
# Velocity P-wave (km/s) = 6.11044 6.78303 6.45550
#
# Compressibility (1/GPa) = 0.01836788
#
# Stress axis : x y z
#
# Youngs Moduli (GPa) = 195.81036 98.13816 108.43707
#
# Poissons Ratio (x) = 0.07175 0.24469
# Poissons Ratio (y) = 0.14316 0.00951
# Poissons Ratio (z) = 0.44185 0.00861
#
# Static dielectric constant tensor:
#      x y z
#    x 2.052640 0.000000 0.000000 
#    y 0.000000 2.191820 0.000000 
#    z 0.000000 0.000000 2.090780 
# 
# From -- ./inp_files/1406.got.cif
#   From: 2010.05.17/outbox.cif.g08.bks.cpg/sg18_1_cif.got.tgz:1406.got - 2010.06.03 22:40:56.
