data_PCOD9312459
_publ_section_title
;
Structure prediction by ZEFSAII (Michael W. Deem and Ramdas Pophale) SiO2 
 PCOD9312459
Probable space group: P 21 21 2
;
_chemical_formula_sum "Si O2"
_cell_formula_units_Z 20
_cell_length_a 5.420623
_cell_length_b 8.052851
_cell_length_c 17.601239
_cell_angle_alpha 90.000000
_cell_angle_beta 90.000000
_cell_angle_gamma 90.000000
_cell_volume 768.319945
_symmetry_space_group_name_H-M "P 21 21 2"
_symmetry_group_IT_number 18
_symmetry_cell_setting 'orthorhombic'
loop_
_space_group_symop_operation_xyz
x,y,z
-x,-y,z
1/2+x,1/2-y,-z
1/2-x,1/2+y,-z
loop_
_atom_site_type_symbol
_atom_site_label
_atom_site_fract_x
_atom_site_fract_y
_atom_site_fract_z
Si Si1 0.753663 0.264645 0.545196
Si Si2 0.702200 0.766366 0.761289
Si Si3 0.000000 0.000000 0.352914
Si Si4 0.500000 0.500000 0.040972
Si Si5 0.000000 0.500000 0.345207
Si Si6 0.500000 0.000000 0.180088
Si Si7 0.362682 0.732014 0.904454
O O1 0.533705 0.267057 0.481283
O O2 0.715845 0.436470 0.591535
O O3 0.649875 0.120632 0.599509
O O4 0.548831 0.649571 0.704285
O O5 0.702354 0.933004 0.714887
O O6 0.946962 0.660893 0.770058
O O7 0.581102 0.768076 0.844714
O O8 0.707915 0.596875 0.088867
O O9 0.423226 0.655880 0.987182
O O10 0.715572 0.927167 0.128703
#
# Coordination Sequence:
#
# PCOD9312459 Si02
#       7
#     4   4   2   2   2   2   4
#     4  11  24  46  71 107 153 193 252 315 378 460
#     4  11  24  47  67 106 145 190 257 311 382 459
#     4  10  21  44  68  97 138 192 236 292 380 449
#     4  12  27  46  78 101 150 202 256 316 412 459
#     4  10  26  44  72 112 146 202 260 316 382 470
#     4  12  22  46  74  96 152 196 234 338 384 444
#     4  12  26  48  68 109 143 195 256 324 380 479
#
# _framework density 26.030822000000001
#
# number of rings (size 3 to 8) (size 9 to 14) (size 15 to 20)
#    0.000    0.800    4.000    2.400    2.800    3.200 
#    3.600    0.000    0.000    0.000    0.000    0.000 
#    0.000    0.000    0.000    0.000    0.000    0.000 
#
# Total GULP energy -111766.056654 kJ/mol
# GULP energy per Si atom -5588.302833 kJ/mol
# Density = 2.597157 g / cm^3
# Si number density = 26.030822 Si / 1000 Ang^3
#
#
#
# Elastic Constant Matrix: (Units=GPa)
#
#
# Indices 1 2 3 4 5 6 
#
# 1 56.7713 23.9223 13.3827 0.0000 0.0000 0.0000
# 2 23.9223 101.8896 44.9860 0.0000 0.0000 0.0000
# 3 13.3827 44.9860 90.0607 0.0000 0.0000 0.0000
# 4 0.0000 0.0000 0.0000 71.6711 0.0000 0.0000
# 5 0.0000 0.0000 0.0000 0.0000 0.4058 0.0000
# 6 0.0000 0.0000 0.0000 0.0000 0.0000 46.7392
#
#
#
# Elastic Compliance Matrix: (Units=1/GPa)
#
#
# Indices 1 2 3 4 5 6 
#
# 1 0.019592 -0.004252 -0.000787 0.000000 0.000000 0.000000
# 2 -0.004252 0.013514 -0.006119 0.000000 0.000000 0.000000
# 3 -0.000787 -0.006119 0.014277 0.000000 0.000000 0.000000
# 4 0.000000 0.000000 0.000000 0.013953 0.000000 0.000000
# 5 0.000000 0.000000 0.000000 0.000000 2.464397 0.000000
# 6 0.000000 0.000000 0.000000 0.000000 0.000000 0.021395
#
#
# Mechanical properties :
#
#
# Convention : Reuss Voigt Hill
#
# Bulk Modulus (GPa) = 39.89338 45.92263 42.90800
# Shear Modulus (GPa) = 1.93964 34.85859 18.39911
#
# Velocity S-wave (km/s) = 0.86415 3.66338 2.66149
# Velocity P-wave (km/s) = 4.04405 5.96437 5.09549
#
# Compressibility (1/GPa) = 0.02506682
#
# Stress axis : x y z
#
# Youngs Moduli (GPa) = 51.04134 73.99482 70.04306
#
# Poissons Ratio (x) = 0.31465 0.05514
# Poissons Ratio (y) = 0.21705 0.42857
# Poissons Ratio (z) = 0.04018 0.45275
#
# Static dielectric constant tensor:
#      x y z
#    x 1.773440 0.000000 0.000000 
#    y 0.000000 2.166170 0.000000 
#    z 0.000000 0.000000 2.111750 
# 
# From -- ./inp_files/7135.got.cif
#   From: 2010.05.17/outbox.cif.g08.bks.cpg/sg18_4_cif.got.tgz:7135.got - 2010.06.03 22:40:56.
