data_PCOD9312574
_publ_section_title
;
Structure prediction by ZEFSAII (Michael W. Deem and Ramdas Pophale) SiO2 
 PCOD9312574
Probable space group: P 21 21 2
;
_chemical_formula_sum "Si O2"
_cell_formula_units_Z 32
_cell_length_a 11.606122
_cell_length_b 8.223924
_cell_length_c 15.216368
_cell_angle_alpha 90.000000
_cell_angle_beta 90.000000
_cell_angle_gamma 90.000000
_cell_volume 1452.369843
_symmetry_space_group_name_H-M "P 21 21 2"
_symmetry_group_IT_number 18
_symmetry_cell_setting 'orthorhombic'
loop_
_space_group_symop_operation_xyz
x,y,z
-x,-y,z
1/2+x,1/2-y,-z
1/2-x,1/2+y,-z
loop_
_atom_site_type_symbol
_atom_site_label
_atom_site_fract_x
_atom_site_fract_y
_atom_site_fract_z
Si Si1 0.384657 0.314845 0.750572
Si Si2 0.859767 0.182635 0.830894
Si Si3 0.648063 0.665045 0.546938
Si Si4 0.393474 0.682452 0.821267
Si Si5 0.031689 0.320186 0.696574
Si Si6 0.102205 0.200993 0.514110
Si Si7 0.684438 0.307483 0.157840
Si Si8 0.024072 0.192341 0.988065
O O1 0.337723 0.324689 0.652206
O O2 0.376878 0.489315 0.801297
O O3 0.518782 0.267713 0.744851
O O4 0.314785 0.193270 0.812393
O O5 0.729414 0.237909 0.828092
O O6 0.921021 0.246559 0.743891
O O7 0.926512 0.249386 0.918286
O O8 0.865715 0.987399 0.829150
O O9 0.771233 0.714075 0.502927
O O10 0.624145 0.479715 0.520272
O O11 0.525376 0.754605 0.523233
O O12 0.460861 0.731910 0.910454
O O13 0.078266 0.211456 0.618188
O O14 0.124461 0.318608 0.775459
O O15 0.000000 0.500000 0.664990
O O16 0.645283 0.265630 0.059761
O O17 0.000000 0.000000 0.991477
#
# Coordination Sequence:
#
# PCOD9312574 Si02
#       8
#     4   4   4   4   4   4   4   4
#     4  11  23  44  66  93 134 183 227 271 341 417
#     4  10  24  39  64 100 134 172 225 289 331 405
#     4  11  27  47  68 108 140 183 236 293 352 433
#     4  11  22  38  68  91 130 188 219 281 335 398
#     4  11  23  43  70  96 128 175 229 270 342 416
#     4  11  26  45  72 100 142 179 232 298 349 414
#     4  10  22  40  66  94 138 166 220 281 330 402
#     4   9  19  39  61  93 132 172 225 272 332 389
#
# _framework density 22.032955000000001
#
# number of rings (size 3 to 8) (size 9 to 14) (size 15 to 20)
#    0.000    1.500    2.500    3.375    7.000    1.500 
#    0.000    1.250    2.750    0.000    0.000    0.000 
#    0.000    0.000    0.000    0.000    0.000    0.000 
#
# Total GULP energy -178310.998515 kJ/mol
# GULP energy per Si atom -5572.218704 kJ/mol
# Density = 2.198281 g / cm^3
# Si number density = 22.032955 Si / 1000 Ang^3
#
#
#
# Elastic Constant Matrix: (Units=GPa)
#
#
# Indices 1 2 3 4 5 6 
#
# 1 154.9957 26.9008 24.0049 0.0000 0.0000 0.0000
# 2 26.9008 20.5726 9.5491 0.0000 0.0000 0.0000
# 3 24.0049 9.5491 79.2035 0.0000 0.0000 0.0000
# 4 0.0000 0.0000 0.0000 19.3591 0.0000 0.0000
# 5 0.0000 0.0000 0.0000 0.0000 33.4447 0.0000
# 6 0.0000 0.0000 0.0000 0.0000 0.0000 36.2294
#
#
#
# Elastic Compliance Matrix: (Units=1/GPa)
#
#
# Indices 1 2 3 4 5 6 
#
# 1 0.008471 -0.010471 -0.001305 0.000000 0.000000 0.000000
# 2 -0.010471 0.064433 -0.004595 0.000000 0.000000 0.000000
# 3 -0.001305 -0.004595 0.013575 0.000000 0.000000 0.000000
# 4 0.000000 0.000000 0.000000 0.051655 0.000000 0.000000
# 5 0.000000 0.000000 0.000000 0.000000 0.029900 0.000000
# 6 0.000000 0.000000 0.000000 0.000000 0.000000 0.027602
#
#
# Mechanical properties :
#
#
# Convention : Reuss Voigt Hill
#
# Bulk Modulus (GPa) = 18.60892 41.74238 30.17565
# Shear Modulus (GPa) = 20.30113 30.76110 25.53112
#
# Velocity S-wave (km/s) = 3.03875 3.74055 3.40776
# Velocity P-wave (km/s) = 4.55810 6.13532 5.40456
#
# Compressibility (1/GPa) = 0.05373768
#
# Stress axis : x y z
#
# Youngs Moduli (GPa) = 118.04581 15.51992 73.66379
#
# Poissons Ratio (x) = 0.16251 0.09613
# Poissons Ratio (y) = 1.23610 0.33847
# Poissons Ratio (z) = 0.15405 0.07131
#
# Static dielectric constant tensor:
#      x y z
#    x 1.921750 0.000000 0.000000 
#    y 0.000000 1.807840 0.000000 
#    z 0.000000 0.000000 1.782860 
# 
# From -- ./inp_files/6928.got.cif
#   From: 2010.05.17/outbox.cif.g08.bks.cpg/sg18_4_cif.got.tgz:6928.got - 2010.06.03 22:40:56.
