data_PCOD9312832
_publ_section_title
;
Structure prediction by ZEFSAII (Michael W. Deem and Ramdas Pophale) SiO2 
 PCOD9312832
Probable space group: P 21 21 2
;
_chemical_formula_sum "Si O2"
_cell_formula_units_Z 26
_cell_length_a 17.671665
_cell_length_b 10.960203
_cell_length_c 5.861605
_cell_angle_alpha 90.000000
_cell_angle_beta 90.000000
_cell_angle_gamma 90.000000
_cell_volume 1135.305174
_symmetry_space_group_name_H-M "P 21 21 2"
_symmetry_group_IT_number 18
_symmetry_cell_setting 'orthorhombic'
loop_
_space_group_symop_operation_xyz
x,y,z
-x,-y,z
1/2+x,1/2-y,-z
1/2-x,1/2+y,-z
loop_
_atom_site_type_symbol
_atom_site_label
_atom_site_fract_x
_atom_site_fract_y
_atom_site_fract_z
Si Si1 0.632335 0.937065 0.714493
Si Si2 0.377999 0.662212 0.927782
Si Si3 0.527790 0.779915 0.038076
Si Si4 0.725486 0.444494 0.565330
Si Si5 0.710642 0.124169 0.055634
Si Si6 0.000000 0.500000 0.632520
Si Si7 0.862126 0.086843 0.810771
O O1 0.708536 0.889195 0.592702
O O2 0.572931 0.984654 0.527739
O O3 0.588495 0.839649 0.868369
O O4 0.660138 0.046134 0.878126
O O5 0.324475 0.650472 0.707604
O O6 0.460446 0.718138 0.896497
O O7 0.333364 0.751309 0.101195
O O8 0.384281 0.527737 0.031156
O O9 0.495256 0.884267 0.201451
O O10 0.569706 0.680762 0.195215
O O11 0.769636 0.535181 0.737127
O O12 0.668283 0.528197 0.420896
O O13 0.789985 0.149850 0.930175
#
# Coordination Sequence:
#
# PCOD9312832 Si02
#       7
#     4   4   4   4   4   2   4
#     4  11  24  45  73 110 142 189 253 300 364 426
#     4  11  24  46  71 102 147 190 242 302 367 434
#     4  12  26  47  72 108 153 191 241 312 357 427
#     4  10  24  47  72 107 140 197 246 295 373 436
#     4  10  23  45  72 103 142 184 241 309 351 431
#     4  12  26  42  78 108 144 204 234 300 370 430
#     4  10  26  43  70 104 142 192 241 297 361 437
#
# _framework density 22.901333999999999
#
# number of rings (size 3 to 8) (size 9 to 14) (size 15 to 20)
#    0.000    1.231    0.000    4.615    8.615    7.385 
#    2.769    4.615    0.000    0.000    0.000    0.000 
#    0.000    0.000    0.000    0.000    0.000    0.000 
#
# Total GULP energy -145627.944725 kJ/mol
# GULP energy per Si atom -5601.074797 kJ/mol
# Density = 2.284921 g / cm^3
# Si number density = 22.901334 Si / 1000 Ang^3
#
#
#
# Elastic Constant Matrix: (Units=GPa)
#
#
# Indices 1 2 3 4 5 6 
#
# 1 141.1706 67.2896 52.3411 0.0000 0.0000 0.0000
# 2 67.2896 86.1202 22.7101 0.0000 0.0000 0.0000
# 3 52.3411 22.7101 94.0503 0.0000 0.0000 0.0000
# 4 0.0000 0.0000 0.0000 17.1927 0.0000 0.0000
# 5 0.0000 0.0000 0.0000 0.0000 48.0304 0.0000
# 6 0.0000 0.0000 0.0000 0.0000 0.0000 47.7338
#
#
#
# Elastic Compliance Matrix: (Units=1/GPa)
#
#
# Indices 1 2 3 4 5 6 
#
# 1 0.013333 -0.009036 -0.005238 0.000000 0.000000 0.000000
# 2 -0.009036 0.018526 0.000556 0.000000 0.000000 0.000000
# 3 -0.005238 0.000556 0.013414 0.000000 0.000000 0.000000
# 4 0.000000 0.000000 0.000000 0.058164 0.000000 0.000000
# 5 0.000000 0.000000 0.000000 0.000000 0.020820 0.000000
# 6 0.000000 0.000000 0.000000 0.000000 0.000000 0.020950
#
#
# Mechanical properties :
#
#
# Convention : Reuss Voigt Hill
#
# Bulk Modulus (GPa) = 56.07116 67.33584 61.70350
# Shear Modulus (GPa) = 27.99730 34.52472 31.26101
#
# Velocity S-wave (km/s) = 3.50025 3.88692 3.69864
# Velocity P-wave (km/s) = 6.39317 7.04348 6.72619
#
# Compressibility (1/GPa) = 0.01783448
#
# Stress axis : x y z
#
# Youngs Moduli (GPa) = 75.00213 53.97912 74.55128
#
# Poissons Ratio (x) = 0.48777 0.39051
# Poissons Ratio (y) = 0.67775 -0.04142
# Poissons Ratio (z) = 0.39287 -0.02999
#
# Static dielectric constant tensor:
#      x y z
#    x 1.838420 0.000000 0.000000 
#    y 0.000000 1.838140 0.000000 
#    z 0.000000 0.000000 1.852670 
# 
# From -- ./inp_files/1807.got.cif
#   From: 2010.05.17/outbox.cif.g08.bks.cpg/sg18_1_cif.got.tgz:1807.got - 2010.06.03 22:40:56.
