data_PCOD9312033
_publ_section_title
;
Structure prediction by ZEFSAII (Michael W. Deem and Ramdas Pophale) SiO2 
 PCOD9312033
Probable space group: P 21 21 2
;
_chemical_formula_sum "Si O2"
_cell_formula_units_Z 32
_cell_length_a 29.376359
_cell_length_b 7.479619
_cell_length_c 5.638498
_cell_angle_alpha 90.000000
_cell_angle_beta 90.000000
_cell_angle_gamma 90.000000
_cell_volume 1238.913182
_symmetry_space_group_name_H-M "P 21 21 2"
_symmetry_group_IT_number 18
_symmetry_cell_setting 'orthorhombic'
loop_
_space_group_symop_operation_xyz
x,y,z
-x,-y,z
1/2+x,1/2-y,-z
1/2-x,1/2+y,-z
loop_
_atom_site_type_symbol
_atom_site_label
_atom_site_fract_x
_atom_site_fract_y
_atom_site_fract_z
Si Si1 0.445698 0.472773 0.079669
Si Si2 0.231032 0.623294 0.344854
Si Si3 0.078983 0.982841 0.419622
Si Si4 0.453894 0.890631 0.574956
Si Si5 0.323199 0.653180 0.646071
Si Si6 0.265166 0.428927 0.958470
Si Si7 0.325331 0.977052 0.334202
Si Si8 0.589146 0.120606 0.072664
O O1 0.500000 0.500000 0.085802
O O2 0.431348 0.387657 0.330588
O O3 0.418203 0.663050 0.072867
O O4 0.433970 0.386250 0.825984
O O5 0.279746 0.631928 0.474456
O O6 0.189347 0.653654 0.524537
O O7 0.216394 0.737222 0.113958
O O8 0.241379 0.436117 0.210658
O O9 0.049015 0.170272 0.424358
O O10 0.131954 0.036613 0.406175
O O11 0.436362 0.939737 0.312073
O O12 0.500000 0.000000 0.600073
O O13 0.427473 0.939282 0.816816
O O14 0.302679 0.580325 0.897170
O O15 0.339793 0.847128 0.552396
O O16 0.224323 0.434261 0.769266
O O17 0.360327 0.945774 0.127319
#
# Coordination Sequence:
#
# PCOD9312033 Si02
#       8
#     4   4   4   4   4   4   4   4
#     4  10  20  36  60  91 120 156 207 267 318 385
#     4  10  22  36  61  93 132 169 216 275 324 391
#     4  10  21  36  65  90 120 165 214 255 320 399
#     4  10  20  36  61  91 122 154 211 266 322 380
#     4  10  20  38  62  93 121 172 220 263 324 392
#     4  10  22  36  63  91 133 168 215 273 323 389
#     4  10  20  38  62  93 121 172 219 263 320 391
#     4  10  21  36  64  92 117 168 209 259 317 401
#
# _framework density 25.829090000000001
#
# number of rings (size 3 to 8) (size 9 to 14) (size 15 to 20)
#    0.000    2.000    2.500    1.500    3.500    2.000 
#    0.000    0.000   16.500    0.000    0.000    0.000 
#    0.000    0.000    0.000    0.000    0.000    0.000 
#
# Total GULP energy -178245.467599 kJ/mol
# GULP energy per Si atom -5570.170862 kJ/mol
# Density = 2.577030 g / cm^3
# Si number density = 25.829090 Si / 1000 Ang^3
#
#
#
# Elastic Constant Matrix: (Units=GPa)
#
#
# Indices 1 2 3 4 5 6 
#
# 1 68.7215 9.2657 36.1321 0.0000 0.0000 0.0000
# 2 9.2657 50.5482 11.5623 0.0000 0.0000 0.0000
# 3 36.1321 11.5623 189.8854 0.0000 0.0000 0.0000
# 4 0.0000 0.0000 0.0000 15.4769 0.0000 0.0000
# 5 0.0000 0.0000 0.0000 0.0000 45.5644 0.0000
# 6 0.0000 0.0000 0.0000 0.0000 0.0000 25.4091
#
#
#
# Elastic Compliance Matrix: (Units=1/GPa)
#
#
# Indices 1 2 3 4 5 6 
#
# 1 0.016435 -0.002330 -0.002986 0.000000 0.000000 0.000000
# 2 -0.002330 0.020393 -0.000798 0.000000 0.000000 0.000000
# 3 -0.002986 -0.000798 0.005883 0.000000 0.000000 0.000000
# 4 0.000000 0.000000 0.000000 0.064612 0.000000 0.000000
# 5 0.000000 0.000000 0.000000 0.000000 0.021947 0.000000
# 6 0.000000 0.000000 0.000000 0.000000 0.000000 0.039356
#
#
# Mechanical properties :
#
#
# Convention : Reuss Voigt Hill
#
# Bulk Modulus (GPa) = 32.80435 47.00836 39.90635
# Shear Modulus (GPa) = 26.17594 34.10308 30.13951
#
# Velocity S-wave (km/s) = 3.18689 3.63758 3.41967
# Velocity P-wave (km/s) = 5.12541 5.99016 5.57458
#
# Compressibility (1/GPa) = 0.03048376
#
# Stress axis : x y z
#
# Youngs Moduli (GPa) = 60.84454 49.03694 169.98000
#
# Poissons Ratio (x) = 0.11424 0.50748
# Poissons Ratio (y) = 0.14175 0.13572
# Poissons Ratio (z) = 0.18165 0.03915
#
# Static dielectric constant tensor:
#      x y z
#    x 2.072190 0.000000 0.000000 
#    y 0.000000 2.183500 0.000000 
#    z 0.000000 0.000000 2.035920 
# 
# From -- ./inp_files/2294.got.cif
#   From: 2010.05.17/outbox.cif.g08.bks.cpg/sg18_2_cif.got.tgz:2294.got - 2010.06.03 22:40:56.
