data_PCOD9312903
_publ_section_title
;
Structure prediction by ZEFSAII (Michael W. Deem and Ramdas Pophale) SiO2 
 PCOD9312903
Probable space group: P 21 21 2
;
_chemical_formula_sum "Si O2"
_cell_formula_units_Z 30
_cell_length_a 8.980473
_cell_length_b 26.536741
_cell_length_c 4.884328
_cell_angle_alpha 90.000000
_cell_angle_beta 90.000000
_cell_angle_gamma 90.000000
_cell_volume 1163.996348
_symmetry_space_group_name_H-M "P 21 21 2"
_symmetry_group_IT_number 18
_symmetry_cell_setting 'orthorhombic'
loop_
_space_group_symop_operation_xyz
x,y,z
-x,-y,z
1/2+x,1/2-y,-z
1/2-x,1/2+y,-z
loop_
_atom_site_type_symbol
_atom_site_label
_atom_site_fract_x
_atom_site_fract_y
_atom_site_fract_z
Si Si1 0.971715 0.894679 0.169317
Si Si2 0.696065 0.652148 0.435321
Si Si3 0.443832 0.139842 0.963478
Si Si4 0.500000 0.000000 0.146410
Si Si5 0.059983 0.270444 0.369815
Si Si6 0.468097 0.697934 0.113557
Si Si7 0.725786 0.073892 0.918950
Si Si8 0.175406 0.587940 0.555666
O O1 0.056187 0.855518 0.370180
O O2 0.845756 0.921401 0.350644
O O3 0.107499 0.927176 0.043726
O O4 0.898947 0.858061 0.935797
O O5 0.822644 0.691077 0.502281
O O6 0.636651 0.676277 0.148667
O O7 0.751465 0.594987 0.387745
O O8 0.447727 0.192428 0.798515
O O9 0.611716 0.118426 0.015571
O O10 0.370574 0.099633 0.753448
O O11 0.369585 0.136897 0.259827
O O12 0.425461 0.042798 0.332130
O O13 0.632818 0.024031 0.967660
O O14 0.027951 0.234214 0.623827
O O15 0.099001 0.231859 0.126282
#
# Coordination Sequence:
#
# PCOD9312903 Si02
#       8
#     4   4   4   2   4   4   4   4
#     4  11  25  47  69 108 152 201 230 308 383 433
#     4  10  24  44  69  99 150 194 238 300 376 420
#     4  10  24  45  69 107 142 201 235 303 363 434
#     4  10  24  50  78 112 132 182 252 304 364 470
#     4  11  24  40  70  98 139 193 256 289 341 418
#     4  11  24  41  61 102 138 192 239 301 334 430
#     4   9  23  44  78  98 149 185 243 297 380 439
#     4  11  26  45  75 105 151 184 244 300 381 442
#
# _framework density 25.773278999999999
#
# number of rings (size 3 to 8) (size 9 to 14) (size 15 to 20)
#    0.000    1.600    1.333    0.800   16.800    5.867 
#    0.000    0.000    2.933    0.000    0.000    0.000 
#    0.000    0.000    0.000    0.000    0.000    0.000 
#
# Total GULP energy -167179.635913 kJ/mol
# GULP energy per Si atom -5572.654530 kJ/mol
# Density = 2.571462 g / cm^3
# Si number density = 25.773279 Si / 1000 Ang^3
#
#
#
# Elastic Constant Matrix: (Units=GPa)
#
#
# Indices 1 2 3 4 5 6 
#
# 1 116.0960 41.7513 23.6232 0.0000 0.0000 0.0000
# 2 41.7513 86.0891 26.5726 0.0000 0.0000 0.0000
# 3 23.6232 26.5726 90.0678 0.0000 0.0000 0.0000
# 4 0.0000 0.0000 0.0000 32.7703 0.0000 0.0000
# 5 0.0000 0.0000 0.0000 0.0000 37.3707 0.0000
# 6 0.0000 0.0000 0.0000 0.0000 0.0000 33.8687
#
#
#
# Elastic Compliance Matrix: (Units=1/GPa)
#
#
# Indices 1 2 3 4 5 6 
#
# 1 0.010589 -0.004707 -0.001389 0.000000 0.000000 0.000000
# 2 -0.004707 0.014872 -0.003153 0.000000 0.000000 0.000000
# 3 -0.001389 -0.003153 0.012397 0.000000 0.000000 0.000000
# 4 0.000000 0.000000 0.000000 0.030515 0.000000 0.000000
# 5 0.000000 0.000000 0.000000 0.000000 0.026759 0.000000
# 6 0.000000 0.000000 0.000000 0.000000 0.000000 0.029526
#
#
# Mechanical properties :
#
#
# Convention : Reuss Voigt Hill
#
# Bulk Modulus (GPa) = 51.65060 52.90523 52.27792
# Shear Modulus (GPa) = 33.42058 34.15567 33.78812
#
# Velocity S-wave (km/s) = 3.60490 3.64433 3.62467
# Velocity P-wave (km/s) = 6.11645 6.18707 6.15186
#
# Compressibility (1/GPa) = 0.01936086
#
# Stress axis : x y z
#
# Youngs Moduli (GPa) = 94.43962 67.24151 80.66325
#
# Poissons Ratio (x) = 0.31649 0.11201
# Poissons Ratio (y) = 0.44450 0.25434
# Poissons Ratio (z) = 0.13114 0.21202
#
# Static dielectric constant tensor:
#      x y z
#    x 2.183960 0.000000 0.000000 
#    y 0.000000 2.056410 0.000000 
#    z 0.000000 0.000000 2.134570 
# 
# From -- ./inp_files/776.got.cif
#   From: 2010.05.17/outbox.cif.g08.bks.cpg/sg18_1_cif.got.tgz:776.got - 2010.06.03 22:40:56.
