data_PCOD9312934
_publ_section_title
;
Structure prediction by ZEFSAII (Michael W. Deem and Ramdas Pophale) SiO2 
 PCOD9312934
Probable space group: P 21 21 2
;
_chemical_formula_sum "Si O2"
_cell_formula_units_Z 18
_cell_length_a 5.031899
_cell_length_b 10.417813
_cell_length_c 12.352313
_cell_angle_alpha 90.000000
_cell_angle_beta 90.000000
_cell_angle_gamma 90.000000
_cell_volume 647.525328
_symmetry_space_group_name_H-M "P 21 21 2"
_symmetry_group_IT_number 18
_symmetry_cell_setting 'orthorhombic'
loop_
_space_group_symop_operation_xyz
x,y,z
-x,-y,z
1/2+x,1/2-y,-z
1/2-x,1/2+y,-z
loop_
_atom_site_type_symbol
_atom_site_label
_atom_site_fract_x
_atom_site_fract_y
_atom_site_fract_z
Si Si1 0.342194 0.865565 0.244838
Si Si2 0.815402 0.131435 0.720584
Si Si3 0.751911 0.092530 0.482312
Si Si4 0.500000 0.000000 0.878866
Si Si5 0.884734 0.164233 0.022667
O O1 0.536873 0.747366 0.222343
O O2 0.244167 0.839312 0.366893
O O3 0.134137 0.872699 0.148334
O O4 0.500000 0.000000 0.247728
O O5 0.767278 0.167121 0.595335
O O6 0.542467 0.109932 0.786427
O O7 0.000000 0.000000 0.725742
O O8 0.500000 0.000000 0.490765
O O9 0.000000 0.000000 0.480794
O O10 0.739892 0.048776 0.955854
O O11 0.675452 0.282838 0.006245
#
# Coordination Sequence:
#
# PCOD9312934 Si02
#       5
#     4   4   4   2   4
#     4  11  25  48  72 110 151 191 246 315 376 440
#     4  11  24  48  76 107 152 200 255 307 377 462
#     4  10  24  47  74 110 149 196 248 310 379 448
#     4  12  24  46  78 106 148 208 256 308 380 462
#     4  12  27  47  73 106 149 195 250 307 374 448
#
# _framework density 27.798143
#
# number of rings (size 3 to 8) (size 9 to 14) (size 15 to 20)
#    0.000    0.889    4.444    1.333    0.000   10.667 
#   12.000    0.000    0.000    0.000    0.000    0.000 
#    0.000    0.000    0.000    0.000    0.000    0.000 
#
# Total GULP energy -100786.679166 kJ/mol
# GULP energy per Si atom -5599.259954 kJ/mol
# Density = 2.773487 g / cm^3
# Si number density = 27.798143 Si / 1000 Ang^3
#
#
#
# Elastic Constant Matrix: (Units=GPa)
#
#
# Indices 1 2 3 4 5 6 
#
# 1 130.8625 42.3967 -6.2816 0.0000 0.0000 0.0000
# 2 42.3967 152.9833 8.2931 0.0000 0.0000 0.0000
# 3 -6.2816 8.2931 194.4511 0.0000 0.0000 0.0000
# 4 0.0000 0.0000 0.0000 33.2121 0.0000 0.0000
# 5 0.0000 0.0000 0.0000 0.0000 26.3383 0.0000
# 6 0.0000 0.0000 0.0000 0.0000 0.0000 58.0142
#
#
#
# Elastic Compliance Matrix: (Units=1/GPa)
#
#
# Indices 1 2 3 4 5 6 
#
# 1 0.008422 -0.002354 0.000372 0.000000 0.000000 0.000000
# 2 -0.002354 0.007210 -0.000384 0.000000 0.000000 0.000000
# 3 0.000372 -0.000384 0.005171 0.000000 0.000000 0.000000
# 4 0.000000 0.000000 0.000000 0.030109 0.000000 0.000000
# 5 0.000000 0.000000 0.000000 0.000000 0.037968 0.000000
# 6 0.000000 0.000000 0.000000 0.000000 0.000000 0.017237
#
#
# Mechanical properties :
#
#
# Convention : Reuss Voigt Hill
#
# Bulk Modulus (GPa) = 62.21796 63.01258 62.61527
# Shear Modulus (GPa) = 43.02720 52.43884 47.73302
#
# Velocity S-wave (km/s) = 3.93853 4.34800 4.14832
# Velocity P-wave (km/s) = 6.56608 6.92271 6.74675
#
# Compressibility (1/GPa) = 0.01607253
#
# Stress axis : x y z
#
# Youngs Moduli (GPa) = 118.73350 138.69828 193.38354
#
# Poissons Ratio (x) = 0.32653 -0.07203
# Poissons Ratio (y) = 0.27953 0.07417
# Poissons Ratio (z) = -0.04423 0.05320
#
# Static dielectric constant tensor:
#      x y z
#    x 2.137870 0.000000 0.000000 
#    y 0.000000 2.213590 0.000000 
#    z 0.000000 0.000000 2.184930 
# 
# From -- ./inp_files/5002.got.cif
#   From: 2010.05.17/outbox.cif.g08.bks.cpg/sg18_3_cif.got.tgz:5002.got - 2010.06.03 22:40:56.
