data_PCOD9312789
_publ_section_title
;
Structure prediction by ZEFSAII (Michael W. Deem and Ramdas Pophale) SiO2 
 PCOD9312789
Probable space group: P 21 21 2
;
_chemical_formula_sum "Si O2"
_cell_formula_units_Z 22
_cell_length_a 11.685481
_cell_length_b 13.022191
_cell_length_c 6.034515
_cell_angle_alpha 90.000000
_cell_angle_beta 90.000000
_cell_angle_gamma 90.000000
_cell_volume 918.275560
_symmetry_space_group_name_H-M "P 21 21 2"
_symmetry_group_IT_number 18
_symmetry_cell_setting 'orthorhombic'
loop_
_space_group_symop_operation_xyz
x,y,z
-x,-y,z
1/2+x,1/2-y,-z
1/2-x,1/2+y,-z
loop_
_atom_site_type_symbol
_atom_site_label
_atom_site_fract_x
_atom_site_fract_y
_atom_site_fract_z
Si Si1 0.014455 0.221618 0.632594
Si Si2 0.000000 0.000000 0.481792
Si Si3 0.910836 0.389779 0.943110
Si Si4 0.249241 0.969258 0.357432
Si Si5 0.242107 0.257455 0.879644
Si Si6 0.121096 0.362226 0.258768
O O1 0.124638 0.212974 0.789132
O O2 0.057478 0.277840 0.410031
O O3 0.936965 0.304964 0.754334
O O4 0.970563 0.106295 0.605192
O O5 0.124237 0.022732 0.368343
O O6 0.835392 0.473788 0.811735
O O7 0.831244 0.332993 0.118798
O O8 0.030263 0.403004 0.076949
O O9 0.224718 0.854373 0.269039
O O10 0.321263 0.948539 0.584108
O O11 0.218372 0.304092 0.121154
#
# Coordination Sequence:
#
# PCOD9312789 Si02
#       6
#     4   2   4   4   4   4
#     4  10  24  43  68  98 136 186 231 285 356 417
#     4  12  24  44  68  98 144 184 226 290 354 428
#     4  11  24  43  71 104 139 184 237 293 350 418
#     4  11  26  44  70 104 139 188 236 283 356 422
#     4  10  23  43  66  99 136 180 235 288 349 417
#     4  10  23  46  68  95 140 181 234 295 341 419
#
# _framework density 23.957948999999999
#
# number of rings (size 3 to 8) (size 9 to 14) (size 15 to 20)
#    0.000    1.455    0.000    3.273    0.000   18.182 
#    0.000    4.545    0.000    0.000    0.000    0.000 
#    0.000    0.000    0.000    0.000    0.000    0.000 
#
# Total GULP energy -122919.331291 kJ/mol
# GULP energy per Si atom -5587.242331 kJ/mol
# Density = 2.390342 g / cm^3
# Si number density = 23.957949 Si / 1000 Ang^3
#
#
#
# Elastic Constant Matrix: (Units=GPa)
#
#
# Indices 1 2 3 4 5 6 
#
# 1 142.7758 48.0839 53.9704 0.0000 0.0000 0.0000
# 2 48.0839 90.8387 45.0105 0.0000 0.0000 0.0000
# 3 53.9704 45.0105 90.4327 0.0000 0.0000 0.0000
# 4 0.0000 0.0000 0.0000 25.3559 0.0000 0.0000
# 5 0.0000 0.0000 0.0000 0.0000 7.5930 0.0000
# 6 0.0000 0.0000 0.0000 0.0000 0.0000 41.5583
#
#
#
# Elastic Compliance Matrix: (Units=1/GPa)
#
#
# Indices 1 2 3 4 5 6 
#
# 1 0.009617 -0.002982 -0.004255 0.000000 0.000000 0.000000
# 2 -0.002982 0.015537 -0.005953 0.000000 0.000000 0.000000
# 3 -0.004255 -0.005953 0.016560 0.000000 0.000000 0.000000
# 4 0.000000 0.000000 0.000000 0.039439 0.000000 0.000000
# 5 0.000000 0.000000 0.000000 0.000000 0.131701 0.000000
# 6 0.000000 0.000000 0.000000 0.000000 0.000000 0.024063
#
#
# Mechanical properties :
#
#
# Convention : Reuss Voigt Hill
#
# Bulk Modulus (GPa) = 65.21813 68.68632 66.95223
# Shear Modulus (GPa) = 18.62833 26.70026 22.66429
#
# Velocity S-wave (km/s) = 2.79147 3.34198 3.07905
# Velocity P-wave (km/s) = 6.13765 6.60481 6.37551
#
# Compressibility (1/GPa) = 0.01533316
#
# Stress axis : x y z
#
# Youngs Moduli (GPa) = 103.98549 64.36279 60.38469
#
# Poissons Ratio (x) = 0.19194 0.25694
# Poissons Ratio (y) = 0.31009 0.35949
# Poissons Ratio (z) = 0.44246 0.38318
#
# Static dielectric constant tensor:
#      x y z
#    x 2.027390 0.000000 0.000000 
#    y 0.000000 1.974010 0.000000 
#    z 0.000000 0.000000 1.948040 
# 
# From -- ./inp_files/1051.got.cif
#   From: 2010.05.17/outbox.cif.g08.bks.cpg/sg18_1_cif.got.tgz:1051.got - 2010.06.03 22:40:56.
