data_PCOD9312259
_publ_section_title
;
Structure prediction by ZEFSAII (Michael W. Deem and Ramdas Pophale) SiO2 
 PCOD9312259
Probable space group: P 21 21 2
;
_chemical_formula_sum "Si O2"
_cell_formula_units_Z 30
_cell_length_a 17.825072
_cell_length_b 5.372874
_cell_length_c 15.069055
_cell_angle_alpha 90.000000
_cell_angle_beta 90.000000
_cell_angle_gamma 90.000000
_cell_volume 1443.191515
_symmetry_space_group_name_H-M "P 21 21 2"
_symmetry_group_IT_number 18
_symmetry_cell_setting 'orthorhombic'
loop_
_space_group_symop_operation_xyz
x,y,z
-x,-y,z
1/2+x,1/2-y,-z
1/2-x,1/2+y,-z
loop_
_atom_site_type_symbol
_atom_site_label
_atom_site_fract_x
_atom_site_fract_y
_atom_site_fract_z
Si Si1 0.715524 0.221101 0.457085
Si Si2 0.267582 0.467627 0.896613
Si Si3 0.000000 0.000000 0.971297
Si Si4 0.905498 0.749767 0.301231
Si Si5 0.692248 0.750956 0.713949
Si Si6 0.367473 0.204604 0.029843
Si Si7 0.095727 0.316555 0.109474
Si Si8 0.041458 0.251528 0.495352
O O1 0.755371 0.458938 0.503243
O O2 0.739732 0.228811 0.354645
O O3 0.627422 0.245539 0.473967
O O4 0.281356 0.280677 0.815339
O O5 0.301907 0.379029 0.990455
O O6 0.320701 0.705321 0.875768
O O7 0.179919 0.518414 0.909882
O O8 0.061357 0.829191 0.923167
O O9 0.946808 0.843276 0.036097
O O10 0.849768 0.511178 0.303958
O O11 0.942990 0.716783 0.204573
O O12 0.956582 0.742586 0.387640
O O13 0.862573 0.014861 0.303594
O O14 0.399100 0.080581 0.938998
O O15 0.000000 0.500000 0.526527
O O16 0.000000 0.000000 0.523406
#
# Coordination Sequence:
#
# PCOD9312259 Si02
#       8
#     4   4   2   4   4   4   4   4
#     4  12  22  42  68  93 127 169 218 264 316 388
#     4  10  21  34  63  89 118 158 214 267 316 362
#     4  10  24  34  54  84 122 172 204 252 316 392
#     4  11  22  38  61  93 133 159 206 256 323 388
#     4  11  21  40  64  98 120 161 218 269 309 372
#     4  11  19  38  56  87 120 163 210 257 314 381
#     4  10  21  36  55  85 123 157 203 251 315 381
#     4  12  25  39  61  96 133 168 204 258 326 393
#
# _framework density 20.787262999999999
#
# number of rings (size 3 to 8) (size 9 to 14) (size 15 to 20)
#    0.000    1.067    5.333    2.000    0.933    1.067 
#    0.000    0.000    0.000    1.600    3.467    0.000 
#    0.000    0.000    0.000    0.000    0.000    0.000 
#
# Total GULP energy -167513.591493 kJ/mol
# GULP energy per Si atom -5583.786383 kJ/mol
# Density = 2.073995 g / cm^3
# Si number density = 20.787263 Si / 1000 Ang^3
#
#
#
# Elastic Constant Matrix: (Units=GPa)
#
#
# Indices 1 2 3 4 5 6 
#
# 1 101.8429 38.6352 3.4037 0.0000 0.0000 0.0000
# 2 38.6352 99.2849 3.5337 0.0000 0.0000 0.0000
# 3 3.4037 3.5337 30.8432 0.0000 0.0000 0.0000
# 4 0.0000 0.0000 0.0000 11.5500 0.0000 0.0000
# 5 0.0000 0.0000 0.0000 0.0000 25.5668 0.0000
# 6 0.0000 0.0000 0.0000 0.0000 0.0000 36.9370
#
#
#
# Elastic Compliance Matrix: (Units=1/GPa)
#
#
# Indices 1 2 3 4 5 6 
#
# 1 0.011537 -0.004462 -0.000762 0.000000 0.000000 0.000000
# 2 -0.004462 0.011839 -0.000864 0.000000 0.000000 0.000000
# 3 -0.000762 -0.000864 0.032605 0.000000 0.000000 0.000000
# 4 0.000000 0.000000 0.000000 0.086580 0.000000 0.000000
# 5 0.000000 0.000000 0.000000 0.000000 0.039113 0.000000
# 6 0.000000 0.000000 0.000000 0.000000 0.000000 0.027073
#
#
# Mechanical properties :
#
#
# Convention : Reuss Voigt Hill
#
# Bulk Modulus (GPa) = 22.82843 35.90178 29.36511
# Shear Modulus (GPa) = 21.22904 27.23733 24.23319
#
# Velocity S-wave (km/s) = 3.19917 3.62372 3.41804
# Velocity P-wave (km/s) = 4.96508 5.90059 5.45294
#
# Compressibility (1/GPa) = 0.04380503
#
# Stress axis : x y z
#
# Youngs Moduli (GPa) = 86.67464 84.46460 30.67002
#
# Poissons Ratio (x) = 0.37692 0.02337
# Poissons Ratio (y) = 0.38678 0.02650
# Poissons Ratio (z) = 0.06604 0.07297
#
# Static dielectric constant tensor:
#      x y z
#    x 1.775730 0.000000 0.000000 
#    y 0.000000 1.847560 0.000000 
#    z 0.000000 0.000000 1.746680 
# 
# From -- ./inp_files/7408.got.cif
#   From: 2010.05.17/outbox.cif.g08.bks.cpg/sg18_4_cif.got.tgz:7408.got - 2010.06.03 22:40:56.
