data_PCOD9312377
_publ_section_title
;
Structure prediction by ZEFSAII (Michael W. Deem and Ramdas Pophale) SiO2 
 PCOD9312377
Probable space group: P 21 21 2
;
_chemical_formula_sum "Si O2"
_cell_formula_units_Z 32
_cell_length_a 14.636776
_cell_length_b 11.466545
_cell_length_c 9.526406
_cell_angle_alpha 90.000000
_cell_angle_beta 90.000000
_cell_angle_gamma 90.000000
_cell_volume 1598.847686
_symmetry_space_group_name_H-M "P 21 21 2"
_symmetry_group_IT_number 18
_symmetry_cell_setting 'orthorhombic'
loop_
_space_group_symop_operation_xyz
x,y,z
-x,-y,z
1/2+x,1/2-y,-z
1/2-x,1/2+y,-z
loop_
_atom_site_type_symbol
_atom_site_label
_atom_site_fract_x
_atom_site_fract_y
_atom_site_fract_z
Si Si1 0.874837 0.733719 0.142859
Si Si2 0.059738 0.615937 0.179110
Si Si3 0.145665 0.184741 0.828065
Si Si4 0.042387 0.127214 0.577670
Si Si5 0.379423 0.257341 0.578021
Si Si6 0.274756 0.643440 0.599207
Si Si7 0.241887 0.915512 0.245925
Si Si8 0.222269 0.505119 0.064715
O O1 0.826916 0.804586 0.265828
O O2 0.821925 0.610388 0.131149
O O3 0.982974 0.714345 0.162368
O O4 0.865782 0.791549 0.991807
O O5 0.110574 0.644614 0.323182
O O6 0.136683 0.596821 0.059844
O O7 0.000000 0.500000 0.187058
O O8 0.055406 0.164124 0.738747
O O9 0.193995 0.300992 0.765928
O O10 0.206164 0.067338 0.832653
O O11 0.144200 0.126294 0.513205
O O12 0.974298 0.212638 0.496160
O O13 0.000000 0.000000 0.566776
O O14 0.300665 0.229640 0.465318
O O15 0.349047 0.361774 0.683046
O O16 0.230773 0.521296 0.650958
O O17 0.239342 0.968416 0.087971
#
# Coordination Sequence:
#
# PCOD9312377 Si02
#       8
#     4   4   4   4   4   4   4   4
#     4  10  23  41  68  97 134 176 234 282 345 409
#     4  10  21  41  66  97 129 178 229 283 344 410
#     4  11  23  46  65  99 140 174 230 293 338 413
#     4  12  26  43  65 101 139 179 234 285 346 417
#     4  12  25  41  68  98 142 186 229 287 351 419
#     4  12  24  43  71  99 138 184 232 277 354 420
#     4  11  23  42  69 100 137 181 226 287 343 415
#     4  10  21  40  71  95 132 182 231 280 348 402
#
# _framework density 20.014413999999999
#
# number of rings (size 3 to 8) (size 9 to 14) (size 15 to 20)
#    0.000    1.000    6.250    0.000    1.750    4.000 
#    2.250    1.875    0.000    0.000    0.000    0.000 
#    0.000    0.000    0.000    0.000    0.000    0.000 
#
# Total GULP energy -178475.290429 kJ/mol
# GULP energy per Si atom -5577.352826 kJ/mol
# Density = 1.996886 g / cm^3
# Si number density = 20.014414 Si / 1000 Ang^3
#
#
#
# Elastic Constant Matrix: (Units=GPa)
#
#
# Indices 1 2 3 4 5 6 
#
# 1 49.3500 9.3205 35.2009 0.0000 0.0000 0.0000
# 2 9.3205 36.7590 19.9017 0.0000 0.0000 0.0000
# 3 35.2009 19.9017 90.5467 0.0000 0.0000 0.0000
# 4 0.0000 0.0000 0.0000 24.0467 0.0000 0.0000
# 5 0.0000 0.0000 0.0000 0.0000 35.0953 0.0000
# 6 0.0000 0.0000 0.0000 0.0000 0.0000 16.2965
#
#
#
# Elastic Compliance Matrix: (Units=1/GPa)
#
#
# Indices 1 2 3 4 5 6 
#
# 1 0.028099 -0.001374 -0.010622 0.000000 0.000000 0.000000
# 2 -0.001374 0.030946 -0.006268 0.000000 0.000000 0.000000
# 3 -0.010622 -0.006268 0.016551 0.000000 0.000000 0.000000
# 4 0.000000 0.000000 0.000000 0.041586 0.000000 0.000000
# 5 0.000000 0.000000 0.000000 0.000000 0.028494 0.000000
# 6 0.000000 0.000000 0.000000 0.000000 0.000000 0.061363
#
#
# Mechanical properties :
#
#
# Convention : Reuss Voigt Hill
#
# Bulk Modulus (GPa) = 25.59553 33.94465 29.77009
# Shear Modulus (GPa) = 19.48642 22.56988 21.02815
#
# Velocity S-wave (km/s) = 3.12367 3.36174 3.24489
# Velocity P-wave (km/s) = 5.08194 5.66262 5.38012
#
# Compressibility (1/GPa) = 0.03906933
#
# Stress axis : x y z
#
# Youngs Moduli (GPa) = 35.58785 32.31444 60.41930
#
# Poissons Ratio (x) = 0.04440 0.64177
# Poissons Ratio (y) = 0.04890 0.37868
# Poissons Ratio (z) = 0.37801 0.20253
#
# Static dielectric constant tensor:
#      x y z
#    x 1.732600 0.000000 0.000000 
#    y 0.000000 1.725510 0.000000 
#    z 0.000000 0.000000 1.698990 
# 
# From -- ./inp_files/3942.got.cif
#   From: 2010.05.17/outbox.cif.g08.bks.cpg/sg18_2_cif.got.tgz:3942.got - 2010.06.03 22:40:56.
