data_PCOD9313299
_publ_section_title
;
Structure prediction by ZEFSAII (Michael W. Deem and Ramdas Pophale) SiO2 
 PCOD9313299
Probable space group: P 21 21 21
;
_chemical_formula_sum "Si O2"
_cell_formula_units_Z 32
_cell_length_a 11.535825
_cell_length_b 16.972932
_cell_length_c 9.033342
_cell_angle_alpha 90.000000
_cell_angle_beta 90.000000
_cell_angle_gamma 90.000000
_cell_volume 1768.699216
_symmetry_space_group_name_H-M "P 21 21 21"
_symmetry_group_IT_number 19
_symmetry_cell_setting 'orthorhombic'
loop_
_space_group_symop_operation_xyz
x,y,z
1/2-x,-y,1/2+z
1/2+x,1/2-y,-z
-x,1/2+y,1/2-z
loop_
_atom_site_type_symbol
_atom_site_label
_atom_site_fract_x
_atom_site_fract_y
_atom_site_fract_z
Si Si1 0.601034 0.794271 0.531450
Si Si2 0.797029 0.835222 0.735346
Si Si3 0.336548 0.250275 0.295546
Si Si4 0.107377 0.523209 0.537741
Si Si5 0.500997 0.643018 0.048517
Si Si6 0.915365 0.128545 0.450844
Si Si7 0.437952 0.750697 0.785329
Si Si8 0.658736 0.001894 0.127022
O O1 0.723228 0.782212 0.621439
O O2 0.609901 0.762288 0.366229
O O3 0.578870 0.889256 0.519835
O O4 0.500251 0.754847 0.627283
O O5 0.897305 0.815243 0.853382
O O6 0.854928 0.904769 0.640297
O O7 0.692323 0.869360 0.836844
O O8 0.382082 0.170274 0.371383
O O9 0.379086 0.317246 0.410041
O O10 0.199057 0.255386 0.279866
O O11 0.017245 0.450828 0.542412
O O12 0.148943 0.531555 0.707594
O O13 0.213049 0.490912 0.438509
O O14 0.489718 0.680805 0.886471
O O15 0.021902 0.169388 0.369585
O O16 0.928033 0.041932 0.517016
#
# Coordination Sequence:
#
# PCOD9313299 Si02
#       8
#     4   4   4   4   4   4   4   4
#     4  10  22  34  58  85 115 143 187 248 287 317
#     4   9  18  32  53  84 111 136 183 228 285 336
#     4  11  21  35  58  80 112 152 189 226 289 337
#     4  10  19  33  56  86 114 142 184 240 288 329
#     4  10  20  36  59  79 112 151 185 222 283 352
#     4  10  17  33  53  82 109 151 179 217 285 340
#     4  10  22  37  55  81 118 150 191 226 276 359
#     4  10  15  28  52  83 109 137 170 233 285 326
#
# _framework density 18.092392
#
# number of rings (size 3 to 8) (size 9 to 14) (size 15 to 20)
#    0.000    2.000    5.000    0.000    1.750    0.000 
#    0.000    0.000    5.500    0.000    0.000    0.000 
#    0.000    0.000    0.000    0.000    0.000    0.000 
#
# Total GULP energy -178244.947057 kJ/mol
# GULP energy per Si atom -5570.154596 kJ/mol
# Density = 1.805121 g / cm^3
# Si number density = 18.092392 Si / 1000 Ang^3
#
#
#
# Elastic Constant Matrix: (Units=GPa)
#
#
# Indices 1 2 3 4 5 6 
#
# 1 41.4752 3.3784 25.6574 0.0000 0.0000 0.0000
# 2 3.3784 39.6770 21.6832 0.0000 0.0000 0.0000
# 3 25.6574 21.6832 106.3941 0.0000 0.0000 0.0000
# 4 0.0000 0.0000 0.0000 28.6096 0.0000 0.0000
# 5 0.0000 0.0000 0.0000 0.0000 29.4020 0.0000
# 6 0.0000 0.0000 0.0000 0.0000 0.0000 15.2050
#
#
#
# Elastic Compliance Matrix: (Units=1/GPa)
#
#
# Indices 1 2 3 4 5 6 
#
# 1 0.028417 0.001492 -0.007157 0.000000 0.000000 0.000000
# 2 0.001492 0.028441 -0.006156 0.000000 0.000000 0.000000
# 3 -0.007157 -0.006156 0.012379 0.000000 0.000000 0.000000
# 4 0.000000 0.000000 0.000000 0.034953 0.000000 0.000000
# 5 0.000000 0.000000 0.000000 0.000000 0.034011 0.000000
# 6 0.000000 0.000000 0.000000 0.000000 0.000000 0.065768
#
#
# Mechanical properties :
#
#
# Convention : Reuss Voigt Hill
#
# Bulk Modulus (GPa) = 21.93247 32.10934 27.02091
# Shear Modulus (GPa) = 20.59227 23.76515 22.17871
#
# Velocity S-wave (km/s) = 3.37734 3.62822 3.50502
# Velocity P-wave (km/s) = 5.23043 5.94457 5.59890
#
# Compressibility (1/GPa) = 0.04559450
#
# Stress axis : x y z
#
# Youngs Moduli (GPa) = 35.19065 35.16087 80.77886
#
# Poissons Ratio (x) = -0.05244 0.57811
# Poissons Ratio (y) = -0.05249 0.49727
# Poissons Ratio (z) = 0.25185 0.21645
#
# Static dielectric constant tensor:
#      x y z
#    x 1.614360 0.000000 0.000000 
#    y 0.000000 1.655770 0.000000 
#    z 0.000000 0.000000 1.656460 
# 
# From -- ./inp_files/3728.got.cif
#   From: 2010.05.17/outbox.cif.g08.bks.cpg/sg19_2_cif.got.tgz:3728.got - 2010.06.03 22:46:19.
