data_PCOD9313062
_publ_section_title
;
Structure prediction by ZEFSAII (Michael W. Deem and Ramdas Pophale) SiO2 
 PCOD9313062
Probable space group: P 21 21 2
;
_chemical_formula_sum "Si O2"
_cell_formula_units_Z 18
_cell_length_a 6.925429
_cell_length_b 20.036159
_cell_length_c 7.154520
_cell_angle_alpha 90.000000
_cell_angle_beta 90.000000
_cell_angle_gamma 90.000000
_cell_volume 992.754016
_symmetry_space_group_name_H-M "P 21 21 2"
_symmetry_group_IT_number 18
_symmetry_cell_setting 'orthorhombic'
loop_
_space_group_symop_operation_xyz
x,y,z
-x,-y,z
1/2+x,1/2-y,-z
1/2-x,1/2+y,-z
loop_
_atom_site_type_symbol
_atom_site_label
_atom_site_fract_x
_atom_site_fract_y
_atom_site_fract_z
Si Si1 0.639499 0.827224 0.116965
Si Si2 0.754556 0.106041 0.124111
Si Si3 0.000000 0.000000 0.302791
Si Si4 0.048970 0.143160 0.419014
Si Si5 0.513956 0.320200 0.155688
O O1 0.471412 0.881823 0.125653
O O2 0.772810 0.828247 0.301431
O O3 0.538906 0.755395 0.101216
O O4 0.785667 0.838324 0.945783
O O5 0.858147 0.150396 0.288308
O O6 0.832684 0.032527 0.174869
O O7 0.850394 0.132189 0.933391
O O8 0.926444 0.937463 0.422422
O O9 0.026935 0.172239 0.622993
#
# Coordination Sequence:
#
# PCOD9313062 Si02
#       5
#     4   4   2   4   4
#     4  11  22  37  61  92 119 152 198 248 301 356
#     4   9  21  41  60  82 123 156 193 250 289 351
#     4   8  20  44  58  82 120 158 208 240 288 360
#     4   9  23  38  60  84 119 160 196 243 297 353
#     4  11  22  38  61  93 119 155 197 246 307 354
#
# _framework density 18.131378999999999
#
# number of rings (size 3 to 8) (size 9 to 14) (size 15 to 20)
#    1.333    0.889    2.222    0.000    3.111    3.556 
#    0.000    0.000    4.889    0.000    0.000    0.000 
#    0.000    0.000    0.000    0.000    0.000    0.000 
#
# Total GULP energy -100241.258067 kJ/mol
# GULP energy per Si atom -5568.958781 kJ/mol
# Density = 1.809011 g / cm^3
# Si number density = 18.131379 Si / 1000 Ang^3
#
#
#
# Elastic Constant Matrix: (Units=GPa)
#
#
# Indices 1 2 3 4 5 6 
#
# 1 82.9191 -14.6092 37.5779 0.0000 0.0000 0.0000
# 2 -14.6092 24.2487 -22.9915 0.0000 0.0000 0.0000
# 3 37.5779 -22.9915 88.5504 0.0000 0.0000 0.0000
# 4 0.0000 0.0000 0.0000 19.6474 0.0000 0.0000
# 5 0.0000 0.0000 0.0000 0.0000 5.5860 0.0000
# 6 0.0000 0.0000 0.0000 0.0000 0.0000 32.6440
#
#
#
# Elastic Compliance Matrix: (Units=1/GPa)
#
#
# Indices 1 2 3 4 5 6 
#
# 1 0.015224 0.004041 -0.005411 0.000000 0.000000 0.000000
# 2 0.004041 0.055780 0.012768 0.000000 0.000000 0.000000
# 3 -0.005411 0.012768 0.016905 0.000000 0.000000 0.000000
# 4 0.000000 0.000000 0.000000 0.050897 0.000000 0.000000
# 5 0.000000 0.000000 0.000000 0.000000 0.179020 0.000000
# 6 0.000000 0.000000 0.000000 0.000000 0.000000 0.030633
#
#
# Mechanical properties :
#
#
# Convention : Reuss Voigt Hill
#
# Bulk Modulus (GPa) = 9.03301 21.74138 15.38719
# Shear Modulus (GPa) = 13.79062 24.62489 19.20775
#
# Velocity S-wave (km/s) = 2.76088 3.68929 3.25832
# Velocity P-wave (km/s) = 3.89308 5.49225 4.76030
#
# Compressibility (1/GPa) = 0.11070510
#
# Stress axis : x y z
#
# Youngs Moduli (GPa) = 65.68419 17.92750 59.15584
#
# Poissons Ratio (x) = -0.07245 0.32011
# Poissons Ratio (y) = -0.26546 -0.75530
# Poissons Ratio (z) = 0.35544 -0.22890
#
# Static dielectric constant tensor:
#      x y z
#    x 1.622330 0.000000 0.000000 
#    y 0.000000 1.641620 0.000000 
#    z 0.000000 0.000000 1.597890 
# 
# From -- ./inp_files/235.got.cif
#   From: 2010.05.17/outbox.cif.g08.bks.cpg/sg18_1_cif.got.tgz:235.got - 2010.06.03 22:40:56.
