data_PCOD9313524
_publ_section_title
;
Structure prediction by ZEFSAII (Michael W. Deem and Ramdas Pophale) SiO2 
 PCOD9313524
Probable space group: P 21 21 21
;
_chemical_formula_sum "Si O2"
_cell_formula_units_Z 24
_cell_length_a 9.241237
_cell_length_b 8.205330
_cell_length_c 16.313072
_cell_angle_alpha 90.000000
_cell_angle_beta 90.000000
_cell_angle_gamma 90.000000
_cell_volume 1236.977823
_symmetry_space_group_name_H-M "P 21 21 21"
_symmetry_group_IT_number 19
_symmetry_cell_setting 'orthorhombic'
loop_
_space_group_symop_operation_xyz
x,y,z
1/2-x,-y,1/2+z
1/2+x,1/2-y,-z
-x,1/2+y,1/2-z
loop_
_atom_site_type_symbol
_atom_site_label
_atom_site_fract_x
_atom_site_fract_y
_atom_site_fract_z
Si Si1 0.662251 0.772987 0.436822
Si Si2 0.140857 0.116409 0.750598
Si Si3 0.661592 0.040345 0.697548
Si Si4 0.871408 0.639088 0.293643
Si Si5 0.619052 0.070937 0.328498
Si Si6 0.852495 0.850683 0.591694
O O1 0.770765 0.706787 0.366793
O O2 0.748982 0.784123 0.520711
O O3 0.518658 0.660811 0.437871
O O4 0.616363 0.956870 0.408309
O O5 0.109701 0.234094 0.673180
O O6 0.151708 0.232133 0.829586
O O7 0.285545 0.015681 0.740630
O O8 0.010497 0.994083 0.770470
O O9 0.525703 0.926302 0.676796
O O10 0.733003 0.970645 0.780977
O O11 0.781516 0.017385 0.626461
O O12 0.618870 0.223030 0.723137
#
# Coordination Sequence:
#
# PCOD9313524 Si02
#       6
#     4   4   4   4   4   4
#     4  10  21  36  57  82 115 151 185 226 277 331
#     4  10  19  35  58  83 109 142 186 228 277 331
#     4  10  19  33  54  81 110 141 182 226 270 324
#     4  11  21  35  58  85 111 145 187 231 276 330
#     4   9  18  33  55  81 108 142 181 226 271 325
#     4  10  20  36  56  82 115 149 185 227 277 329
#
# _framework density 19.402125000000002
#
# number of rings (size 3 to 8) (size 9 to 14) (size 15 to 20)
#    0.000    2.000    0.000    7.000    0.000    1.333 
#    0.000    1.667    0.000   18.000    0.000    0.000 
#    0.000    0.000    0.000    0.000    0.000    0.000 
#
# Total GULP energy -133762.646991 kJ/mol
# GULP energy per Si atom -5573.443625 kJ/mol
# Density = 1.935796 g / cm^3
# Si number density = 19.402125 Si / 1000 Ang^3
#
#
#
# Elastic Constant Matrix: (Units=GPa)
#
#
# Indices 1 2 3 4 5 6 
#
# 1 117.4380 25.8591 24.2257 0.0000 0.0000 0.0000
# 2 25.8591 63.8532 6.1637 0.0000 0.0000 0.0000
# 3 24.2257 6.1637 49.3577 0.0000 0.0000 0.0000
# 4 0.0000 0.0000 0.0000 5.8709 0.0000 0.0000
# 5 0.0000 0.0000 0.0000 0.0000 35.4563 0.0000
# 6 0.0000 0.0000 0.0000 0.0000 0.0000 30.5161
#
#
#
# Elastic Compliance Matrix: (Units=1/GPa)
#
#
# Indices 1 2 3 4 5 6 
#
# 1 0.010279 -0.003721 -0.004581 0.000000 0.000000 0.000000
# 2 -0.003721 0.017199 -0.000322 0.000000 0.000000 0.000000
# 3 -0.004581 -0.000322 0.022549 0.000000 0.000000 0.000000
# 4 0.000000 0.000000 0.000000 0.170333 0.000000 0.000000
# 5 0.000000 0.000000 0.000000 0.000000 0.028204 0.000000
# 6 0.000000 0.000000 0.000000 0.000000 0.000000 0.032770
#
#
# Mechanical properties :
#
#
# Convention : Reuss Voigt Hill
#
# Bulk Modulus (GPa) = 30.50555 38.12733 34.31644
# Shear Modulus (GPa) = 16.15477 25.99533 21.07505
#
# Velocity S-wave (km/s) = 2.88866 3.66432 3.29937
# Velocity P-wave (km/s) = 5.18486 6.13162 5.67801
#
# Compressibility (1/GPa) = 0.03278092
#
# Stress axis : x y z
#
# Youngs Moduli (GPa) = 97.28254 58.14366 44.34847
#
# Poissons Ratio (x) = 0.21634 0.20315
# Poissons Ratio (y) = 0.36196 0.01426
# Poissons Ratio (z) = 0.44562 0.01870
#
# Static dielectric constant tensor:
#      x y z
#    x 1.726110 0.000000 0.000000 
#    y 0.000000 1.746460 0.000000 
#    z 0.000000 0.000000 1.664220 
# 
# From -- ./inp_files/2819.got.cif
#   From: 2010.05.17/outbox.cif.g08.bks.cpg/sg19_2_cif.got.tgz:2819.got - 2010.06.03 22:46:19.
