data_PCOD9313300
_publ_section_title
;
Structure prediction by ZEFSAII (Michael W. Deem and Ramdas Pophale) SiO2 
 PCOD9313300
Probable space group: P 21 21 21
;
_chemical_formula_sum "Si O2"
_cell_formula_units_Z 32
_cell_length_a 7.822471
_cell_length_b 8.610371
_cell_length_c 21.793221
_cell_angle_alpha 90.000000
_cell_angle_beta 90.000000
_cell_angle_gamma 90.000000
_cell_volume 1467.868833
_symmetry_space_group_name_H-M "P 21 21 21"
_symmetry_group_IT_number 19
_symmetry_cell_setting 'orthorhombic'
loop_
_space_group_symop_operation_xyz
x,y,z
1/2-x,-y,1/2+z
1/2+x,1/2-y,-z
-x,1/2+y,1/2-z
loop_
_atom_site_type_symbol
_atom_site_label
_atom_site_fract_x
_atom_site_fract_y
_atom_site_fract_z
Si Si1 0.696978 0.832258 0.809868
Si Si2 0.475206 0.166799 0.221847
Si Si3 0.621456 0.876187 0.179468
Si Si4 0.445287 0.415390 0.860897
Si Si5 0.690611 0.667031 0.067922
Si Si6 0.202483 0.131552 0.862370
Si Si7 0.929149 0.296048 0.430712
Si Si8 0.582595 0.523558 0.744376
O O1 0.873925 0.848165 0.773825
O O2 0.695339 0.783159 0.880695
O O3 0.596835 0.691164 0.776200
O O4 0.581990 0.981771 0.796255
O O5 0.346278 0.270077 0.261181
O O6 0.546711 0.269405 0.165329
O O7 0.464317 0.992547 0.195301
O O8 0.598843 0.773207 0.119011
O O9 0.784412 0.984486 0.165194
O O10 0.357153 0.252011 0.877321
O O11 0.530423 0.524720 0.911979
O O12 0.574943 0.410796 0.803579
O O13 0.659268 0.487022 0.083991
O O14 0.891717 0.704626 0.075061
O O15 0.636675 0.709965 0.999591
O O16 0.266358 0.026119 0.805292
#
# Coordination Sequence:
#
# PCOD9313300 Si02
#       8
#     4   4   4   4   4   4   4   4
#     4  10  19  32  60  83 112 140 187 238 291 343
#     4  10  20  35  57  91 120 145 185 243 301 350
#     4  10  20  35  56  83 122 151 183 236 290 344
#     4   9  19  37  57  86 118 146 189 241 291 352
#     4  11  23  39  61  82 114 159 204 231 288 342
#     4  10  19  34  60  87 112 151 184 242 297 346
#     4  10  23  39  59  82 112 158 195 243 280 346
#     4  10  15  31  56  88 108 132 179 236 292 343
#
# _framework density 21.800312999999999
#
# number of rings (size 3 to 8) (size 9 to 14) (size 15 to 20)
#    0.000    2.000    5.000    0.750    1.750    0.000 
#    0.000    3.750    0.000    0.000    0.000    0.000 
#    0.000    0.000    0.000    0.000    0.000    0.000 
#
# Total GULP energy -178625.723581 kJ/mol
# GULP energy per Si atom -5582.053862 kJ/mol
# Density = 2.175069 g / cm^3
# Si number density = 21.800313 Si / 1000 Ang^3
#
#
#
# Elastic Constant Matrix: (Units=GPa)
#
#
# Indices 1 2 3 4 5 6 
#
# 1 46.9332 15.3679 13.8389 0.0000 0.0000 0.0000
# 2 15.3679 106.4191 36.7214 0.0000 0.0000 0.0000
# 3 13.8389 36.7214 118.9243 0.0000 0.0000 0.0000
# 4 0.0000 0.0000 0.0000 31.5037 0.0000 0.0000
# 5 0.0000 0.0000 0.0000 0.0000 27.8077 0.0000
# 6 0.0000 0.0000 0.0000 0.0000 0.0000 27.1116
#
#
#
# Elastic Compliance Matrix: (Units=1/GPa)
#
#
# Indices 1 2 3 4 5 6 
#
# 1 0.022713 -0.002650 -0.001825 0.000000 0.000000 0.000000
# 2 -0.002650 0.010827 -0.003035 0.000000 0.000000 0.000000
# 3 -0.001825 -0.003035 0.009558 0.000000 0.000000 0.000000
# 4 0.000000 0.000000 0.000000 0.031742 0.000000 0.000000
# 5 0.000000 0.000000 0.000000 0.000000 0.035961 0.000000
# 6 0.000000 0.000000 0.000000 0.000000 0.000000 0.036885
#
#
# Mechanical properties :
#
#
# Convention : Reuss Voigt Hill
#
# Bulk Modulus (GPa) = 35.61475 44.90368 40.25921
# Shear Modulus (GPa) = 29.05890 31.04115 30.05003
#
# Velocity S-wave (km/s) = 3.65493 3.77753 3.71674
# Velocity P-wave (km/s) = 5.84668 6.29832 6.07669
#
# Compressibility (1/GPa) = 0.02807826
#
# Stress axis : x y z
#
# Youngs Moduli (GPa) = 44.02815 92.36431 104.62350
#
# Poissons Ratio (x) = 0.24479 0.19090
# Poissons Ratio (y) = 0.11669 0.31750
# Poissons Ratio (z) = 0.08034 0.28029
#
# Static dielectric constant tensor:
#      x y z
#    x 1.957750 0.000000 0.000000 
#    y 0.000000 1.862560 0.000000 
#    z 0.000000 0.000000 1.764660 
# 
# From -- ./inp_files/7068.got.cif
#   From: 2010.05.17/outbox.cif.g08.bks.cpg/sg19_4_cif.got.tgz:7068.got - 2010.06.03 22:46:19.
