data_PCOD9313500
_publ_section_title
;
Structure prediction by ZEFSAII (Michael W. Deem and Ramdas Pophale) SiO2 
 PCOD9313500
Probable space group: P 21 21 21
;
_chemical_formula_sum "Si O2"
_cell_formula_units_Z 28
_cell_length_a 11.393804
_cell_length_b 7.666520
_cell_length_c 12.990735
_cell_angle_alpha 90.000000
_cell_angle_beta 90.000000
_cell_angle_gamma 90.000000
_cell_volume 1134.751436
_symmetry_space_group_name_H-M "P 21 21 21"
_symmetry_group_IT_number 19
_symmetry_cell_setting 'orthorhombic'
loop_
_space_group_symop_operation_xyz
x,y,z
1/2-x,-y,1/2+z
1/2+x,1/2-y,-z
-x,1/2+y,1/2-z
loop_
_atom_site_type_symbol
_atom_site_label
_atom_site_fract_x
_atom_site_fract_y
_atom_site_fract_z
Si Si1 0.848116 0.696234 0.170470
Si Si2 0.054795 0.508181 0.889053
Si Si3 0.969519 0.921968 0.381484
Si Si4 0.741345 0.887536 0.484230
Si Si5 0.601821 0.627533 0.208735
Si Si6 0.801775 0.496012 0.519996
Si Si7 0.976499 0.019736 0.097557
O O1 0.735108 0.675211 0.243312
O O2 0.786048 0.653881 0.058994
O O3 0.911273 0.881105 0.169818
O O4 0.944791 0.545712 0.182095
O O5 0.999039 0.469288 0.999445
O O6 0.984746 0.413328 0.799697
O O7 0.187941 0.447275 0.911996
O O8 0.056621 0.709460 0.857412
O O9 0.999818 0.718509 0.367700
O O10 0.828088 0.949329 0.392174
O O11 0.746057 0.678156 0.487994
O O12 0.611200 0.958193 0.498888
O O13 0.625566 0.472774 0.127070
O O14 0.898391 0.442498 0.436999
#
# Coordination Sequence:
#
# PCOD9313500 Si02
#       7
#     4   4   4   4   4   4   4
#     4  10  19  32  49  76 104 136 179 217 262 310
#     4  10  19  32  47  78 106 139 172 215 274 315
#     4   9  20  32  50  73 109 134 177 221 260 311
#     4   9  17  32  47  74 105 132 170 214 265 303
#     4  10  19  31  49  74 110 140 169 220 269 321
#     4   9  19  30  48  76 102 136 171 215 261 310
#     4  11  17  31  50  69 108 133 170 216 263 306
#
# _framework density 24.675007999999998
#
# number of rings (size 3 to 8) (size 9 to 14) (size 15 to 20)
#    1.714    0.571    2.857    1.714    2.000    0.000 
#    0.000    0.000    0.000    0.000    0.000    4.000 
#    0.000    0.000    0.000    0.000    0.000    0.000 
#
# Total GULP energy -156179.173537 kJ/mol
# GULP energy per Si atom -5577.827626 kJ/mol
# Density = 2.461885 g / cm^3
# Si number density = 24.675008 Si / 1000 Ang^3
#
#
#
# Elastic Constant Matrix: (Units=GPa)
#
#
# Indices 1 2 3 4 5 6 
#
# 1 102.0491 39.6239 10.0209 0.0000 0.0000 0.0000
# 2 39.6239 107.9096 24.6283 0.0000 0.0000 0.0000
# 3 10.0209 24.6283 62.1826 0.0000 0.0000 0.0000
# 4 0.0000 0.0000 0.0000 33.7614 0.0000 0.0000
# 5 0.0000 0.0000 0.0000 0.0000 40.3243 0.0000
# 6 0.0000 0.0000 0.0000 0.0000 0.0000 39.5173
#
#
#
# Elastic Compliance Matrix: (Units=1/GPa)
#
#
# Indices 1 2 3 4 5 6 
#
# 1 0.011431 -0.004152 -0.000198 0.000000 0.000000 0.000000
# 2 -0.004152 0.011696 -0.003963 0.000000 0.000000 0.000000
# 3 -0.000198 -0.003963 0.017683 0.000000 0.000000 0.000000
# 4 0.000000 0.000000 0.000000 0.029620 0.000000 0.000000
# 5 0.000000 0.000000 0.000000 0.000000 0.024799 0.000000
# 6 0.000000 0.000000 0.000000 0.000000 0.000000 0.025305
#
#
# Mechanical properties :
#
#
# Convention : Reuss Voigt Hill
#
# Bulk Modulus (GPa) = 41.34950 46.74303 44.04626
# Shear Modulus (GPa) = 34.43006 35.91181 35.17093
#
# Velocity S-wave (km/s) = 3.73948 3.81910 3.77950
# Velocity P-wave (km/s) = 5.95306 6.19935 6.07745
#
# Compressibility (1/GPa) = 0.02418409
#
# Stress axis : x y z
#
# Youngs Moduli (GPa) = 87.48248 85.49739 56.55072
#
# Poissons Ratio (x) = 0.35501 0.01117
# Poissons Ratio (y) = 0.36325 0.22413
# Poissons Ratio (z) = 0.01728 0.33885
#
# Static dielectric constant tensor:
#      x y z
#    x 2.012300 0.000000 0.000000 
#    y 0.000000 1.909490 0.000000 
#    z 0.000000 0.000000 2.050460 
# 
# From -- ./inp_files/7201.got.cif
#   From: 2010.05.17/outbox.cif.g08.bks.cpg/sg19_4_cif.got.tgz:7201.got - 2010.06.03 22:46:19.
