data_PCOD9313749
_publ_section_title
;
Structure prediction by ZEFSAII (Michael W. Deem and Ramdas Pophale) SiO2 
 PCOD9313749
Probable space group: P 21 21 21
;
_chemical_formula_sum "Si O2"
_cell_formula_units_Z 32
_cell_length_a 26.713900
_cell_length_b 4.868477
_cell_length_c 9.356296
_cell_angle_alpha 90.000000
_cell_angle_beta 90.000000
_cell_angle_gamma 90.000000
_cell_volume 1216.842505
_symmetry_space_group_name_H-M "P 21 21 21"
_symmetry_group_IT_number 19
_symmetry_cell_setting 'orthorhombic'
loop_
_space_group_symop_operation_xyz
x,y,z
1/2-x,-y,1/2+z
1/2+x,1/2-y,-z
-x,1/2+y,1/2-z
loop_
_atom_site_type_symbol
_atom_site_label
_atom_site_fract_x
_atom_site_fract_y
_atom_site_fract_z
Si Si1 0.984567 0.251164 0.215388
Si Si2 0.766880 0.928413 0.294469
Si Si3 0.516054 0.739211 0.999003
Si Si4 0.814400 0.965196 0.593754
Si Si5 0.018103 0.768267 0.720256
Si Si6 0.910999 0.458359 0.999754
Si Si7 0.825018 0.448979 0.194257
Si Si8 0.371292 0.019462 0.505434
O O1 0.981040 0.015236 0.356258
O O2 0.986325 0.483021 0.352197
O O3 0.933455 0.275692 0.130197
O O4 0.807988 0.141945 0.231846
O O5 0.776427 0.887256 0.462888
O O6 0.777418 0.644701 0.212539
O O7 0.713440 0.040349 0.244612
O O8 0.448897 0.784326 0.992366
O O9 0.577825 0.681238 0.009373
O O10 0.508146 0.501619 0.140797
O O11 0.861534 0.761465 0.579631
O O12 0.830165 0.271644 0.554595
O O13 0.072230 0.818138 0.649248
O O14 0.984325 0.027463 0.642898
O O15 0.854234 0.492146 0.045717
O O16 0.860660 0.540879 0.327048
#
# Coordination Sequence:
#
# PCOD9313749 Si02
#       8
#     4   4   4   4   4   4   4   4
#     4  10  20  32  54  80 107 152 199 230 272 338
#     4  10  22  42  65  89 121 154 196 256 311 359
#     4  10  21  39  58  87 123 162 198 242 290 356
#     4  10  22  42  65  89 121 154 196 256 311 359
#     4  10  22  38  54  76 115 162 201 242 290 332
#     4  10  21  39  58  87 123 162 198 242 290 356
#     4  10  21  39  62  93 122 155 200 249 301 355
#     4  10  21  39  62  93 122 155 200 249 301 355
#
# _framework density 26.29757
#
# number of rings (size 3 to 8) (size 9 to 14) (size 15 to 20)
#    0.000    2.000    1.250    1.500    0.000    8.000 
#    6.750    0.000    0.000    0.000    0.000    0.000 
#    0.000    0.000    0.000    0.000    0.000    0.000 
#
# Total GULP energy -178421.243611 kJ/mol
# GULP energy per Si atom -5575.663863 kJ/mol
# Density = 2.623772 g / cm^3
# Si number density = 26.297570 Si / 1000 Ang^3
#
#
#
# Elastic Constant Matrix: (Units=GPa)
#
#
# Indices 1 2 3 4 5 6 
#
# 1 40.3252 -6.1259 10.0810 0.0000 0.0000 0.0000
# 2 -6.1259 196.4989 8.0778 0.0000 0.0000 0.0000
# 3 10.0810 8.0778 158.3090 0.0000 0.0000 0.0000
# 4 0.0000 0.0000 0.0000 39.1820 0.0000 0.0000
# 5 0.0000 0.0000 0.0000 0.0000 40.1341 0.0000
# 6 0.0000 0.0000 0.0000 0.0000 0.0000 28.6289
#
#
#
# Elastic Compliance Matrix: (Units=1/GPa)
#
#
# Indices 1 2 3 4 5 6 
#
# 1 0.025343 0.000858 -0.001658 0.000000 0.000000 0.000000
# 2 0.000858 0.005129 -0.000316 0.000000 0.000000 0.000000
# 3 -0.001658 -0.000316 0.006438 0.000000 0.000000 0.000000
# 4 0.000000 0.000000 0.000000 0.025522 0.000000 0.000000
# 5 0.000000 0.000000 0.000000 0.000000 0.024916 0.000000
# 6 0.000000 0.000000 0.000000 0.000000 0.000000 0.034930
#
#
# Mechanical properties :
#
#
# Convention : Reuss Voigt Hill
#
# Bulk Modulus (GPa) = 28.83594 46.57765 37.70680
# Shear Modulus (GPa) = 36.74587 47.12902 41.93744
#
# Velocity S-wave (km/s) = 3.74212 4.23796 3.99774
# Velocity P-wave (km/s) = 5.44613 6.45735 5.97318
#
# Compressibility (1/GPa) = 0.03467895
#
# Stress axis : x y z
#
# Youngs Moduli (GPa) = 39.45840 194.97561 155.31673
#
# Poissons Ratio (x) = -0.16733 0.25746
# Poissons Ratio (y) = -0.03386 0.04913
# Poissons Ratio (z) = 0.06541 0.06168
#
# Static dielectric constant tensor:
#      x y z
#    x 1.945380 0.000000 0.000000 
#    y 0.000000 2.034680 0.000000 
#    z 0.000000 0.000000 2.156000 
# 
# From -- ./inp_files/5586.got.cif
#   From: 2010.05.17/outbox.cif.g08.bks.cpg/sg19_3_cif.got.tgz:5586.got - 2010.06.03 22:46:19.
