data_PCOD9313508
_publ_section_title
;
Structure prediction by ZEFSAII (Michael W. Deem and Ramdas Pophale) SiO2 
 PCOD9313508
Probable space group: P 21 21 21
;
_chemical_formula_sum "Si O2"
_cell_formula_units_Z 32
_cell_length_a 12.238764
_cell_length_b 18.853219
_cell_length_c 5.389730
_cell_angle_alpha 90.000000
_cell_angle_beta 90.000000
_cell_angle_gamma 90.000000
_cell_volume 1243.626828
_symmetry_space_group_name_H-M "P 21 21 21"
_symmetry_group_IT_number 19
_symmetry_cell_setting 'orthorhombic'
loop_
_space_group_symop_operation_xyz
x,y,z
1/2-x,-y,1/2+z
1/2+x,1/2-y,-z
-x,1/2+y,1/2-z
loop_
_atom_site_type_symbol
_atom_site_label
_atom_site_fract_x
_atom_site_fract_y
_atom_site_fract_z
Si Si1 0.487666 0.751280 0.842020
Si Si2 0.083685 0.026351 0.249555
Si Si3 0.230780 0.154787 0.314876
Si Si4 0.567868 0.187841 0.158393
Si Si5 0.708498 0.725505 0.684540
Si Si6 0.002541 0.968267 0.748997
Si Si7 0.715140 0.936858 0.242322
Si Si8 0.844152 0.083491 0.243162
O O1 0.383484 0.801508 0.821535
O O2 0.463744 0.691154 0.633088
O O3 0.604905 0.776073 0.739342
O O4 0.500133 0.730211 0.128673
O O5 0.190327 0.074947 0.269407
O O6 0.974631 0.077410 0.245458
O O7 0.069871 0.980752 0.498065
O O8 0.072163 0.982789 0.995561
O O9 0.284659 0.171361 0.581195
O O10 0.296301 0.183879 0.076495
O O11 0.681319 0.229582 0.181083
O O12 0.553732 0.107714 0.244880
O O13 0.902835 0.024459 0.745137
O O14 0.713222 0.892463 0.491170
O O15 0.806477 0.997856 0.244139
O O16 0.712529 0.891359 0.995352
#
# Coordination Sequence:
#
# PCOD9313508 Si02
#       8
#     4   4   4   4   4   4   4   4
#     4  10  21  39  62  85 113 149 193 249 292 327
#     4  10  19  32  52  78 113 150 179 223 283 340
#     4  10  21  37  60  89 114 148 197 235 286 352
#     4  10  21  37  60  89 114 148 197 235 286 352
#     4  10  21  39  62  85 113 149 193 249 292 327
#     4  10  19  32  52  78 113 150 179 223 283 340
#     4   8  14  24  38  60  92 131 170 203 248 315
#     4   8  14  24  38  60  92 131 170 203 248 315
#
# _framework density 25.731192
#
# number of rings (size 3 to 8) (size 9 to 14) (size 15 to 20)
#    0.000    2.500    0.000    2.250    0.000    1.000 
#    0.000    0.000    0.000   33.000    0.000    0.000 
#    0.000    0.000    0.000    0.000    0.000    0.000 
#
# Total GULP energy -179002.978356 kJ/mol
# GULP energy per Si atom -5593.843074 kJ/mol
# Density = 2.567263 g / cm^3
# Si number density = 25.731192 Si / 1000 Ang^3
#
#
#
# Elastic Constant Matrix: (Units=GPa)
#
#
# Indices 1 2 3 4 5 6 
#
# 1 78.7072 -2.2114 21.0782 0.0000 0.0000 0.0000
# 2 -2.2114 34.4634 12.1330 0.0000 0.0000 0.0000
# 3 21.0782 12.1330 201.3046 0.0000 0.0000 0.0000
# 4 0.0000 0.0000 0.0000 29.4451 0.0000 0.0000
# 5 0.0000 0.0000 0.0000 0.0000 30.6937 0.0000
# 6 0.0000 0.0000 0.0000 0.0000 0.0000 35.7631
#
#
#
# Elastic Compliance Matrix: (Units=1/GPa)
#
#
# Indices 1 2 3 4 5 6 
#
# 1 0.013134 0.001356 -0.001457 0.000000 0.000000 0.000000
# 2 0.001356 0.029785 -0.001937 0.000000 0.000000 0.000000
# 3 -0.001457 -0.001937 0.005237 0.000000 0.000000 0.000000
# 4 0.000000 0.000000 0.000000 0.033961 0.000000 0.000000
# 5 0.000000 0.000000 0.000000 0.000000 0.032580 0.000000
# 6 0.000000 0.000000 0.000000 0.000000 0.000000 0.027962
#
#
# Mechanical properties :
#
#
# Convention : Reuss Voigt Hill
#
# Bulk Modulus (GPa) = 22.68660 41.83054 32.25857
# Shear Modulus (GPa) = 30.97342 38.07875 34.52608
#
# Velocity S-wave (km/s) = 3.47325 3.85108 3.66703
# Velocity P-wave (km/s) = 4.99204 6.00553 5.52209
#
# Compressibility (1/GPa) = 0.04407889
#
# Stress axis : x y z
#
# Youngs Moduli (GPa) = 76.14070 33.57366 190.95255
#
# Poissons Ratio (x) = -0.04551 0.27820
# Poissons Ratio (y) = -0.10322 0.36991
# Poissons Ratio (z) = 0.11093 0.06504
#
# Static dielectric constant tensor:
#      x y z
#    x 2.037890 0.000000 0.000000 
#    y 0.000000 2.053540 0.000000 
#    z 0.000000 0.000000 2.072990 
# 
# From -- ./inp_files/1180.got.cif
#   From: 2010.05.17/outbox.cif.g08.bks.cpg/sg19_1_cif.got.tgz:1180.got - 2010.06.03 22:46:19.
