data_PCOD9313405
_publ_section_title
;
Structure prediction by ZEFSAII (Michael W. Deem and Ramdas Pophale) SiO2 
 PCOD9313405
Probable space group: P 21 21 21
;
_chemical_formula_sum "Si O2"
_cell_formula_units_Z 28
_cell_length_a 12.528123
_cell_length_b 7.716848
_cell_length_c 11.274449
_cell_angle_alpha 90.000000
_cell_angle_beta 90.000000
_cell_angle_gamma 90.000000
_cell_volume 1089.986906
_symmetry_space_group_name_H-M "P 21 21 21"
_symmetry_group_IT_number 19
_symmetry_cell_setting 'orthorhombic'
loop_
_space_group_symop_operation_xyz
x,y,z
1/2-x,-y,1/2+z
1/2+x,1/2-y,-z
-x,1/2+y,1/2-z
loop_
_atom_site_type_symbol
_atom_site_label
_atom_site_fract_x
_atom_site_fract_y
_atom_site_fract_z
Si Si1 0.166910 0.486969 0.274801
Si Si2 0.380454 0.151848 0.757888
Si Si3 0.974707 0.891436 0.900231
Si Si4 0.740950 0.480514 0.939467
Si Si5 0.736666 0.921122 0.478311
Si Si6 0.903485 0.658585 0.096115
Si Si7 0.367194 0.885526 0.262211
O O1 0.088031 0.651371 0.278543
O O2 0.249234 0.504432 0.387655
O O3 0.208668 0.496783 0.140347
O O4 0.113510 0.302797 0.303130
O O5 0.253674 0.166187 0.789439
O O6 0.361365 0.057100 0.631280
O O7 0.433435 0.026107 0.851933
O O8 0.931143 0.780240 0.787307
O O9 0.885877 0.024399 0.950216
O O10 0.981230 0.742426 0.999987
O O11 0.074106 0.006648 0.862687
O O12 0.732784 0.280776 0.973302
O O13 0.841161 0.483151 0.845977
O O14 0.788692 0.618281 0.033397
#
# Coordination Sequence:
#
# PCOD9313405 Si02
#       7
#     4   4   4   4   4   4   4
#     4  11  19  33  51  77 112 147 184 236 282 341
#     4  10  18  32  50  72 111 148 186 231 286 343
#     4  10  19  31  48  79 113 150 184 237 294 351
#     4   9  18  32  49  76 109 146 183 229 284 337
#     4  11  19  31  54  77 116 145 189 232 289 338
#     4  10  19  31  51  76 111 143 193 232 284 346
#     4   9  18  30  47  71 116 145 187 227 299 338
#
# _framework density 25.688382000000001
#
# number of rings (size 3 to 8) (size 9 to 14) (size 15 to 20)
#    0.857    1.143    4.286    1.714    0.000    0.000 
#    0.000    0.000    0.000    0.000    0.000    0.000 
#  145.714    0.000    0.000    0.000    0.000    0.000 
#
# Total GULP energy -156158.479824 kJ/mol
# GULP energy per Si atom -5577.088565 kJ/mol
# Density = 2.562991 g / cm^3
# Si number density = 25.688382 Si / 1000 Ang^3
#
#
#
# Elastic Constant Matrix: (Units=GPa)
#
#
# Indices 1 2 3 4 5 6 
#
# 1 55.0133 0.7109 21.5223 0.0000 0.0000 0.0000
# 2 0.7109 118.7892 51.0681 0.0000 0.0000 0.0000
# 3 21.5223 51.0681 124.7339 0.0000 0.0000 0.0000
# 4 0.0000 0.0000 0.0000 63.3437 0.0000 0.0000
# 5 0.0000 0.0000 0.0000 0.0000 33.5175 0.0000
# 6 0.0000 0.0000 0.0000 0.0000 0.0000 41.5680
#
#
#
# Elastic Compliance Matrix: (Units=1/GPa)
#
#
# Indices 1 2 3 4 5 6 
#
# 1 0.019751 0.001635 -0.004077 0.000000 0.000000 0.000000
# 2 0.001635 0.010352 -0.004520 0.000000 0.000000 0.000000
# 3 -0.004077 -0.004520 0.010571 0.000000 0.000000 0.000000
# 4 0.000000 0.000000 0.000000 0.015787 0.000000 0.000000
# 5 0.000000 0.000000 0.000000 0.000000 0.029835 0.000000
# 6 0.000000 0.000000 0.000000 0.000000 0.000000 0.024057
#
#
# Mechanical properties :
#
#
# Convention : Reuss Voigt Hill
#
# Bulk Modulus (GPa) = 37.38504 49.45990 43.42247
# Shear Modulus (GPa) = 37.53884 42.70151 40.12018
#
# Velocity S-wave (km/s) = 3.82686 4.08154 3.95625
# Velocity P-wave (km/s) = 5.84050 6.44264 6.14894
#
# Compressibility (1/GPa) = 0.02674866
#
# Stress axis : x y z
#
# Youngs Moduli (GPa) = 50.62935 96.60189 94.59629
#
# Poissons Ratio (x) = -0.15791 0.38569
# Poissons Ratio (y) = -0.08276 0.42760
# Poissons Ratio (z) = 0.20643 0.43666
#
# Static dielectric constant tensor:
#      x y z
#    x 2.104510 0.000000 0.000000 
#    y 0.000000 1.994330 0.000000 
#    z 0.000000 0.000000 2.221060 
# 
# From -- ./inp_files/5385.got.cif
#   From: 2010.05.17/outbox.cif.g08.bks.cpg/sg19_3_cif.got.tgz:5385.got - 2010.06.03 22:46:19.
