data_PCOD9313110
_publ_section_title
;
Structure prediction by ZEFSAII (Michael W. Deem and Ramdas Pophale) SiO2 
 PCOD9313110
Probable space group: P 21 21 2
;
_chemical_formula_sum "Si O2"
_cell_formula_units_Z 20
_cell_length_a 8.869235
_cell_length_b 12.230056
_cell_length_c 8.105985
_cell_angle_alpha 90.000000
_cell_angle_beta 90.000000
_cell_angle_gamma 90.000000
_cell_volume 879.266250
_symmetry_space_group_name_H-M "P 21 21 2"
_symmetry_group_IT_number 18
_symmetry_cell_setting 'orthorhombic'
loop_
_space_group_symop_operation_xyz
x,y,z
-x,-y,z
1/2+x,1/2-y,-z
1/2-x,1/2+y,-z
loop_
_atom_site_type_symbol
_atom_site_label
_atom_site_fract_x
_atom_site_fract_y
_atom_site_fract_z
Si Si1 0.237916 0.294483 0.971875
Si Si2 0.128905 0.848862 0.505858
Si Si3 0.346296 0.708350 0.701496
Si Si4 0.523214 0.375090 0.140312
Si Si5 0.822595 0.510967 0.717260
O O1 0.195903 0.395740 0.855666
O O2 0.183074 0.183922 0.881744
O O3 0.158244 0.296027 0.151794
O O4 0.410909 0.304386 0.026004
O O5 0.246082 0.753866 0.551196
O O6 0.034738 0.869351 0.672042
O O7 0.228934 0.949217 0.442401
O O8 0.010811 0.819424 0.363760
O O9 0.257566 0.601815 0.767425
O O10 0.500000 0.500000 0.086400
O O11 0.000000 0.500000 0.682736
#
# Coordination Sequence:
#
# PCOD9313110 Si02
#       5
#     4   4   4   4   4
#     4  11  24  41  66  97 133 175 226 277 339 411
#     4  11  24  43  69  97 132 176 228 282 342 410
#     4  11  23  43  68  98 134 178 224 284 344 404
#     4  11  23  43  67  98 136 180 229 286 344 408
#     4  12  24  42  66  96 135 179 227 283 342 407
#
# _framework density 22.746238999999999
#
# number of rings (size 3 to 8) (size 9 to 14) (size 15 to 20)
#    0.000    0.800    0.000    9.000    0.000    0.000 
#    0.000   12.000    0.000    0.000    0.000    0.000 
#    0.000    0.000    0.000    0.000    0.000    0.000 
#
# Total GULP energy -111877.479426 kJ/mol
# GULP energy per Si atom -5593.873971 kJ/mol
# Density = 2.269447 g / cm^3
# Si number density = 22.746239 Si / 1000 Ang^3
#
#
#
# Elastic Constant Matrix: (Units=GPa)
#
#
# Indices 1 2 3 4 5 6 
#
# 1 83.5558 12.3631 36.3914 0.0000 0.0000 0.0000
# 2 12.3631 85.5379 16.3771 0.0000 0.0000 0.0000
# 3 36.3914 16.3771 100.1725 0.0000 0.0000 0.0000
# 4 0.0000 0.0000 0.0000 38.9191 0.0000 0.0000
# 5 0.0000 0.0000 0.0000 0.0000 20.9748 0.0000
# 6 0.0000 0.0000 0.0000 0.0000 0.0000 44.4028
#
#
#
# Elastic Compliance Matrix: (Units=1/GPa)
#
#
# Indices 1 2 3 4 5 6 
#
# 1 0.014319 -0.001108 -0.005021 0.000000 0.000000 0.000000
# 2 -0.001108 0.012154 -0.001584 0.000000 0.000000 0.000000
# 3 -0.005021 -0.001584 0.012066 0.000000 0.000000 0.000000
# 4 0.000000 0.000000 0.000000 0.025694 0.000000 0.000000
# 5 0.000000 0.000000 0.000000 0.000000 0.047676 0.000000
# 6 0.000000 0.000000 0.000000 0.000000 0.000000 0.022521
#
#
# Mechanical properties :
#
#
# Convention : Reuss Voigt Hill
#
# Bulk Modulus (GPa) = 43.26759 44.39216 43.82987
# Shear Modulus (GPa) = 31.73371 34.46830 33.10100
#
# Velocity S-wave (km/s) = 3.73918 3.89696 3.81889
# Velocity P-wave (km/s) = 6.14045 6.30928 6.22544
#
# Compressibility (1/GPa) = 0.02311199
#
# Stress axis : x y z
#
# Youngs Moduli (GPa) = 69.83888 82.27558 82.87928
#
# Poissons Ratio (x) = 0.09119 0.41610
# Poissons Ratio (y) = 0.07740 0.13132
# Poissons Ratio (z) = 0.35063 0.13036
#
# Static dielectric constant tensor:
#      x y z
#    x 1.834300 0.000000 0.000000 
#    y 0.000000 1.858490 0.000000 
#    z 0.000000 0.000000 1.870060 
# 
# From -- ./inp_files/2958.got.cif
#   From: 2010.05.17/outbox.cif.g08.bks.cpg/sg18_2_cif.got.tgz:2958.got - 2010.06.03 22:40:56.
