data_PCOD9313954
_publ_section_title
;
Structure prediction by ZEFSAII (Michael W. Deem and Ramdas Pophale) SiO2 
 PCOD9313954
Probable space group: P 21 21 21
;
_chemical_formula_sum "Si O2"
_cell_formula_units_Z 32
_cell_length_a 5.030695
_cell_length_b 10.204078
_cell_length_c 23.216447
_cell_angle_alpha 90.000000
_cell_angle_beta 90.000000
_cell_angle_gamma 90.000000
_cell_volume 1191.783901
_symmetry_space_group_name_H-M "P 21 21 21"
_symmetry_group_IT_number 19
_symmetry_cell_setting 'orthorhombic'
loop_
_space_group_symop_operation_xyz
x,y,z
1/2-x,-y,1/2+z
1/2+x,1/2-y,-z
-x,1/2+y,1/2-z
loop_
_atom_site_type_symbol
_atom_site_label
_atom_site_fract_x
_atom_site_fract_y
_atom_site_fract_z
Si Si1 0.997742 0.626537 0.633838
Si Si2 0.951376 0.401188 0.846531
Si Si3 0.197317 0.308867 0.526420
Si Si4 0.645634 0.680297 0.860326
Si Si5 0.175387 0.161675 0.992871
Si Si6 0.778380 0.344694 0.241377
Si Si7 0.212878 0.496772 0.735668
Si Si8 0.664138 0.008519 0.564401
O O1 0.174894 0.758975 0.641461
O O2 0.740184 0.665424 0.672563
O O3 0.908483 0.603707 0.569128
O O4 0.130364 0.505695 0.668495
O O5 0.092992 0.397882 0.782985
O O6 0.170646 0.411804 0.896516
O O7 0.788926 0.537547 0.851777
O O8 0.396933 0.207116 0.495154
O O9 0.220767 0.274195 0.592974
O O10 0.294502 0.441776 0.495217
O O11 0.624147 0.740508 0.796165
O O12 0.380135 0.632321 0.892919
O O13 0.966986 0.279424 0.005181
O O14 0.105370 0.059006 0.042722
O O15 0.467954 0.375718 0.254118
O O16 0.982473 0.469009 0.246235
#
# Coordination Sequence:
#
# PCOD9313954 Si02
#       8
#     4   4   4   4   4   4   4   4
#     4  10  24  40  65  91 134 160 216 271 316 385
#     4  11  19  41  66  92 120 173 214 254 330 396
#     4  10  21  35  60  90 128 161 212 266 309 378
#     4  10  20  38  64  95 128 167 217 263 318 396
#     4  12  27  43  64  97 133 177 223 270 322 391
#     4   9  20  38  61  86 123 157 202 262 312 364
#     4   9  21  39  61  91 121 156 205 264 312 378
#     4  11  22  38  67  92 129 173 219 260 335 382
#
# _framework density 26.850507
#
# number of rings (size 3 to 8) (size 9 to 14) (size 15 to 20)
#    0.750    1.000    3.750    0.750    1.750    1.000 
#    2.250    0.000    0.000    1.500    0.000    0.000 
#    0.000    0.000    0.000    0.000    0.000    0.000 
#
# Total GULP energy -178279.986530 kJ/mol
# GULP energy per Si atom -5571.249579 kJ/mol
# Density = 2.678939 g / cm^3
# Si number density = 26.850507 Si / 1000 Ang^3
#
#
#
# Elastic Constant Matrix: (Units=GPa)
#
#
# Indices 1 2 3 4 5 6 
#
# 1 70.5828 17.9509 21.8307 0.0000 0.0000 0.0000
# 2 17.9509 64.8436 37.2474 0.0000 0.0000 0.0000
# 3 21.8307 37.2474 217.6926 0.0000 0.0000 0.0000
# 4 0.0000 0.0000 0.0000 53.0705 0.0000 0.0000
# 5 0.0000 0.0000 0.0000 0.0000 28.2699 0.0000
# 6 0.0000 0.0000 0.0000 0.0000 0.0000 23.5213
#
#
#
# Elastic Compliance Matrix: (Units=1/GPa)
#
#
# Indices 1 2 3 4 5 6 
#
# 1 0.015399 -0.003744 -0.000904 0.000000 0.000000 0.000000
# 2 -0.003744 0.018013 -0.002707 0.000000 0.000000 0.000000
# 3 -0.000904 -0.002707 0.005147 0.000000 0.000000 0.000000
# 4 0.000000 0.000000 0.000000 0.018843 0.000000 0.000000
# 5 0.000000 0.000000 0.000000 0.000000 0.035373 0.000000
# 6 0.000000 0.000000 0.000000 0.000000 0.000000 0.042515
#
#
# Mechanical properties :
#
#
# Convention : Reuss Voigt Hill
#
# Bulk Modulus (GPa) = 41.92663 56.35301 49.13982
# Shear Modulus (GPa) = 31.65570 39.37834 35.51702
#
# Velocity S-wave (km/s) = 3.43732 3.83375 3.64093
# Velocity P-wave (km/s) = 5.60378 6.37417 6.00135
#
# Compressibility (1/GPa) = 0.02385119
#
# Stress axis : x y z
#
# Youngs Moduli (GPa) = 64.93744 55.51588 194.27464
#
# Poissons Ratio (x) = 0.20785 0.17557
# Poissons Ratio (y) = 0.24312 0.52582
# Poissons Ratio (z) = 0.05868 0.15026
#
# Static dielectric constant tensor:
#      x y z
#    x 2.058830 0.000000 0.000000 
#    y 0.000000 2.316790 0.000000 
#    z 0.000000 0.000000 2.182670 
# 
# From -- ./inp_files/7301.got.cif
#   From: 2010.05.17/outbox.cif.g08.bks.cpg/sg19_4_cif.got.tgz:7301.got - 2010.06.03 22:46:19.
