data_PCOD9313182
_publ_section_title
;
Structure prediction by ZEFSAII (Michael W. Deem and Ramdas Pophale) SiO2 
 PCOD9313182
Probable space group: P 21 21 2
;
_chemical_formula_sum "Si O2"
_cell_formula_units_Z 18
_cell_length_a 11.684435
_cell_length_b 7.095013
_cell_length_c 9.655889
_cell_angle_alpha 90.000000
_cell_angle_beta 90.000000
_cell_angle_gamma 90.000000
_cell_volume 800.484961
_symmetry_space_group_name_H-M "P 21 21 2"
_symmetry_group_IT_number 18
_symmetry_cell_setting 'orthorhombic'
loop_
_space_group_symop_operation_xyz
x,y,z
-x,-y,z
1/2+x,1/2-y,-z
1/2-x,1/2+y,-z
loop_
_atom_site_type_symbol
_atom_site_label
_atom_site_fract_x
_atom_site_fract_y
_atom_site_fract_z
Si Si1 0.868956 0.452116 0.438419
Si Si2 0.182075 0.039551 0.030476
Si Si3 0.706057 0.750907 0.291610
Si Si4 0.889623 0.360727 0.147085
Si Si5 0.500000 0.500000 0.165437
O O1 0.795583 0.616414 0.369149
O O2 0.824723 0.395205 0.587072
O O3 0.868708 0.308619 0.308398
O O4 0.000000 0.500000 0.458574
O O5 0.268203 0.642312 0.835069
O O6 0.084132 0.127381 0.931322
O O7 0.288988 0.021426 0.926772
O O8 0.125040 0.840959 0.072820
O O9 0.590733 0.632606 0.248261
O O10 0.000000 0.500000 0.140237
#
# Coordination Sequence:
#
# PCOD9313182 Si02
#       5
#     4   4   4   4   2
#     4  11  27  48  72 113 150 211 257 322 403 469
#     4  12  26  48  78 113 153 210 262 332 393 467
#     4  12  28  51  78 112 161 207 267 333 394 488
#     4  11  25  46  74 113 157 201 266 320 397 475
#     4  12  28  46  80 120 150 210 264 340 402 470
#
# _framework density 22.486366
#
# number of rings (size 3 to 8) (size 9 to 14) (size 15 to 20)
#    0.000    0.444    4.444    1.333   12.444    2.667 
#    0.000    0.000    0.000    0.000    0.000    0.000 
#    0.000    0.000    0.000    0.000    0.000    0.000 
#
# Total GULP energy -100364.506053 kJ/mol
# GULP energy per Si atom -5575.805892 kJ/mol
# Density = 2.243519 g / cm^3
# Si number density = 22.486366 Si / 1000 Ang^3
#
#
#
# Elastic Constant Matrix: (Units=GPa)
#
#
# Indices 1 2 3 4 5 6 
#
# 1 180.0582 52.2405 89.2077 0.0000 0.0000 0.0000
# 2 52.2405 83.6035 50.8621 0.0000 0.0000 0.0000
# 3 89.2077 50.8621 172.9591 0.0000 0.0000 0.0000
# 4 0.0000 0.0000 0.0000 43.7851 0.0000 0.0000
# 5 0.0000 0.0000 0.0000 0.0000 0.1682 0.0000
# 6 0.0000 0.0000 0.0000 0.0000 0.0000 23.6945
#
#
#
# Elastic Compliance Matrix: (Units=1/GPa)
#
#
# Indices 1 2 3 4 5 6 
#
# 1 0.008052 -0.003051 -0.003256 0.000000 0.000000 0.000000
# 2 -0.003051 0.015723 -0.003050 0.000000 0.000000 0.000000
# 3 -0.003256 -0.003050 0.008358 0.000000 0.000000 0.000000
# 4 0.000000 0.000000 0.000000 0.022839 0.000000 0.000000
# 5 0.000000 0.000000 0.000000 0.000000 5.946237 0.000000
# 6 0.000000 0.000000 0.000000 0.000000 0.000000 0.042204
#
#
# Mechanical properties :
#
#
# Convention : Reuss Voigt Hill
#
# Bulk Modulus (GPa) = 74.51802 91.24904 82.88353
# Shear Modulus (GPa) = 0.82418 29.81692 15.32055
#
# Velocity S-wave (km/s) = 0.60607 3.64538 2.61305
# Velocity P-wave (km/s) = 5.80525 7.64109 6.78554
#
# Compressibility (1/GPa) = 0.01341957
#
# Stress axis : x y z
#
# Youngs Moduli (GPa) = 124.19417 63.60068 119.64548
#
# Poissons Ratio (x) = 0.19402 0.38955
# Poissons Ratio (y) = 0.37886 0.36496
# Poissons Ratio (z) = 0.40436 0.19400
#
# Static dielectric constant tensor:
#      x y z
#    x 1.854930 0.000000 0.000000 
#    y 0.000000 2.084700 0.000000 
#    z 0.000000 0.000000 1.885270 
# 
# From -- ./inp_files/3615.got.cif
#   From: 2010.05.17/outbox.cif.g08.bks.cpg/sg18_2_cif.got.tgz:3615.got - 2010.06.03 22:40:56.
