data_PCOD9313358
_publ_section_title
;
Structure prediction by ZEFSAII (Michael W. Deem and Ramdas Pophale) SiO2 
 PCOD9313358
Probable space group: P 21 21 21
;
_chemical_formula_sum "Si O2"
_cell_formula_units_Z 28
_cell_length_a 32.503838
_cell_length_b 8.968379
_cell_length_c 4.972350
_cell_angle_alpha 90.000000
_cell_angle_beta 90.000000
_cell_angle_gamma 90.000000
_cell_volume 1449.473529
_symmetry_space_group_name_H-M "P 21 21 21"
_symmetry_group_IT_number 19
_symmetry_cell_setting 'orthorhombic'
loop_
_space_group_symop_operation_xyz
x,y,z
1/2-x,-y,1/2+z
1/2+x,1/2-y,-z
-x,1/2+y,1/2-z
loop_
_atom_site_type_symbol
_atom_site_label
_atom_site_fract_x
_atom_site_fract_y
_atom_site_fract_z
Si Si1 0.921458 0.263576 0.632303
Si Si2 0.422592 0.752814 0.918990
Si Si3 0.838860 0.399479 0.426466
Si Si4 0.947787 0.084715 0.127992
Si Si5 0.540621 0.413946 0.087053
Si Si6 0.661894 0.389549 0.426816
Si Si7 0.250373 0.102144 0.452916
O O1 0.876550 0.296700 0.511101
O O2 0.943705 0.422554 0.668722
O O3 0.921166 0.177189 0.912507
O O4 0.945821 0.166805 0.412763
O O5 0.431534 0.582765 0.848012
O O6 0.451955 0.805375 0.162147
O O7 0.376205 0.782799 0.016191
O O8 0.432345 0.855159 0.662194
O O9 0.839702 0.541466 0.629652
O O10 0.793982 0.326097 0.472351
O O11 0.842335 0.468910 0.129915
O O12 0.993951 0.082787 0.012541
O O13 0.706896 0.321075 0.485725
O O14 0.250982 0.044250 0.147584
#
# Coordination Sequence:
#
# PCOD9313358 Si02
#       7
#     4   4   4   4   4   4   4
#     4  12  23  40  60  82 115 149 191 237 281 341
#     4  12  23  40  60  83 115 148 190 237 282 341
#     4  10  18  34  55  85 110 143 186 229 279 326
#     4  12  26  38  55  84 115 150 187 236 293 329
#     4  12  23  41  60  79 107 153 198 237 273 333
#     4  10  17  34  56  85 110 143 186 228 281 328
#     4   8  16  27  52  82 112 134 176 236 271 320
#
# _framework density 19.317357999999999
#
# number of rings (size 3 to 8) (size 9 to 14) (size 15 to 20)
#    0.000    1.143    2.857    5.143    0.000    0.000 
#    0.000    0.000    0.000    1.714    0.000    0.000 
#    0.000    0.000    0.000    0.000    0.000    0.000 
#
# Total GULP energy -156482.989486 kJ/mol
# GULP energy per Si atom -5588.678196 kJ/mol
# Density = 1.927339 g / cm^3
# Si number density = 19.317358 Si / 1000 Ang^3
#
#
#
# Elastic Constant Matrix: (Units=GPa)
#
#
# Indices 1 2 3 4 5 6 
#
# 1 109.2657 13.0332 -25.8498 0.0000 0.0000 0.0000
# 2 13.0332 46.4720 -9.0782 0.0000 0.0000 0.0000
# 3 -25.8498 -9.0782 62.1376 0.0000 0.0000 0.0000
# 4 0.0000 0.0000 0.0000 5.5040 0.0000 0.0000
# 5 0.0000 0.0000 0.0000 0.0000 26.8901 0.0000
# 6 0.0000 0.0000 0.0000 0.0000 0.0000 1.0661
#
#
#
# Elastic Compliance Matrix: (Units=1/GPa)
#
#
# Indices 1 2 3 4 5 6 
#
# 1 0.010350 -0.002122 0.003996 0.000000 0.000000 0.000000
# 2 -0.002122 0.022586 0.002417 0.000000 0.000000 0.000000
# 3 0.003996 0.002417 0.018109 0.000000 0.000000 0.000000
# 4 0.000000 0.000000 0.000000 0.181687 0.000000 0.000000
# 5 0.000000 0.000000 0.000000 0.000000 0.037188 0.000000
# 6 0.000000 0.000000 0.000000 0.000000 0.000000 0.938008
#
#
# Mechanical properties :
#
#
# Convention : Reuss Voigt Hill
#
# Bulk Modulus (GPa) = 16.77127 19.34286 18.05707
# Shear Modulus (GPa) = 4.10097 22.67670 13.38884
#
# Velocity S-wave (km/s) = 1.45861 3.42994 2.63553
# Velocity P-wave (km/s) = 3.39670 5.07158 4.31616
#
# Compressibility (1/GPa) = 0.05962576
#
# Stress axis : x y z
#
# Youngs Moduli (GPa) = 96.61400 44.27584 55.22202
#
# Poissons Ratio (x) = 0.09396 -0.22066
# Poissons Ratio (y) = 0.20504 -0.13346
# Poissons Ratio (z) = -0.38605 -0.10701
#
# Static dielectric constant tensor:
#      x y z
#    x 1.739040 0.000000 0.000000 
#    y 0.000000 1.618020 0.000000 
#    z 0.000000 0.000000 1.663660 
# 
# From -- ./inp_files/2299.got.cif
#   From: 2010.05.17/outbox.cif.g08.bks.cpg/sg19_2_cif.got.tgz:2299.got - 2010.06.03 22:46:19.
