data_PCOD9313812
_publ_section_title
;
Structure prediction by ZEFSAII (Michael W. Deem and Ramdas Pophale) SiO2 
 PCOD9313812
Probable space group: P 21 21 21
;
_chemical_formula_sum "Si O2"
_cell_formula_units_Z 28
_cell_length_a 20.674482
_cell_length_b 12.723363
_cell_length_c 4.955174
_cell_angle_alpha 90.000000
_cell_angle_beta 90.000000
_cell_angle_gamma 90.000000
_cell_volume 1303.453265
_symmetry_space_group_name_H-M "P 21 21 21"
_symmetry_group_IT_number 19
_symmetry_cell_setting 'orthorhombic'
loop_
_space_group_symop_operation_xyz
x,y,z
1/2-x,-y,1/2+z
1/2+x,1/2-y,-z
-x,1/2+y,1/2-z
loop_
_atom_site_type_symbol
_atom_site_label
_atom_site_fract_x
_atom_site_fract_y
_atom_site_fract_z
Si Si1 0.701894 0.245868 0.727703
Si Si2 0.919880 0.635705 0.121201
Si Si3 0.273671 0.057123 0.090960
Si Si4 0.220986 0.554435 0.897439
Si Si5 0.474899 0.643924 0.959412
Si Si6 0.394392 0.581633 0.482654
Si Si7 0.588869 0.509550 0.145615
O O1 0.650620 0.312939 0.552440
O O2 0.744023 0.327281 0.896776
O O3 0.751399 0.170998 0.569434
O O4 0.656078 0.170153 0.907585
O O5 0.908805 0.572999 0.398310
O O6 0.967690 0.735140 0.130455
O O7 0.941749 0.556752 0.890155
O O8 0.229267 0.985201 0.287741
O O9 0.343539 0.048213 0.229586
O O10 0.264726 0.482637 0.093364
O O11 0.147269 0.524414 0.956682
O O12 0.425899 0.619824 0.205518
O O13 0.544777 0.605861 0.051389
O O14 0.449234 0.575962 0.708761
#
# Coordination Sequence:
#
# PCOD9313812 Si02
#       7
#     4   4   4   4   4   4   4
#     4  10  21  39  67  92 127 163 207 257 316 382
#     4  11  22  41  69  87 122 172 212 249 319 384
#     4  12  24  41  64  96 127 166 212 259 322 365
#     4  10  20  35  61  96 127 157 204 261 311 367
#     4  11  24  42  67  92 126 170 219 254 317 383
#     4  10  21  40  66  96 126 167 212 259 318 384
#     4  12  24  44  64  93 129 163 212 271 303 377
#
# _framework density 21.481399
#
# number of rings (size 3 to 8) (size 9 to 14) (size 15 to 20)
#    0.000    1.143    2.857    5.143    0.000    3.429 
#    5.143    0.000    0.000    0.000    0.000    0.000 
#    0.000    0.000    0.000    0.000    0.000    0.000 
#
# Total GULP energy -156471.733876 kJ/mol
# GULP energy per Si atom -5588.276210 kJ/mol
# Density = 2.143251 g / cm^3
# Si number density = 21.481399 Si / 1000 Ang^3
#
#
#
# Elastic Constant Matrix: (Units=GPa)
#
#
# Indices 1 2 3 4 5 6 
#
# 1 67.5461 26.1590 2.6005 0.0000 0.0000 0.0000
# 2 26.1590 55.6765 -8.8422 0.0000 0.0000 0.0000
# 3 2.6005 -8.8422 70.1188 0.0000 0.0000 0.0000
# 4 0.0000 0.0000 0.0000 21.7656 0.0000 0.0000
# 5 0.0000 0.0000 0.0000 0.0000 25.9769 0.0000
# 6 0.0000 0.0000 0.0000 0.0000 0.0000 38.0787
#
#
#
# Elastic Compliance Matrix: (Units=1/GPa)
#
#
# Indices 1 2 3 4 5 6 
#
# 1 0.018318 -0.008892 -0.001801 0.000000 0.000000 0.000000
# 2 -0.008892 0.022645 0.003185 0.000000 0.000000 0.000000
# 3 -0.001801 0.003185 0.014730 0.000000 0.000000 0.000000
# 4 0.000000 0.000000 0.000000 0.045944 0.000000 0.000000
# 5 0.000000 0.000000 0.000000 0.000000 0.038496 0.000000
# 6 0.000000 0.000000 0.000000 0.000000 0.000000 0.026261
#
#
# Mechanical properties :
#
#
# Convention : Reuss Voigt Hill
#
# Bulk Modulus (GPa) = 24.58385 25.90842 25.24614
# Shear Modulus (GPa) = 25.64518 28.72584 27.18551
#
# Velocity S-wave (km/s) = 3.45894 3.66080 3.56130
# Velocity P-wave (km/s) = 5.23655 5.47318 5.35617
#
# Compressibility (1/GPa) = 0.04067711
#
# Stress axis : x y z
#
# Youngs Moduli (GPa) = 54.59156 44.16026 67.88879
#
# Poissons Ratio (x) = 0.39269 0.12225
# Poissons Ratio (y) = 0.48545 -0.21625
# Poissons Ratio (z) = 0.09830 -0.14067
#
# Static dielectric constant tensor:
#      x y z
#    x 1.805590 0.000000 0.000000 
#    y 0.000000 1.787960 0.000000 
#    z 0.000000 0.000000 1.770700 
# 
# From -- ./inp_files/1944.got.cif
#   From: 2010.05.17/outbox.cif.g08.bks.cpg/sg19_1_cif.got.tgz:1944.got - 2010.06.03 22:46:19.
