data_PCOD9313328
_publ_section_title
;
Structure prediction by ZEFSAII (Michael W. Deem and Ramdas Pophale) SiO2 
 PCOD9313328
Probable space group: P 21 21 21
;
_chemical_formula_sum "Si O2"
_cell_formula_units_Z 32
_cell_length_a 9.745011
_cell_length_b 12.024340
_cell_length_c 14.106659
_cell_angle_alpha 90.000000
_cell_angle_beta 90.000000
_cell_angle_gamma 90.000000
_cell_volume 1652.980574
_symmetry_space_group_name_H-M "P 21 21 21"
_symmetry_group_IT_number 19
_symmetry_cell_setting 'orthorhombic'
loop_
_space_group_symop_operation_xyz
x,y,z
1/2-x,-y,1/2+z
1/2+x,1/2-y,-z
-x,1/2+y,1/2-z
loop_
_atom_site_type_symbol
_atom_site_label
_atom_site_fract_x
_atom_site_fract_y
_atom_site_fract_z
Si Si1 0.585153 0.658657 0.902082
Si Si2 0.093511 0.022175 0.236548
Si Si3 0.290905 0.663218 0.166364
Si Si4 0.822929 0.117685 0.147694
Si Si5 0.010135 0.839310 0.375580
Si Si6 0.435292 0.275342 0.410608
Si Si7 0.824579 0.762052 0.206405
Si Si8 0.339273 0.492895 0.510660
O O1 0.631193 0.539390 0.861958
O O2 0.666831 0.749647 0.841786
O O3 0.427503 0.689427 0.874801
O O4 0.614043 0.684619 0.011155
O O5 0.167286 0.129975 0.276539
O O6 0.938032 0.059496 0.213341
O O7 0.097523 0.928506 0.316382
O O8 0.300084 0.636914 0.277572
O O9 0.421815 0.728024 0.126172
O O10 0.244675 0.560736 0.099220
O O11 0.769481 0.040146 0.064340
O O12 0.897625 0.229602 0.109098
O O13 0.885512 0.808838 0.304006
O O14 0.939175 0.906217 0.460174
O O15 0.327373 0.289843 0.326071
O O16 0.429607 0.391929 0.467184
#
# Coordination Sequence:
#
# PCOD9313328 Si02
#       8
#     4   4   4   4   4   4   4   4
#     4  10  18  36  63  86 112 162 215 252 293 368
#     4  10  16  36  65  82 112 165 209 247 298 364
#     4  11  21  40  63  93 126 158 208 256 311 371
#     4  11  21  40  64  92 125 166 209 254 310 374
#     4  10  20  39  64  86 114 167 217 244 298 378
#     4  11  23  37  60  97 125 151 206 263 311 370
#     4  10  20  37  60  88 118 161 207 249 304 376
#     4  11  23  41  65  90 126 168 205 263 315 359
#
# _framework density 19.358968999999998
#
# number of rings (size 3 to 8) (size 9 to 14) (size 15 to 20)
#    0.000    1.500    5.000    4.500    0.000    0.000 
#    4.500    5.000    0.000    0.000    0.000    0.000 
#    0.000    0.000    0.000    0.000    0.000    0.000 
#
# Total GULP energy -178361.072248 kJ/mol
# GULP energy per Si atom -5573.783508 kJ/mol
# Density = 1.931491 g / cm^3
# Si number density = 19.358969 Si / 1000 Ang^3
#
#
#
# Elastic Constant Matrix: (Units=GPa)
#
#
# Indices 1 2 3 4 5 6 
#
# 1 35.4403 19.8551 22.6610 0.0000 0.0000 0.0000
# 2 19.8551 100.9900 30.9072 0.0000 0.0000 0.0000
# 3 22.6610 30.9072 63.6216 0.0000 0.0000 0.0000
# 4 0.0000 0.0000 0.0000 34.8707 0.0000 0.0000
# 5 0.0000 0.0000 0.0000 0.0000 20.2767 0.0000
# 6 0.0000 0.0000 0.0000 0.0000 0.0000 25.1504
#
#
#
# Elastic Compliance Matrix: (Units=1/GPa)
#
#
# Indices 1 2 3 4 5 6 
#
# 1 0.037795 -0.003889 -0.011573 0.000000 0.000000 0.000000
# 2 -0.003889 0.012031 -0.004460 0.000000 0.000000 0.000000
# 3 -0.011573 -0.004460 0.022006 0.000000 0.000000 0.000000
# 4 0.000000 0.000000 0.000000 0.028677 0.000000 0.000000
# 5 0.000000 0.000000 0.000000 0.000000 0.049318 0.000000
# 6 0.000000 0.000000 0.000000 0.000000 0.000000 0.039761
#
#
# Mechanical properties :
#
#
# Convention : Reuss Voigt Hill
#
# Bulk Modulus (GPa) = 31.25958 38.54428 34.90193
# Shear Modulus (GPa) = 20.82511 24.50146 22.66328
#
# Velocity S-wave (km/s) = 3.28340 3.56144 3.42524
# Velocity P-wave (km/s) = 5.52781 6.07168 5.80612
#
# Compressibility (1/GPa) = 0.03199020
#
# Stress axis : x y z
#
# Youngs Moduli (GPa) = 26.45851 83.11582 45.44117
#
# Poissons Ratio (x) = 0.32323 0.52588
# Poissons Ratio (y) = 0.10290 0.20265
# Poissons Ratio (z) = 0.30620 0.37067
#
# Static dielectric constant tensor:
#      x y z
#    x 1.680000 0.000000 0.000000 
#    y 0.000000 1.724930 0.000000 
#    z 0.000000 0.000000 1.733570 
# 
# From -- ./inp_files/5911.got.cif
#   From: 2010.05.17/outbox.cif.g08.bks.cpg/sg19_3_cif.got.tgz:5911.got - 2010.06.03 22:46:19.
