data_PCOD9313210
_publ_section_title
;
Structure prediction by ZEFSAII (Michael W. Deem and Ramdas Pophale) SiO2 
 PCOD9313210
Probable space group: P 21 21 2
;
_chemical_formula_sum "Si O2"
_cell_formula_units_Z 32
_cell_length_a 18.120397
_cell_length_b 5.437990
_cell_length_c 13.869280
_cell_angle_alpha 90.000000
_cell_angle_beta 90.000000
_cell_angle_gamma 90.000000
_cell_volume 1366.658570
_symmetry_space_group_name_H-M "P 21 21 2"
_symmetry_group_IT_number 18
_symmetry_cell_setting 'orthorhombic'
loop_
_space_group_symop_operation_xyz
x,y,z
-x,-y,z
1/2+x,1/2-y,-z
1/2-x,1/2+y,-z
loop_
_atom_site_type_symbol
_atom_site_label
_atom_site_fract_x
_atom_site_fract_y
_atom_site_fract_z
Si Si1 0.720781 0.190354 0.097113
Si Si2 0.585373 0.549415 0.639340
Si Si3 0.545834 0.746463 0.191353
Si Si4 0.204321 0.123313 0.516142
Si Si5 0.630570 0.822982 0.998422
Si Si6 0.918582 0.395668 0.194228
Si Si7 0.314455 0.705755 0.783799
Si Si8 0.182066 0.962751 0.721566
O O1 0.783750 0.247061 0.017546
O O2 0.696052 0.387467 0.178637
O O3 0.765590 0.988348 0.160056
O O4 0.647446 0.096299 0.043376
O O5 0.500000 0.500000 0.618782
O O6 0.637742 0.472289 0.552403
O O7 0.595459 0.809684 0.695693
O O8 0.613733 0.389665 0.729300
O O9 0.500000 0.500000 0.211330
O O10 0.615380 0.725588 0.263424
O O11 0.500000 0.000000 0.199858
O O12 0.581714 0.721284 0.085658
O O13 0.263604 0.897623 0.503355
O O14 0.175391 0.124886 0.626589
O O15 0.588182 0.730534 0.901862
O O16 0.850916 0.569717 0.160315
O O17 0.000000 0.500000 0.192259
O O18 0.257215 0.812317 0.707791
#
# Coordination Sequence:
#
# PCOD9313210 Si02
#       8
#     4   4   4   4   4   4   4   4
#     4  12  24  43  73 110 148 201 270 329 375 465
#     4  12  26  47  75 112 154 191 250 322 395 470
#     4  12  29  50  72 104 154 207 262 323 381 456
#     4  12  28  49  84 118 150 201 262 324 395 473
#     4  12  24  42  69 107 148 201 262 314 383 460
#     4  12  25  42  69 106 152 203 245 314 396 468
#     4  12  21  45  73 100 144 196 248 309 390 459
#     4  12  26  50  79 105 151 203 265 326 388 472
#
# _framework density 23.414774999999999
#
# number of rings (size 3 to 8) (size 9 to 14) (size 15 to 20)
#    0.000    0.000    6.250    4.125    0.000    3.000 
#    0.000    0.625    0.000    0.000    0.000    0.000 
#    0.000    0.000    0.000    0.000    0.000    0.000 
#
# Total GULP energy -178326.721291 kJ/mol
# GULP energy per Si atom -5572.710040 kJ/mol
# Density = 2.336148 g / cm^3
# Si number density = 23.414775 Si / 1000 Ang^3
#
#
#
# Elastic Constant Matrix: (Units=GPa)
#
#
# Indices 1 2 3 4 5 6 
#
# 1 115.4211 30.0899 13.0075 0.0000 0.0000 0.0000
# 2 30.0899 69.1181 -8.1058 0.0000 0.0000 0.0000
# 3 13.0075 -8.1058 54.2943 0.0000 0.0000 0.0000
# 4 0.0000 0.0000 0.0000 19.2561 0.0000 0.0000
# 5 0.0000 0.0000 0.0000 0.0000 29.3877 0.0000
# 6 0.0000 0.0000 0.0000 0.0000 0.0000 39.1834
#
#
#
# Elastic Compliance Matrix: (Units=1/GPa)
#
#
# Indices 1 2 3 4 5 6 
#
# 1 0.010289 -0.004853 -0.003189 0.000000 0.000000 0.000000
# 2 -0.004853 0.017015 0.003703 0.000000 0.000000 0.000000
# 3 -0.003189 0.003703 0.019735 0.000000 0.000000 0.000000
# 4 0.000000 0.000000 0.000000 0.051932 0.000000 0.000000
# 5 0.000000 0.000000 0.000000 0.000000 0.034028 0.000000
# 6 0.000000 0.000000 0.000000 0.000000 0.000000 0.025521
#
#
# Mechanical properties :
#
#
# Convention : Reuss Voigt Hill
#
# Bulk Modulus (GPa) = 26.06919 34.31295 30.19107
# Shear Modulus (GPa) = 27.78014 31.15488 29.46751
#
# Velocity S-wave (km/s) = 3.44821 3.65165 3.55138
# Velocity P-wave (km/s) = 5.19724 5.69786 5.45330
#
# Compressibility (1/GPa) = 0.03835946
#
# Stress axis : x y z
#
# Youngs Moduli (GPa) = 97.19561 58.77177 50.67125
#
# Poissons Ratio (x) = 0.28522 0.16161
# Poissons Ratio (y) = 0.47169 -0.18763
# Poissons Ratio (z) = 0.30999 -0.21762
#
# Static dielectric constant tensor:
#      x y z
#    x 1.864030 0.000000 0.000000 
#    y 0.000000 2.366510 0.000000 
#    z 0.000000 0.000000 1.938040 
# 
# From -- ./inp_files/7022.got.cif
#   From: 2010.05.17/outbox.cif.g08.bks.cpg/sg18_4_cif.got.tgz:7022.got - 2010.06.03 22:40:56.
