data_PCOD9313046
_publ_section_title
;
Structure prediction by ZEFSAII (Michael W. Deem and Ramdas Pophale) SiO2 
 PCOD9313046
Probable space group: P 21 21 2
;
_chemical_formula_sum "Si O2"
_cell_formula_units_Z 20
_cell_length_a 17.284424
_cell_length_b 7.239992
_cell_length_c 7.763980
_cell_angle_alpha 90.000000
_cell_angle_beta 90.000000
_cell_angle_gamma 90.000000
_cell_volume 971.577404
_symmetry_space_group_name_H-M "P 21 21 2"
_symmetry_group_IT_number 18
_symmetry_cell_setting 'orthorhombic'
loop_
_space_group_symop_operation_xyz
x,y,z
-x,-y,z
1/2+x,1/2-y,-z
1/2-x,1/2+y,-z
loop_
_atom_site_type_symbol
_atom_site_label
_atom_site_fract_x
_atom_site_fract_y
_atom_site_fract_z
Si Si1 0.418833 0.192211 0.512600
Si Si2 0.330086 0.855393 0.378460
Si Si3 0.534802 0.294739 0.804204
Si Si4 0.482043 0.719216 0.188132
Si Si5 0.319739 0.543949 0.642098
O O1 0.632528 0.990919 0.505238
O O2 0.489271 0.197146 0.648989
O O3 0.455650 0.201797 0.321880
O O4 0.369700 0.375436 0.560195
O O5 0.398067 0.771234 0.262469
O O6 0.298595 0.686396 0.491401
O O7 0.258550 0.955401 0.284091
O O8 0.500000 0.500000 0.806189
O O9 0.624826 0.337363 0.767227
O O10 0.516360 0.214572 0.991322
O O11 0.500000 0.500000 0.190121
#
# Coordination Sequence:
#
# PCOD9313046 Si02
#       5
#     4   4   4   4   4
#     4  11  21  42  69  93 124 173 218 263 322 378
#     4  12  23  40  67  95 129 173 213 262 329 382
#     4   9  21  41  67  94 126 167 216 266 315 377
#     4  11  21  41  69  96 128 167 217 272 316 379
#     4  11  22  42  65  93 132 172 211 263 325 386
#
# _framework density 20.585082
#
# number of rings (size 3 to 8) (size 9 to 14) (size 15 to 20)
#    0.000    1.200    6.000    1.200    0.000    0.000 
#    7.200    8.000    0.000    0.000    0.000    0.000 
#    0.000    0.000    0.000    0.000    0.000    0.000 
#
# Total GULP energy -111586.885723 kJ/mol
# GULP energy per Si atom -5579.344286 kJ/mol
# Density = 2.053823 g / cm^3
# Si number density = 20.585082 Si / 1000 Ang^3
#
#
#
# Elastic Constant Matrix: (Units=GPa)
#
#
# Indices 1 2 3 4 5 6 
#
# 1 120.4656 45.0914 27.0976 0.0000 0.0000 0.0000
# 2 45.0914 113.7053 33.1994 0.0000 0.0000 0.0000
# 3 27.0976 33.1994 85.4639 0.0000 0.0000 0.0000
# 4 0.0000 0.0000 0.0000 -14.6870 0.0000 0.0000
# 5 0.0000 0.0000 0.0000 0.0000 9.0815 0.0000
# 6 0.0000 0.0000 0.0000 0.0000 0.0000 43.2868
#
#
#
# Elastic Compliance Matrix: (Units=1/GPa)
#
#
# Indices 1 2 3 4 5 6 
#
# 1 0.009998 -0.003428 -0.001838 0.000000 0.000000 0.000000
# 2 -0.003428 0.011095 -0.003223 0.000000 0.000000 0.000000
# 3 -0.001838 -0.003223 0.013536 0.000000 0.000000 0.000000
# 4 0.000000 0.000000 0.000000 -0.068087 0.000000 0.000000
# 5 0.000000 0.000000 0.000000 0.000000 0.110114 0.000000
# 6 0.000000 0.000000 0.000000 0.000000 0.000000 0.023102
#
#
# Mechanical properties :
#
#
# Convention : Reuss Voigt Hill
#
# Bulk Modulus (GPa) = 56.65780 58.93463 57.79622
# Shear Modulus (GPa) = 40.77674 21.81935 31.29804
#
# Velocity S-wave (km/s) = 4.45554 3.25923 3.90349
# Velocity P-wave (km/s) = 7.35205 6.54640 6.96089
#
# Compressibility (1/GPa) = 0.01764982
#
# Stress axis : x y z
#
# Youngs Moduli (GPa) = 100.02229 90.12927 73.87833
#
# Poissons Ratio (x) = 0.30896 0.13581
# Poissons Ratio (y) = 0.34288 0.23812
# Poissons Ratio (z) = 0.18387 0.29050
#
# Static dielectric constant tensor:
#      x y z
#    x 1.772770 0.000000 0.000000 
#    y 0.000000 1.736820 0.000000 
#    z 0.000000 0.000000 1.728300 
# 
# From -- ./inp_files/4210.got.cif
#   From: 2010.05.17/outbox.cif.g08.bks.cpg/sg18_3_cif.got.tgz:4210.got - 2010.06.03 22:40:56.
