data_PCOD9313948
_publ_section_title
;
Structure prediction by ZEFSAII (Michael W. Deem and Ramdas Pophale) SiO2 
 PCOD9313948
Probable space group: P 21 21 21
;
_chemical_formula_sum "Si O2"
_cell_formula_units_Z 32
_cell_length_a 11.331877
_cell_length_b 19.717294
_cell_length_c 5.699111
_cell_angle_alpha 90.000000
_cell_angle_beta 90.000000
_cell_angle_gamma 90.000000
_cell_volume 1273.374884
_symmetry_space_group_name_H-M "P 21 21 21"
_symmetry_group_IT_number 19
_symmetry_cell_setting 'orthorhombic'
loop_
_space_group_symop_operation_xyz
x,y,z
1/2-x,-y,1/2+z
1/2+x,1/2-y,-z
-x,1/2+y,1/2-z
loop_
_atom_site_type_symbol
_atom_site_label
_atom_site_fract_x
_atom_site_fract_y
_atom_site_fract_z
Si Si1 0.876844 0.051719 0.015103
Si Si2 0.760845 0.645417 0.860239
Si Si3 0.842966 0.908853 0.819176
Si Si4 0.697325 0.489138 0.175184
Si Si5 0.412510 0.126702 0.256780
Si Si6 0.535819 0.341956 0.705709
Si Si7 0.340364 0.341364 0.350739
Si Si8 0.729880 0.269617 0.973086
O O1 0.746584 0.061548 0.125494
O O2 0.966194 0.095586 0.175127
O O3 0.892090 0.971999 0.973971
O O4 0.886169 0.089157 0.765824
O O5 0.813021 0.591794 0.673432
O O6 0.632359 0.641725 0.977765
O O7 0.777080 0.719445 0.750697
O O8 0.849396 0.630291 0.072836
O O9 0.766182 0.861800 0.984535
O O10 0.950039 0.865845 0.715746
O O11 0.712580 0.507832 0.900652
O O12 0.610164 0.546128 0.276369
O O13 0.329554 0.173515 0.097954
O O14 0.445898 0.312352 0.510738
O O15 0.599753 0.286844 0.871589
O O16 0.288928 0.296082 0.140094
#
# Coordination Sequence:
#
# PCOD9313948 Si02
#       8
#     4   4   4   4   4   4   4   4
#     4  11  24  48  72 102 137 186 236 299 360 433
#     4  10  22  42  65 104 140 180 234 290 362 434
#     4  11  25  45  72 104 137 179 244 294 360 428
#     4  10  20  38  63  99 145 185 232 290 364 426
#     4  10  24  39  67 101 143 178 228 302 348 433
#     4  10  25  44  73  97 139 188 232 294 357 438
#     4  11  26  47  71 100 140 186 236 293 357 440
#     4  11  24  47  69 103 143 184 238 288 370 434
#
# _framework density 25.130068999999999
#
# number of rings (size 3 to 8) (size 9 to 14) (size 15 to 20)
#    0.000    1.500    2.500    0.750    5.250    7.000 
#    4.500    0.000    0.000    0.000    0.000    0.000 
#    0.000    0.000    0.000    0.000    0.000    0.000 
#
# Total GULP energy -178569.738565 kJ/mol
# GULP energy per Si atom -5580.304330 kJ/mol
# Density = 2.507287 g / cm^3
# Si number density = 25.130069 Si / 1000 Ang^3
#
#
#
# Elastic Constant Matrix: (Units=GPa)
#
#
# Indices 1 2 3 4 5 6 
#
# 1 100.3951 9.4541 7.4007 0.0000 0.0000 0.0000
# 2 9.4541 85.1874 5.5838 0.0000 0.0000 0.0000
# 3 7.4007 5.5838 48.6984 0.0000 0.0000 0.0000
# 4 0.0000 0.0000 0.0000 34.3845 0.0000 0.0000
# 5 0.0000 0.0000 0.0000 0.0000 28.6736 0.0000
# 6 0.0000 0.0000 0.0000 0.0000 0.0000 19.0769
#
#
#
# Elastic Compliance Matrix: (Units=1/GPa)
#
#
# Indices 1 2 3 4 5 6 
#
# 1 0.010163 -0.001034 -0.001426 0.000000 0.000000 0.000000
# 2 -0.001034 0.011933 -0.001211 0.000000 0.000000 0.000000
# 3 -0.001426 -0.001211 0.020890 0.000000 0.000000 0.000000
# 4 0.000000 0.000000 0.000000 0.029083 0.000000 0.000000
# 5 0.000000 0.000000 0.000000 0.000000 0.034875 0.000000
# 6 0.000000 0.000000 0.000000 0.000000 0.000000 0.052419
#
#
# Mechanical properties :
#
#
# Convention : Reuss Voigt Hill
#
# Bulk Modulus (GPa) = 28.05560 31.01758 29.53659
# Shear Modulus (GPa) = 27.99743 30.54982 29.27363
#
# Velocity S-wave (km/s) = 3.34144 3.49043 3.41674
# Velocity P-wave (km/s) = 5.10640 5.34918 5.22920
#
# Compressibility (1/GPa) = 0.03564350
#
# Stress axis : x y z
#
# Youngs Moduli (GPa) = 98.39453 83.80116 47.86957
#
# Poissons Ratio (x) = 0.08669 0.06826
# Poissons Ratio (y) = 0.10178 0.05797
# Poissons Ratio (z) = 0.14030 0.10149
#
# Static dielectric constant tensor:
#      x y z
#    x 2.013960 0.000000 0.000000 
#    y 0.000000 2.092220 0.000000 
#    z 0.000000 0.000000 2.067130 
# 
# From -- ./inp_files/1237.got.cif
#   From: 2010.05.17/outbox.cif.g08.bks.cpg/sg19_1_cif.got.tgz:1237.got - 2010.06.03 22:46:19.
