data_PCOD9313306
_publ_section_title
;
Structure prediction by ZEFSAII (Michael W. Deem and Ramdas Pophale) SiO2 
 PCOD9313306
Probable space group: P 21 21 21
;
_chemical_formula_sum "Si O2"
_cell_formula_units_Z 20
_cell_length_a 20.600613
_cell_length_b 5.117929
_cell_length_c 7.257015
_cell_angle_alpha 90.000000
_cell_angle_beta 90.000000
_cell_angle_gamma 90.000000
_cell_volume 765.125050
_symmetry_space_group_name_H-M "P 21 21 21"
_symmetry_group_IT_number 19
_symmetry_cell_setting 'orthorhombic'
loop_
_space_group_symop_operation_xyz
x,y,z
1/2-x,-y,1/2+z
1/2+x,1/2-y,-z
-x,1/2+y,1/2-z
loop_
_atom_site_type_symbol
_atom_site_label
_atom_site_fract_x
_atom_site_fract_y
_atom_site_fract_z
Si Si1 0.853843 0.483159 0.291115
Si Si2 0.417667 0.523497 0.616888
Si Si3 0.717519 0.477589 0.186860
Si Si4 0.653648 0.978134 0.279493
Si Si5 0.978972 0.256468 0.863342
O O1 0.908382 0.263547 0.305993
O O2 0.792566 0.403311 0.169254
O O3 0.819820 0.510263 0.492976
O O4 0.885563 0.761691 0.251592
O O5 0.377559 0.507456 0.424646
O O6 0.485625 0.632610 0.543065
O O7 0.710921 0.768853 0.265992
O O8 0.682265 0.263008 0.315630
O O9 0.593525 0.851330 0.387801
O O10 0.981960 0.504852 0.721415
#
# Coordination Sequence:
#
# PCOD9313306 Si02
#       5
#     4   4   4   4   4
#     4  10  19  31  46  67  95 124 154 188 225 271
#     4   9  17  28  44  67  94 120 149 188 233 274
#     4  10  19  31  46  67  95 124 154 188 225 271
#     4   9  17  28  44  67  94 120 149 188 233 274
#     4  10  16  26  44  68  96 122 146 188 242 280
#
# _framework density 26.139520999999998
#
# number of rings (size 3 to 8) (size 9 to 14) (size 15 to 20)
#    0.000    2.400    0.000    7.200    0.000    0.000 
#    0.000    0.000    0.000    0.000    0.000    5.600 
#    0.000   12.800    0.000    0.000    0.000    0.000 
#
# Total GULP energy -111880.752802 kJ/mol
# GULP energy per Si atom -5594.037640 kJ/mol
# Density = 2.608003 g / cm^3
# Si number density = 26.139521 Si / 1000 Ang^3
#
#
#
# Elastic Constant Matrix: (Units=GPa)
#
#
# Indices 1 2 3 4 5 6 
#
# 1 91.1536 51.3903 35.3296 0.0000 0.0000 0.0000
# 2 51.3903 165.3499 35.2786 0.0000 0.0000 0.0000
# 3 35.3296 35.2786 69.6677 0.0000 0.0000 0.0000
# 4 0.0000 0.0000 0.0000 6.3011 0.0000 0.0000
# 5 0.0000 0.0000 0.0000 0.0000 35.1400 0.0000
# 6 0.0000 0.0000 0.0000 0.0000 0.0000 42.7141
#
#
#
# Elastic Compliance Matrix: (Units=1/GPa)
#
#
# Indices 1 2 3 4 5 6 
#
# 1 0.015237 -0.003461 -0.005974 0.000000 0.000000 0.000000
# 2 -0.003461 0.007566 -0.002076 0.000000 0.000000 0.000000
# 3 -0.005974 -0.002076 0.018435 0.000000 0.000000 0.000000
# 4 0.000000 0.000000 0.000000 0.158702 0.000000 0.000000
# 5 0.000000 0.000000 0.000000 0.000000 0.028458 0.000000
# 6 0.000000 0.000000 0.000000 0.000000 0.000000 0.023411
#
#
# Mechanical properties :
#
#
# Convention : Reuss Voigt Hill
#
# Bulk Modulus (GPa) = 54.89963 63.35202 59.12583
# Shear Modulus (GPa) = 17.79959 30.44257 24.12108
#
# Velocity S-wave (km/s) = 2.61232 3.41635 3.04103
# Velocity P-wave (km/s) = 5.49064 6.31274 5.91599
#
# Compressibility (1/GPa) = 0.01821506
#
# Stress axis : x y z
#
# Youngs Moduli (GPa) = 65.62819 132.16199 54.24452
#
# Poissons Ratio (x) = 0.45742 0.32408
# Poissons Ratio (y) = 0.22714 0.11263
# Poissons Ratio (z) = 0.39209 0.27442
#
# Static dielectric constant tensor:
#      x y z
#    x 2.038630 0.000000 0.000000 
#    y 0.000000 1.974960 0.000000 
#    z 0.000000 0.000000 2.137890 
# 
# From -- ./inp_files/4090.got.cif
#   From: 2010.05.17/outbox.cif.g08.bks.cpg/sg19_3_cif.got.tgz:4090.got - 2010.06.03 22:46:19.
