data_PCOD9313080
_publ_section_title
;
Structure prediction by ZEFSAII (Michael W. Deem and Ramdas Pophale) SiO2 
 PCOD9313080
Probable space group: P 21 21 2
;
_chemical_formula_sum "Si O2"
_cell_formula_units_Z 26
_cell_length_a 16.022151
_cell_length_b 9.049844
_cell_length_c 8.297143
_cell_angle_alpha 90.000000
_cell_angle_beta 90.000000
_cell_angle_gamma 90.000000
_cell_volume 1203.068868
_symmetry_space_group_name_H-M "P 21 21 2"
_symmetry_group_IT_number 18
_symmetry_cell_setting 'orthorhombic'
loop_
_space_group_symop_operation_xyz
x,y,z
-x,-y,z
1/2+x,1/2-y,-z
1/2-x,1/2+y,-z
loop_
_atom_site_type_symbol
_atom_site_label
_atom_site_fract_x
_atom_site_fract_y
_atom_site_fract_z
Si Si1 0.847763 0.577531 0.081187
Si Si2 0.500000 0.000000 0.130434
Si Si3 0.255606 0.714933 0.159372
Si Si4 0.095021 0.155804 0.606993
Si Si5 0.195432 0.918674 0.455100
Si Si6 0.074296 0.721599 0.617907
Si Si7 0.623574 0.041737 0.561563
O O1 0.805158 0.415644 0.100983
O O2 0.874705 0.610094 0.262864
O O3 0.784857 0.687411 0.991849
O O4 0.931830 0.580523 0.977306
O O5 0.443918 0.111949 0.235803
O O6 0.338333 0.644717 0.246766
O O7 0.212430 0.824568 0.292669
O O8 0.100265 0.328747 0.559581
O O9 0.996085 0.153369 0.633446
O O10 0.128028 0.050563 0.463757
O O11 0.161206 0.805921 0.591957
O O12 0.281385 0.991848 0.510722
O O13 0.072305 0.608743 0.464385
#
# Coordination Sequence:
#
# PCOD9313080 Si02
#       7
#     4   2   4   4   4   4   4
#     4  12  26  43  66 104 144 187 232 291 374 427
#     4  12  26  40  70  98 142 188 232 296 356 428
#     4  11  25  45  66 103 143 190 232 292 368 429
#     4  11  22  42  68 100 131 179 238 292 345 409
#     4  11  23  42  68  99 131 179 241 289 345 421
#     4  12  22  45  66 100 133 180 241 286 343 420
#     4  11  22  41  69  94 136 182 236 286 340 442
#
# _framework density 21.611398000000001
#
# number of rings (size 3 to 8) (size 9 to 14) (size 15 to 20)
#    0.000    0.615    6.154    2.308    6.462    0.000 
#    0.000    0.000    0.000    0.000    0.000    0.000 
#    0.000    0.000    0.000    0.000    0.000    0.000 
#
# Total GULP energy -145000.557650 kJ/mol
# GULP energy per Si atom -5576.944525 kJ/mol
# Density = 2.156221 g / cm^3
# Si number density = 21.611398 Si / 1000 Ang^3
#
#
#
# Elastic Constant Matrix: (Units=GPa)
#
#
# Indices 1 2 3 4 5 6 
#
# 1 50.5054 4.0814 3.4668 0.0000 0.0000 0.0000
# 2 4.0814 72.4758 8.6629 0.0000 0.0000 0.0000
# 3 3.4668 8.6629 68.6313 0.0000 0.0000 0.0000
# 4 0.0000 0.0000 0.0000 30.1930 0.0000 0.0000
# 5 0.0000 0.0000 0.0000 0.0000 32.3180 0.0000
# 6 0.0000 0.0000 0.0000 0.0000 0.0000 37.9803
#
#
#
# Elastic Compliance Matrix: (Units=1/GPa)
#
#
# Indices 1 2 3 4 5 6 
#
# 1 0.019942 -0.001018 -0.000879 0.000000 0.000000 0.000000
# 2 -0.001018 0.014061 -0.001723 0.000000 0.000000 0.000000
# 3 -0.000879 -0.001723 0.014833 0.000000 0.000000 0.000000
# 4 0.000000 0.000000 0.000000 0.033120 0.000000 0.000000
# 5 0.000000 0.000000 0.000000 0.000000 0.030943 0.000000
# 6 0.000000 0.000000 0.000000 0.000000 0.000000 0.026329
#
#
# Mechanical properties :
#
#
# Convention : Reuss Voigt Hill
#
# Bulk Modulus (GPa) = 24.04106 24.89274 24.46690
# Shear Modulus (GPa) = 31.18490 31.79168 31.48829
#
# Velocity S-wave (km/s) = 3.80278 3.83960 3.82124
# Velocity P-wave (km/s) = 5.51634 5.58570 5.55113
#
# Compressibility (1/GPa) = 0.04159550
#
# Stress axis : x y z
#
# Youngs Moduli (GPa) = 50.14429 71.11851 67.41932
#
# Poissons Ratio (x) = 0.07240 0.05925
# Poissons Ratio (y) = 0.05105 0.11619
# Poissons Ratio (z) = 0.04407 0.12257
#
# Static dielectric constant tensor:
#      x y z
#    x 1.921350 0.000000 0.000000 
#    y 0.000000 1.819240 0.000000 
#    z 0.000000 0.000000 1.783680 
# 
# From -- ./inp_files/4532.got.cif
#   From: 2010.05.17/outbox.cif.g08.bks.cpg/sg18_3_cif.got.tgz:4532.got - 2010.06.03 22:40:56.
