data_PCOD9313984
_publ_section_title
;
Structure prediction by ZEFSAII (Michael W. Deem and Ramdas Pophale) SiO2 
 PCOD9313984
Probable space group: P 21 21 21
;
_chemical_formula_sum "Si O2"
_cell_formula_units_Z 24
_cell_length_a 7.763666
_cell_length_b 11.443512
_cell_length_c 9.275606
_cell_angle_alpha 90.000000
_cell_angle_beta 90.000000
_cell_angle_gamma 90.000000
_cell_volume 824.078276
_symmetry_space_group_name_H-M "P 21 21 21"
_symmetry_group_IT_number 19
_symmetry_cell_setting 'orthorhombic'
loop_
_space_group_symop_operation_xyz
x,y,z
1/2-x,-y,1/2+z
1/2+x,1/2-y,-z
-x,1/2+y,1/2-z
loop_
_atom_site_type_symbol
_atom_site_label
_atom_site_fract_x
_atom_site_fract_y
_atom_site_fract_z
Si Si1 0.236337 0.955811 0.598637
Si Si2 0.697846 0.989501 0.973983
Si Si3 0.024256 0.624072 0.769066
Si Si4 0.607154 0.202311 0.068351
Si Si5 0.538735 0.649327 0.020820
Si Si6 0.459651 0.321346 0.740285
O O1 0.145794 0.046524 0.705886
O O2 0.310610 0.054858 0.490774
O O3 0.383853 0.869463 0.661931
O O4 0.074357 0.873015 0.561836
O O5 0.661489 0.957902 0.143174
O O6 0.876267 0.929027 0.940096
O O7 0.690300 0.126337 0.938943
O O8 0.563343 0.923825 0.875897
O O9 0.973131 0.676071 0.614295
O O10 0.048219 0.745420 0.863581
O O11 0.778332 0.195311 0.174322
O O12 0.512658 0.709750 0.863977
#
# Coordination Sequence:
#
# PCOD9313984 Si02
#       6
#     4   4   4   4   4   4
#     4  11  23  36  65  96 130 170 208 273 340 379
#     4  10  21  36  64  91 122 165 219 265 320 391
#     4  10  20  39  63  92 122 165 223 266 313 391
#     4  11  21  37  60  92 130 167 216 275 327 384
#     4  11  19  38  66  94 122 169 219 269 319 381
#     4  11  22  40  62  93 134 168 215 278 325 388
#
# _framework density 29.123446999999999
#
# number of rings (size 3 to 8) (size 9 to 14) (size 15 to 20)
#    0.000    1.333    5.000    2.000    0.000    2.667 
#    0.000    0.000    7.333    2.000    0.000    0.000 
#    0.000    0.000    0.000    0.000    0.000    0.000 
#
# Total GULP energy -133810.975403 kJ/mol
# GULP energy per Si atom -5575.457308 kJ/mol
# Density = 2.905716 g / cm^3
# Si number density = 29.123447 Si / 1000 Ang^3
#
#
#
# Elastic Constant Matrix: (Units=GPa)
#
#
# Indices 1 2 3 4 5 6 
#
# 1 149.5631 31.2307 -5.5342 0.0000 0.0000 0.0000
# 2 31.2307 161.0635 25.5395 0.0000 0.0000 0.0000
# 3 -5.5342 25.5395 79.1365 0.0000 0.0000 0.0000
# 4 0.0000 0.0000 0.0000 63.7275 0.0000 0.0000
# 5 0.0000 0.0000 0.0000 0.0000 31.1324 0.0000
# 6 0.0000 0.0000 0.0000 0.0000 0.0000 68.5493
#
#
#
# Elastic Compliance Matrix: (Units=1/GPa)
#
#
# Indices 1 2 3 4 5 6 
#
# 1 0.007040 -0.001521 0.000983 0.000000 0.000000 0.000000
# 2 -0.001521 0.006872 -0.002324 0.000000 0.000000 0.000000
# 3 0.000983 -0.002324 0.013455 0.000000 0.000000 0.000000
# 4 0.000000 0.000000 0.000000 0.015692 0.000000 0.000000
# 5 0.000000 0.000000 0.000000 0.000000 0.032121 0.000000
# 6 0.000000 0.000000 0.000000 0.000000 0.000000 0.014588
#
#
# Mechanical properties :
#
#
# Convention : Reuss Voigt Hill
#
# Bulk Modulus (GPa) = 46.20318 54.69281 50.44799
# Shear Modulus (GPa) = 48.68226 55.25032 51.96629
#
# Velocity S-wave (km/s) = 4.09294 4.36031 4.22873
# Velocity P-wave (km/s) = 6.18346 6.64606 6.41893
#
# Compressibility (1/GPa) = 0.02164353
#
# Stress axis : x y z
#
# Youngs Moduli (GPa) = 142.04286 145.51367 74.32048
#
# Poissons Ratio (x) = 0.22133 -0.07307
# Poissons Ratio (y) = 0.21605 0.17274
# Poissons Ratio (z) = -0.13966 0.33821
#
# Static dielectric constant tensor:
#      x y z
#    x 2.336140 0.000000 0.000000 
#    y 0.000000 2.408650 0.000000 
#    z 0.000000 0.000000 2.460920 
# 
# From -- ./inp_files/3369.got.cif
#   From: 2010.05.17/outbox.cif.g08.bks.cpg/sg19_2_cif.got.tgz:3369.got - 2010.06.03 22:46:19.
