data_PCOD9313006
_publ_section_title
;
Structure prediction by ZEFSAII (Michael W. Deem and Ramdas Pophale) SiO2 
 PCOD9313006
Probable space group: P 21 21 2
;
_chemical_formula_sum "Si O2"
_cell_formula_units_Z 18
_cell_length_a 18.640916
_cell_length_b 4.840590
_cell_length_c 8.119929
_cell_angle_alpha 90.000000
_cell_angle_beta 90.000000
_cell_angle_gamma 90.000000
_cell_volume 732.685810
_symmetry_space_group_name_H-M "P 21 21 2"
_symmetry_group_IT_number 18
_symmetry_cell_setting 'orthorhombic'
loop_
_space_group_symop_operation_xyz
x,y,z
-x,-y,z
1/2+x,1/2-y,-z
1/2-x,1/2+y,-z
loop_
_atom_site_type_symbol
_atom_site_label
_atom_site_fract_x
_atom_site_fract_y
_atom_site_fract_z
Si Si1 0.881779 0.322654 0.569266
Si Si2 0.638741 0.326645 0.219460
Si Si3 0.887908 0.693037 0.139381
Si Si4 0.500000 0.500000 0.634967
Si Si5 0.197468 0.807939 0.253090
O O1 0.886687 0.637380 0.626918
O O2 0.815699 0.264293 0.445033
O O3 0.870509 0.142874 0.732201
O O4 0.949282 0.193230 0.475681
O O5 0.722843 0.262052 0.198913
O O6 0.599470 0.253767 0.051316
O O7 0.862314 0.380838 0.163714
O O8 0.952944 0.798266 0.250447
O O9 0.821809 0.879612 0.207641
#
# Coordination Sequence:
#
# PCOD9313006 Si02
#       5
#     4   4   4   2   4
#     4  11  24  41  66  93 134 173 216 277 323 399
#     4  12  23  41  68 104 127 167 225 280 330 380
#     4  11  24  42  68  93 134 176 217 274 324 403
#     4  10  26  48  62  92 134 188 226 256 342 396
#     4  11  22  42  67  99 134 172 211 271 346 396
#
# _framework density 24.567143999999999
#
# number of rings (size 3 to 8) (size 9 to 14) (size 15 to 20)
#    0.000    0.889    0.000    8.000    0.000    8.889 
#    0.000    4.444    0.000    0.000    0.000    0.000 
#    0.000    0.000    0.000    0.000    0.000    0.000 
#
# Total GULP energy -100972.680407 kJ/mol
# GULP energy per Si atom -5609.593356 kJ/mol
# Density = 2.451123 g / cm^3
# Si number density = 24.567144 Si / 1000 Ang^3
#
#
#
# Elastic Constant Matrix: (Units=GPa)
#
#
# Indices 1 2 3 4 5 6 
#
# 1 97.1458 -5.2098 -6.9246 0.0000 0.0000 0.0000
# 2 -5.2098 70.4609 -5.0603 0.0000 0.0000 0.0000
# 3 -6.9246 -5.0603 94.1373 0.0000 0.0000 0.0000
# 4 0.0000 0.0000 0.0000 43.1716 0.0000 0.0000
# 5 0.0000 0.0000 0.0000 0.0000 9.3451 0.0000
# 6 0.0000 0.0000 0.0000 0.0000 0.0000 31.6485
#
#
#
# Elastic Compliance Matrix: (Units=1/GPa)
#
#
# Indices 1 2 3 4 5 6 
#
# 1 0.010396 0.000827 0.000809 0.000000 0.000000 0.000000
# 2 0.000827 0.014313 0.000830 0.000000 0.000000 0.000000
# 3 0.000809 0.000830 0.010727 0.000000 0.000000 0.000000
# 4 0.000000 0.000000 0.000000 0.023163 0.000000 0.000000
# 5 0.000000 0.000000 0.000000 0.000000 0.107008 0.000000
# 6 0.000000 0.000000 0.000000 0.000000 0.000000 0.031597
#
#
# Mechanical properties :
#
#
# Convention : Reuss Voigt Hill
#
# Bulk Modulus (GPa) = 24.77209 25.26162 25.01686
# Shear Modulus (GPa) = 24.30393 35.42896 29.86644
#
# Velocity S-wave (km/s) = 3.14870 3.80166 3.49048
# Velocity P-wave (km/s) = 4.82954 5.43830 5.14293
#
# Compressibility (1/GPa) = 0.04036800
#
# Stress axis : x y z
#
# Youngs Moduli (GPa) = 96.19252 69.86644 93.22334
#
# Poissons Ratio (x) = -0.05776 -0.07543
# Poissons Ratio (y) = -0.07953 -0.07739
# Poissons Ratio (z) = -0.07783 -0.05800
#
# Static dielectric constant tensor:
#      x y z
#    x 1.925550 0.000000 0.000000 
#    y 0.000000 1.861850 0.000000 
#    z 0.000000 0.000000 1.936320 
# 
# From -- ./inp_files/4425.got.cif
#   From: 2010.05.17/outbox.cif.g08.bks.cpg/sg18_3_cif.got.tgz:4425.got - 2010.06.03 22:40:56.
