data_PCOD9313232
_publ_section_title
;
Structure prediction by ZEFSAII (Michael W. Deem and Ramdas Pophale) SiO2 
 PCOD9313232
Probable space group: P 21 21 2
;
_chemical_formula_sum "Si O2"
_cell_formula_units_Z 18
_cell_length_a 8.873642
_cell_length_b 8.873656
_cell_length_c 9.824379
_cell_angle_alpha 90.000000
_cell_angle_beta 90.000000
_cell_angle_gamma 90.000000
_cell_volume 773.587779
_symmetry_space_group_name_H-M "P 21 21 2"
_symmetry_group_IT_number 18
_symmetry_cell_setting 'orthorhombic'
loop_
_space_group_symop_operation_xyz
x,y,z
-x,-y,z
1/2+x,1/2-y,-z
1/2-x,1/2+y,-z
loop_
_atom_site_type_symbol
_atom_site_label
_atom_site_fract_x
_atom_site_fract_y
_atom_site_fract_z
Si Si1 0.000000 0.500000 0.250003
Si Si2 0.291847 0.753444 0.613773
Si Si3 0.253445 0.208149 0.886224
Si Si4 0.455418 0.663595 0.354739
Si Si5 0.663598 0.455421 0.854739
O O1 0.877225 0.595418 0.335631
O O2 0.904584 0.377225 0.164374
O O3 0.332969 0.732913 0.456579
O O4 0.352383 0.617349 0.706795
O O5 0.113585 0.750896 0.639981
O O6 0.117350 0.147609 0.793204
O O7 0.250894 0.386412 0.860018
O O8 0.232915 0.167027 0.043418
O O9 0.500000 0.500000 0.408224
O O10 0.500000 0.500000 0.908219
#
# Coordination Sequence:
#
# PCOD9313232 Si02
#       5
#     2   4   4   4   4
#     4  12  24  48  76 110 148 200 248 310 372 444
#     4  12  28  48  78 111 149 198 251 307 375 444
#     4  12  28  48  78 111 149 198 251 307 375 444
#     4  12  28  49  77 111 151 195 251 309 373 446
#     4  12  28  49  77 111 151 195 251 309 373 446
#
# _framework density 23.268207
#
# number of rings (size 3 to 8) (size 9 to 14) (size 15 to 20)
#    0.000    0.000    4.444    4.000    6.222    0.889 
#    0.000    0.000    0.000    0.000    0.000    0.000 
#    0.000    0.000    0.000    0.000    0.000    0.000 
#
# Total GULP energy -100792.151287 kJ/mol
# GULP energy per Si atom -5599.563960 kJ/mol
# Density = 2.321525 g / cm^3
# Si number density = 23.268207 Si / 1000 Ang^3
#
#
#
# Elastic Constant Matrix: (Units=GPa)
#
#
# Indices 1 2 3 4 5 6 
#
# 1 94.4525 -13.0455 8.6189 0.0000 0.0000 0.0000
# 2 -13.0455 94.4564 8.6197 0.0000 0.0000 0.0000
# 3 8.6189 8.6197 83.0606 0.0000 0.0000 0.0000
# 4 0.0000 0.0000 0.0000 -78.8940 0.0000 0.0000
# 5 0.0000 0.0000 0.0000 0.0000 -78.8961 0.0000
# 6 0.0000 0.0000 0.0000 0.0000 0.0000 42.1892
#
#
#
# Elastic Compliance Matrix: (Units=1/GPa)
#
#
# Indices 1 2 3 4 5 6 
#
# 1 0.010931 0.001629 -0.001303 0.000000 0.000000 0.000000
# 2 0.001629 0.010931 -0.001303 0.000000 0.000000 0.000000
# 3 -0.001303 -0.001303 0.012310 0.000000 0.000000 0.000000
# 4 0.000000 0.000000 0.000000 -0.012675 0.000000 0.000000
# 5 0.000000 0.000000 0.000000 0.000000 -0.012675 0.000000
# 6 0.000000 0.000000 0.000000 0.000000 0.000000 0.023703
#
#
# Mechanical properties :
#
#
# Convention : Reuss Voigt Hill
#
# Bulk Modulus (GPa) = 31.04061 31.15064 31.09563
# Shear Modulus (GPa) = 110.57263 -5.26844 52.65210
#
# Velocity S-wave (km/s) = 6.90102 -1.50637 4.76209
# Velocity P-wave (km/s) = 8.76744 3.22354 6.60527
#
# Compressibility (1/GPa) = 0.03221586
#
# Stress axis : x y z
#
# Youngs Moduli (GPa) = 91.48125 91.48491 81.23541
#
# Poissons Ratio (x) = -0.14900 0.10587
# Poissons Ratio (y) = -0.14899 0.10588
# Poissons Ratio (z) = 0.11923 0.11924
#
# Static dielectric constant tensor:
#      x y z
#    x 2.311460 0.000000 0.000000 
#    y 0.000000 2.311200 0.000000 
#    z 0.000000 0.000000 1.787090 
# 
# From -- ./inp_files/5372.got.cif
#   From: 2010.05.17/outbox.cif.g08.bks.cpg/sg18_3_cif.got.tgz:5372.got - 2010.06.03 22:40:56.
