data_PCOD9313528
_publ_section_title
;
Structure prediction by ZEFSAII (Michael W. Deem and Ramdas Pophale) SiO2 
 PCOD9313528
Probable space group: P 21 21 21
;
_chemical_formula_sum "Si O2"
_cell_formula_units_Z 32
_cell_length_a 11.761000
_cell_length_b 18.344306
_cell_length_c 8.277893
_cell_angle_alpha 90.000000
_cell_angle_beta 90.000000
_cell_angle_gamma 90.000000
_cell_volume 1785.933750
_symmetry_space_group_name_H-M "P 21 21 21"
_symmetry_group_IT_number 19
_symmetry_cell_setting 'orthorhombic'
loop_
_space_group_symop_operation_xyz
x,y,z
1/2-x,-y,1/2+z
1/2+x,1/2-y,-z
-x,1/2+y,1/2-z
loop_
_atom_site_type_symbol
_atom_site_label
_atom_site_fract_x
_atom_site_fract_y
_atom_site_fract_z
Si Si1 0.229700 0.103249 0.041802
Si Si2 0.961026 0.219460 0.699697
Si Si3 0.453078 0.777578 0.562324
Si Si4 0.182984 0.954940 0.880772
Si Si5 0.830201 0.666921 0.955113
Si Si6 0.001474 0.363206 0.478855
Si Si7 0.352709 0.199914 0.795240
Si Si8 0.803807 0.798036 0.197303
O O1 0.113603 0.146619 0.077538
O O2 0.285245 0.069375 0.200886
O O3 0.313294 0.161543 0.959024
O O4 0.204916 0.039067 0.915371
O O5 0.971542 0.293058 0.591633
O O6 0.830767 0.194390 0.710646
O O7 0.042647 0.161419 0.610640
O O8 0.011020 0.233131 0.877329
O O9 0.568433 0.768827 0.666336
O O10 0.367549 0.715369 0.632185
O O11 0.267386 0.906741 0.994296
O O12 0.055100 0.931146 0.930393
O O13 0.758168 0.708249 0.815327
O O14 0.825688 0.720970 0.106746
O O15 0.931194 0.352461 0.313242
O O16 0.130786 0.356177 0.416790
#
# Coordination Sequence:
#
# PCOD9313528 Si02
#       8
#     4   4   4   4   4   4   4   4
#     4  12  23  36  58  91 118 160 189 248 296 354
#     4  11  19  31  55  82 116 148 195 239 294 342
#     4  11  21  32  54  83 117 148 195 240 294 340
#     4  11  21  37  56  84 122 148 199 236 300 355
#     4  10  19  33  55  81 114 147 192 238 294 341
#     4   9  19  34  55  81 112 154 186 241 288 349
#     4  10  19  35  51  83 115 142 195 239 292 343
#     4  10  19  34  52  85 114 155 187 243 292 342
#
# _framework density 17.917798000000001
#
# number of rings (size 3 to 8) (size 9 to 14) (size 15 to 20)
#    0.000    1.500    5.000    3.000    0.000    0.000 
#    0.000    0.000    0.000    0.000   19.500    0.000 
#    0.000    0.000    0.000    0.000    0.000    0.000 
#
# Total GULP energy -178332.234676 kJ/mol
# GULP energy per Si atom -5572.882334 kJ/mol
# Density = 1.787702 g / cm^3
# Si number density = 17.917798 Si / 1000 Ang^3
#
#
#
# Elastic Constant Matrix: (Units=GPa)
#
#
# Indices 1 2 3 4 5 6 
#
# 1 118.2953 14.6583 45.8663 0.0000 0.0000 0.0000
# 2 14.6583 39.4019 14.4615 0.0000 0.0000 0.0000
# 3 45.8663 14.4615 91.7234 0.0000 0.0000 0.0000
# 4 0.0000 0.0000 0.0000 22.9426 0.0000 0.0000
# 5 0.0000 0.0000 0.0000 0.0000 31.1470 0.0000
# 6 0.0000 0.0000 0.0000 0.0000 0.0000 19.2004
#
#
#
# Elastic Compliance Matrix: (Units=1/GPa)
#
#
# Indices 1 2 3 4 5 6 
#
# 1 0.010653 -0.002131 -0.004991 0.000000 0.000000 0.000000
# 2 -0.002131 0.027365 -0.003249 0.000000 0.000000 0.000000
# 3 -0.004991 -0.003249 0.013910 0.000000 0.000000 0.000000
# 4 0.000000 0.000000 0.000000 0.043587 0.000000 0.000000
# 5 0.000000 0.000000 0.000000 0.000000 0.032106 0.000000
# 6 0.000000 0.000000 0.000000 0.000000 0.000000 0.052082
#
#
# Mechanical properties :
#
#
# Convention : Reuss Voigt Hill
#
# Bulk Modulus (GPa) = 32.06566 44.37698 38.22132
# Shear Modulus (GPa) = 23.71473 26.28696 25.00084
#
# Velocity S-wave (km/s) = 3.64198 3.83441 3.73943
# Velocity P-wave (km/s) = 5.96827 6.66516 6.32632
#
# Compressibility (1/GPa) = 0.03118601
#
# Stress axis : x y z
#
# Youngs Moduli (GPa) = 93.87395 36.54337 71.88961
#
# Poissons Ratio (x) = 0.07788 0.35879
# Poissons Ratio (y) = 0.20007 0.23355
# Poissons Ratio (z) = 0.46851 0.11872
#
# Static dielectric constant tensor:
#      x y z
#    x 1.657570 0.000000 0.000000 
#    y 0.000000 1.598020 0.000000 
#    z 0.000000 0.000000 1.667100 
# 
# From -- ./inp_files/3761.got.cif
#   From: 2010.05.17/outbox.cif.g08.bks.cpg/sg19_2_cif.got.tgz:3761.got - 2010.06.03 22:46:19.
