data_PCOD9313496
_publ_section_title
;
Structure prediction by ZEFSAII (Michael W. Deem and Ramdas Pophale) SiO2 
 PCOD9313496
Probable space group: P 21 21 21
;
_chemical_formula_sum "Si O2"
_cell_formula_units_Z 20
_cell_length_a 26.916673
_cell_length_b 5.002067
_cell_length_c 5.122100
_cell_angle_alpha 90.000000
_cell_angle_beta 90.000000
_cell_angle_gamma 90.000000
_cell_volume 689.634431
_symmetry_space_group_name_H-M "P 21 21 21"
_symmetry_group_IT_number 19
_symmetry_cell_setting 'orthorhombic'
loop_
_space_group_symop_operation_xyz
x,y,z
1/2-x,-y,1/2+z
1/2+x,1/2-y,-z
-x,1/2+y,1/2-z
loop_
_atom_site_type_symbol
_atom_site_label
_atom_site_fract_x
_atom_site_fract_y
_atom_site_fract_z
Si Si1 0.813219 0.814641 0.243661
Si Si2 0.588457 0.322201 0.600417
Si Si3 0.706584 0.683955 0.424561
Si Si4 0.489326 0.213093 0.432140
Si Si5 0.889891 0.178334 0.736371
O O1 0.869557 0.737789 0.317977
O O2 0.764983 0.737082 0.405782
O O3 0.803250 0.622089 0.992224
O O4 0.810185 0.118167 0.154388
O O5 0.530251 0.274200 0.654095
O O6 0.596756 0.603887 0.460790
O O7 0.600576 0.103488 0.374723
O O8 0.669000 0.775757 0.194528
O O9 0.502231 0.429795 0.205861
O O10 0.430925 0.261174 0.485173
#
# Coordination Sequence:
#
# PCOD9313496 Si02
#       5
#     4   4   4   4   4
#     4  10  19  31  46  66  90 117 147 180 216 258
#     4   8  14  23  37  57  81 105 134 172 212 248
#     4  10  19  31  46  66  90 117 147 180 216 258
#     4   8  12  20  34  54  78 102 128 168 214 246
#     4   8  14  23  37  57  81 105 134 172 212 248
#
# _framework density 29.000871
#
# number of rings (size 3 to 8) (size 9 to 14) (size 15 to 20)
#    0.000    3.200    0.000    1.200    0.000    0.000 
#    0.000    0.000    0.000    0.000    0.000    2.800 
#    0.000    0.000    0.000    0.000    0.000    0.000 
#
# Total GULP energy -112020.591036 kJ/mol
# GULP energy per Si atom -5601.029552 kJ/mol
# Density = 2.893486 g / cm^3
# Si number density = 29.000871 Si / 1000 Ang^3
#
#
#
# Elastic Constant Matrix: (Units=GPa)
#
#
# Indices 1 2 3 4 5 6 
#
# 1 197.3311 39.7139 57.8734 0.0000 0.0000 0.0000
# 2 39.7139 144.1729 35.8371 0.0000 0.0000 0.0000
# 3 57.8734 35.8371 90.3643 0.0000 0.0000 0.0000
# 4 0.0000 0.0000 0.0000 4.6437 0.0000 0.0000
# 5 0.0000 0.0000 0.0000 0.0000 36.0168 0.0000
# 6 0.0000 0.0000 0.0000 0.0000 0.0000 58.8463
#
#
#
# Elastic Compliance Matrix: (Units=1/GPa)
#
#
# Indices 1 2 3 4 5 6 
#
# 1 0.006325 -0.000816 -0.003727 0.000000 0.000000 0.000000
# 2 -0.000816 0.007800 -0.002571 0.000000 0.000000 0.000000
# 3 -0.003727 -0.002571 0.014473 0.000000 0.000000 0.000000
# 4 0.000000 0.000000 0.000000 0.215346 0.000000 0.000000
# 5 0.000000 0.000000 0.000000 0.000000 0.027765 0.000000
# 6 0.000000 0.000000 0.000000 0.000000 0.000000 0.016993
#
#
# Mechanical properties :
#
#
# Convention : Reuss Voigt Hill
#
# Bulk Modulus (GPa) = 69.58929 77.63523 73.61226
# Shear Modulus (GPa) = 16.24852 39.79761 28.02307
#
# Velocity S-wave (km/s) = 2.36959 3.70846 3.11188
# Velocity P-wave (km/s) = 5.61554 6.72049 6.19271
#
# Compressibility (1/GPa) = 0.01437003
#
# Stress axis : x y z
#
# Youngs Moduli (GPa) = 158.10441 128.20733 69.09434
#
# Poissons Ratio (x) = 0.10459 0.25753
# Poissons Ratio (y) = 0.12898 0.17763
# Poissons Ratio (z) = 0.58929 0.32960
#
# Static dielectric constant tensor:
#      x y z
#    x 2.473760 0.000000 0.000000 
#    y 0.000000 2.151990 0.000000 
#    z 0.000000 0.000000 2.227190 
# 
# From -- ./inp_files/144.got.cif
#   From: 2010.05.17/outbox.cif.g08.bks.cpg/sg19_1_cif.got.tgz:144.got - 2010.06.03 22:46:19.
