data_PCOD9314851
_publ_section_title
;
Structure prediction by ZEFSAII (Michael W. Deem and Ramdas Pophale) SiO2 
 PCOD9314851
Probable space group: P 21 21 21
;
_chemical_formula_sum "Si O2"
_cell_formula_units_Z 32
_cell_length_a 13.388825
_cell_length_b 6.494209
_cell_length_c 15.419686
_cell_angle_alpha 90.000000
_cell_angle_beta 90.000000
_cell_angle_gamma 90.000000
_cell_volume 1340.739043
_symmetry_space_group_name_H-M "P 21 21 21"
_symmetry_group_IT_number 19
_symmetry_cell_setting 'orthorhombic'
loop_
_space_group_symop_operation_xyz
x,y,z
1/2-x,-y,1/2+z
1/2+x,1/2-y,-z
-x,1/2+y,1/2-z
loop_
_atom_site_type_symbol
_atom_site_label
_atom_site_fract_x
_atom_site_fract_y
_atom_site_fract_z
Si Si1 0.750000 0.561293 0.250000
Si Si2 0.815845 0.277727 0.101867
Si Si3 0.010421 0.467762 0.873698
Si Si4 0.815845 0.722273 0.898133
Si Si5 0.010421 0.532238 0.126303
Si Si6 0.189550 0.500000 0.000000
Si Si7 0.087619 0.389518 0.306248
Si Si8 0.587619 0.889518 0.306248
O O1 0.747276 0.413835 0.165853
O O2 0.752724 0.413835 0.334147
O O3 0.841556 0.713059 0.232770
O O4 0.658444 0.713060 0.267229
O O5 0.758242 0.199121 0.017158
O O6 0.918930 0.399928 0.088873
O O7 0.847161 0.069246 0.152011
O O8 0.114162 0.517326 0.919714
O O9 0.023876 0.522169 0.772695
O O10 0.918930 0.600071 0.911127
O O11 0.981529 0.227344 0.875956
O O12 0.847162 0.930753 0.847989
O O13 0.758242 0.800879 0.982841
O O14 0.023876 0.477832 0.227305
O O15 0.981529 0.772656 0.124044
O O16 0.114162 0.482673 0.080287
#
# Coordination Sequence:
#
# PCOD9314851 Si02
#       8
#     4   4   4   4   4   4   4   4
#     4  10  22  42  74 100 134 184 246 300 352 430
#     4  11  25  45  69 107 145 189 242 297 367 443
#     4  11  25  45  75 104 143 192 245 299 359 433
#     4  11  25  45  69 107 145 189 242 297 367 443
#     4  11  25  45  75 104 143 192 245 299 359 433
#     4  12  28  44  70 108 154 190 232 308 386 420
#     4  11  22  46  74 103 136 192 251 296 349 441
#     4  11  22  46  74 103 136 192 251 296 349 441
#
# _framework density 23.867432000000001
#
# number of rings (size 3 to 8) (size 9 to 14) (size 15 to 20)
#    0.000    1.000    2.500    3.750    7.000    0.000 
#    0.000    5.000    0.000    0.000    0.000    0.000 
#    0.000    0.000    0.000    0.000    0.000    0.000 
#
# Total GULP energy -179228.409263 kJ/mol
# GULP energy per Si atom -5600.887789 kJ/mol
# Density = 2.381311 g / cm^3
# Si number density = 23.867432 Si / 1000 Ang^3
#
#
#
# Elastic Constant Matrix: (Units=GPa)
#
#
# Indices 1 2 3 4 5 6 
#
# 1 99.2527 26.5668 23.4496 0.0000 0.0000 0.0000
# 2 26.5668 114.5748 29.5947 0.0000 0.0000 0.0000
# 3 23.4496 29.5947 55.2453 0.0000 0.0000 0.0000
# 4 0.0000 0.0000 0.0000 37.8764 0.0000 0.0000
# 5 0.0000 0.0000 0.0000 0.0000 52.3679 0.0000
# 6 0.0000 0.0000 0.0000 0.0000 0.0000 24.7554
#
#
#
# Elastic Compliance Matrix: (Units=1/GPa)
#
#
# Indices 1 2 3 4 5 6 
#
# 1 0.011453 -0.001625 -0.003991 0.000000 0.000000 0.000000
# 2 -0.001625 0.010360 -0.004860 0.000000 0.000000 0.000000
# 3 -0.003991 -0.004860 0.022399 0.000000 0.000000 0.000000
# 4 0.000000 0.000000 0.000000 0.026402 0.000000 0.000000
# 5 0.000000 0.000000 0.000000 0.000000 0.019096 0.000000
# 6 0.000000 0.000000 0.000000 0.000000 0.000000 0.040395
#
#
# Mechanical properties :
#
#
# Convention : Reuss Voigt Hill
#
# Bulk Modulus (GPa) = 42.99246 47.58832 45.29039
# Shear Modulus (GPa) = 31.48421 35.63072 33.55746
#
# Velocity S-wave (km/s) = 3.63592 3.86795 3.75373
# Velocity P-wave (km/s) = 5.97316 6.31901 6.14852
#
# Compressibility (1/GPa) = 0.02325989
#
# Stress axis : x y z
#
# Youngs Moduli (GPa) = 87.31242 96.52456 44.64538
#
# Poissons Ratio (x) = 0.15683 0.17818
# Poissons Ratio (y) = 0.14186 0.21699
# Poissons Ratio (z) = 0.34847 0.46913
#
# Static dielectric constant tensor:
#      x y z
#    x 1.894090 0.000000 0.000000 
#    y 0.000000 1.913590 0.000000 
#    z 0.000000 0.000000 1.944410 
# 
# From -- ./inp_files/6773.got.cif
#   From: 2010.05.17/outbox.cif.g08.bks.cpg/sg19_4_cif.got.tgz:6773.got - 2010.06.03 22:46:19.
