data_PCOD9314032
_publ_section_title
;
Structure prediction by ZEFSAII (Michael W. Deem and Ramdas Pophale) SiO2 
 PCOD9314032
Probable space group: P 21 21 21
;
_chemical_formula_sum "Si O2"
_cell_formula_units_Z 32
_cell_length_a 13.843019
_cell_length_b 11.435340
_cell_length_c 8.429124
_cell_angle_alpha 90.000000
_cell_angle_beta 90.000000
_cell_angle_gamma 90.000000
_cell_volume 1334.327201
_symmetry_space_group_name_H-M "P 21 21 21"
_symmetry_group_IT_number 19
_symmetry_cell_setting 'orthorhombic'
loop_
_space_group_symop_operation_xyz
x,y,z
1/2-x,-y,1/2+z
1/2+x,1/2-y,-z
-x,1/2+y,1/2-z
loop_
_atom_site_type_symbol
_atom_site_label
_atom_site_fract_x
_atom_site_fract_y
_atom_site_fract_z
Si Si1 0.640953 0.326942 0.272356
Si Si2 0.703846 0.473619 0.695129
Si Si3 0.049083 0.731125 0.252929
Si Si4 0.796689 0.267968 0.486146
Si Si5 0.862968 0.725711 0.418907
Si Si6 0.659481 0.970148 0.168251
Si Si7 0.017498 0.035140 0.481666
Si Si8 0.184677 0.616642 0.500796
O O1 0.717526 0.431211 0.240014
O O2 0.707726 0.235347 0.368297
O O3 0.558841 0.373429 0.388073
O O4 0.605459 0.288718 0.100987
O O5 0.756603 0.373843 0.590331
O O6 0.662686 0.401247 0.844758
O O7 0.613807 0.523360 0.591232
O O8 0.113375 0.801282 0.126991
O O9 0.109736 0.695821 0.406704
O O10 0.946207 0.779688 0.307878
O O11 0.026791 0.609404 0.161979
O O12 0.828036 0.159037 0.592259
O O13 0.766643 0.801650 0.421475
O O14 0.569117 0.027403 0.074089
O O15 0.641297 0.956923 0.354401
O O16 0.757504 0.036674 0.123947
#
# Coordination Sequence:
#
# PCOD9314032 Si02
#       8
#     4   4   4   4   4   4   4   4
#     4  11  21  39  68  93 131 173 217 272 340 391
#     4  10  21  40  66  96 131 175 218 275 334 396
#     4  10  22  42  66  93 134 172 218 278 326 398
#     4  10  20  40  64  90 132 176 212 274 334 386
#     4  11  22  40  65 100 130 167 223 274 331 393
#     4  11  23  42  65  93 133 176 221 268 336 397
#     4   9  21  40  64  94 133 170 217 274 320 400
#     4  12  24  43  70  95 132 177 220 277 331 403
#
# _framework density 23.982123000000001
#
# number of rings (size 3 to 8) (size 9 to 14) (size 15 to 20)
#    0.000    1.500    2.500    3.750    0.000    1.000 
#    2.250    3.750    0.000    0.000    0.000    0.000 
#    0.000    0.000    0.000    0.000    0.000    0.000 
#
# Total GULP energy -179074.840313 kJ/mol
# GULP energy per Si atom -5596.088760 kJ/mol
# Density = 2.392754 g / cm^3
# Si number density = 23.982123 Si / 1000 Ang^3
#
#
#
# Elastic Constant Matrix: (Units=GPa)
#
#
# Indices 1 2 3 4 5 6 
#
# 1 94.4035 19.0870 30.9090 0.0000 0.0000 0.0000
# 2 19.0870 63.8989 23.1813 0.0000 0.0000 0.0000
# 3 30.9090 23.1813 116.6858 0.0000 0.0000 0.0000
# 4 0.0000 0.0000 0.0000 26.3171 0.0000 0.0000
# 5 0.0000 0.0000 0.0000 0.0000 38.7308 0.0000
# 6 0.0000 0.0000 0.0000 0.0000 0.0000 30.3215
#
#
#
# Elastic Compliance Matrix: (Units=1/GPa)
#
#
# Indices 1 2 3 4 5 6 
#
# 1 0.011992 -0.002618 -0.002656 0.000000 0.000000 0.000000
# 2 -0.002618 0.017437 -0.002771 0.000000 0.000000 0.000000
# 3 -0.002656 -0.002771 0.009824 0.000000 0.000000 0.000000
# 4 0.000000 0.000000 0.000000 0.037998 0.000000 0.000000
# 5 0.000000 0.000000 0.000000 0.000000 0.025819 0.000000
# 6 0.000000 0.000000 0.000000 0.000000 0.000000 0.032980
#
#
# Mechanical properties :
#
#
# Convention : Reuss Voigt Hill
#
# Bulk Modulus (GPa) = 43.17339 46.81587 44.99463
# Shear Modulus (GPa) = 31.27705 32.52794 31.90249
#
# Velocity S-wave (km/s) = 3.61526 3.68685 3.65123
# Velocity P-wave (km/s) = 5.95552 6.13900 6.04796
#
# Compressibility (1/GPa) = 0.02316241
#
# Stress axis : x y z
#
# Youngs Moduli (GPa) = 83.38921 57.34954 101.79067
#
# Poissons Ratio (x) = 0.15016 0.27040
# Poissons Ratio (y) = 0.21834 0.28201
# Poissons Ratio (z) = 0.22151 0.15889
#
# Static dielectric constant tensor:
#      x y z
#    x 1.916040 0.000000 0.000000 
#    y 0.000000 1.937200 0.000000 
#    z 0.000000 0.000000 1.917980 
# 
# From -- ./inp_files/3594.got.cif
#   From: 2010.05.17/outbox.cif.g08.bks.cpg/sg19_2_cif.got.tgz:3594.got - 2010.06.03 22:46:19.
