data_PCOD9314325
_publ_section_title
;
Structure prediction by ZEFSAII (Michael W. Deem and Ramdas Pophale) SiO2 
 PCOD9314325
Probable space group: P 21 21 21
;
_chemical_formula_sum "Si O2"
_cell_formula_units_Z 20
_cell_length_a 5.040747
_cell_length_b 18.041859
_cell_length_c 9.020180
_cell_angle_alpha 90.000000
_cell_angle_beta 90.000000
_cell_angle_gamma 90.000000
_cell_volume 820.335279
_symmetry_space_group_name_H-M "P 21 21 21"
_symmetry_group_IT_number 19
_symmetry_cell_setting 'orthorhombic'
loop_
_space_group_symop_operation_xyz
x,y,z
1/2-x,-y,1/2+z
1/2+x,1/2-y,-z
-x,1/2+y,1/2-z
loop_
_atom_site_type_symbol
_atom_site_label
_atom_site_fract_x
_atom_site_fract_y
_atom_site_fract_z
Si Si1 0.611178 0.270452 0.931275
Si Si2 0.810520 0.301097 0.338187
Si Si3 0.478224 0.500620 0.639944
Si Si4 0.691507 0.851589 0.022905
Si Si5 0.992144 0.557983 0.469478
O O1 0.457513 0.221084 0.811051
O O2 0.570855 0.358197 0.918282
O O3 0.423052 0.246875 0.069777
O O4 0.807994 0.223299 0.425883
O O5 0.009938 0.356631 0.421047
O O6 0.522541 0.337250 0.347696
O O7 0.401081 0.420908 0.571438
O O8 0.757244 0.527315 0.573420
O O9 0.476739 0.488586 0.816766
O O10 0.256704 0.554392 0.569029
#
# Coordination Sequence:
#
# PCOD9314325 Si02
#       5
#     4   4   4   4   4
#     4  12  26  44  68  98 139 175 223 286 346 409
#     4  10  21  39  65  97 126 165 223 266 333 396
#     4  12  26  47  72 102 147 182 237 288 347 426
#     4  10  21  39  68  94 124 171 218 277 323 394
#     4  12  28  47  71 105 140 191 231 287 353 417
#
# _framework density 24.380275000000001
#
# number of rings (size 3 to 8) (size 9 to 14) (size 15 to 20)
#    0.000    0.800    2.000    4.800    0.000    9.600 
#    0.000    0.000    0.000    0.000    0.000    0.000 
#    0.000    0.000    0.000    0.000    0.000    0.000 
#
# Total GULP energy -111966.297106 kJ/mol
# GULP energy per Si atom -5598.314855 kJ/mol
# Density = 2.432478 g / cm^3
# Si number density = 24.380275 Si / 1000 Ang^3
#
#
#
# Elastic Constant Matrix: (Units=GPa)
#
#
# Indices 1 2 3 4 5 6 
#
# 1 86.3741 -27.5825 8.5441 0.0000 0.0000 0.0000
# 2 -27.5825 90.7133 8.0925 0.0000 0.0000 0.0000
# 3 8.5441 8.0925 88.3085 0.0000 0.0000 0.0000
# 4 0.0000 0.0000 0.0000 24.8958 0.0000 0.0000
# 5 0.0000 0.0000 0.0000 0.0000 28.0301 0.0000
# 6 0.0000 0.0000 0.0000 0.0000 0.0000 32.8520
#
#
#
# Elastic Compliance Matrix: (Units=1/GPa)
#
#
# Indices 1 2 3 4 5 6 
#
# 1 0.013054 0.004116 -0.001640 0.000000 0.000000 0.000000
# 2 0.004116 0.012412 -0.001536 0.000000 0.000000 0.000000
# 3 -0.001640 -0.001536 0.011623 0.000000 0.000000 0.000000
# 4 0.000000 0.000000 0.000000 0.040167 0.000000 0.000000
# 5 0.000000 0.000000 0.000000 0.000000 0.035676 0.000000
# 6 0.000000 0.000000 0.000000 0.000000 0.000000 0.030440
#
#
# Mechanical properties :
#
#
# Convention : Reuss Voigt Hill
#
# Bulk Modulus (GPa) = 25.66137 27.05600 26.35869
# Shear Modulus (GPa) = 32.36611 35.57836 33.97224
#
# Velocity S-wave (km/s) = 3.64751 3.82424 3.73692
# Velocity P-wave (km/s) = 5.31859 5.53365 5.42719
#
# Compressibility (1/GPa) = 0.03896907
#
# Stress axis : x y z
#
# Youngs Moduli (GPa) = 76.60463 80.56644 86.03369
#
# Poissons Ratio (x) = -0.33158 0.14111
# Poissons Ratio (y) = -0.31527 0.13212
# Poissons Ratio (z) = 0.12564 0.12372
#
# Static dielectric constant tensor:
#      x y z
#    x 1.883090 0.000000 0.000000 
#    y 0.000000 1.908990 0.000000 
#    z 0.000000 0.000000 2.052840 
# 
# From -- ./inp_files/345.got.cif
#   From: 2010.05.17/outbox.cif.g08.bks.cpg/sg19_1_cif.got.tgz:345.got - 2010.06.03 22:46:19.
