data_PCOD9314465
_publ_section_title
;
Structure prediction by ZEFSAII (Michael W. Deem and Ramdas Pophale) SiO2 
 PCOD9314465
Probable space group: P 21 21 21
;
_chemical_formula_sum "Si O2"
_cell_formula_units_Z 32
_cell_length_a 10.568083
_cell_length_b 5.148049
_cell_length_c 22.496201
_cell_angle_alpha 90.000000
_cell_angle_beta 90.000000
_cell_angle_gamma 90.000000
_cell_volume 1223.906021
_symmetry_space_group_name_H-M "P 21 21 21"
_symmetry_group_IT_number 19
_symmetry_cell_setting 'orthorhombic'
loop_
_space_group_symop_operation_xyz
x,y,z
1/2-x,-y,1/2+z
1/2+x,1/2-y,-z
-x,1/2+y,1/2-z
loop_
_atom_site_type_symbol
_atom_site_label
_atom_site_fract_x
_atom_site_fract_y
_atom_site_fract_z
Si Si1 0.664102 0.185961 0.384183
Si Si2 0.518355 0.042646 0.607443
Si Si3 0.975568 0.678521 0.991057
Si Si4 0.508137 0.301394 0.173996
Si Si5 0.122740 0.985938 0.334820
Si Si6 0.337039 0.927070 0.424462
Si Si7 0.821759 0.778948 0.457635
Si Si8 0.793132 0.558331 0.772011
O O1 0.622512 0.375743 0.437671
O O2 0.745143 0.277853 0.328825
O O3 0.539757 0.083332 0.348149
O O4 0.729901 0.951988 0.418608
O O5 0.580010 0.799253 0.642477
O O6 0.383787 0.944066 0.582689
O O7 0.580674 0.153675 0.545866
O O8 0.523095 0.293317 0.649361
O O9 0.075051 0.869588 0.958578
O O10 0.054829 0.447148 0.020708
O O11 0.580370 0.217742 0.113470
O O12 0.611970 0.300375 0.225608
O O13 0.383983 0.159867 0.198483
O O14 0.245884 0.047096 0.375481
O O15 0.172592 0.010513 0.267715
O O16 0.262430 0.803062 0.479400
#
# Coordination Sequence:
#
# PCOD9314465 Si02
#       8
#     4   4   4   4   4   4   4   4
#     4  11  24  41  70 109 144 193 243 309 372 444
#     4  11  24  46  69  99 145 193 246 303 363 447
#     4  10  22  41  69 105 150 186 240 304 377 441
#     4  10  21  42  63 101 145 187 240 311 363 441
#     4  11  25  42  74 101 141 198 246 300 367 440
#     4   9  22  37  66 107 143 188 234 297 375 449
#     4  11  23  43  72 104 151 193 245 306 379 452
#     4  11  23  40  73 102 145 190 252 304 376 430
#
# _framework density 26.145799
#
# number of rings (size 3 to 8) (size 9 to 14) (size 15 to 20)
#    0.000    1.500    2.500    1.500    5.250    2.000 
#    0.000    0.000    5.500    0.000    0.000    0.000 
#    0.000    0.000    0.000    0.000    0.000    0.000 
#
# Total GULP energy -178963.107880 kJ/mol
# GULP energy per Si atom -5592.597121 kJ/mol
# Density = 2.608629 g / cm^3
# Si number density = 26.145799 Si / 1000 Ang^3
#
#
#
# Elastic Constant Matrix: (Units=GPa)
#
#
# Indices 1 2 3 4 5 6 
#
# 1 70.3619 10.2652 43.6369 0.0000 0.0000 0.0000
# 2 10.2652 73.7728 51.6267 0.0000 0.0000 0.0000
# 3 43.6369 51.6267 178.4594 0.0000 0.0000 0.0000
# 4 0.0000 0.0000 0.0000 37.8553 0.0000 0.0000
# 5 0.0000 0.0000 0.0000 0.0000 58.3364 0.0000
# 6 0.0000 0.0000 0.0000 0.0000 0.0000 48.6748
#
#
#
# Elastic Compliance Matrix: (Units=1/GPa)
#
#
# Indices 1 2 3 4 5 6 
#
# 1 0.016779 0.000673 -0.004297 0.000000 0.000000 0.000000
# 2 0.000673 0.017023 -0.005089 0.000000 0.000000 0.000000
# 3 -0.004297 -0.005089 0.008127 0.000000 0.000000 0.000000
# 4 0.000000 0.000000 0.000000 0.026416 0.000000 0.000000
# 5 0.000000 0.000000 0.000000 0.000000 0.017142 0.000000
# 6 0.000000 0.000000 0.000000 0.000000 0.000000 0.020545
#
#
# Mechanical properties :
#
#
# Convention : Reuss Voigt Hill
#
# Bulk Modulus (GPa) = 40.81469 59.29465 50.05467
# Shear Modulus (GPa) = 37.98632 43.44433 40.71532
#
# Velocity S-wave (km/s) = 3.81578 4.08072 3.95047
# Velocity P-wave (km/s) = 5.92097 6.70304 6.32410
#
# Compressibility (1/GPa) = 0.02450098
#
# Stress axis : x y z
#
# Youngs Moduli (GPa) = 59.59720 58.74441 123.05350
#
# Poissons Ratio (x) = -0.03951 0.52882
# Poissons Ratio (y) = -0.04009 0.62622
# Poissons Ratio (z) = 0.25612 0.29895
#
# Static dielectric constant tensor:
#      x y z
#    x 2.142240 0.000000 0.000000 
#    y 0.000000 2.128860 0.000000 
#    z 0.000000 0.000000 2.015420 
# 
# From -- ./inp_files/7152.got.cif
#   From: 2010.05.17/outbox.cif.g08.bks.cpg/sg19_4_cif.got.tgz:7152.got - 2010.06.03 22:46:19.
