data_PCOD9314917
_publ_section_title
;
Structure prediction by ZEFSAII (Michael W. Deem and Ramdas Pophale) SiO2 
 PCOD9314917
Probable space group: P 21 21 21
;
_chemical_formula_sum "Si O2"
_cell_formula_units_Z 20
_cell_length_a 25.282290
_cell_length_b 4.995321
_cell_length_c 5.571939
_cell_angle_alpha 90.000000
_cell_angle_beta 90.000000
_cell_angle_gamma 90.000000
_cell_volume 703.697751
_symmetry_space_group_name_H-M "P 21 21 21"
_symmetry_group_IT_number 19
_symmetry_cell_setting 'orthorhombic'
loop_
_space_group_symop_operation_xyz
x,y,z
1/2-x,-y,1/2+z
1/2+x,1/2-y,-z
-x,1/2+y,1/2-z
loop_
_atom_site_type_symbol
_atom_site_label
_atom_site_fract_x
_atom_site_fract_y
_atom_site_fract_z
Si Si1 0.915135 0.017517 0.885599
Si Si2 0.384740 0.772274 0.605292
Si Si3 0.216215 0.328414 0.338613
Si Si4 0.816351 0.334218 0.900778
Si Si5 0.983958 0.413337 0.387597
O O1 0.878598 0.281581 0.883190
O O2 0.978512 0.030018 0.903602
O O3 0.900196 0.871320 0.139808
O O4 0.899451 0.875279 0.639537
O O5 0.321521 0.787776 0.628441
O O6 0.421644 0.035109 0.595026
O O7 0.202744 0.636738 0.383869
O O8 0.197517 0.139499 0.555248
O O9 0.277867 0.279891 0.302285
O O10 0.997691 0.108535 0.330771
#
# Coordination Sequence:
#
# PCOD9314917 Si02
#       5
#     4   4   4   4   4
#     4  10  23  43  68  98 134 176 222 274 332 395
#     4  10  23  43  68  98 134 176 222 274 332 395
#     4  11  23  42  66  99 135 178 224 277 334 398
#     4  11  23  42  66  99 135 178 224 277 334 398
#     4  10  22  44  68 100 136 178 224 276 332 396
#
# _framework density 28.421294
#
# number of rings (size 3 to 8) (size 9 to 14) (size 15 to 20)
#    0.000    1.600    0.000    3.600    0.000    9.600 
#    0.000   18.000    0.000    0.000    0.000    0.000 
#    0.000    0.000    0.000    0.000    0.000    0.000 
#
# Total GULP energy -111969.753938 kJ/mol
# GULP energy per Si atom -5598.487697 kJ/mol
# Density = 2.835661 g / cm^3
# Si number density = 28.421294 Si / 1000 Ang^3
#
#
#
# Elastic Constant Matrix: (Units=GPa)
#
#
# Indices 1 2 3 4 5 6 
#
# 1 65.6238 45.9533 46.5836 0.0000 0.0000 0.0000
# 2 45.9533 92.3488 48.5380 0.0000 0.0000 0.0000
# 3 46.5836 48.5380 153.4189 0.0000 0.0000 0.0000
# 4 0.0000 0.0000 0.0000 41.1272 0.0000 0.0000
# 5 0.0000 0.0000 0.0000 0.0000 44.5505 0.0000
# 6 0.0000 0.0000 0.0000 0.0000 0.0000 50.9980
#
#
#
# Elastic Compliance Matrix: (Units=1/GPa)
#
#
# Indices 1 2 3 4 5 6 
#
# 1 0.025758 -0.010443 -0.004517 0.000000 0.000000 0.000000
# 2 -0.010443 0.017222 -0.002278 0.000000 0.000000 0.000000
# 3 -0.004517 -0.002278 0.008610 0.000000 0.000000 0.000000
# 4 0.000000 0.000000 0.000000 0.024315 0.000000 0.000000
# 5 0.000000 0.000000 0.000000 0.000000 0.022446 0.000000
# 6 0.000000 0.000000 0.000000 0.000000 0.000000 0.019609
#
#
# Mechanical properties :
#
#
# Convention : Reuss Voigt Hill
#
# Bulk Modulus (GPa) = 58.43037 65.94903 62.18970
# Shear Modulus (GPa) = 31.61746 38.68957 35.15351
#
# Velocity S-wave (km/s) = 3.33897 3.69357 3.52073
# Velocity P-wave (km/s) = 5.95552 6.43773 6.20132
#
# Compressibility (1/GPa) = 0.01711439
#
# Stress axis : x y z
#
# Youngs Moduli (GPa) = 38.82352 58.06448 116.14030
#
# Poissons Ratio (x) = 0.60637 0.52461
# Poissons Ratio (y) = 0.40543 0.26455
# Poissons Ratio (z) = 0.17537 0.13226
#
# Static dielectric constant tensor:
#      x y z
#    x 2.332820 0.000000 0.000000 
#    y 0.000000 2.137470 0.000000 
#    z 0.000000 0.000000 2.247730 
# 
# From -- ./inp_files/170.got.cif
#   From: 2010.05.17/outbox.cif.g08.bks.cpg/sg19_1_cif.got.tgz:170.got - 2010.06.03 22:46:19.
