data_PCOD9314346
_publ_section_title
;
Structure prediction by ZEFSAII (Michael W. Deem and Ramdas Pophale) SiO2 
 PCOD9314346
Probable space group: P 21 21 21
;
_chemical_formula_sum "Si O2"
_cell_formula_units_Z 28
_cell_length_a 4.991495
_cell_length_b 14.262359
_cell_length_c 15.946363
_cell_angle_alpha 90.000000
_cell_angle_beta 90.000000
_cell_angle_gamma 90.000000
_cell_volume 1135.229454
_symmetry_space_group_name_H-M "P 21 21 21"
_symmetry_group_IT_number 19
_symmetry_cell_setting 'orthorhombic'
loop_
_space_group_symop_operation_xyz
x,y,z
1/2-x,-y,1/2+z
1/2+x,1/2-y,-z
-x,1/2+y,1/2-z
loop_
_atom_site_type_symbol
_atom_site_label
_atom_site_fract_x
_atom_site_fract_y
_atom_site_fract_z
Si Si1 0.775010 0.758016 0.216097
Si Si2 0.786192 0.701973 0.033905
Si Si3 0.185712 0.883249 0.322557
Si Si4 0.156916 0.388098 0.027972
Si Si5 0.074363 0.779793 0.616212
Si Si6 0.509834 0.530464 0.940005
Si Si7 0.493099 0.932875 0.177618
O O1 0.857235 0.705859 0.132245
O O2 0.975379 0.836343 0.256185
O O3 0.699465 0.693378 0.294515
O O4 0.517742 0.819444 0.187919
O O5 0.072246 0.715561 0.988739
O O6 0.618491 0.613876 0.999769
O O7 0.019620 0.932183 0.397530
O O8 0.337454 0.793616 0.362523
O O9 0.400268 0.949678 0.274737
O O10 0.226168 0.286144 0.064830
O O11 0.008663 0.363627 0.942281
O O12 0.413731 0.447552 0.000936
O O13 0.754589 0.525647 0.876237
O O14 0.259169 0.544468 0.875805
#
# Coordination Sequence:
#
# PCOD9314346 Si02
#       7
#     4   4   4   4   4   4   4
#     4  10  21  39  70  94 132 184 234 278 345 418
#     4  12  22  41  69  98 136 184 229 275 343 426
#     4  10  21  43  73  95 133 187 233 281 349 419
#     4  11  24  43  72 102 138 183 240 291 352 412
#     4  10  22  42  68  97 130 184 236 288 344 414
#     4  12  25  41  71 104 141 179 229 291 344 414
#     4  11  21  43  65 100 134 183 225 274 347 409
#
# _framework density 24.664618999999998
#
# number of rings (size 3 to 8) (size 9 to 14) (size 15 to 20)
#    0.000    1.143    5.714    0.000    4.000    0.000 
#    2.571    0.000    0.000    0.000    0.000    0.000 
#    0.000    0.000    0.000    0.000    0.000    0.000 
#
# Total GULP energy -156202.144300 kJ/mol
# GULP energy per Si atom -5578.648011 kJ/mol
# Density = 2.460848 g / cm^3
# Si number density = 24.664619 Si / 1000 Ang^3
#
#
#
# Elastic Constant Matrix: (Units=GPa)
#
#
# Indices 1 2 3 4 5 6 
#
# 1 117.4379 11.2104 52.7407 0.0000 0.0000 0.0000
# 2 11.2104 44.3064 33.6974 0.0000 0.0000 0.0000
# 3 52.7407 33.6974 182.6107 0.0000 0.0000 0.0000
# 4 0.0000 0.0000 0.0000 10.8773 0.0000 0.0000
# 5 0.0000 0.0000 0.0000 0.0000 40.4627 0.0000
# 6 0.0000 0.0000 0.0000 0.0000 0.0000 22.5364
#
#
#
# Elastic Compliance Matrix: (Units=1/GPa)
#
#
# Indices 1 2 3 4 5 6 
#
# 1 0.009790 -0.000380 -0.002757 0.000000 0.000000 0.000000
# 2 -0.000380 0.026270 -0.004738 0.000000 0.000000 0.000000
# 3 -0.002757 -0.004738 0.007147 0.000000 0.000000 0.000000
# 4 0.000000 0.000000 0.000000 0.091935 0.000000 0.000000
# 5 0.000000 0.000000 0.000000 0.000000 0.024714 0.000000
# 6 0.000000 0.000000 0.000000 0.000000 0.000000 0.044373
#
#
# Mechanical properties :
#
#
# Convention : Reuss Voigt Hill
#
# Bulk Modulus (GPa) = 36.42195 59.96135 48.19165
# Shear Modulus (GPa) = 21.82169 31.22237 26.52203
#
# Velocity S-wave (km/s) = 2.97768 3.56178 3.28274
# Velocity P-wave (km/s) = 5.15956 6.42483 5.82664
#
# Compressibility (1/GPa) = 0.02745597
#
# Stress axis : x y z
#
# Youngs Moduli (GPa) = 102.14817 38.06675 139.92348
#
# Poissons Ratio (x) = 0.01446 0.38581
# Poissons Ratio (y) = 0.03881 0.66294
# Poissons Ratio (z) = 0.28165 0.18035
#
# Static dielectric constant tensor:
#      x y z
#    x 2.051430 0.000000 0.000000 
#    y 0.000000 1.952640 0.000000 
#    z 0.000000 0.000000 2.063220 
# 
# From -- ./inp_files/5703.got.cif
#   From: 2010.05.17/outbox.cif.g08.bks.cpg/sg19_3_cif.got.tgz:5703.got - 2010.06.03 22:46:19.
