data_PCOD9314027
_publ_section_title
;
Structure prediction by ZEFSAII (Michael W. Deem and Ramdas Pophale) SiO2 
 PCOD9314027
Probable space group: P 21 21 21
;
_chemical_formula_sum "Si O2"
_cell_formula_units_Z 32
_cell_length_a 13.846830
_cell_length_b 9.144884
_cell_length_c 9.916012
_cell_angle_alpha 90.000000
_cell_angle_beta 90.000000
_cell_angle_gamma 90.000000
_cell_volume 1255.641338
_symmetry_space_group_name_H-M "P 21 21 21"
_symmetry_group_IT_number 19
_symmetry_cell_setting 'orthorhombic'
loop_
_space_group_symop_operation_xyz
x,y,z
1/2-x,-y,1/2+z
1/2+x,1/2-y,-z
-x,1/2+y,1/2-z
loop_
_atom_site_type_symbol
_atom_site_label
_atom_site_fract_x
_atom_site_fract_y
_atom_site_fract_z
Si Si1 0.396855 0.065146 0.763222
Si Si2 0.220234 0.169547 0.141166
Si Si3 0.101887 0.387032 0.323623
Si Si4 0.899182 0.626863 0.988449
Si Si5 0.796764 0.223727 0.413814
Si Si6 0.394287 0.178393 0.305419
Si Si7 0.057787 0.512207 0.781352
Si Si8 0.238922 0.424532 0.950826
O O1 0.361064 0.954268 0.644901
O O2 0.363296 0.993867 0.903273
O O3 0.512278 0.065859 0.766193
O O4 0.353364 0.218774 0.716223
O O5 0.181330 0.293926 0.243161
O O6 0.314159 0.101459 0.212346
O O7 0.238710 0.261589 0.007984
O O8 0.060793 0.263928 0.425204
O O9 0.159195 0.515245 0.397409
O O10 0.808300 0.700283 0.914014
O O11 0.984087 0.557506 0.901249
O O12 0.848715 0.280220 0.551294
O O13 0.787891 0.049915 0.436990
O O14 0.413247 0.330048 0.224800
O O15 0.492814 0.088852 0.312469
O O16 0.153479 0.437968 0.840460
#
# Coordination Sequence:
#
# PCOD9314027 Si02
#       8
#     4   4   4   4   4   4   4   4
#     4  11  22  39  70  98 127 168 224 275 324 386
#     4  11  22  42  64  93 132 162 213 284 312 384
#     4  10  20  40  63  89 128 175 211 259 339 392
#     4  10  21  40  66  96 131 169 219 272 328 393
#     4  10  21  43  65  92 132 175 208 271 341 397
#     4  11  23  44  66  93 137 170 217 265 334 394
#     4  11  23  41  68  97 128 177 216 271 324 398
#     4  10  22  41  62  88 131 174 216 261 330 392
#
# _framework density 25.484984000000001
#
# number of rings (size 3 to 8) (size 9 to 14) (size 15 to 20)
#    0.000    1.500    5.000    3.000    0.000    6.000 
#    0.000    5.000    5.500    0.000    0.000    0.000 
#    0.000    0.000    0.000    0.000    0.000    0.000 
#
# Total GULP energy -179213.661478 kJ/mol
# GULP energy per Si atom -5600.426921 kJ/mol
# Density = 2.542698 g / cm^3
# Si number density = 25.484984 Si / 1000 Ang^3
#
#
#
# Elastic Constant Matrix: (Units=GPa)
#
#
# Indices 1 2 3 4 5 6 
#
# 1 98.5870 4.0501 15.1951 0.0000 0.0000 0.0000
# 2 4.0501 87.0760 30.2432 0.0000 0.0000 0.0000
# 3 15.1951 30.2432 45.5313 0.0000 0.0000 0.0000
# 4 0.0000 0.0000 0.0000 51.7314 0.0000 0.0000
# 5 0.0000 0.0000 0.0000 0.0000 30.6384 0.0000
# 6 0.0000 0.0000 0.0000 0.0000 0.0000 44.2750
#
#
#
# Elastic Compliance Matrix: (Units=1/GPa)
#
#
# Indices 1 2 3 4 5 6 
#
# 1 0.010756 0.000970 -0.004234 0.000000 0.000000 0.000000
# 2 0.000970 0.015016 -0.010298 0.000000 0.000000 0.000000
# 3 -0.004234 -0.010298 0.030216 0.000000 0.000000 0.000000
# 4 0.000000 0.000000 0.000000 0.019331 0.000000 0.000000
# 5 0.000000 0.000000 0.000000 0.000000 0.032639 0.000000
# 6 0.000000 0.000000 0.000000 0.000000 0.000000 0.022586
#
#
# Mechanical properties :
#
#
# Convention : Reuss Voigt Hill
#
# Bulk Modulus (GPa) = 34.64431 36.68567 35.66499
# Shear Modulus (GPa) = 29.88858 37.44267 33.66563
#
# Velocity S-wave (km/s) = 3.42832 3.83718 3.63850
# Velocity P-wave (km/s) = 5.41246 5.83594 5.62818
#
# Compressibility (1/GPa) = 0.02886477
#
# Stress axis : x y z
#
# Youngs Moduli (GPa) = 92.97081 66.59698 33.09502
#
# Poissons Ratio (x) = -0.06462 0.14013
# Poissons Ratio (y) = -0.09021 0.34080
# Poissons Ratio (z) = 0.39365 0.68580
#
# Static dielectric constant tensor:
#      x y z
#    x 1.986380 0.000000 0.000000 
#    y 0.000000 2.027930 0.000000 
#    z 0.000000 0.000000 2.050800 
# 
# From -- ./inp_files/5249.got.cif
#   From: 2010.05.17/outbox.cif.g08.bks.cpg/sg19_3_cif.got.tgz:5249.got - 2010.06.03 22:46:19.
