data_PCOD9314713
_publ_section_title
;
Structure prediction by ZEFSAII (Michael W. Deem and Ramdas Pophale) SiO2 
 PCOD9314713
Probable space group: P 21 21 21
;
_chemical_formula_sum "Si O2"
_cell_formula_units_Z 20
_cell_length_a 4.954607
_cell_length_b 18.650607
_cell_length_c 8.583557
_cell_angle_alpha 90.000000
_cell_angle_beta 90.000000
_cell_angle_gamma 90.000000
_cell_volume 793.175842
_symmetry_space_group_name_H-M "P 21 21 21"
_symmetry_group_IT_number 19
_symmetry_cell_setting 'orthorhombic'
loop_
_space_group_symop_operation_xyz
x,y,z
1/2-x,-y,1/2+z
1/2+x,1/2-y,-z
-x,1/2+y,1/2-z
loop_
_atom_site_type_symbol
_atom_site_label
_atom_site_fract_x
_atom_site_fract_y
_atom_site_fract_z
Si Si1 0.309298 0.299792 0.015419
Si Si2 0.101703 0.314114 0.347221
Si Si3 0.622690 0.498939 0.652767
Si Si4 0.395706 0.844471 0.960889
Si Si5 0.104980 0.547086 0.467998
O O1 0.190765 0.332557 0.174852
O O2 0.361693 0.370398 0.913080
O O3 0.581104 0.254811 0.044411
O O4 0.135173 0.227977 0.361674
O O5 0.300297 0.347484 0.475607
O O6 0.798722 0.333021 0.390999
O O7 0.693139 0.415676 0.625203
O O8 0.387627 0.518821 0.531571
O O9 0.884731 0.543833 0.606301
O O10 0.509344 0.501361 0.827454
#
# Coordination Sequence:
#
# PCOD9314713 Si02
#       5
#     4   4   4   4   4
#     4  12  26  46  73 102 148 187 249 305 365 434
#     4  10  22  40  71 105 131 187 240 289 363 424
#     4  12  27  48  72 106 151 191 247 300 367 449
#     4  10  22  41  69 100 141 178 235 301 353 429
#     4  12  29  47  77 109 147 201 245 301 380 434
#
# _framework density 25.215088000000002
#
# number of rings (size 3 to 8) (size 9 to 14) (size 15 to 20)
#    0.000    0.800    0.000    6.000    8.400    4.800 
#    0.000    0.000    0.000    0.000    0.000    0.000 
#    0.000    0.000    0.000    0.000    0.000    0.000 
#
# Total GULP energy -112193.062363 kJ/mol
# GULP energy per Si atom -5609.653118 kJ/mol
# Density = 2.515770 g / cm^3
# Si number density = 25.215088 Si / 1000 Ang^3
#
#
#
# Elastic Constant Matrix: (Units=GPa)
#
#
# Indices 1 2 3 4 5 6 
#
# 1 113.5150 22.4783 -13.5822 0.0000 0.0000 0.0000
# 2 22.4783 104.7009 -4.3879 0.0000 0.0000 0.0000
# 3 -13.5822 -4.3879 44.6214 0.0000 0.0000 0.0000
# 4 0.0000 0.0000 0.0000 32.4914 0.0000 0.0000
# 5 0.0000 0.0000 0.0000 0.0000 37.4950 0.0000
# 6 0.0000 0.0000 0.0000 0.0000 0.0000 40.9597
#
#
#
# Elastic Compliance Matrix: (Units=1/GPa)
#
#
# Indices 1 2 3 4 5 6 
#
# 1 0.009515 -0.001929 0.002707 0.000000 0.000000 0.000000
# 2 -0.001929 0.009982 0.000394 0.000000 0.000000 0.000000
# 3 0.002707 0.000394 0.023273 0.000000 0.000000 0.000000
# 4 0.000000 0.000000 0.000000 0.030777 0.000000 0.000000
# 5 0.000000 0.000000 0.000000 0.000000 0.026670 0.000000
# 6 0.000000 0.000000 0.000000 0.000000 0.000000 0.024414
#
#
# Mechanical properties :
#
#
# Convention : Reuss Voigt Hill
#
# Bulk Modulus (GPa) = 22.16633 30.20596 26.18615
# Shear Modulus (GPa) = 36.40940 39.41117 37.91029
#
# Velocity S-wave (km/s) = 3.80406 3.95777 3.88168
# Velocity P-wave (km/s) = 5.30137 5.73503 5.52246
#
# Compressibility (1/GPa) = 0.04511346
#
# Stress axis : x y z
#
# Youngs Moduli (GPa) = 105.09369 100.18271 42.96746
#
# Poissons Ratio (x) = 0.19329 -0.11630
# Poissons Ratio (y) = 0.20277 -0.01694
# Poissons Ratio (z) = -0.28445 -0.03950
#
# Static dielectric constant tensor:
#      x y z
#    x 1.884540 0.000000 0.000000 
#    y 0.000000 1.994190 0.000000 
#    z 0.000000 0.000000 2.004400 
# 
# From -- ./inp_files/1677.got.cif
#   From: 2010.05.17/outbox.cif.g08.bks.cpg/sg19_1_cif.got.tgz:1677.got - 2010.06.03 22:46:19.
