data_PCOD9314596
_publ_section_title
;
Structure prediction by ZEFSAII (Michael W. Deem and Ramdas Pophale) SiO2 
 PCOD9314596
Probable space group: P 21 21 21
;
_chemical_formula_sum "Si O2"
_cell_formula_units_Z 32
_cell_length_a 7.670449
_cell_length_b 19.929790
_cell_length_c 9.972413
_cell_angle_alpha 90.000000
_cell_angle_beta 90.000000
_cell_angle_gamma 90.000000
_cell_volume 1524.487141
_symmetry_space_group_name_H-M "P 21 21 21"
_symmetry_group_IT_number 19
_symmetry_cell_setting 'orthorhombic'
loop_
_space_group_symop_operation_xyz
x,y,z
1/2-x,-y,1/2+z
1/2+x,1/2-y,-z
-x,1/2+y,1/2-z
loop_
_atom_site_type_symbol
_atom_site_label
_atom_site_fract_x
_atom_site_fract_y
_atom_site_fract_z
Si Si1 0.593795 0.079070 0.283413
Si Si2 0.093795 0.579070 0.783414
Si Si3 0.954269 0.174347 0.954729
Si Si4 0.020454 0.406293 0.192664
Si Si5 0.566702 0.463615 0.549823
Si Si6 0.979546 0.093707 0.192664
Si Si7 0.566702 0.536385 0.950178
Si Si8 0.545731 0.174347 0.045271
O O1 0.795171 0.102029 0.268587
O O2 0.521377 0.080622 0.434390
O O3 0.506520 0.124335 0.167965
O O4 0.579760 0.000000 0.250000
O O5 0.006520 0.624335 0.667966
O O6 0.295171 0.602029 0.768587
O O7 0.021378 0.580622 0.934391
O O8 0.000000 0.250000 0.919796
O O9 0.043205 0.150990 0.093400
O O10 0.750000 0.168250 1.000000
O O11 0.893447 0.423045 0.314267
O O12 0.956795 0.349010 0.093400
O O13 0.044735 0.472379 0.098590
O O14 0.606553 0.423045 0.685733
O O15 0.750000 0.491329 0.500000
O O16 0.955265 0.027621 0.098590
#
# Coordination Sequence:
#
# PCOD9314596 Si02
#       8
#     4   4   4   4   4   4   4   4
#     4  11  20  38  64  88 120 162 213 248 302 372
#     4  11  20  38  64  88 120 162 213 248 302 372
#     4  10  23  40  62  90 120 166 203 247 308 370
#     4  10  22  37  59  87 123 163 204 247 302 379
#     4  11  23  34  56  96 124 150 197 268 316 337
#     4  10  22  37  59  87 123 163 204 247 302 379
#     4  11  23  34  56  96 124 150 197 268 316 337
#     4  10  23  40  62  90 120 166 203 247 308 370
#
# _framework density 20.990666999999998
#
# number of rings (size 3 to 8) (size 9 to 14) (size 15 to 20)
#    0.000    1.500    5.000    0.750    3.500    3.000 
#    0.000    1.250    0.000    0.000    0.000    0.000 
#    0.000    0.000    0.000    0.000    0.000    0.000 
#
# Total GULP energy -178521.722620 kJ/mol
# GULP energy per Si atom -5578.803832 kJ/mol
# Density = 2.094289 g / cm^3
# Si number density = 20.990667 Si / 1000 Ang^3
#
#
#
# Elastic Constant Matrix: (Units=GPa)
#
#
# Indices 1 2 3 4 5 6 
#
# 1 39.6848 -4.4429 21.6497 0.0000 0.0000 0.0000
# 2 -4.4429 93.6609 53.2488 0.0000 0.0000 0.0000
# 3 21.6497 53.2488 150.4924 0.0000 0.0000 0.0000
# 4 0.0000 0.0000 0.0000 33.9507 0.0000 0.0000
# 5 0.0000 0.0000 0.0000 0.0000 21.7303 0.0000
# 6 0.0000 0.0000 0.0000 0.0000 0.0000 16.0849
#
#
#
# Elastic Compliance Matrix: (Units=1/GPa)
#
#
# Indices 1 2 3 4 5 6 
#
# 1 0.028891 0.004674 -0.005810 0.000000 0.000000 0.000000
# 2 0.004674 0.014121 -0.005669 0.000000 0.000000 0.000000
# 3 -0.005810 -0.005669 0.009487 0.000000 0.000000 0.000000
# 4 0.000000 0.000000 0.000000 0.029454 0.000000 0.000000
# 5 0.000000 0.000000 0.000000 0.000000 0.046019 0.000000
# 6 0.000000 0.000000 0.000000 0.000000 0.000000 0.062170
#
#
# Mechanical properties :
#
#
# Convention : Reuss Voigt Hill
#
# Bulk Modulus (GPa) = 25.71439 47.19438 36.45438
# Shear Modulus (GPa) = 23.07167 28.57869 25.82518
#
# Velocity S-wave (km/s) = 3.31892 3.69385 3.51139
# Velocity P-wave (km/s) = 5.19269 6.38161 5.81760
#
# Compressibility (1/GPa) = 0.03888873
#
# Stress axis : x y z
#
# Youngs Moduli (GPa) = 34.61242 70.81430 105.41292
#
# Poissons Ratio (x) = -0.33096 0.61244
# Poissons Ratio (y) = -0.16176 0.59758
# Poissons Ratio (z) = 0.20110 0.40144
#
# Static dielectric constant tensor:
#      x y z
#    x 1.843660 0.000000 0.000000 
#    y 0.000000 1.745940 0.000000 
#    z 0.000000 0.000000 1.815340 
# 
# From -- ./inp_files/3238.got.cif
#   From: 2010.05.17/outbox.cif.g08.bks.cpg/sg19_2_cif.got.tgz:3238.got - 2010.06.03 22:46:19.
