data_PCOD9314699
_publ_section_title
;
Structure prediction by ZEFSAII (Michael W. Deem and Ramdas Pophale) SiO2 
 PCOD9314699
Probable space group: P 21 21 21
;
_chemical_formula_sum "Si O2"
_cell_formula_units_Z 24
_cell_length_a 8.555806
_cell_length_b 13.263181
_cell_length_c 9.584224
_cell_angle_alpha 90.000000
_cell_angle_beta 90.000000
_cell_angle_gamma 90.000000
_cell_volume 1087.590938
_symmetry_space_group_name_H-M "P 21 21 21"
_symmetry_group_IT_number 19
_symmetry_cell_setting 'orthorhombic'
loop_
_space_group_symop_operation_xyz
x,y,z
1/2-x,-y,1/2+z
1/2+x,1/2-y,-z
-x,1/2+y,1/2-z
loop_
_atom_site_type_symbol
_atom_site_label
_atom_site_fract_x
_atom_site_fract_y
_atom_site_fract_z
Si Si1 0.080893 0.643754 0.065001
Si Si2 0.905552 0.946920 0.962592
Si Si3 0.022383 0.754707 0.801151
Si Si4 0.358778 0.808636 0.703505
Si Si5 0.084741 0.849965 0.214588
Si Si6 0.634220 0.377407 0.098013
O O1 0.218529 0.563900 0.043488
O O2 0.144657 0.755431 0.116148
O O3 0.955372 0.622960 0.186161
O O4 0.000633 0.667910 0.917815
O O5 0.962652 0.858597 0.861503
O O6 0.987830 0.047226 0.908701
O O7 0.978807 0.918373 0.113647
O O8 0.205994 0.765548 0.776114
O O9 0.932633 0.725395 0.662109
O O10 0.474376 0.713346 0.680232
O O11 0.314792 0.862187 0.560861
O O12 0.222615 0.903130 0.299186
#
# Coordination Sequence:
#
# PCOD9314699 Si02
#       6
#     4   4   4   4   4   4
#     4   9  19  43  65  86 122 175 219 258 334 396
#     4  11  23  40  65  96 130 175 224 262 328 406
#     4  11  20  42  67  91 126 182 215 271 341 382
#     4  10  22  40  68  91 126 174 219 279 332 392
#     4   9  21  43  62  90 130 175 213 272 329 391
#     4  12  25  38  65 102 134 169 224 280 326 395
#
# _framework density 22.067121
#
# number of rings (size 3 to 8) (size 9 to 14) (size 15 to 20)
#    1.000    0.667    3.333    1.000    4.667    1.333 
#    0.000    0.000    0.000    0.000    0.000    0.000 
#    0.000    0.000    0.000    0.000    0.000    0.000 
#
# Total GULP energy -133867.220393 kJ/mol
# GULP energy per Si atom -5577.800850 kJ/mol
# Density = 2.201690 g / cm^3
# Si number density = 22.067121 Si / 1000 Ang^3
#
#
#
# Elastic Constant Matrix: (Units=GPa)
#
#
# Indices 1 2 3 4 5 6 
#
# 1 69.9511 -13.5864 29.1664 0.0000 0.0000 0.0000
# 2 -13.5864 18.3992 6.7681 0.0000 0.0000 0.0000
# 3 29.1664 6.7681 108.4589 0.0000 0.0000 0.0000
# 4 0.0000 0.0000 0.0000 15.4493 0.0000 0.0000
# 5 0.0000 0.0000 0.0000 0.0000 4.5045 0.0000
# 6 0.0000 0.0000 0.0000 0.0000 0.0000 20.4672
#
#
#
# Elastic Compliance Matrix: (Units=1/GPa)
#
#
# Indices 1 2 3 4 5 6 
#
# 1 0.020448 0.017524 -0.006592 0.000000 0.000000 0.000000
# 2 0.017524 0.070646 -0.009121 0.000000 0.000000 0.000000
# 3 -0.006592 -0.009121 0.011562 0.000000 0.000000 0.000000
# 4 0.000000 0.000000 0.000000 0.064728 0.000000 0.000000
# 5 0.000000 0.000000 0.000000 0.000000 0.221998 0.000000
# 6 0.000000 0.000000 0.000000 0.000000 0.000000 0.048859
#
#
# Mechanical properties :
#
#
# Convention : Reuss Voigt Hill
#
# Bulk Modulus (GPa) = 9.40927 26.83390 18.12159
# Shear Modulus (GPa) = 10.63728 19.71495 15.17612
#
# Velocity S-wave (km/s) = 2.19793 2.99224 2.62530
# Velocity P-wave (km/s) = 3.27328 4.91167 4.17366
#
# Compressibility (1/GPa) = 0.10627812
#
# Stress axis : x y z
#
# Youngs Moduli (GPa) = 48.90417 14.15510 86.48973
#
# Poissons Ratio (x) = -0.24806 0.57018
# Poissons Ratio (y) = -0.85702 0.78888
# Poissons Ratio (z) = 0.32240 0.12911
#
# Static dielectric constant tensor:
#      x y z
#    x 1.840980 0.000000 0.000000 
#    y 0.000000 1.804930 0.000000 
#    z 0.000000 0.000000 1.800700 
# 
# From -- ./inp_files/2798.got.cif
#   From: 2010.05.17/outbox.cif.g08.bks.cpg/sg19_2_cif.got.tgz:2798.got - 2010.06.03 22:46:19.
