data_PCOD9314043
_publ_section_title
;
Structure prediction by ZEFSAII (Michael W. Deem and Ramdas Pophale) SiO2 
 PCOD9314043
Probable space group: P 21 21 21
;
_chemical_formula_sum "Si O2"
_cell_formula_units_Z 28
_cell_length_a 5.112178
_cell_length_b 15.648662
_cell_length_c 14.071450
_cell_angle_alpha 90.000000
_cell_angle_beta 90.000000
_cell_angle_gamma 90.000000
_cell_volume 1125.698349
_symmetry_space_group_name_H-M "P 21 21 21"
_symmetry_group_IT_number 19
_symmetry_cell_setting 'orthorhombic'
loop_
_space_group_symop_operation_xyz
x,y,z
1/2-x,-y,1/2+z
1/2+x,1/2-y,-z
-x,1/2+y,1/2-z
loop_
_atom_site_type_symbol
_atom_site_label
_atom_site_fract_x
_atom_site_fract_y
_atom_site_fract_z
Si Si1 0.762991 0.223173 0.272184
Si Si2 0.185636 0.576772 0.345204
Si Si3 0.108778 0.850795 0.920366
Si Si4 0.593712 0.857852 0.289640
Si Si5 0.787135 0.479949 0.735196
Si Si6 0.318570 0.689714 0.519525
Si Si7 0.373365 0.668931 0.891601
O O1 0.648649 0.170459 0.359589
O O2 0.527942 0.263431 0.213737
O O3 0.924539 0.164000 0.203459
O O4 0.914567 0.300920 0.316431
O O5 0.959342 0.513435 0.306758
O O6 0.250551 0.608741 0.450637
O O7 0.461948 0.555964 0.294129
O O8 0.263980 0.917129 0.854907
O O9 0.256431 0.759581 0.930649
O O10 0.006453 0.880242 0.022399
O O11 0.802323 0.849453 0.373857
O O12 0.664510 0.873199 0.177938
O O13 0.387233 0.931870 0.310349
O O14 0.091618 0.761919 0.502288
#
# Coordination Sequence:
#
# PCOD9314043 Si02
#       7
#     4   4   4   4   4   4   4
#     4  10  20  40  66  92 128 172 229 282 323 413
#     4  11  23  45  70  98 134 186 228 279 353 411
#     4  10  21  37  66  98 127 174 226 274 344 396
#     4  11  27  42  65 103 139 183 233 291 347 417
#     4  11  26  45  66 100 147 183 216 290 358 414
#     4  12  25  44  75 104 132 183 248 295 339 412
#     4  11  20  39  68  97 129 175 236 285 330 413
#
# _framework density 24.873449999999998
#
# number of rings (size 3 to 8) (size 9 to 14) (size 15 to 20)
#    0.000    1.143    4.286    1.714    4.000    1.143 
#    0.000    0.000    0.000    0.000    0.000    0.000 
#    0.000    0.000    0.000    0.000    0.000    0.000 
#
# Total GULP energy -156365.489746 kJ/mol
# GULP energy per Si atom -5584.481777 kJ/mol
# Density = 2.481684 g / cm^3
# Si number density = 24.873450 Si / 1000 Ang^3
#
#
#
# Elastic Constant Matrix: (Units=GPa)
#
#
# Indices 1 2 3 4 5 6 
#
# 1 88.3285 5.7877 -0.0770 0.0000 0.0000 0.0000
# 2 5.7877 64.9603 23.7900 0.0000 0.0000 0.0000
# 3 -0.0770 23.7900 118.3284 0.0000 0.0000 0.0000
# 4 0.0000 0.0000 0.0000 21.3577 0.0000 0.0000
# 5 0.0000 0.0000 0.0000 0.0000 26.2795 0.0000
# 6 0.0000 0.0000 0.0000 0.0000 0.0000 34.7860
#
#
#
# Elastic Compliance Matrix: (Units=1/GPa)
#
#
# Indices 1 2 3 4 5 6 
#
# 1 0.011394 -0.001099 0.000228 0.000000 0.000000 0.000000
# 2 -0.001099 0.016724 -0.003363 0.000000 0.000000 0.000000
# 3 0.000228 -0.003363 0.009127 0.000000 0.000000 0.000000
# 4 0.000000 0.000000 0.000000 0.046822 0.000000 0.000000
# 5 0.000000 0.000000 0.000000 0.000000 0.038052 0.000000
# 6 0.000000 0.000000 0.000000 0.000000 0.000000 0.028747
#
#
# Mechanical properties :
#
#
# Convention : Reuss Voigt Hill
#
# Bulk Modulus (GPa) = 34.74922 36.73538 35.74230
# Shear Modulus (GPa) = 29.59895 32.62575 31.11235
#
# Velocity S-wave (km/s) = 3.45335 3.62563 3.54054
# Velocity P-wave (km/s) = 5.46824 5.68576 5.57806
#
# Compressibility (1/GPa) = 0.02877763
#
# Stress axis : x y z
#
# Youngs Moduli (GPa) = 87.76879 59.79601 109.56101
#
# Poissons Ratio (x) = 0.06570 -0.02501
# Poissons Ratio (y) = 0.09643 0.36845
# Poissons Ratio (z) = -0.02004 0.20109
#
# Static dielectric constant tensor:
#      x y z
#    x 2.050090 0.000000 0.000000 
#    y 0.000000 2.093780 0.000000 
#    z 0.000000 0.000000 1.972270 
# 
# From -- ./inp_files/1484.got.cif
#   From: 2010.05.17/outbox.cif.g08.bks.cpg/sg19_1_cif.got.tgz:1484.got - 2010.06.03 22:46:19.
