data_PCOD9314459
_publ_section_title
;
Structure prediction by ZEFSAII (Michael W. Deem and Ramdas Pophale) SiO2 
 PCOD9314459
Probable space group: P 21 21 21
;
_chemical_formula_sum "Si O2"
_cell_formula_units_Z 28
_cell_length_a 8.070850
_cell_length_b 18.946705
_cell_length_c 8.064197
_cell_angle_alpha 90.000000
_cell_angle_beta 90.000000
_cell_angle_gamma 90.000000
_cell_volume 1233.144862
_symmetry_space_group_name_H-M "P 21 21 21"
_symmetry_group_IT_number 19
_symmetry_cell_setting 'orthorhombic'
loop_
_space_group_symop_operation_xyz
x,y,z
1/2-x,-y,1/2+z
1/2+x,1/2-y,-z
-x,1/2+y,1/2-z
loop_
_atom_site_type_symbol
_atom_site_label
_atom_site_fract_x
_atom_site_fract_y
_atom_site_fract_z
Si Si1 0.560550 0.475826 0.884178
Si Si2 0.646889 0.018618 0.298939
Si Si3 0.969411 0.262125 0.847643
Si Si4 0.593536 0.308301 0.839032
Si Si5 0.138319 0.626867 0.826547
Si Si6 0.228779 0.670059 0.149949
Si Si7 0.577099 0.484600 0.493610
O O1 0.569964 0.390357 0.894579
O O2 0.550955 0.496144 0.689015
O O3 0.732797 0.506188 0.952599
O O4 0.431355 0.506507 0.019279
O O5 0.718724 0.941268 0.257730
O O6 0.521878 0.031211 0.143547
O O7 0.759127 0.087125 0.302160
O O8 0.792332 0.299911 0.818465
O O9 0.935821 0.181238 0.799536
O O10 0.118861 0.292746 0.739528
O O11 0.038312 0.253310 0.033118
O O12 0.451598 0.300793 0.698198
O O13 0.991329 0.591991 0.937088
O O14 0.251888 0.669605 0.952779
#
# Coordination Sequence:
#
# PCOD9314459 Si02
#       7
#     4   4   4   4   4   4   4
#     4  12  21  42  73 112 151 189 253 310 386 452
#     4  10  24  44  71 108 144 195 253 306 382 444
#     4  12  27  49  75 109 148 204 254 308 384 455
#     4  12  25  49  76 103 150 197 253 313 373 463
#     4  10  25  45  71 107 146 197 252 306 377 454
#     4  12  27  48  74 109 149 196 251 315 376 455
#     4  10  21  41  70 110 150 194 240 320 372 449
#
# _framework density 22.706171000000001
#
# number of rings (size 3 to 8) (size 9 to 14) (size 15 to 20)
#    0.857    0.000    5.714    0.857    4.000    0.000 
#    2.571    0.000    0.000    0.000    0.000    0.000 
#    0.000    0.000    0.000    0.000    0.000    0.000 
#
# Total GULP energy -156133.621888 kJ/mol
# GULP energy per Si atom -5576.200782 kJ/mol
# Density = 2.265449 g / cm^3
# Si number density = 22.706171 Si / 1000 Ang^3
#
#
#
# Elastic Constant Matrix: (Units=GPa)
#
#
# Indices 1 2 3 4 5 6 
#
# 1 108.7023 17.3770 18.8309 0.0000 0.0000 0.0000
# 2 17.3770 39.6847 0.4014 0.0000 0.0000 0.0000
# 3 18.8309 0.4014 107.7090 0.0000 0.0000 0.0000
# 4 0.0000 0.0000 0.0000 34.1733 0.0000 0.0000
# 5 0.0000 0.0000 0.0000 0.0000 32.1866 0.0000
# 6 0.0000 0.0000 0.0000 0.0000 0.0000 34.7216
#
#
#
# Elastic Compliance Matrix: (Units=1/GPa)
#
#
# Indices 1 2 3 4 5 6 
#
# 1 0.010218 -0.004457 -0.001770 0.000000 0.000000 0.000000
# 2 -0.004457 0.027143 0.000678 0.000000 0.000000 0.000000
# 3 -0.001770 0.000678 0.009591 0.000000 0.000000 0.000000
# 4 0.000000 0.000000 0.000000 0.029263 0.000000 0.000000
# 5 0.000000 0.000000 0.000000 0.000000 0.031069 0.000000
# 6 0.000000 0.000000 0.000000 0.000000 0.000000 0.028800
#
#
# Mechanical properties :
#
#
# Convention : Reuss Voigt Hill
#
# Bulk Modulus (GPa) = 27.88935 36.59049 32.23992
# Shear Modulus (GPa) = 31.42013 34.84875 33.13444
#
# Velocity S-wave (km/s) = 3.72394 3.92186 3.82418
# Velocity P-wave (km/s) = 5.54975 6.05457 5.80765
#
# Compressibility (1/GPa) = 0.03585597
#
# Stress axis : x y z
#
# Youngs Moduli (GPa) = 97.86216 36.84163 104.26241
#
# Poissons Ratio (x) = 0.16419 0.18453
# Poissons Ratio (y) = 0.43613 -0.07069
# Poissons Ratio (z) = 0.17321 -0.02498
#
# Static dielectric constant tensor:
#      x y z
#    x 1.893380 0.000000 0.000000 
#    y 0.000000 1.836930 0.000000 
#    z 0.000000 0.000000 1.921160 
# 
# From -- ./inp_files/3098.got.cif
#   From: 2010.05.17/outbox.cif.g08.bks.cpg/sg19_2_cif.got.tgz:3098.got - 2010.06.03 22:46:19.
