data_PCOD9314354
_publ_section_title
;
Structure prediction by ZEFSAII (Michael W. Deem and Ramdas Pophale) SiO2 
 PCOD9314354
Probable space group: P 21 21 21
;
_chemical_formula_sum "Si O2"
_cell_formula_units_Z 32
_cell_length_a 8.728808
_cell_length_b 7.335511
_cell_length_c 23.413644
_cell_angle_alpha 90.000000
_cell_angle_beta 90.000000
_cell_angle_gamma 90.000000
_cell_volume 1499.181879
_symmetry_space_group_name_H-M "P 21 21 21"
_symmetry_group_IT_number 19
_symmetry_cell_setting 'orthorhombic'
loop_
_space_group_symop_operation_xyz
x,y,z
1/2-x,-y,1/2+z
1/2+x,1/2-y,-z
-x,1/2+y,1/2-z
loop_
_atom_site_type_symbol
_atom_site_label
_atom_site_fract_x
_atom_site_fract_y
_atom_site_fract_z
Si Si1 0.214007 0.306479 0.042975
Si Si2 0.858373 0.256367 0.568077
Si Si3 0.435280 0.999244 0.618945
Si Si4 0.180924 0.004553 0.707361
Si Si5 0.253389 0.344868 0.912613
Si Si6 0.487820 0.142078 0.308859
Si Si7 0.539210 0.804025 0.364186
Si Si8 0.486025 0.845145 0.954131
O O1 0.155900 0.119308 0.071457
O O2 0.361824 0.355614 0.080717
O O3 0.084608 0.466784 0.047691
O O4 0.267800 0.281273 0.978099
O O5 0.697816 0.355966 0.552768
O O6 0.931516 0.321091 0.626991
O O7 0.972957 0.252610 0.514337
O O8 0.818602 0.044991 0.579063
O O9 0.347498 0.008689 0.678967
O O10 0.592502 0.885928 0.621373
O O11 0.460547 0.201962 0.594475
O O12 0.085698 0.891539 0.660129
O O13 0.152255 0.897195 0.766075
O O14 0.102289 0.201681 0.711503
O O15 0.137878 0.213642 0.880111
O O16 0.574551 0.950514 0.315604
#
# Coordination Sequence:
#
# PCOD9314354 Si02
#       8
#     4   4   4   4   4   4   4   4
#     4  10  22  37  61  96 131 171 212 254 320 403
#     4  10  24  38  67  92 138 169 218 269 334 407
#     4  10  23  39  63  90 134 169 217 267 329 378
#     4  11  24  45  66  92 121 170 227 278 313 401
#     4  10  21  40  58  98 135 166 208 265 324 398
#     4  12  24  43  68  93 123 174 224 274 333 381
#     4  11  23  39  67  91 126 172 214 264 324 384
#     4  10  23  41  60 102 134 173 212 271 333 400
#
# _framework density 21.344973
#
# number of rings (size 3 to 8) (size 9 to 14) (size 15 to 20)
#    0.000    1.500    2.500    1.500   10.500    1.000 
#    0.000    2.500    0.000    0.000    0.000    0.000 
#    0.000    0.000    0.000    0.000    0.000    0.000 
#
# Total GULP energy -178688.107161 kJ/mol
# GULP energy per Si atom -5584.003349 kJ/mol
# Density = 2.129639 g / cm^3
# Si number density = 21.344973 Si / 1000 Ang^3
#
#
#
# Elastic Constant Matrix: (Units=GPa)
#
#
# Indices 1 2 3 4 5 6 
#
# 1 57.7960 3.8688 4.3518 0.0000 0.0000 0.0000
# 2 3.8688 87.0632 -4.4545 0.0000 0.0000 0.0000
# 3 4.3518 -4.4545 34.9615 0.0000 0.0000 0.0000
# 4 0.0000 0.0000 0.0000 26.4226 0.0000 0.0000
# 5 0.0000 0.0000 0.0000 0.0000 24.2494 0.0000
# 6 0.0000 0.0000 0.0000 0.0000 0.0000 19.8646
#
#
#
# Elastic Compliance Matrix: (Units=1/GPa)
#
#
# Indices 1 2 3 4 5 6 
#
# 1 0.017535 -0.000897 -0.002297 0.000000 0.000000 0.000000
# 2 -0.000897 0.011607 0.001590 0.000000 0.000000 0.000000
# 3 -0.002297 0.001590 0.029091 0.000000 0.000000 0.000000
# 4 0.000000 0.000000 0.000000 0.037846 0.000000 0.000000
# 5 0.000000 0.000000 0.000000 0.000000 0.041238 0.000000
# 6 0.000000 0.000000 0.000000 0.000000 0.000000 0.050341
#
#
# Mechanical properties :
#
#
# Convention : Reuss Voigt Hill
#
# Bulk Modulus (GPa) = 18.17274 20.81699 19.49487
# Shear Modulus (GPa) = 23.89966 25.84429 24.87198
#
# Velocity S-wave (km/s) = 3.34980 3.48342 3.41726
# Velocity P-wave (km/s) = 4.84705 5.09438 4.97225
#
# Compressibility (1/GPa) = 0.05502748
#
# Stress axis : x y z
#
# Youngs Moduli (GPa) = 57.02813 86.15393 34.37436
#
# Poissons Ratio (x) = 0.07726 0.07896
# Poissons Ratio (y) = 0.05114 -0.05467
# Poissons Ratio (z) = 0.13099 -0.13703
#
# Static dielectric constant tensor:
#      x y z
#    x 1.806180 0.000000 0.000000 
#    y 0.000000 1.829880 0.000000 
#    z 0.000000 0.000000 1.758330 
# 
# From -- ./inp_files/7357.got.cif
#   From: 2010.05.17/outbox.cif.g08.bks.cpg/sg19_4_cif.got.tgz:7357.got - 2010.06.03 22:46:19.
