data_PCOD9314700
_publ_section_title
;
Structure prediction by ZEFSAII (Michael W. Deem and Ramdas Pophale) SiO2 
 PCOD9314700
Probable space group: P 21 21 21
;
_chemical_formula_sum "Si O2"
_cell_formula_units_Z 28
_cell_length_a 9.474616
_cell_length_b 8.964413
_cell_length_c 15.781086
_cell_angle_alpha 90.000000
_cell_angle_beta 90.000000
_cell_angle_gamma 90.000000
_cell_volume 1340.356611
_symmetry_space_group_name_H-M "P 21 21 21"
_symmetry_group_IT_number 19
_symmetry_cell_setting 'orthorhombic'
loop_
_space_group_symop_operation_xyz
x,y,z
1/2-x,-y,1/2+z
1/2+x,1/2-y,-z
-x,1/2+y,1/2-z
loop_
_atom_site_type_symbol
_atom_site_label
_atom_site_fract_x
_atom_site_fract_y
_atom_site_fract_z
Si Si1 0.276893 0.912544 0.960545
Si Si2 0.618003 0.290480 0.365635
Si Si3 0.008208 0.361300 0.112526
Si Si4 0.258368 0.302305 0.806890
Si Si5 0.800180 0.100299 0.610793
Si Si6 0.441215 0.832533 0.450512
Si Si7 0.717766 0.980021 0.424870
O O1 0.271192 0.762332 0.904121
O O2 0.402469 0.017965 0.928372
O O3 0.300157 0.872744 0.058701
O O4 0.134455 0.007721 0.955570
O O5 0.695251 0.278208 0.275794
O O6 0.462218 0.361437 0.365486
O O7 0.625651 0.118547 0.393670
O O8 0.912759 0.266720 0.176365
O O9 0.150836 0.447314 0.136257
O O10 0.062920 0.248546 0.040374
O O11 0.259285 0.481481 0.821371
O O12 0.148916 0.253942 0.880906
O O13 0.779193 0.024671 0.517513
O O14 0.606581 0.846250 0.429831
#
# Coordination Sequence:
#
# PCOD9314700 Si02
#       7
#     4   4   4   4   4   4   4
#     4  10  22  40  68  93 129 179 226 264 324 415
#     4  11  24  40  64 101 130 170 221 284 336 383
#     4  11  21  43  66  97 129 174 225 268 326 402
#     4  11  25  40  67  97 134 166 225 285 337 389
#     4  11  21  40  66  93 128 172 226 267 328 404
#     4  11  20  41  69  96 125 180 224 269 328 405
#     4  11  21  40  66  93 127 175 223 265 323 408
#
# _framework density 20.889963000000002
#
# number of rings (size 3 to 8) (size 9 to 14) (size 15 to 20)
#    0.000    1.143    5.714    0.857    2.000    0.000 
#    2.571    0.000    3.143    0.000    0.000    0.000 
#    0.000    0.000    0.000    0.000    0.000    0.000 
#
# Total GULP energy -156176.646621 kJ/mol
# GULP energy per Si atom -5577.737379 kJ/mol
# Density = 2.084242 g / cm^3
# Si number density = 20.889963 Si / 1000 Ang^3
#
#
#
# Elastic Constant Matrix: (Units=GPa)
#
#
# Indices 1 2 3 4 5 6 
#
# 1 85.2644 39.0460 -5.4924 0.0000 0.0000 0.0000
# 2 39.0460 103.1114 16.0518 0.0000 0.0000 0.0000
# 3 -5.4924 16.0518 44.0322 0.0000 0.0000 0.0000
# 4 0.0000 0.0000 0.0000 6.6002 0.0000 0.0000
# 5 0.0000 0.0000 0.0000 0.0000 19.9799 0.0000
# 6 0.0000 0.0000 0.0000 0.0000 0.0000 19.6899
#
#
#
# Elastic Compliance Matrix: (Units=1/GPa)
#
#
# Indices 1 2 3 4 5 6 
#
# 1 0.014869 -0.006275 0.004142 0.000000 0.000000 0.000000
# 2 -0.006275 0.012930 -0.005496 0.000000 0.000000 0.000000
# 3 0.004142 -0.005496 0.025231 0.000000 0.000000 0.000000
# 4 0.000000 0.000000 0.000000 0.151511 0.000000 0.000000
# 5 0.000000 0.000000 0.000000 0.000000 0.050050 0.000000
# 6 0.000000 0.000000 0.000000 0.000000 0.000000 0.050787
#
#
# Mechanical properties :
#
#
# Convention : Reuss Voigt Hill
#
# Bulk Modulus (GPa) = 26.47519 36.84655 31.66087
# Shear Modulus (GPa) = 15.00474 21.44083 18.22279
#
# Velocity S-wave (km/s) = 2.68297 3.20718 2.95672
# Velocity P-wave (km/s) = 4.72218 5.60280 5.18123
#
# Compressibility (1/GPa) = 0.03777121
#
# Stress axis : x y z
#
# Youngs Moduli (GPa) = 67.25500 77.33811 39.63365
#
# Poissons Ratio (x) = 0.48532 -0.16418
# Poissons Ratio (y) = 0.42205 0.21784
# Poissons Ratio (z) = -0.27859 0.42509
#
# Static dielectric constant tensor:
#      x y z
#    x 1.757500 0.000000 0.000000 
#    y 0.000000 1.801960 0.000000 
#    z 0.000000 0.000000 1.762500 
# 
# From -- ./inp_files/6597.got.cif
#   From: 2010.05.17/outbox.cif.g08.bks.cpg/sg19_4_cif.got.tgz:6597.got - 2010.06.03 22:46:19.
