data_PCOD9314646
_publ_section_title
;
Structure prediction by ZEFSAII (Michael W. Deem and Ramdas Pophale) SiO2 
 PCOD9314646
Probable space group: P 21 21 21
;
_chemical_formula_sum "Si O2"
_cell_formula_units_Z 28
_cell_length_a 9.687611
_cell_length_b 9.417123
_cell_length_c 12.292603
_cell_angle_alpha 90.000000
_cell_angle_beta 90.000000
_cell_angle_gamma 90.000000
_cell_volume 1121.447096
_symmetry_space_group_name_H-M "P 21 21 21"
_symmetry_group_IT_number 19
_symmetry_cell_setting 'orthorhombic'
loop_
_space_group_symop_operation_xyz
x,y,z
1/2-x,-y,1/2+z
1/2+x,1/2-y,-z
-x,1/2+y,1/2-z
loop_
_atom_site_type_symbol
_atom_site_label
_atom_site_fract_x
_atom_site_fract_y
_atom_site_fract_z
Si Si1 0.944725 0.448473 0.272486
Si Si2 0.338203 0.304854 0.834625
Si Si3 0.242438 0.503253 0.010243
Si Si4 0.319324 0.126065 0.181822
Si Si5 0.434870 0.949822 0.001535
Si Si6 0.332329 0.730060 0.846596
Si Si7 0.583136 0.182077 0.329998
O O1 0.912998 0.346338 0.170501
O O2 0.798383 0.506089 0.310086
O O3 0.055069 0.576728 0.285535
O O4 0.013251 0.331421 0.351810
O O5 0.202158 0.293380 0.759734
O O6 0.288471 0.359463 0.951811
O O7 0.354654 0.557108 0.095450
O O8 0.244891 0.618514 0.912547
O O9 0.085734 0.517733 0.046244
O O10 0.227046 0.259229 0.224376
O O11 0.444252 0.133143 0.268819
O O12 0.385819 0.088111 0.067294
O O13 0.437828 0.820954 0.093179
O O14 0.338453 0.880433 0.907943
#
# Coordination Sequence:
#
# PCOD9314646 Si02
#       7
#     4   4   4   4   4   4   4
#     4  11  23  41  67  94 142 181 224 289 350 416
#     4  11  22  42  66  96 134 180 232 285 354 415
#     4  10  22  39  67  93 134 181 227 285 343 419
#     4  12  23  40  71 106 137 174 238 302 350 403
#     4  11  22  39  72  99 137 185 230 293 348 420
#     4  10  23  40  65 103 133 178 242 278 338 427
#     4  11  23  41  66 103 137 175 243 290 341 432
#
# _framework density 24.967741
#
# number of rings (size 3 to 8) (size 9 to 14) (size 15 to 20)
#    0.000    1.143    5.714    0.857    2.000    1.143 
#    0.000    1.429    6.286    0.000    0.000    0.000 
#    0.000    0.000    0.000    0.000    0.000    0.000 
#
# Total GULP energy -156358.636563 kJ/mol
# GULP energy per Si atom -5584.237020 kJ/mol
# Density = 2.491091 g / cm^3
# Si number density = 24.967741 Si / 1000 Ang^3
#
#
#
# Elastic Constant Matrix: (Units=GPa)
#
#
# Indices 1 2 3 4 5 6 
#
# 1 154.1146 20.5209 20.5005 0.0000 0.0000 0.0000
# 2 20.5209 81.7028 -2.7296 0.0000 0.0000 0.0000
# 3 20.5005 -2.7296 45.7119 0.0000 0.0000 0.0000
# 4 0.0000 0.0000 0.0000 35.7663 0.0000 0.0000
# 5 0.0000 0.0000 0.0000 0.0000 39.7761 0.0000
# 6 0.0000 0.0000 0.0000 0.0000 0.0000 35.9007
#
#
#
# Elastic Compliance Matrix: (Units=1/GPa)
#
#
# Indices 1 2 3 4 5 6 
#
# 1 0.007188 -0.001917 -0.003338 0.000000 0.000000 0.000000
# 2 -0.001917 0.012775 0.001623 0.000000 0.000000 0.000000
# 3 -0.003338 0.001623 0.023470 0.000000 0.000000 0.000000
# 4 0.000000 0.000000 0.000000 0.027959 0.000000 0.000000
# 5 0.000000 0.000000 0.000000 0.000000 0.025141 0.000000
# 6 0.000000 0.000000 0.000000 0.000000 0.000000 0.027855
#
#
# Mechanical properties :
#
#
# Convention : Reuss Voigt Hill
#
# Bulk Modulus (GPa) = 27.64854 39.79033 33.71944
# Shear Modulus (GPa) = 34.79259 38.50444 36.64852
#
# Velocity S-wave (km/s) = 3.73701 3.93130 3.83539
# Velocity P-wave (km/s) = 5.45143 6.04799 5.75744
#
# Compressibility (1/GPa) = 0.03616827
#
# Stress axis : x y z
#
# Youngs Moduli (GPa) = 139.12170 78.27701 42.60748
#
# Poissons Ratio (x) = 0.15005 0.14223
# Poissons Ratio (y) = 0.26668 -0.06913
# Poissons Ratio (z) = 0.46440 -0.12700
#
# Static dielectric constant tensor:
#      x y z
#    x 1.933720 0.000000 0.000000 
#    y 0.000000 2.046400 0.000000 
#    z 0.000000 0.000000 2.051830 
# 
# From -- ./inp_files/4600.got.cif
#   From: 2010.05.17/outbox.cif.g08.bks.cpg/sg19_3_cif.got.tgz:4600.got - 2010.06.03 22:46:19.
