data_PCOD9314824
_publ_section_title
;
Structure prediction by ZEFSAII (Michael W. Deem and Ramdas Pophale) SiO2 
 PCOD9314824
Probable space group: P 21 21 21
;
_chemical_formula_sum "Si O2"
_cell_formula_units_Z 28
_cell_length_a 5.154665
_cell_length_b 27.426836
_cell_length_c 8.218973
_cell_angle_alpha 90.000000
_cell_angle_beta 90.000000
_cell_angle_gamma 90.000000
_cell_volume 1161.966773
_symmetry_space_group_name_H-M "P 21 21 21"
_symmetry_group_IT_number 19
_symmetry_cell_setting 'orthorhombic'
loop_
_space_group_symop_operation_xyz
x,y,z
1/2-x,-y,1/2+z
1/2+x,1/2-y,-z
-x,1/2+y,1/2-z
loop_
_atom_site_type_symbol
_atom_site_label
_atom_site_fract_x
_atom_site_fract_y
_atom_site_fract_z
Si Si1 0.236151 0.569911 0.255248
Si Si2 0.282332 0.914143 0.304129
Si Si3 0.793676 0.684493 0.836762
Si Si4 0.223791 0.467645 0.128146
Si Si5 0.510068 0.738105 0.600138
Si Si6 0.733540 0.621535 0.322078
Si Si7 0.844656 0.280883 0.680151
O O1 0.161840 0.524440 0.144209
O O2 0.254790 0.549702 0.441186
O O3 0.524808 0.589217 0.226549
O O4 0.018759 0.612260 0.247954
O O5 0.381531 0.870769 0.186485
O O6 0.495265 0.956533 0.297106
O O7 0.270711 0.894784 0.491500
O O8 0.997080 0.936366 0.279604
O O9 0.601527 0.688932 0.682302
O O10 0.997184 0.729927 0.819620
O O11 0.652031 0.694256 0.005833
O O12 0.742435 0.761086 0.497486
O O13 0.448499 0.768510 0.764241
O O14 0.608213 0.675632 0.308823
#
# Coordination Sequence:
#
# PCOD9314824 Si02
#       7
#     4   4   4   4   4   4   4
#     4  10  22  42  67  97 130 167 220 281 342 411
#     4  10  24  42  66  97 132 176 229 274 336 422
#     4  12  27  45  69 102 146 184 236 296 351 402
#     4  10  22  42  67  97 130 167 220 281 342 411
#     4  12  26  44  70  96 130 188 236 278 342 412
#     4  10  24  42  66  97 132 176 229 274 336 422
#     4  12  27  45  69 102 146 184 236 296 351 402
#
# _framework density 24.097075
#
# number of rings (size 3 to 8) (size 9 to 14) (size 15 to 20)
#    0.000    1.143    2.857    1.714    4.000    3.429 
#    0.000    0.000    0.000    0.000    0.000    0.000 
#    0.000    0.000    0.000    0.000    0.000    0.000 
#
# Total GULP energy -156262.174914 kJ/mol
# GULP energy per Si atom -5580.791961 kJ/mol
# Density = 2.404223 g / cm^3
# Si number density = 24.097075 Si / 1000 Ang^3
#
#
#
# Elastic Constant Matrix: (Units=GPa)
#
#
# Indices 1 2 3 4 5 6 
#
# 1 116.1320 13.9780 20.0891 0.0000 0.0000 0.0000
# 2 13.9780 83.6764 -12.4493 0.0000 0.0000 0.0000
# 3 20.0891 -12.4493 54.6948 0.0000 0.0000 0.0000
# 4 0.0000 0.0000 0.0000 35.4975 0.0000 0.0000
# 5 0.0000 0.0000 0.0000 0.0000 21.7666 0.0000
# 6 0.0000 0.0000 0.0000 0.0000 0.0000 33.8381
#
#
#
# Elastic Compliance Matrix: (Units=1/GPa)
#
#
# Indices 1 2 3 4 5 6 
#
# 1 0.009570 -0.002196 -0.004015 0.000000 0.000000 0.000000
# 2 -0.002196 0.012874 0.003737 0.000000 0.000000 0.000000
# 3 -0.004015 0.003737 0.020608 0.000000 0.000000 0.000000
# 4 0.000000 0.000000 0.000000 0.028171 0.000000 0.000000
# 5 0.000000 0.000000 0.000000 0.000000 0.045942 0.000000
# 6 0.000000 0.000000 0.000000 0.000000 0.000000 0.029552
#
#
# Mechanical properties :
#
#
# Convention : Reuss Voigt Hill
#
# Bulk Modulus (GPa) = 26.24403 33.08209 29.66306
# Shear Modulus (GPa) = 30.41989 33.74613 32.08301
#
# Velocity S-wave (km/s) = 3.55687 3.74628 3.65280
# Velocity P-wave (km/s) = 5.27096 5.69836 5.48882
#
# Compressibility (1/GPa) = 0.03810391
#
# Stress axis : x y z
#
# Youngs Moduli (GPa) = 104.49674 77.67854 48.52392
#
# Poissons Ratio (x) = 0.17057 0.19481
# Poissons Ratio (y) = 0.22946 -0.18132
# Poissons Ratio (z) = 0.41952 -0.29026
#
# Static dielectric constant tensor:
#      x y z
#    x 1.930070 0.000000 0.000000 
#    y 0.000000 1.961610 0.000000 
#    z 0.000000 0.000000 1.983550 
# 
# From -- ./inp_files/2419.got.cif
#   From: 2010.05.17/outbox.cif.g08.bks.cpg/sg19_2_cif.got.tgz:2419.got - 2010.06.03 22:46:19.
