data_PCOD9314692
_publ_section_title
;
Structure prediction by ZEFSAII (Michael W. Deem and Ramdas Pophale) SiO2 
 PCOD9314692
Probable space group: P 21 21 21
;
_chemical_formula_sum "Si O2"
_cell_formula_units_Z 32
_cell_length_a 13.833700
_cell_length_b 20.019191
_cell_length_c 5.383035
_cell_angle_alpha 90.000000
_cell_angle_beta 90.000000
_cell_angle_gamma 90.000000
_cell_volume 1490.774927
_symmetry_space_group_name_H-M "P 21 21 21"
_symmetry_group_IT_number 19
_symmetry_cell_setting 'orthorhombic'
loop_
_space_group_symop_operation_xyz
x,y,z
1/2-x,-y,1/2+z
1/2+x,1/2-y,-z
-x,1/2+y,1/2-z
loop_
_atom_site_type_symbol
_atom_site_label
_atom_site_fract_x
_atom_site_fract_y
_atom_site_fract_z
Si Si1 0.899912 0.751430 0.192893
Si Si2 0.877329 0.871958 0.858690
Si Si3 0.735905 0.040805 0.688622
Si Si4 0.261142 0.333374 0.040623
Si Si5 0.422528 0.095384 0.114632
Si Si6 0.298568 0.978095 0.188396
Si Si7 0.887493 0.274348 0.179181
Si Si8 0.744421 0.656371 0.032268
O O1 0.838777 0.799113 0.373494
O O2 0.010444 0.741850 0.259952
O O3 0.900848 0.796969 0.946087
O O4 0.835851 0.685578 0.176163
O O5 0.775176 0.867100 0.714910
O O6 0.968963 0.896957 0.706824
O O7 0.861781 0.924575 0.083260
O O8 0.793735 0.107151 0.777943
O O9 0.774852 0.000797 0.446552
O O10 0.337175 0.273884 0.018885
O O11 0.339740 0.123436 0.302591
O O12 0.394005 0.017635 0.097806
O O13 0.409569 0.148265 0.891265
O O14 0.288291 0.899262 0.150737
O O15 0.276207 0.993360 0.477450
O O16 0.807893 0.282457 0.393530
#
# Coordination Sequence:
#
# PCOD9314692 Si02
#       8
#     4   4   4   4   4   4   4   4
#     4  11  23  38  66 106 138 181 238 292 357 430
#     4  11  22  40  70 104 137 182 245 283 348 447
#     4  11  24  47  72  97 138 192 234 295 361 421
#     4  11  23  40  70 101 141 183 236 295 358 426
#     4  11  22  40  68 102 137 186 237 289 353 434
#     4  10  22  40  66  98 133 180 230 280 355 420
#     4  12  22  39  69 104 142 188 237 298 367 425
#     4  11  22  40  65 100 148 180 227 304 359 419
#
# _framework density 21.465347000000001
#
# number of rings (size 3 to 8) (size 9 to 14) (size 15 to 20)
#    0.000    1.000    7.500    0.000    0.000    0.000 
#    0.000    2.500    8.250    0.000    0.000    0.000 
#    0.000    0.000    0.000    0.000    0.000    0.000 
#
# Total GULP energy -178266.218839 kJ/mol
# GULP energy per Si atom -5570.819339 kJ/mol
# Density = 2.141649 g / cm^3
# Si number density = 21.465347 Si / 1000 Ang^3
#
#
#
# Elastic Constant Matrix: (Units=GPa)
#
#
# Indices 1 2 3 4 5 6 
#
# 1 80.9110 33.3994 16.1782 0.0000 0.0000 0.0000
# 2 33.3994 72.1657 17.4584 0.0000 0.0000 0.0000
# 3 16.1782 17.4584 63.3464 0.0000 0.0000 0.0000
# 4 0.0000 0.0000 0.0000 29.9408 0.0000 0.0000
# 5 0.0000 0.0000 0.0000 0.0000 11.6737 0.0000
# 6 0.0000 0.0000 0.0000 0.0000 0.0000 25.4801
#
#
#
# Elastic Compliance Matrix: (Units=1/GPa)
#
#
# Indices 1 2 3 4 5 6 
#
# 1 0.015541 -0.006678 -0.002129 0.000000 0.000000 0.000000
# 2 -0.006678 0.017716 -0.003177 0.000000 0.000000 0.000000
# 3 -0.002129 -0.003177 0.017206 0.000000 0.000000 0.000000
# 4 0.000000 0.000000 0.000000 0.033399 0.000000 0.000000
# 5 0.000000 0.000000 0.000000 0.000000 0.085663 0.000000
# 6 0.000000 0.000000 0.000000 0.000000 0.000000 0.039246
#
#
# Mechanical properties :
#
#
# Convention : Reuss Voigt Hill
#
# Bulk Modulus (GPa) = 37.74196 38.94390 38.34293
# Shear Modulus (GPa) = 20.69787 23.37807 22.03797
#
# Velocity S-wave (km/s) = 3.10860 3.30374 3.20766
# Velocity P-wave (km/s) = 5.52317 5.72145 5.62319
#
# Compressibility (1/GPa) = 0.02649571
#
# Stress axis : x y z
#
# Youngs Moduli (GPa) = 64.34400 56.44541 58.12088
#
# Poissons Ratio (x) = 0.37693 0.12372
# Poissons Ratio (y) = 0.42968 0.18466
# Poissons Ratio (z) = 0.13697 0.17934
#
# Static dielectric constant tensor:
#      x y z
#    x 1.730260 0.000000 0.000000 
#    y 0.000000 1.845890 0.000000 
#    z 0.000000 0.000000 1.913080 
# 
# From -- ./inp_files/1201.got.cif
#   From: 2010.05.17/outbox.cif.g08.bks.cpg/sg19_1_cif.got.tgz:1201.got - 2010.06.03 22:46:19.
