data_PCOD9314585
_publ_section_title
;
Structure prediction by ZEFSAII (Michael W. Deem and Ramdas Pophale) SiO2 
 PCOD9314585
Probable space group: P 21 21 21
;
_chemical_formula_sum "Si O2"
_cell_formula_units_Z 16
_cell_length_a 5.258313
_cell_length_b 11.358885
_cell_length_c 9.139662
_cell_angle_alpha 90.000000
_cell_angle_beta 90.000000
_cell_angle_gamma 90.000000
_cell_volume 545.898966
_symmetry_space_group_name_H-M "P 21 21 21"
_symmetry_group_IT_number 19
_symmetry_cell_setting 'orthorhombic'
loop_
_space_group_symop_operation_xyz
x,y,z
1/2-x,-y,1/2+z
1/2+x,1/2-y,-z
-x,1/2+y,1/2-z
loop_
_atom_site_type_symbol
_atom_site_label
_atom_site_fract_x
_atom_site_fract_y
_atom_site_fract_z
Si Si1 0.963024 0.681501 0.445865
Si Si2 0.122164 0.437158 0.585221
Si Si3 0.496715 0.196552 0.667068
Si Si4 0.511933 0.944721 0.151571
O O1 0.699779 0.741447 0.494354
O O2 0.035782 0.314487 0.508578
O O3 0.760386 0.624417 0.810012
O O4 0.982116 0.548040 0.504845
O O5 0.996883 0.690837 0.269660
O O6 0.032010 0.438417 0.751304
O O7 0.406703 0.455020 0.517692
O O8 0.741506 0.122232 0.717806
#
# Coordination Sequence:
#
# PCOD9314585 Si02
#       4
#     4   4   4   4
#     4  12  21  37  64  93 117 160 217 250 288 364
#     4  10  23  38  66  87 127 155 210 247 309 358
#     4  10  22  36  59  90 120 156 200 257 298 348
#     4  10  22  37  61  86 124 157 201 246 311 350
#
# _framework density 29.309449999999998
#
# number of rings (size 3 to 8) (size 9 to 14) (size 15 to 20)
#    1.500    0.000    5.000    0.000    7.000    0.000 
#    0.000    0.000   11.000    0.000    0.000    0.000 
#    0.000    0.000    0.000    0.000    0.000    0.000 
#
# Total GULP energy -89508.450290 kJ/mol
# GULP energy per Si atom -5594.278143 kJ/mol
# Density = 2.924274 g / cm^3
# Si number density = 29.309450 Si / 1000 Ang^3
#
#
#
# Elastic Constant Matrix: (Units=GPa)
#
#
# Indices 1 2 3 4 5 6 
#
# 1 215.1364 56.1039 22.6681 0.0000 0.0000 0.0000
# 2 56.1039 108.2679 18.5309 0.0000 0.0000 0.0000
# 3 22.6681 18.5309 149.7915 0.0000 0.0000 0.0000
# 4 0.0000 0.0000 0.0000 59.4889 0.0000 0.0000
# 5 0.0000 0.0000 0.0000 0.0000 8.7832 0.0000
# 6 0.0000 0.0000 0.0000 0.0000 0.0000 63.5866
#
#
#
# Elastic Compliance Matrix: (Units=1/GPa)
#
#
# Indices 1 2 3 4 5 6 
#
# 1 0.005408 -0.002720 -0.000482 0.000000 0.000000 0.000000
# 2 -0.002720 0.010804 -0.000925 0.000000 0.000000 0.000000
# 3 -0.000482 -0.000925 0.006863 0.000000 0.000000 0.000000
# 4 0.000000 0.000000 0.000000 0.016810 0.000000 0.000000
# 5 0.000000 0.000000 0.000000 0.000000 0.113854 0.000000
# 6 0.000000 0.000000 0.000000 0.000000 0.000000 0.015727
#
#
# Mechanical properties :
#
#
# Convention : Reuss Voigt Hill
#
# Bulk Modulus (GPa) = 67.46796 74.20018 70.83407
# Shear Modulus (GPa) = 27.37312 51.43125 39.40218
#
# Velocity S-wave (km/s) = 3.05935 4.19354 3.67052
# Velocity P-wave (km/s) = 5.96227 6.98704 6.49490
#
# Compressibility (1/GPa) = 0.01482185
#
# Stress axis : x y z
#
# Youngs Moduli (GPa) = 184.89934 92.55654 145.70233
#
# Poissons Ratio (x) = 0.25176 0.07022
# Poissons Ratio (y) = 0.50294 0.13477
# Poissons Ratio (z) = 0.08911 0.08561
#
# Static dielectric constant tensor:
#      x y z
#    x 2.301940 0.000000 0.000000 
#    y 0.000000 2.277140 0.000000 
#    z 0.000000 0.000000 2.422040 
# 
# From -- ./inp_files/764.got.cif
#   From: 2010.05.17/outbox.cif.g08.bks.cpg/sg19_1_cif.got.tgz:764.got - 2010.06.03 22:46:19.
