data_PCOD9314684
_publ_section_title
;
Structure prediction by ZEFSAII (Michael W. Deem and Ramdas Pophale) SiO2 
 PCOD9314684
Probable space group: P 21 21 21
;
_chemical_formula_sum "Si O2"
_cell_formula_units_Z 32
_cell_length_a 15.988954
_cell_length_b 14.096745
_cell_length_c 6.003752
_cell_angle_alpha 90.000000
_cell_angle_beta 90.000000
_cell_angle_gamma 90.000000
_cell_volume 1353.198916
_symmetry_space_group_name_H-M "P 21 21 21"
_symmetry_group_IT_number 19
_symmetry_cell_setting 'orthorhombic'
loop_
_space_group_symop_operation_xyz
x,y,z
1/2-x,-y,1/2+z
1/2+x,1/2-y,-z
-x,1/2+y,1/2-z
loop_
_atom_site_type_symbol
_atom_site_label
_atom_site_fract_x
_atom_site_fract_y
_atom_site_fract_z
Si Si1 0.377208 0.403109 0.047923
Si Si2 0.299271 0.650601 0.562195
Si Si3 0.715335 0.502563 0.055657
Si Si4 0.981900 0.109174 0.567320
Si Si5 0.269533 0.202705 0.426088
Si Si6 0.862213 0.679560 0.718682
Si Si7 0.918059 0.261402 0.250521
Si Si8 0.968171 0.946232 0.265379
O O1 0.398634 0.294095 0.977226
O O2 0.437911 0.480461 0.928741
O O3 0.279106 0.414845 0.990600
O O4 0.394903 0.411347 0.309372
O O5 0.257387 0.722052 0.743016
O O6 0.336878 0.718421 0.371395
O O7 0.379452 0.597686 0.659693
O O8 0.770795 0.482435 0.285847
O O9 0.683238 0.605300 0.142138
O O10 0.666812 0.403775 0.055848
O O11 0.975252 0.186489 0.377918
O O12 0.042191 0.156067 0.745178
O O13 0.008884 0.011414 0.457532
O O14 0.183385 0.168870 0.542636
O O15 0.330359 0.239938 0.618302
O O16 0.966087 0.360896 0.266153
#
# Coordination Sequence:
#
# PCOD9314684 Si02
#       8
#     4   4   4   4   4   4   4   4
#     4  11  26  46  73 105 144 192 254 308 375 473
#     4  12  24  47  73 106 145 196 255 311 390 465
#     4  10  22  40  65 105 145 187 253 315 385 458
#     4  11  26  47  70 106 149 193 245 313 384 466
#     4  11  23  41  73 103 141 196 247 313 378 460
#     4  11  24  43  71 103 143 193 249 308 386 463
#     4  11  24  49  69 106 149 192 248 313 388 453
#     4  11  29  45  74 108 150 195 247 323 386 470
#
# _framework density 23.647667999999999
#
# number of rings (size 3 to 8) (size 9 to 14) (size 15 to 20)
#    0.000    1.000    3.750    1.500    3.500    9.000 
#    0.000    0.000    0.000    0.000    0.000    0.000 
#    0.000    0.000    0.000    0.000    0.000    0.000 
#
# Total GULP energy -178244.262866 kJ/mol
# GULP energy per Si atom -5570.133215 kJ/mol
# Density = 2.359384 g / cm^3
# Si number density = 23.647668 Si / 1000 Ang^3
#
#
#
# Elastic Constant Matrix: (Units=GPa)
#
#
# Indices 1 2 3 4 5 6 
#
# 1 89.7955 9.7123 20.4911 0.0000 0.0000 0.0000
# 2 9.7123 65.1397 26.9555 0.0000 0.0000 0.0000
# 3 20.4911 26.9555 50.2496 0.0000 0.0000 0.0000
# 4 0.0000 0.0000 0.0000 29.9813 0.0000 0.0000
# 5 0.0000 0.0000 0.0000 0.0000 23.3886 0.0000
# 6 0.0000 0.0000 0.0000 0.0000 0.0000 23.7556
#
#
#
# Elastic Compliance Matrix: (Units=1/GPa)
#
#
# Indices 1 2 3 4 5 6 
#
# 1 0.012284 0.000310 -0.005176 0.000000 0.000000 0.000000
# 2 0.000310 0.019740 -0.010715 0.000000 0.000000 0.000000
# 3 -0.005176 -0.010715 0.027759 0.000000 0.000000 0.000000
# 4 0.000000 0.000000 0.000000 0.033354 0.000000 0.000000
# 5 0.000000 0.000000 0.000000 0.000000 0.042756 0.000000
# 6 0.000000 0.000000 0.000000 0.000000 0.000000 0.042095
#
#
# Mechanical properties :
#
#
# Convention : Reuss Voigt Hill
#
# Bulk Modulus (GPa) = 34.93927 35.50029 35.21978
# Shear Modulus (GPa) = 22.86339 25.29348 24.07843
#
# Velocity S-wave (km/s) = 3.11277 3.27402 3.19441
# Velocity P-wave (km/s) = 5.26556 5.41637 5.34150
#
# Compressibility (1/GPa) = 0.02862109
#
# Stress axis : x y z
#
# Youngs Moduli (GPa) = 81.40721 50.65974 36.02393
#
# Poissons Ratio (x) = -0.01571 0.18645
# Poissons Ratio (y) = -0.02525 0.38601
# Poissons Ratio (z) = 0.42133 0.54284
#
# Static dielectric constant tensor:
#      x y z
#    x 2.008720 0.000000 0.000000 
#    y 0.000000 1.905540 0.000000 
#    z 0.000000 0.000000 2.021670 
# 
# From -- ./inp_files/1838.got.cif
#   From: 2010.05.17/outbox.cif.g08.bks.cpg/sg19_1_cif.got.tgz:1838.got - 2010.06.03 22:46:19.
