data_PCOD9314812
_publ_section_title
;
Structure prediction by ZEFSAII (Michael W. Deem and Ramdas Pophale) SiO2 
 PCOD9314812
Probable space group: P 21 21 21
;
_chemical_formula_sum "Si O2"
_cell_formula_units_Z 28
_cell_length_a 12.002889
_cell_length_b 9.160193
_cell_length_c 13.180357
_cell_angle_alpha 90.000000
_cell_angle_beta 90.000000
_cell_angle_gamma 90.000000
_cell_volume 1449.164169
_symmetry_space_group_name_H-M "P 21 21 21"
_symmetry_group_IT_number 19
_symmetry_cell_setting 'orthorhombic'
loop_
_space_group_symop_operation_xyz
x,y,z
1/2-x,-y,1/2+z
1/2+x,1/2-y,-z
-x,1/2+y,1/2-z
loop_
_atom_site_type_symbol
_atom_site_label
_atom_site_fract_x
_atom_site_fract_y
_atom_site_fract_z
Si Si1 0.514994 0.444787 0.358070
Si Si2 0.411605 0.400121 0.574711
Si Si3 0.949546 0.211088 0.851649
Si Si4 0.239691 0.172945 0.550189
Si Si5 0.097765 0.300839 0.373228
Si Si6 0.184539 0.302132 0.151290
Si Si7 0.932124 0.542393 0.463542
O O1 0.443675 0.389842 0.455342
O O2 0.510331 0.620382 0.350081
O O3 0.476776 0.367080 0.255107
O O4 0.642634 0.400622 0.384322
O O5 0.315809 0.288423 0.608891
O O6 0.520960 0.344609 0.633188
O O7 0.370347 0.561142 0.594966
O O8 0.816202 0.209442 0.868415
O O9 0.009870 0.122838 0.942126
O O10 0.182566 0.266193 0.462585
O O11 0.325748 0.055550 0.504724
O O12 0.161169 0.326649 0.269632
O O13 0.019049 0.434159 0.408198
O O14 0.119110 0.160243 0.112941
#
# Coordination Sequence:
#
# PCOD9314812 Si02
#       7
#     4   4   4   4   4   4   4
#     4  11  25  44  64 100 129 176 221 271 328 393
#     4  10  22  42  66  92 132 169 219 269 323 400
#     4  12  27  41  68  97 134 169 223 275 328 398
#     4  10  22  44  66  94 131 176 213 265 337 387
#     4  10  23  40  69  92 129 176 216 268 330 402
#     4  12  23  43  64  98 132 170 220 274 336 386
#     4  11  24  44  67  97 135 172 220 280 330 394
#
# _framework density 19.321483000000001
#
# number of rings (size 3 to 8) (size 9 to 14) (size 15 to 20)
#    0.000    1.143    2.857    2.571   10.000    0.000 
#    0.000    2.857    0.000    0.000    0.000    0.000 
#    0.000    0.000    0.000    0.000    0.000    0.000 
#
# Total GULP energy -156399.804924 kJ/mol
# GULP energy per Si atom -5585.707319 kJ/mol
# Density = 1.927751 g / cm^3
# Si number density = 19.321483 Si / 1000 Ang^3
#
#
#
# Elastic Constant Matrix: (Units=GPa)
#
#
# Indices 1 2 3 4 5 6 
#
# 1 76.6535 17.3709 1.9858 0.0000 0.0000 0.0000
# 2 17.3709 86.6851 -10.5157 0.0000 0.0000 0.0000
# 3 1.9858 -10.5157 36.1353 0.0000 0.0000 0.0000
# 4 0.0000 0.0000 0.0000 30.4930 0.0000 0.0000
# 5 0.0000 0.0000 0.0000 0.0000 16.3833 0.0000
# 6 0.0000 0.0000 0.0000 0.0000 0.0000 36.4601
#
#
#
# Elastic Compliance Matrix: (Units=1/GPa)
#
#
# Indices 1 2 3 4 5 6 
#
# 1 0.013757 -0.002953 -0.001615 0.000000 0.000000 0.000000
# 2 -0.002953 0.012592 0.003827 0.000000 0.000000 0.000000
# 3 -0.001615 0.003827 0.028876 0.000000 0.000000 0.000000
# 4 0.000000 0.000000 0.000000 0.032794 0.000000 0.000000
# 5 0.000000 0.000000 0.000000 0.000000 0.061038 0.000000
# 6 0.000000 0.000000 0.000000 0.000000 0.000000 0.027427
#
#
# Mechanical properties :
#
#
# Convention : Reuss Voigt Hill
#
# Bulk Modulus (GPa) = 18.60738 24.12844 21.36791
# Shear Modulus (GPa) = 25.52571 29.37612 27.45092
#
# Velocity S-wave (km/s) = 3.63864 3.90344 3.77337
# Velocity P-wave (km/s) = 5.22535 5.72982 5.48339
#
# Compressibility (1/GPa) = 0.05374211
#
# Stress axis : x y z
#
# Youngs Moduli (GPa) = 72.69188 79.41610 34.63069
#
# Poissons Ratio (x) = 0.23449 0.05594
# Poissons Ratio (y) = 0.21463 -0.13252
# Poissons Ratio (z) = 0.11742 -0.30390
#
# Static dielectric constant tensor:
#      x y z
#    x 1.703480 0.000000 0.000000 
#    y 0.000000 1.676230 0.000000 
#    z 0.000000 0.000000 1.637400 
# 
# From -- ./inp_files/3417.got.cif
#   From: 2010.05.17/outbox.cif.g08.bks.cpg/sg19_2_cif.got.tgz:3417.got - 2010.06.03 22:46:19.
