data_PCOD9314880
_publ_section_title
;
Structure prediction by ZEFSAII (Michael W. Deem and Ramdas Pophale) SiO2 
 PCOD9314880
Probable space group: P 21 21 21
;
_chemical_formula_sum "Si O2"
_cell_formula_units_Z 28
_cell_length_a 12.153734
_cell_length_b 9.723995
_cell_length_c 10.899488
_cell_angle_alpha 90.000000
_cell_angle_beta 90.000000
_cell_angle_gamma 90.000000
_cell_volume 1288.132541
_symmetry_space_group_name_H-M "P 21 21 21"
_symmetry_group_IT_number 19
_symmetry_cell_setting 'orthorhombic'
loop_
_space_group_symop_operation_xyz
x,y,z
1/2-x,-y,1/2+z
1/2+x,1/2-y,-z
-x,1/2+y,1/2-z
loop_
_atom_site_type_symbol
_atom_site_label
_atom_site_fract_x
_atom_site_fract_y
_atom_site_fract_z
Si Si1 0.021703 0.754098 0.531959
Si Si2 0.371523 0.836648 0.238774
Si Si3 0.434896 0.541039 0.938103
Si Si4 0.233703 0.608553 0.104558
Si Si5 0.293269 0.142433 0.212719
Si Si6 0.068353 0.739018 0.929554
Si Si7 0.385586 0.649547 0.681477
O O1 0.056542 0.621370 0.452964
O O2 0.126627 0.819647 0.599269
O O3 0.935328 0.705101 0.636955
O O4 0.961130 0.854067 0.438010
O O5 0.288981 0.716009 0.197368
O O6 0.468323 0.841380 0.135508
O O7 0.308477 0.981452 0.240979
O O8 0.447641 0.603213 0.803547
O O9 0.317714 0.586035 0.992913
O O10 0.521657 0.614565 0.026922
O O11 0.211068 0.462552 0.166166
O O12 0.122394 0.665685 0.045267
O O13 0.341224 0.227739 0.327332
O O14 0.171658 0.200908 0.189840
#
# Coordination Sequence:
#
# PCOD9314880 Si02
#       7
#     4   4   4   4   4   4   4
#     4  11  25  45  67 101 143 179 234 287 346 416
#     4  10  24  41  73 100 134 183 229 285 351 416
#     4  11  24  45  65 101 136 178 227 291 340 410
#     4  11  24  44  71  99 133 182 227 282 350 417
#     4  11  22  44  71 101 132 182 228 282 349 413
#     4  10  22  43  68  95 139 174 226 281 350 411
#     4  12  27  42  71  99 139 184 235 282 342 415
#
# _framework density 21.736892999999998
#
# number of rings (size 3 to 8) (size 9 to 14) (size 15 to 20)
#    0.000    1.143    4.286    0.857    6.000    0.000 
#    0.000    0.000    0.000    0.000    0.000    0.000 
#    0.000    0.000    0.000    0.000    0.000    0.000 
#
# Total GULP energy -156596.047892 kJ/mol
# GULP energy per Si atom -5592.715996 kJ/mol
# Density = 2.168742 g / cm^3
# Si number density = 21.736893 Si / 1000 Ang^3
#
#
#
# Elastic Constant Matrix: (Units=GPa)
#
#
# Indices 1 2 3 4 5 6 
#
# 1 20.3397 0.2013 18.4188 0.0000 0.0000 0.0000
# 2 0.2013 83.2584 13.0952 0.0000 0.0000 0.0000
# 3 18.4188 13.0952 94.1763 0.0000 0.0000 0.0000
# 4 0.0000 0.0000 0.0000 23.7407 0.0000 0.0000
# 5 0.0000 0.0000 0.0000 0.0000 30.1118 0.0000
# 6 0.0000 0.0000 0.0000 0.0000 0.0000 19.8330
#
#
#
# Elastic Compliance Matrix: (Units=1/GPa)
#
#
# Indices 1 2 3 4 5 6 
#
# 1 0.059992 0.001738 -0.011975 0.000000 0.000000 0.000000
# 2 0.001738 0.012330 -0.002054 0.000000 0.000000 0.000000
# 3 -0.011975 -0.002054 0.013246 0.000000 0.000000 0.000000
# 4 0.000000 0.000000 0.000000 0.042122 0.000000 0.000000
# 5 0.000000 0.000000 0.000000 0.000000 0.033210 0.000000
# 6 0.000000 0.000000 0.000000 0.000000 0.000000 0.050421
#
#
# Mechanical properties :
#
#
# Convention : Reuss Voigt Hill
#
# Bulk Modulus (GPa) = 16.39725 29.02277 22.71001
# Shear Modulus (GPa) = 19.51374 25.80772 22.66073
#
# Velocity S-wave (km/s) = 2.99946 3.44943 3.23228
# Velocity P-wave (km/s) = 4.42216 5.40792 4.93969
#
# Compressibility (1/GPa) = 0.06098582
#
# Stress axis : x y z
#
# Youngs Moduli (GPa) = 16.66900 81.10479 75.49427
#
# Poissons Ratio (x) = -0.14099 0.90402
# Poissons Ratio (y) = -0.02898 0.15510
# Poissons Ratio (z) = 0.19961 0.16662
#
# Static dielectric constant tensor:
#      x y z
#    x 1.796350 0.000000 0.000000 
#    y 0.000000 1.790290 0.000000 
#    z 0.000000 0.000000 1.769330 
# 
# From -- ./inp_files/3427.got.cif
#   From: 2010.05.17/outbox.cif.g08.bks.cpg/sg19_2_cif.got.tgz:3427.got - 2010.06.03 22:46:19.
