data_PCOD9314310
_publ_section_title
;
Structure prediction by ZEFSAII (Michael W. Deem and Ramdas Pophale) SiO2 
 PCOD9314310
Probable space group: P 21 21 21
;
_chemical_formula_sum "Si O2"
_cell_formula_units_Z 20
_cell_length_a 7.211453
_cell_length_b 8.017953
_cell_length_c 13.511314
_cell_angle_alpha 90.000000
_cell_angle_beta 90.000000
_cell_angle_gamma 90.000000
_cell_volume 781.238919
_symmetry_space_group_name_H-M "P 21 21 21"
_symmetry_group_IT_number 19
_symmetry_cell_setting 'orthorhombic'
loop_
_space_group_symop_operation_xyz
x,y,z
1/2-x,-y,1/2+z
1/2+x,1/2-y,-z
-x,1/2+y,1/2-z
loop_
_atom_site_type_symbol
_atom_site_label
_atom_site_fract_x
_atom_site_fract_y
_atom_site_fract_z
Si Si1 0.599777 0.470704 0.555070
Si Si2 0.888598 0.758432 0.223241
Si Si3 0.259090 0.281509 0.604422
Si Si4 0.840922 0.311587 0.887820
Si Si5 0.944161 0.019909 0.762547
O O1 0.664815 0.411122 0.663304
O O2 0.378641 0.436646 0.559231
O O3 0.689009 0.328821 0.484749
O O4 0.652213 0.640901 0.501525
O O5 0.860765 0.722387 0.339286
O O6 0.743278 0.908378 0.210148
O O7 0.085064 0.799148 0.175851
O O8 0.101263 0.354802 0.674233
O O9 0.968586 0.159895 0.848040
O O10 0.921443 0.469041 0.825552
#
# Coordination Sequence:
#
# PCOD9314310 Si02
#       5
#     4   4   4   4   4
#     4  10  21  40  64  91 125 176 213 262 324 375
#     4   8  23  36  62  92 124 165 214 253 325 362
#     4  10  22  37  64  85 130 164 220 253 319 389
#     4  10  21  39  64  90 129 172 208 268 321 372
#     4  10  21  40  60  94 126 165 217 260 321 382
#
# _framework density 25.600362000000001
#
# number of rings (size 3 to 8) (size 9 to 14) (size 15 to 20)
#    2.400    0.000    0.000    2.400    5.600    0.000 
#    3.600    0.000    0.000    0.000    0.000    0.000 
#    0.000    0.000    0.000    0.000    0.000    0.000 
#
# Total GULP energy -111476.679032 kJ/mol
# GULP energy per Si atom -5573.833952 kJ/mol
# Density = 2.554209 g / cm^3
# Si number density = 25.600362 Si / 1000 Ang^3
#
#
#
# Elastic Constant Matrix: (Units=GPa)
#
#
# Indices 1 2 3 4 5 6 
#
# 1 51.1971 -6.4763 32.9994 0.0000 0.0000 0.0000
# 2 -6.4763 62.6142 18.7404 0.0000 0.0000 0.0000
# 3 32.9994 18.7404 97.3421 0.0000 0.0000 0.0000
# 4 0.0000 0.0000 0.0000 63.3450 0.0000 0.0000
# 5 0.0000 0.0000 0.0000 0.0000 50.0676 0.0000
# 6 0.0000 0.0000 0.0000 0.0000 0.0000 20.4198
#
#
#
# Elastic Compliance Matrix: (Units=1/GPa)
#
#
# Indices 1 2 3 4 5 6 
#
# 1 0.026867 0.005841 -0.010233 0.000000 0.000000 0.000000
# 2 0.005841 0.018217 -0.005488 0.000000 0.000000 0.000000
# 3 -0.010233 -0.005488 0.014798 0.000000 0.000000 0.000000
# 4 0.000000 0.000000 0.000000 0.015787 0.000000 0.000000
# 5 0.000000 0.000000 0.000000 0.000000 0.019973 0.000000
# 6 0.000000 0.000000 0.000000 0.000000 0.000000 0.048972
#
#
# Mechanical properties :
#
#
# Convention : Reuss Voigt Hill
#
# Bulk Modulus (GPa) = 24.92188 33.52002 29.22095
# Shear Modulus (GPa) = 28.12993 37.82580 32.97786
#
# Velocity S-wave (km/s) = 3.31843 3.84806 3.59302
# Velocity P-wave (km/s) = 4.94355 5.73284 5.35276
#
# Compressibility (1/GPa) = 0.04012538
#
# Stress axis : x y z
#
# Youngs Moduli (GPa) = 37.22071 54.89248 67.57490
#
# Poissons Ratio (x) = -0.32065 0.69146
# Poissons Ratio (y) = -0.21742 0.37082
# Poissons Ratio (z) = 0.38086 0.30122
#
# Static dielectric constant tensor:
#      x y z
#    x 2.028980 0.000000 0.000000 
#    y 0.000000 2.147770 0.000000 
#    z 0.000000 0.000000 1.962900 
# 
# From -- ./inp_files/2709.got.cif
#   From: 2010.05.17/outbox.cif.g08.bks.cpg/sg19_2_cif.got.tgz:2709.got - 2010.06.03 22:46:19.
