data_PCOD9314186
_publ_section_title
;
Structure prediction by ZEFSAII (Michael W. Deem and Ramdas Pophale) SiO2 
 PCOD9314186
Probable space group: P 21 21 21
;
_chemical_formula_sum "Si O2"
_cell_formula_units_Z 32
_cell_length_a 17.365148
_cell_length_b 5.392146
_cell_length_c 12.755635
_cell_angle_alpha 90.000000
_cell_angle_beta 90.000000
_cell_angle_gamma 90.000000
_cell_volume 1194.379155
_symmetry_space_group_name_H-M "P 21 21 21"
_symmetry_group_IT_number 19
_symmetry_cell_setting 'orthorhombic'
loop_
_space_group_symop_operation_xyz
x,y,z
1/2-x,-y,1/2+z
1/2+x,1/2-y,-z
-x,1/2+y,1/2-z
loop_
_atom_site_type_symbol
_atom_site_label
_atom_site_fract_x
_atom_site_fract_y
_atom_site_fract_z
Si Si1 0.962945 0.981908 0.167661
Si Si2 0.078594 0.647354 0.105106
Si Si3 0.949146 0.377030 0.997409
Si Si4 0.232401 0.568399 0.205793
Si Si5 0.308823 0.920204 0.360215
Si Si6 0.483925 0.950417 0.312918
Si Si7 0.175462 0.307855 0.404459
Si Si8 0.787588 0.239759 0.956437
O O1 0.950686 0.002274 0.290367
O O2 0.913775 0.750528 0.118427
O O3 0.049485 0.922563 0.131696
O O4 0.940703 0.221748 0.103384
O O5 0.170734 0.649935 0.116930
O O6 0.028917 0.537449 0.008423
O O7 0.857573 0.436633 0.971761
O O8 0.968063 0.172649 0.907090
O O9 0.291691 0.762837 0.254590
O O10 0.184842 0.511595 0.310666
O O11 0.266819 0.311435 0.162804
O O12 0.396930 0.997391 0.352848
O O13 0.286871 0.778646 0.469172
O O14 0.244415 0.129543 0.376021
O O15 0.485142 0.716308 0.229960
O O16 0.183549 0.466545 0.508661
#
# Coordination Sequence:
#
# PCOD9314186 Si02
#       8
#     4   4   4   4   4   4   4   4
#     4  10  21  36  62 102 142 176 231 294 384 448
#     4  11  21  36  65 100 141 179 231 302 379 454
#     4  11  24  43  69 101 143 192 240 308 376 446
#     4  10  23  39  64  96 134 178 237 294 362 439
#     4  11  24  44  72  97 142 187 242 311 361 437
#     4  12  31  52  78 107 150 204 263 313 363 440
#     4   9  22  38  62  96 133 174 229 295 353 440
#     4  10  22  42  66  97 139 178 243 293 372 434
#
# _framework density 26.792162999999999
#
# number of rings (size 3 to 8) (size 9 to 14) (size 15 to 20)
#    0.000    1.500    1.250    3.000    8.750    2.000 
#    0.000    0.000    0.000    0.000    0.000    0.000 
#    0.000    0.000    0.000    0.000    0.000    0.000 
#
# Total GULP energy -178497.993788 kJ/mol
# GULP energy per Si atom -5578.062306 kJ/mol
# Density = 2.673118 g / cm^3
# Si number density = 26.792163 Si / 1000 Ang^3
#
#
#
# Elastic Constant Matrix: (Units=GPa)
#
#
# Indices 1 2 3 4 5 6 
#
# 1 117.1664 -21.5682 4.1735 0.0000 0.0000 0.0000
# 2 -21.5682 27.4266 -5.2666 0.0000 0.0000 0.0000
# 3 4.1735 -5.2666 83.0912 0.0000 0.0000 0.0000
# 4 0.0000 0.0000 0.0000 14.8452 0.0000 0.0000
# 5 0.0000 0.0000 0.0000 0.0000 33.4304 0.0000
# 6 0.0000 0.0000 0.0000 0.0000 0.0000 84.3065
#
#
#
# Elastic Compliance Matrix: (Units=1/GPa)
#
#
# Indices 1 2 3 4 5 6 
#
# 1 0.009980 0.007847 -0.000004 0.000000 0.000000 0.000000
# 2 0.007847 0.043081 0.002336 0.000000 0.000000 0.000000
# 3 -0.000004 0.002336 0.012183 0.000000 0.000000 0.000000
# 4 0.000000 0.000000 0.000000 0.067362 0.000000 0.000000
# 5 0.000000 0.000000 0.000000 0.000000 0.029913 0.000000
# 6 0.000000 0.000000 0.000000 0.000000 0.000000 0.011861
#
#
# Mechanical properties :
#
#
# Convention : Reuss Voigt Hill
#
# Bulk Modulus (GPa) = 11.68187 20.26239 15.97213
# Shear Modulus (GPa) = 27.38911 43.20613 35.29762
#
# Velocity S-wave (km/s) = 3.20078 4.02013 3.63362
# Velocity P-wave (km/s) = 4.24613 5.39702 4.85579
#
# Compressibility (1/GPa) = 0.08560272
#
# Stress axis : x y z
#
# Youngs Moduli (GPa) = 100.20519 23.21233 82.07988
#
# Poissons Ratio (x) = -0.18215 0.00032
# Poissons Ratio (y) = -0.78632 -0.19177
# Poissons Ratio (z) = 0.00039 -0.05423
#
# Static dielectric constant tensor:
#      x y z
#    x 2.308120 0.000000 0.000000 
#    y 0.000000 2.254580 0.000000 
#    z 0.000000 0.000000 1.891430 
# 
# From -- ./inp_files/6311.got.cif
#   From: 2010.05.17/outbox.cif.g08.bks.cpg/sg19_4_cif.got.tgz:6311.got - 2010.06.03 22:46:19.
