data_PCOD9314494
_publ_section_title
;
Structure prediction by ZEFSAII (Michael W. Deem and Ramdas Pophale) SiO2 
 PCOD9314494
Probable space group: P 21 21 21
;
_chemical_formula_sum "Si O2"
_cell_formula_units_Z 32
_cell_length_a 14.356285
_cell_length_b 5.181244
_cell_length_c 16.850337
_cell_angle_alpha 90.000000
_cell_angle_beta 90.000000
_cell_angle_gamma 90.000000
_cell_volume 1253.385619
_symmetry_space_group_name_H-M "P 21 21 21"
_symmetry_group_IT_number 19
_symmetry_cell_setting 'orthorhombic'
loop_
_space_group_symop_operation_xyz
x,y,z
1/2-x,-y,1/2+z
1/2+x,1/2-y,-z
-x,1/2+y,1/2-z
loop_
_atom_site_type_symbol
_atom_site_label
_atom_site_fract_x
_atom_site_fract_y
_atom_site_fract_z
Si Si1 0.477349 0.141719 0.037085
Si Si2 0.097242 0.567014 0.079817
Si Si3 0.542899 0.418944 0.294559
Si Si4 0.139350 0.948089 0.944896
Si Si5 0.311126 0.451253 0.841394
Si Si6 0.273749 0.065654 0.279576
Si Si7 0.272424 0.314427 0.014825
Si Si8 0.495017 0.096566 0.700723
O O1 0.565849 0.320350 0.055466
O O2 0.378744 0.291936 0.040756
O O3 0.473574 0.940149 0.110834
O O4 0.500420 0.076658 0.943647
O O5 0.194312 0.412975 0.076686
O O6 0.085135 0.759925 0.152280
O O7 0.100166 0.732080 0.000171
O O8 0.487507 0.653985 0.249630
O O9 0.654050 0.469878 0.285565
O O10 0.159530 0.889845 0.855194
O O11 0.234618 0.035153 0.988347
O O12 0.295156 0.164720 0.806610
O O13 0.416688 0.537066 0.853431
O O14 0.272557 0.654697 0.776764
O O15 0.266703 0.460625 0.929323
O O16 0.527227 0.318533 0.762491
#
# Coordination Sequence:
#
# PCOD9314494 Si02
#       8
#     4   4   4   4   4   4   4   4
#     4  11  25  43  73 107 147 196 245 308 381 441
#     4  11  25  47  79 102 151 194 262 316 376 450
#     4  12  25  44  69 108 153 194 239 296 380 456
#     4  10  21  42  69 103 143 191 244 303 366 442
#     4  11  24  47  76 104 143 200 248 300 379 440
#     4  11  22  42  74 105 146 194 244 297 364 460
#     4  10  24  42  75 111 140 188 256 317 364 445
#     4  12  30  51  79 110 151 205 258 317 386 452
#
# _framework density 25.530851999999999
#
# number of rings (size 3 to 8) (size 9 to 14) (size 15 to 20)
#    0.000    1.000    2.500    3.000   10.500    2.000 
#    2.250    0.000    0.000    0.000    0.000    0.000 
#    0.000    0.000    0.000    0.000    0.000    0.000 
#
# Total GULP energy -178809.376956 kJ/mol
# GULP energy per Si atom -5587.793030 kJ/mol
# Density = 2.547274 g / cm^3
# Si number density = 25.530852 Si / 1000 Ang^3
#
#
#
# Elastic Constant Matrix: (Units=GPa)
#
#
# Indices 1 2 3 4 5 6 
#
# 1 88.6489 8.0302 20.6570 0.0000 0.0000 0.0000
# 2 8.0302 82.9132 6.8012 0.0000 0.0000 0.0000
# 3 20.6570 6.8012 75.3259 0.0000 0.0000 0.0000
# 4 0.0000 0.0000 0.0000 16.9433 0.0000 0.0000
# 5 0.0000 0.0000 0.0000 0.0000 33.3297 0.0000
# 6 0.0000 0.0000 0.0000 0.0000 0.0000 33.5992
#
#
#
# Elastic Compliance Matrix: (Units=1/GPa)
#
#
# Indices 1 2 3 4 5 6 
#
# 1 0.012118 -0.000908 -0.003241 0.000000 0.000000 0.000000
# 2 -0.000908 0.012219 -0.000854 0.000000 0.000000 0.000000
# 3 -0.003241 -0.000854 0.014242 0.000000 0.000000 0.000000
# 4 0.000000 0.000000 0.000000 0.059020 0.000000 0.000000
# 5 0.000000 0.000000 0.000000 0.000000 0.030003 0.000000
# 6 0.000000 0.000000 0.000000 0.000000 0.000000 0.029763
#
#
# Mechanical properties :
#
#
# Convention : Reuss Voigt Hill
#
# Bulk Modulus (GPa) = 34.99950 35.31833 35.15891
# Shear Modulus (GPa) = 28.26535 30.86774 29.56655
#
# Velocity S-wave (km/s) = 3.33093 3.48089 3.40674
# Velocity P-wave (km/s) = 5.34153 5.47897 5.41069
#
# Compressibility (1/GPa) = 0.02857184
#
# Stress axis : x y z
#
# Youngs Moduli (GPa) = 82.52220 81.84114 70.21662
#
# Poissons Ratio (x) = 0.07429 0.22759
# Poissons Ratio (y) = 0.07491 0.05999
# Poissons Ratio (z) = 0.26747 0.06992
#
# Static dielectric constant tensor:
#      x y z
#    x 2.091720 0.000000 0.000000 
#    y 0.000000 2.098310 0.000000 
#    z 0.000000 0.000000 1.994870 
# 
# From -- ./inp_files/6782.got.cif
#   From: 2010.05.17/outbox.cif.g08.bks.cpg/sg19_4_cif.got.tgz:6782.got - 2010.06.03 22:46:19.
