data_PCOD9314143
_publ_section_title
;
Structure prediction by ZEFSAII (Michael W. Deem and Ramdas Pophale) SiO2 
 PCOD9314143
Probable space group: P 21 21 21
;
_chemical_formula_sum "Si O2"
_cell_formula_units_Z 24
_cell_length_a 15.385725
_cell_length_b 7.513448
_cell_length_c 7.736337
_cell_angle_alpha 90.000000
_cell_angle_beta 90.000000
_cell_angle_gamma 90.000000
_cell_volume 894.319356
_symmetry_space_group_name_H-M "P 21 21 21"
_symmetry_group_IT_number 19
_symmetry_cell_setting 'orthorhombic'
loop_
_space_group_symop_operation_xyz
x,y,z
1/2-x,-y,1/2+z
1/2+x,1/2-y,-z
-x,1/2+y,1/2-z
loop_
_atom_site_type_symbol
_atom_site_label
_atom_site_fract_x
_atom_site_fract_y
_atom_site_fract_z
Si Si1 0.563359 0.560674 0.364194
Si Si2 0.380724 0.689867 0.243488
Si Si3 0.365016 0.236030 0.475590
Si Si4 0.207945 0.482318 0.190742
Si Si5 0.151111 0.120340 0.105084
Si Si6 0.546718 0.808146 0.694877
O O1 0.465752 0.573157 0.287159
O O2 0.594818 0.358244 0.376899
O O3 0.563732 0.661159 0.547173
O O4 0.614747 0.668840 0.214540
O O5 0.301663 0.568516 0.190280
O O6 0.352879 0.796290 0.415095
O O7 0.324710 0.428752 0.508475
O O8 0.448108 0.247304 0.605176
O O9 0.313351 0.078439 0.579866
O O10 0.203727 0.270347 0.206884
O O11 0.130116 0.559166 0.312527
O O12 0.050279 0.122974 0.162748
#
# Coordination Sequence:
#
# PCOD9314143 Si02
#       6
#     4   4   4   4   4   4
#     4  10  22  43  71  95 146 180 234 283 352 415
#     4  10  24  44  65 108 133 187 237 284 349 419
#     4   9  22  40  71  96 131 187 222 283 347 402
#     4  10  23  44  68 102 141 170 242 282 337 420
#     4  10  20  44  65 101 140 173 234 278 344 423
#     4   9  21  41  72  98 133 181 229 280 345 421
#
# _framework density 26.836054000000001
#
# number of rings (size 3 to 8) (size 9 to 14) (size 15 to 20)
#    1.000    1.333    0.000    1.000    4.667    2.667 
#   18.000    0.000    3.667    0.000    0.000    0.000 
#    0.000    0.000    0.000    0.000    0.000    0.000 
#
# Total GULP energy -134135.083267 kJ/mol
# GULP energy per Si atom -5588.961803 kJ/mol
# Density = 2.677497 g / cm^3
# Si number density = 26.836054 Si / 1000 Ang^3
#
#
#
# Elastic Constant Matrix: (Units=GPa)
#
#
# Indices 1 2 3 4 5 6 
#
# 1 98.1520 18.6931 52.0519 0.0000 0.0000 0.0000
# 2 18.6931 119.3304 37.4303 0.0000 0.0000 0.0000
# 3 52.0519 37.4303 110.7270 0.0000 0.0000 0.0000
# 4 0.0000 0.0000 0.0000 34.7252 0.0000 0.0000
# 5 0.0000 0.0000 0.0000 0.0000 -5.5701 0.0000
# 6 0.0000 0.0000 0.0000 0.0000 0.0000 14.9781
#
#
#
# Elastic Compliance Matrix: (Units=1/GPa)
#
#
# Indices 1 2 3 4 5 6 
#
# 1 0.013574 -0.000140 -0.006334 0.000000 0.000000 0.000000
# 2 -0.000140 0.009375 -0.003104 0.000000 0.000000 0.000000
# 3 -0.006334 -0.003104 0.013058 0.000000 0.000000 0.000000
# 4 0.000000 0.000000 0.000000 0.028798 0.000000 0.000000
# 5 0.000000 0.000000 0.000000 0.000000 -0.179530 0.000000
# 6 0.000000 0.000000 0.000000 0.000000 0.000000 0.066764
#
#
# Mechanical properties :
#
#
# Convention : Reuss Voigt Hill
#
# Bulk Modulus (GPa) = 59.33647 60.50667 59.92157
# Shear Modulus (GPa) = -215.61667 23.49559 -96.06054
#
# Velocity S-wave (km/s) = -8.97331 2.96213 -5.98941
# Velocity P-wave (km/s) = 9.23048 5.85617 5.04514
#
# Compressibility (1/GPa) = 0.01685304
#
# Stress axis : x y z
#
# Youngs Moduli (GPa) = 73.67158 106.66104 76.58250
#
# Poissons Ratio (x) = 0.01489 0.48505
# Poissons Ratio (y) = 0.01029 0.23769
# Poissons Ratio (z) = 0.46661 0.33104
#
# Static dielectric constant tensor:
#      x y z
#    x 2.573400 0.000000 0.000000 
#    y 0.000000 2.169870 0.000000 
#    z 0.000000 0.000000 2.157290 
# 
# From -- ./inp_files/4113.got.cif
#   From: 2010.05.17/outbox.cif.g08.bks.cpg/sg19_3_cif.got.tgz:4113.got - 2010.06.03 22:46:19.
