data_PCOD9314197
_publ_section_title
;
Structure prediction by ZEFSAII (Michael W. Deem and Ramdas Pophale) SiO2 
 PCOD9314197
Probable space group: P 21 21 21
;
_chemical_formula_sum "Si O2"
_cell_formula_units_Z 24
_cell_length_a 4.898752
_cell_length_b 21.527305
_cell_length_c 9.934973
_cell_angle_alpha 90.000000
_cell_angle_beta 90.000000
_cell_angle_gamma 90.000000
_cell_volume 1047.711737
_symmetry_space_group_name_H-M "P 21 21 21"
_symmetry_group_IT_number 19
_symmetry_cell_setting 'orthorhombic'
loop_
_space_group_symop_operation_xyz
x,y,z
1/2-x,-y,1/2+z
1/2+x,1/2-y,-z
-x,1/2+y,1/2-z
loop_
_atom_site_type_symbol
_atom_site_label
_atom_site_fract_x
_atom_site_fract_y
_atom_site_fract_z
Si Si1 0.641531 0.255842 0.586432
Si Si2 0.033599 0.834308 0.479847
Si Si3 0.125745 0.618175 0.173514
Si Si4 0.335272 0.948734 0.600352
Si Si5 0.859828 0.454226 0.618618
Si Si6 0.538441 0.785535 0.336286
O O1 0.883925 0.277180 0.485024
O O2 0.485926 0.313062 0.657173
O O3 0.821156 0.216513 0.691487
O O4 0.134705 0.900925 0.526427
O O5 0.728202 0.829491 0.427026
O O6 0.060227 0.783980 0.600771
O O7 0.232405 0.808600 0.361062
O O8 0.059563 0.592916 0.322396
O O9 0.432296 0.602576 0.137288
O O10 0.933226 0.574466 0.081470
O O11 0.185467 0.980424 0.729589
O O12 0.445903 0.996730 0.492035
#
# Coordination Sequence:
#
# PCOD9314197 Si02
#       6
#     4   4   4   4   4   4
#     4  12  24  43  65  94 137 173 211 263 336 407
#     4  10  21  36  68  85 131 154 218 266 320 371
#     4  10  24  43  65  92 132 172 211 273 334 376
#     4  10  24  44  68  95 130 177 218 279 325 386
#     4  10  24  41  71  93 129 175 226 264 333 384
#     4  10  21  39  59 101 115 169 210 261 318 398
#
# _framework density 22.907066
#
# number of rings (size 3 to 8) (size 9 to 14) (size 15 to 20)
#    1.000    0.667    1.667    2.000    4.667    1.333 
#    9.000    0.000    0.000    0.000    0.000    0.000 
#    0.000    0.000    0.000    0.000    0.000    0.000 
#
# Total GULP energy -133990.569464 kJ/mol
# GULP energy per Si atom -5582.940394 kJ/mol
# Density = 2.285493 g / cm^3
# Si number density = 22.907066 Si / 1000 Ang^3
#
#
#
# Elastic Constant Matrix: (Units=GPa)
#
#
# Indices 1 2 3 4 5 6 
#
# 1 68.2797 -6.1134 26.8517 0.0000 0.0000 0.0000
# 2 -6.1134 53.2006 40.5218 0.0000 0.0000 0.0000
# 3 26.8517 40.5218 99.0979 0.0000 0.0000 0.0000
# 4 0.0000 0.0000 0.0000 36.1754 0.0000 0.0000
# 5 0.0000 0.0000 0.0000 0.0000 14.7848 0.0000
# 6 0.0000 0.0000 0.0000 0.0000 0.0000 13.4592
#
#
#
# Elastic Compliance Matrix: (Units=1/GPa)
#
#
# Indices 1 2 3 4 5 6 
#
# 1 0.018858 0.008800 -0.008708 0.000000 0.000000 0.000000
# 2 0.008800 0.031406 -0.015226 0.000000 0.000000 0.000000
# 3 -0.008708 -0.015226 0.018677 0.000000 0.000000 0.000000
# 4 0.000000 0.000000 0.000000 0.027643 0.000000 0.000000
# 5 0.000000 0.000000 0.000000 0.000000 0.067637 0.000000
# 6 0.000000 0.000000 0.000000 0.000000 0.000000 0.074299
#
#
# Mechanical properties :
#
#
# Convention : Reuss Voigt Hill
#
# Bulk Modulus (GPa) = 25.85911 38.12204 31.99058
# Shear Modulus (GPa) = 17.75070 23.50507 20.62789
#
# Velocity S-wave (km/s) = 2.78672 3.20676 3.00409
# Velocity P-wave (km/s) = 4.65485 5.51265 5.10181
#
# Compressibility (1/GPa) = 0.03867109
#
# Stress axis : x y z
#
# Youngs Moduli (GPa) = 53.02769 31.84146 53.54255
#
# Poissons Ratio (x) = -0.28020 0.46625
# Poissons Ratio (y) = -0.46663 0.81526
# Poissons Ratio (z) = 0.46177 0.48483
#
# Static dielectric constant tensor:
#      x y z
#    x 1.830880 0.000000 0.000000 
#    y 0.000000 1.823270 0.000000 
#    z 0.000000 0.000000 1.907840 
# 
# From -- ./inp_files/492.got.cif
#   From: 2010.05.17/outbox.cif.g08.bks.cpg/sg19_1_cif.got.tgz:492.got - 2010.06.03 22:46:19.
