data_PCOD9314695
_publ_section_title
;
Structure prediction by ZEFSAII (Michael W. Deem and Ramdas Pophale) SiO2 
 PCOD9314695
Probable space group: P 21 21 21
;
_chemical_formula_sum "Si O2"
_cell_formula_units_Z 32
_cell_length_a 7.470307
_cell_length_b 11.689811
_cell_length_c 16.585937
_cell_angle_alpha 90.000000
_cell_angle_beta 90.000000
_cell_angle_gamma 90.000000
_cell_volume 1448.391445
_symmetry_space_group_name_H-M "P 21 21 21"
_symmetry_group_IT_number 19
_symmetry_cell_setting 'orthorhombic'
loop_
_space_group_symop_operation_xyz
x,y,z
1/2-x,-y,1/2+z
1/2+x,1/2-y,-z
-x,1/2+y,1/2-z
loop_
_atom_site_type_symbol
_atom_site_label
_atom_site_fract_x
_atom_site_fract_y
_atom_site_fract_z
Si Si1 0.348295 0.874500 0.473297
Si Si2 0.255521 0.911863 0.661241
Si Si3 0.253690 0.379262 0.973259
Si Si4 0.922828 0.637689 0.884949
Si Si5 0.885406 0.206444 0.327546
Si Si6 0.461127 0.976268 0.944884
Si Si7 0.336063 0.456952 0.798892
Si Si8 0.736654 0.800499 0.226104
O O1 0.288204 0.884224 0.567217
O O2 0.286249 0.749746 0.445889
O O3 0.561584 0.886381 0.476995
O O4 0.234737 0.971637 0.427835
O O5 0.446757 0.953805 0.696270
O O6 0.199675 0.796171 0.707062
O O7 0.120206 0.018268 0.661666
O O8 0.089625 0.420837 0.027358
O O9 0.272774 0.454278 0.891950
O O10 0.748008 0.715553 0.877060
O O11 0.951583 0.606375 0.977660
O O12 0.087408 0.701330 0.843154
O O13 0.948966 0.094038 0.374464
O O14 0.790340 0.160419 0.246774
O O15 0.066612 0.272552 0.307540
O O16 0.256822 0.565729 0.752190
#
# Coordination Sequence:
#
# PCOD9314695 Si02
#       8
#     4   4   4   4   4   4   4   4
#     4  10  22  40  67  95 128 170 213 272 320 379
#     4   9  22  43  64  93 128 164 215 262 319 391
#     4  11  21  41  66  99 132 170 212 270 331 379
#     4  11  24  43  66  92 130 171 212 276 323 378
#     4  11  27  43  64  98 129 172 223 261 323 399
#     4  11  25  41  65  95 131 170 224 262 330 385
#     4  10  22  43  67  90 134 169 208 267 329 379
#     4  11  23  42  67  92 130 172 211 262 331 382
#
# _framework density 22.093475999999999
#
# number of rings (size 3 to 8) (size 9 to 14) (size 15 to 20)
#    0.000    1.500    3.750    0.000    5.250    2.000 
#    0.000    0.000    0.000    0.000    0.000    0.000 
#    0.000    0.000    0.000    0.000    0.000    0.000 
#
# Total GULP energy -178896.003314 kJ/mol
# GULP energy per Si atom -5590.500104 kJ/mol
# Density = 2.204319 g / cm^3
# Si number density = 22.093476 Si / 1000 Ang^3
#
#
#
# Elastic Constant Matrix: (Units=GPa)
#
#
# Indices 1 2 3 4 5 6 
#
# 1 69.2830 2.6639 4.3453 0.0000 0.0000 0.0000
# 2 2.6639 55.8075 14.8447 0.0000 0.0000 0.0000
# 3 4.3453 14.8447 26.5277 0.0000 0.0000 0.0000
# 4 0.0000 0.0000 0.0000 21.7574 0.0000 0.0000
# 5 0.0000 0.0000 0.0000 0.0000 13.7568 0.0000
# 6 0.0000 0.0000 0.0000 0.0000 0.0000 24.2992
#
#
#
# Elastic Compliance Matrix: (Units=1/GPa)
#
#
# Indices 1 2 3 4 5 6 
#
# 1 0.014584 -0.000071 -0.002349 0.000000 0.000000 0.000000
# 2 -0.000071 0.021053 -0.011769 0.000000 0.000000 0.000000
# 3 -0.002349 -0.011769 0.044667 0.000000 0.000000 0.000000
# 4 0.000000 0.000000 0.000000 0.045961 0.000000 0.000000
# 5 0.000000 0.000000 0.000000 0.000000 0.072691 0.000000
# 6 0.000000 0.000000 0.000000 0.000000 0.000000 0.041154
#
#
# Mechanical properties :
#
#
# Convention : Reuss Voigt Hill
#
# Bulk Modulus (GPa) = 19.25871 21.70289 20.48080
# Shear Modulus (GPa) = 17.49493 20.61363 19.05428
#
# Velocity S-wave (km/s) = 2.81705 3.05785 2.93992
# Velocity P-wave (km/s) = 4.39510 4.72354 4.56227
#
# Compressibility (1/GPa) = 0.05192456
#
# Stress axis : x y z
#
# Youngs Moduli (GPa) = 68.57007 47.49974 22.38777
#
# Poissons Ratio (x) = 0.00339 0.05259
# Poissons Ratio (y) = 0.00489 0.26349
# Poissons Ratio (z) = 0.16107 0.55904
#
# Static dielectric constant tensor:
#      x y z
#    x 1.809640 0.000000 0.000000 
#    y 0.000000 1.829990 0.000000 
#    z 0.000000 0.000000 1.809950 
# 
# From -- ./inp_files/6659.got.cif
#   From: 2010.05.17/outbox.cif.g08.bks.cpg/sg19_4_cif.got.tgz:6659.got - 2010.06.03 22:46:19.
