data_PCOD9314735
_publ_section_title
;
Structure prediction by ZEFSAII (Michael W. Deem and Ramdas Pophale) SiO2 
 PCOD9314735
Probable space group: P 21 21 21
;
_chemical_formula_sum "Si O2"
_cell_formula_units_Z 20
_cell_length_a 13.614963
_cell_length_b 10.947295
_cell_length_c 5.108130
_cell_angle_alpha 90.000000
_cell_angle_beta 90.000000
_cell_angle_gamma 90.000000
_cell_volume 761.351536
_symmetry_space_group_name_H-M "P 21 21 21"
_symmetry_group_IT_number 19
_symmetry_cell_setting 'orthorhombic'
loop_
_space_group_symop_operation_xyz
x,y,z
1/2-x,-y,1/2+z
1/2+x,1/2-y,-z
-x,1/2+y,1/2-z
loop_
_atom_site_type_symbol
_atom_site_label
_atom_site_fract_x
_atom_site_fract_y
_atom_site_fract_z
Si Si1 0.114545 0.337366 0.919310
Si Si2 0.899342 0.224687 0.889036
Si Si3 0.847532 0.362355 0.392870
Si Si4 0.019391 0.539746 0.255755
Si Si5 0.341974 0.796404 0.920965
O O1 0.175874 0.269526 0.145215
O O2 0.013001 0.263853 0.898170
O O3 0.080356 0.465398 0.039275
O O4 0.159944 0.310546 0.638122
O O5 0.850310 0.317177 0.096625
O O6 0.904836 0.095335 0.034299
O O7 0.866239 0.250997 0.595733
O O8 0.939079 0.454980 0.409295
O O9 0.738062 0.396592 0.486263
O O10 0.946938 0.636908 0.114378
#
# Coordination Sequence:
#
# PCOD9314735 Si02
#       5
#     4   4   4   4   4
#     4  10  22  41  65  95 131 172 216 264 323 394
#     4  10  22  41  65  95 131 172 216 264 323 394
#     4  11  24  42  66 100 133 165 217 280 324 374
#     4  10  24  44  72  94 128 182 222 258 326 400
#     4  11  24  42  66 100 133 165 217 280 324 374
#
# _framework density 26.269072999999999
#
# number of rings (size 3 to 8) (size 9 to 14) (size 15 to 20)
#    0.000    1.600    0.000    4.800    0.000   20.800 
#    0.000    4.000    0.000    0.000    0.000    0.000 
#    0.000    0.000    0.000    0.000    0.000    0.000 
#
# Total GULP energy -111815.511293 kJ/mol
# GULP energy per Si atom -5590.775565 kJ/mol
# Density = 2.620928 g / cm^3
# Si number density = 26.269073 Si / 1000 Ang^3
#
#
#
# Elastic Constant Matrix: (Units=GPa)
#
#
# Indices 1 2 3 4 5 6 
#
# 1 37.6069 -3.0921 20.4716 0.0000 0.0000 0.0000
# 2 -3.0921 94.2165 34.9115 0.0000 0.0000 0.0000
# 3 20.4716 34.9115 158.6830 0.0000 0.0000 0.0000
# 4 0.0000 0.0000 0.0000 42.4692 0.0000 0.0000
# 5 0.0000 0.0000 0.0000 0.0000 51.3448 0.0000
# 6 0.0000 0.0000 0.0000 0.0000 0.0000 11.5727
#
#
#
# Elastic Compliance Matrix: (Units=1/GPa)
#
#
# Indices 1 2 3 4 5 6 
#
# 1 0.029155 0.002559 -0.004324 0.000000 0.000000 0.000000
# 2 0.002559 0.011781 -0.002922 0.000000 0.000000 0.000000
# 3 -0.004324 -0.002922 0.007503 0.000000 0.000000 0.000000
# 4 0.000000 0.000000 0.000000 0.023546 0.000000 0.000000
# 5 0.000000 0.000000 0.000000 0.000000 0.019476 0.000000
# 6 0.000000 0.000000 0.000000 0.000000 0.000000 0.086410
#
#
# Mechanical properties :
#
#
# Convention : Reuss Voigt Hill
#
# Bulk Modulus (GPa) = 25.59888 43.89871 34.74879
# Shear Modulus (GPa) = 24.96667 36.95838 30.96252
#
# Velocity S-wave (km/s) = 3.08623 3.75496 3.43690
# Velocity P-wave (km/s) = 4.73981 5.96214 5.38576
#
# Compressibility (1/GPa) = 0.03906421
#
# Stress axis : x y z
#
# Youngs Moduli (GPa) = 34.29913 84.88555 133.28691
#
# Poissons Ratio (x) = -0.21724 0.57638
# Poissons Ratio (y) = -0.08778 0.38946
# Poissons Ratio (z) = 0.14832 0.24803
#
# Static dielectric constant tensor:
#      x y z
#    x 2.140840 0.000000 0.000000 
#    y 0.000000 2.132670 0.000000 
#    z 0.000000 0.000000 2.022520 
# 
# From -- ./inp_files/1387.got.cif
#   From: 2010.05.17/outbox.cif.g08.bks.cpg/sg19_1_cif.got.tgz:1387.got - 2010.06.03 22:46:19.
