data_PCOD9314397
_publ_section_title
;
Structure prediction by ZEFSAII (Michael W. Deem and Ramdas Pophale) SiO2 
 PCOD9314397
Probable space group: P 21 21 21
;
_chemical_formula_sum "Si O2"
_cell_formula_units_Z 32
_cell_length_a 13.252061
_cell_length_b 20.661123
_cell_length_c 5.314147
_cell_angle_alpha 90.000000
_cell_angle_beta 90.000000
_cell_angle_gamma 90.000000
_cell_volume 1455.026534
_symmetry_space_group_name_H-M "P 21 21 21"
_symmetry_group_IT_number 19
_symmetry_cell_setting 'orthorhombic'
loop_
_space_group_symop_operation_xyz
x,y,z
1/2-x,-y,1/2+z
1/2+x,1/2-y,-z
-x,1/2+y,1/2-z
loop_
_atom_site_type_symbol
_atom_site_label
_atom_site_fract_x
_atom_site_fract_y
_atom_site_fract_z
Si Si1 0.038159 0.519747 0.879448
Si Si2 0.840980 0.673174 0.822765
Si Si3 0.972403 0.202749 0.380270
Si Si4 0.385243 0.413326 0.897175
Si Si5 0.901318 0.775477 0.451457
Si Si6 0.665716 0.105498 0.229557
Si Si7 0.231398 0.708784 0.919689
Si Si8 0.801110 0.526640 0.827708
O O1 0.061116 0.571095 0.658669
O O2 0.096911 0.457617 0.766956
O O3 0.918053 0.510087 0.886509
O O4 0.079672 0.542648 0.154766
O O5 0.900728 0.708270 0.599163
O O6 0.795230 0.603709 0.772439
O O7 0.926993 0.665670 0.035020
O O8 0.764513 0.729424 0.911269
O O9 0.015320 0.268891 0.264422
O O10 0.912781 0.159110 0.183718
O O11 0.888365 0.210464 0.593153
O O12 0.264521 0.416624 0.927665
O O13 0.906564 0.838619 0.619236
O O14 0.789839 0.780603 0.336128
O O15 0.719768 0.142641 0.464511
O O16 0.762361 0.490643 0.577316
#
# Coordination Sequence:
#
# PCOD9314397 Si02
#       8
#     4   4   4   4   4   4   4   4
#     4  12  25  45  70 100 142 183 231 282 350 416
#     4  10  22  43  64  94 129 176 231 282 338 417
#     4  10  21  40  69  95 128 178 235 277 349 412
#     4  11  24  41  74 103 132 185 227 282 349 426
#     4  10  22  40  67  93 139 174 223 294 345 410
#     4  10  24  40  66 106 139 172 220 296 351 425
#     4   9  22  40  64  99 131 172 226 288 344 407
#     4  12  28  47  68  98 134 188 239 283 336 409
#
# _framework density 21.992728
#
# number of rings (size 3 to 8) (size 9 to 14) (size 15 to 20)
#    0.000    1.500    1.250    2.250    8.750    3.000 
#    6.750    0.000    0.000    0.000    0.000    0.000 
#    0.000    0.000    0.000    0.000    0.000    0.000 
#
# Total GULP energy -178597.103570 kJ/mol
# GULP energy per Si atom -5581.159487 kJ/mol
# Density = 2.194267 g / cm^3
# Si number density = 21.992728 Si / 1000 Ang^3
#
#
#
# Elastic Constant Matrix: (Units=GPa)
#
#
# Indices 1 2 3 4 5 6 
#
# 1 99.9299 41.4181 15.7422 0.0000 0.0000 0.0000
# 2 41.4181 68.0573 13.6561 0.0000 0.0000 0.0000
# 3 15.7422 13.6561 66.6755 0.0000 0.0000 0.0000
# 4 0.0000 0.0000 0.0000 19.9030 0.0000 0.0000
# 5 0.0000 0.0000 0.0000 0.0000 23.4215 0.0000
# 6 0.0000 0.0000 0.0000 0.0000 0.0000 20.9310
#
#
#
# Elastic Compliance Matrix: (Units=1/GPa)
#
#
# Indices 1 2 3 4 5 6 
#
# 1 0.013539 -0.007924 -0.001574 0.000000 0.000000 0.000000
# 2 -0.007924 0.019961 -0.002217 0.000000 0.000000 0.000000
# 3 -0.001574 -0.002217 0.015824 0.000000 0.000000 0.000000
# 4 0.000000 0.000000 0.000000 0.050244 0.000000 0.000000
# 5 0.000000 0.000000 0.000000 0.000000 0.042696 0.000000
# 6 0.000000 0.000000 0.000000 0.000000 0.000000 0.047776
#
#
# Mechanical properties :
#
#
# Convention : Reuss Voigt Hill
#
# Bulk Modulus (GPa) = 38.61947 41.81062 40.21505
# Shear Modulus (GPa) = 22.51237 23.77419 23.14328
#
# Velocity S-wave (km/s) = 3.20289 3.29143 3.24746
# Velocity P-wave (km/s) = 5.59252 5.78766 5.69093
#
# Compressibility (1/GPa) = 0.02589367
#
# Stress axis : x y z
#
# Youngs Moduli (GPa) = 73.86006 50.09843 63.19620
#
# Poissons Ratio (x) = 0.39697 0.09945
# Poissons Ratio (y) = 0.58525 0.14013
# Poissons Ratio (z) = 0.11623 0.11109
#
# Static dielectric constant tensor:
#      x y z
#    x 1.786030 0.000000 0.000000 
#    y 0.000000 1.832360 0.000000 
#    z 0.000000 0.000000 1.878340 
# 
# From -- ./inp_files/1211.got.cif
#   From: 2010.05.17/outbox.cif.g08.bks.cpg/sg19_1_cif.got.tgz:1211.got - 2010.06.03 22:46:19.
