data_PCOD9314658
_publ_section_title
;
Structure prediction by ZEFSAII (Michael W. Deem and Ramdas Pophale) SiO2 
 PCOD9314658
Probable space group: P 21 21 21
;
_chemical_formula_sum "Si O2"
_cell_formula_units_Z 32
_cell_length_a 16.805420
_cell_length_b 5.460192
_cell_length_c 13.490005
_cell_angle_alpha 90.000000
_cell_angle_beta 90.000000
_cell_angle_gamma 90.000000
_cell_volume 1237.853918
_symmetry_space_group_name_H-M "P 21 21 21"
_symmetry_group_IT_number 19
_symmetry_cell_setting 'orthorhombic'
loop_
_space_group_symop_operation_xyz
x,y,z
1/2-x,-y,1/2+z
1/2+x,1/2-y,-z
-x,1/2+y,1/2-z
loop_
_atom_site_type_symbol
_atom_site_label
_atom_site_fract_x
_atom_site_fract_y
_atom_site_fract_z
Si Si1 0.096359 0.117321 0.197851
Si Si2 0.350689 0.420782 0.177944
Si Si3 0.581103 0.311945 0.479291
Si Si4 0.308875 0.202344 0.975635
Si Si5 0.668977 0.028186 0.121911
Si Si6 0.925277 0.362171 0.492734
Si Si7 0.506944 0.245634 0.139674
Si Si8 0.595150 0.883287 0.696230
O O1 0.115326 0.045979 0.083894
O O2 0.124077 0.874812 0.256736
O O3 0.000065 0.132250 0.198480
O O4 0.120797 0.379746 0.240830
O O5 0.378913 0.651735 0.109623
O O6 0.296686 0.426607 0.275289
O O7 0.435054 0.298165 0.212672
O O8 0.310145 0.258462 0.092249
O O9 0.655930 0.431572 0.535737
O O10 0.506917 0.250433 0.554559
O O11 0.533001 0.535229 0.426182
O O12 0.226453 0.278200 0.928050
O O13 0.371594 0.378044 0.916440
O O14 0.593843 0.168406 0.170061
O O15 0.634443 0.831749 0.043157
O O16 0.971676 0.515448 0.576259
#
# Coordination Sequence:
#
# PCOD9314658 Si02
#       8
#     4   4   4   4   4   4   4   4
#     4  10  22  39  71 107 140 185 255 308 361 437
#     4  10  23  43  72  98 141 193 245 310 387 441
#     4   9  20  40  72  96 135 192 242 308 381 441
#     4  11  25  45  67 100 152 194 241 303 391 460
#     4  11  26  42  70 108 144 191 252 305 380 461
#     4  10  22  41  69 104 143 183 249 316 369 441
#     4   9  21  39  68 102 134 180 247 309 364 441
#     4  10  23  39  69 105 143 194 247 301 371 454
#
# _framework density 25.851192999999999
#
# number of rings (size 3 to 8) (size 9 to 14) (size 15 to 20)
#    0.000    2.000    0.000    2.250   15.750    3.000 
#    0.000    0.000    0.000    0.000    0.000    0.000 
#    0.000    0.000    0.000    0.000    0.000    0.000 
#
# Total GULP energy -178539.691094 kJ/mol
# GULP energy per Si atom -5579.365347 kJ/mol
# Density = 2.579235 g / cm^3
# Si number density = 25.851193 Si / 1000 Ang^3
#
#
#
# Elastic Constant Matrix: (Units=GPa)
#
#
# Indices 1 2 3 4 5 6 
#
# 1 74.5815 -3.0999 10.1083 0.0000 0.0000 0.0000
# 2 -3.0999 49.5484 -13.1223 0.0000 0.0000 0.0000
# 3 10.1083 -13.1223 81.3895 0.0000 0.0000 0.0000
# 4 0.0000 0.0000 0.0000 28.8098 0.0000 0.0000
# 5 0.0000 0.0000 0.0000 0.0000 12.8707 0.0000
# 6 0.0000 0.0000 0.0000 0.0000 0.0000 20.9008
#
#
#
# Elastic Compliance Matrix: (Units=1/GPa)
#
#
# Indices 1 2 3 4 5 6 
#
# 1 0.013646 0.000423 -0.001627 0.000000 0.000000 0.000000
# 2 0.000423 0.021096 0.003349 0.000000 0.000000 0.000000
# 3 -0.001627 0.003349 0.013029 0.000000 0.000000 0.000000
# 4 0.000000 0.000000 0.000000 0.034710 0.000000 0.000000
# 5 0.000000 0.000000 0.000000 0.000000 0.077696 0.000000
# 6 0.000000 0.000000 0.000000 0.000000 0.000000 0.047845
#
#
# Mechanical properties :
#
#
# Convention : Reuss Voigt Hill
#
# Bulk Modulus (GPa) = 19.20849 21.47685 20.34267
# Shear Modulus (GPa) = 22.61572 26.62514 24.62043
#
# Velocity S-wave (km/s) = 2.96098 3.21275 3.08943
# Velocity P-wave (km/s) = 4.37452 4.69981 4.54008
#
# Compressibility (1/GPa) = 0.05206032
#
# Stress axis : x y z
#
# Youngs Moduli (GPa) = 73.28049 47.40328 76.75465
#
# Poissons Ratio (x) = -0.02005 0.12485
# Poissons Ratio (y) = -0.03099 -0.25703
# Poissons Ratio (z) = 0.11920 -0.15874
#
# Static dielectric constant tensor:
#      x y z
#    x 2.112920 0.000000 0.000000 
#    y 0.000000 2.401760 0.000000 
#    z 0.000000 0.000000 2.155940 
# 
# From -- ./inp_files/6303.got.cif
#   From: 2010.05.17/outbox.cif.g08.bks.cpg/sg19_4_cif.got.tgz:6303.got - 2010.06.03 22:46:19.
