data_PCOD9315449
_publ_section_title
;
Structure prediction by ZEFSAII (Michael W. Deem and Ramdas Pophale) SiO2 
 PCOD9315449
Probable space group: P 21 21 21
;
_chemical_formula_sum "Si O2"
_cell_formula_units_Z 28
_cell_length_a 7.759169
_cell_length_b 7.091873
_cell_length_c 19.294507
_cell_angle_alpha 90.000000
_cell_angle_beta 90.000000
_cell_angle_gamma 90.000000
_cell_volume 1061.719630
_symmetry_space_group_name_H-M "P 21 21 21"
_symmetry_group_IT_number 19
_symmetry_cell_setting 'orthorhombic'
loop_
_space_group_symop_operation_xyz
x,y,z
1/2-x,-y,1/2+z
1/2+x,1/2-y,-z
-x,1/2+y,1/2-z
loop_
_atom_site_type_symbol
_atom_site_label
_atom_site_fract_x
_atom_site_fract_y
_atom_site_fract_z
Si Si1 0.026337 0.055483 0.880821
Si Si2 0.897581 0.023659 0.025828
Si Si3 0.653689 0.815250 0.257293
Si Si4 0.388559 0.214444 0.846824
Si Si5 0.999779 0.698886 0.196646
Si Si6 0.334638 0.922928 0.161780
Si Si7 0.052248 0.686659 0.959053
O O1 0.884721 0.039470 0.820243
O O2 0.182633 0.183456 0.854514
O O3 0.106196 0.857309 0.906853
O O4 0.940271 0.120574 0.952390
O O5 0.153095 0.819585 0.164851
O O6 0.945111 0.162487 0.087659
O O7 0.988037 0.816077 0.022623
O O8 0.818097 0.807313 0.206967
O O9 0.484981 0.834109 0.210141
O O10 0.676351 0.626539 0.302881
O O11 0.434903 0.318594 0.776117
O O12 0.468059 0.004556 0.838093
O O13 0.698799 0.962564 0.027087
O O14 0.399518 0.914094 0.082881
#
# Coordination Sequence:
#
# PCOD9315449 Si02
#       7
#     4   4   4   4   4   4   4
#     4  10  25  52  81 117 161 225 280 353 428 515
#     4  10  27  54  83 117 166 228 279 357 432 515
#     4  12  25  48  80 123 168 220 286 349 430 501
#     4  12  26  53  80 123 169 223 291 355 426 521
#     4  12  28  45  78 126 166 223 282 349 430 506
#     4  12  26  47  82 120 170 220 281 360 424 499
#     4  10  25  51  78 116 162 217 285 351 424 507
#
# _framework density 26.372311
#
# number of rings (size 3 to 8) (size 9 to 14) (size 15 to 20)
#    0.857    0.000    2.857    2.571    4.000    4.571 
#   12.857    0.000    0.000    0.000    0.000    0.000 
#    0.000    0.000    0.000    0.000    0.000    0.000 
#
# Total GULP energy -156706.903632 kJ/mol
# GULP energy per Si atom -5596.675130 kJ/mol
# Density = 2.631229 g / cm^3
# Si number density = 26.372311 Si / 1000 Ang^3
#
#
#
# Elastic Constant Matrix: (Units=GPa)
#
#
# Indices 1 2 3 4 5 6 
#
# 1 168.0248 58.8836 71.9977 0.0000 0.0000 0.0000
# 2 58.8836 103.1877 -0.3261 0.0000 0.0000 0.0000
# 3 71.9977 -0.3261 87.8447 0.0000 0.0000 0.0000
# 4 0.0000 0.0000 0.0000 51.9013 0.0000 0.0000
# 5 0.0000 0.0000 0.0000 0.0000 53.4910 0.0000
# 6 0.0000 0.0000 0.0000 0.0000 0.0000 32.3182
#
#
#
# Elastic Compliance Matrix: (Units=1/GPa)
#
#
# Indices 1 2 3 4 5 6 
#
# 1 0.013314 -0.007632 -0.010941 0.000000 0.000000 0.000000
# 2 -0.007632 0.014066 0.006308 0.000000 0.000000 0.000000
# 3 -0.010941 0.006308 0.020374 0.000000 0.000000 0.000000
# 4 0.000000 0.000000 0.000000 0.019267 0.000000 0.000000
# 5 0.000000 0.000000 0.000000 0.000000 0.018695 0.000000
# 6 0.000000 0.000000 0.000000 0.000000 0.000000 0.030942
#
#
# Mechanical properties :
#
#
# Convention : Reuss Voigt Hill
#
# Bulk Modulus (GPa) = 43.05876 68.90751 55.98313
# Shear Modulus (GPa) = 33.57254 42.77555 38.17404
#
# Velocity S-wave (km/s) = 3.57181 4.03176 3.80874
# Velocity P-wave (km/s) = 5.77695 6.91801 6.37307
#
# Compressibility (1/GPa) = 0.02322408
#
# Stress axis : x y z
#
# Youngs Moduli (GPa) = 75.10751 71.09166 49.08171
#
# Poissons Ratio (x) = 0.54259 0.53699
# Poissons Ratio (y) = 0.57324 -0.30959
# Poissons Ratio (z) = 0.82173 -0.44842
#
# Static dielectric constant tensor:
#      x y z
#    x 2.097030 0.000000 0.000000 
#    y 0.000000 2.108010 0.000000 
#    z 0.000000 0.000000 2.072820 
# 
# From -- ./inp_files/5378.got.cif
#   From: 2010.05.17/outbox.cif.g08.bks.cpg/sg19_3_cif.got.tgz:5378.got - 2010.06.03 22:46:19.
