data_PCOD9315220
_publ_section_title
;
Structure prediction by ZEFSAII (Michael W. Deem and Ramdas Pophale) SiO2 
 PCOD9315220
Probable space group: P 21 21 21
;
_chemical_formula_sum "Si O2"
_cell_formula_units_Z 32
_cell_length_a 12.940854
_cell_length_b 9.361027
_cell_length_c 11.406920
_cell_angle_alpha 90.000000
_cell_angle_beta 90.000000
_cell_angle_gamma 90.000000
_cell_volume 1381.830681
_symmetry_space_group_name_H-M "P 21 21 21"
_symmetry_group_IT_number 19
_symmetry_cell_setting 'orthorhombic'
loop_
_space_group_symop_operation_xyz
x,y,z
1/2-x,-y,1/2+z
1/2+x,1/2-y,-z
-x,1/2+y,1/2-z
loop_
_atom_site_type_symbol
_atom_site_label
_atom_site_fract_x
_atom_site_fract_y
_atom_site_fract_z
Si Si1 0.299252 0.980833 0.808294
Si Si2 0.631616 0.295495 0.476914
Si Si3 0.650607 0.827812 0.986528
Si Si4 0.381127 0.820602 0.609179
Si Si5 0.972335 0.431585 0.545591
Si Si6 0.189018 0.371854 0.897958
Si Si7 0.080888 0.129129 0.773880
Si Si8 0.600502 0.778396 0.731441
O O1 0.303714 0.856953 0.712947
O O2 0.186071 0.047646 0.811754
O O3 0.369058 0.112021 0.764601
O O4 0.344356 0.913393 0.926192
O O5 0.741394 0.233100 0.438791
O O6 0.568224 0.153083 0.511302
O O7 0.576544 0.367343 0.365431
O O8 0.589279 0.844211 0.862865
O O9 0.602784 0.702942 0.066470
O O10 0.666457 0.966707 0.064827
O O11 0.326395 0.714189 0.519661
O O12 0.491548 0.779713 0.664532
O O13 0.411408 0.963695 0.539713
O O14 0.001480 0.535549 0.653962
O O15 0.103032 0.290971 0.817122
O O16 0.302672 0.350984 0.839092
#
# Coordination Sequence:
#
# PCOD9315220 Si02
#       8
#     4   4   4   4   4   4   4   4
#     4  11  23  42  72  99 131 184 226 285 335 401
#     4  12  24  43  73  98 140 178 231 281 347 409
#     4  12  23  44  68 101 138 174 230 283 336 401
#     4  11  24  44  69 102 133 175 234 275 343 406
#     4  11  24  44  69  98 136 178 224 282 343 414
#     4  10  25  42  69  99 139 177 219 286 339 395
#     4  10  23  48  64  97 143 179 226 278 343 421
#     4  11  24  43  68  98 142 171 228 286 330 407
#
# _framework density 23.157688
#
# number of rings (size 3 to 8) (size 9 to 14) (size 15 to 20)
#    0.000    1.000    5.000    1.500    7.000    2.000 
#    2.250    0.000    0.000    0.000    0.000    0.000 
#    0.000    0.000    0.000    0.000    0.000    0.000 
#
# Total GULP energy -178704.220693 kJ/mol
# GULP energy per Si atom -5584.506897 kJ/mol
# Density = 2.310498 g / cm^3
# Si number density = 23.157688 Si / 1000 Ang^3
#
#
#
# Elastic Constant Matrix: (Units=GPa)
#
#
# Indices 1 2 3 4 5 6 
#
# 1 39.0772 -8.8148 -31.5818 0.0000 0.0000 0.0000
# 2 -8.8148 78.5075 3.2945 0.0000 0.0000 0.0000
# 3 -31.5818 3.2945 64.5913 0.0000 0.0000 0.0000
# 4 0.0000 0.0000 0.0000 44.5184 0.0000 0.0000
# 5 0.0000 0.0000 0.0000 0.0000 15.3567 0.0000
# 6 0.0000 0.0000 0.0000 0.0000 0.0000 27.3651
#
#
#
# Elastic Compliance Matrix: (Units=1/GPa)
#
#
# Indices 1 2 3 4 5 6 
#
# 1 0.043530 0.004003 0.021080 0.000000 0.000000 0.000000
# 2 0.004003 0.013133 0.001287 0.000000 0.000000 0.000000
# 3 0.021080 0.001287 0.025723 0.000000 0.000000 0.000000
# 4 0.000000 0.000000 0.000000 0.022463 0.000000 0.000000
# 5 0.000000 0.000000 0.000000 0.000000 0.065118 0.000000
# 6 0.000000 0.000000 0.000000 0.000000 0.000000 0.036543
#
#
# Mechanical properties :
#
#
# Convention : Reuss Voigt Hill
#
# Bulk Modulus (GPa) = 7.40053 11.99687 9.69870
# Shear Modulus (GPa) = 25.14942 32.06657 28.60800
#
# Velocity S-wave (km/s) = 3.29904 3.72520 3.51858
# Velocity P-wave (km/s) = 4.20882 4.86771 4.55021
#
# Compressibility (1/GPa) = 0.13512541
#
# Stress axis : x y z
#
# Youngs Moduli (GPa) = 22.97287 76.14374 38.87551
#
# Poissons Ratio (x) = -0.30480 -0.81948
# Poissons Ratio (y) = -0.09196 -0.05005
# Poissons Ratio (z) = -0.48426 -0.09802
#
# Static dielectric constant tensor:
#      x y z
#    x 1.961310 0.000000 0.000000 
#    y 0.000000 1.867140 0.000000 
#    z 0.000000 0.000000 1.919450 
# 
# From -- ./inp_files/3649.got.cif
#   From: 2010.05.17/outbox.cif.g08.bks.cpg/sg19_2_cif.got.tgz:3649.got - 2010.06.03 22:46:19.
