data_PCOD9315657
_publ_section_title
;
Structure prediction by ZEFSAII (Michael W. Deem and Ramdas Pophale) SiO2 
 PCOD9315657
Probable space group: P 21 21 21
;
_chemical_formula_sum "Si O2"
_cell_formula_units_Z 28
_cell_length_a 5.539782
_cell_length_b 15.514059
_cell_length_c 14.689432
_cell_angle_alpha 90.000000
_cell_angle_beta 90.000000
_cell_angle_gamma 90.000000
_cell_volume 1262.475959
_symmetry_space_group_name_H-M "P 21 21 21"
_symmetry_group_IT_number 19
_symmetry_cell_setting 'orthorhombic'
loop_
_space_group_symop_operation_xyz
x,y,z
1/2-x,-y,1/2+z
1/2+x,1/2-y,-z
-x,1/2+y,1/2-z
loop_
_atom_site_type_symbol
_atom_site_label
_atom_site_fract_x
_atom_site_fract_y
_atom_site_fract_z
Si Si1 0.464117 0.500323 0.195882
Si Si2 0.957995 0.298258 0.976095
Si Si3 0.280224 0.364986 0.330399
Si Si4 0.948323 0.470435 0.091468
Si Si5 0.375727 0.230119 0.651835
Si Si6 0.461866 0.853842 0.999829
Si Si7 0.000663 0.307497 0.762148
O O1 0.409319 0.446023 0.287252
O O2 0.702618 0.459985 0.149961
O O3 0.530648 0.599902 0.215000
O O4 0.206644 0.492503 0.141152
O O5 0.948130 0.313259 0.867827
O O6 0.201697 0.243748 0.995618
O O7 0.987762 0.385857 0.032195
O O8 0.296030 0.364162 0.440009
O O9 0.368868 0.275716 0.282572
O O10 0.998883 0.356145 0.311049
O O11 0.883980 0.551553 0.027318
O O12 0.193825 0.195829 0.574829
O O13 0.523348 0.298579 0.591351
O O14 0.274253 0.281794 0.737125
#
# Coordination Sequence:
#
# PCOD9315657 Si02
#       7
#     4   4   4   4   4   4   4
#     4  12  28  47  74 108 150 189 249 303 367 438
#     4  12  28  51  77 106 150 203 256 300 367 444
#     4  11  25  44  71 102 147 189 242 302 372 441
#     4  12  27  48  73 108 145 193 247 305 361 439
#     4  11  23  42  72 105 146 186 242 301 380 441
#     4  11  23  41  70 105 142 185 236 303 374 433
#     4  11  26  47  73 108 146 199 244 310 371 444
#
# _framework density 22.178639
#
# number of rings (size 3 to 8) (size 9 to 14) (size 15 to 20)
#    0.000    0.571    2.857    4.286   12.000    0.000 
#    2.571    0.000    0.000    0.000    0.000    0.000 
#    0.000    0.000    0.000    0.000    0.000    0.000 
#
# Total GULP energy -156172.474844 kJ/mol
# GULP energy per Si atom -5577.588387 kJ/mol
# Density = 2.212816 g / cm^3
# Si number density = 22.178639 Si / 1000 Ang^3
#
#
#
# Elastic Constant Matrix: (Units=GPa)
#
#
# Indices 1 2 3 4 5 6 
#
# 1 53.6821 -8.7721 8.7096 0.0000 0.0000 0.0000
# 2 -8.7721 42.9461 -22.7165 0.0000 0.0000 0.0000
# 3 8.7096 -22.7165 48.7460 0.0000 0.0000 0.0000
# 4 0.0000 0.0000 0.0000 43.2601 0.0000 0.0000
# 5 0.0000 0.0000 0.0000 0.0000 26.4524 0.0000
# 6 0.0000 0.0000 0.0000 0.0000 0.0000 -168.1075
#
#
#
# Elastic Compliance Matrix: (Units=1/GPa)
#
#
# Indices 1 2 3 4 5 6 
#
# 1 0.019440 0.002832 -0.002154 0.000000 0.000000 0.000000
# 2 0.002832 0.031315 0.014087 0.000000 0.000000 0.000000
# 3 -0.002154 0.014087 0.027464 0.000000 0.000000 0.000000
# 4 0.000000 0.000000 0.000000 0.023116 0.000000 0.000000
# 5 0.000000 0.000000 0.000000 0.000000 0.037804 0.000000
# 6 0.000000 0.000000 0.000000 0.000000 0.000000 -0.005949
#
#
# Mechanical properties :
#
#
# Convention : Reuss Voigt Hill
#
# Bulk Modulus (GPa) = 9.28077 11.09069 10.18573
# Shear Modulus (GPa) = 35.82239 -8.46881 13.67679
#
# Velocity S-wave (km/s) = 4.02328 -1.95621 2.48597
# Velocity P-wave (km/s) = 5.07701 0.30142 3.58366
#
# Compressibility (1/GPa) = 0.10774971
#
# Stress axis : x y z
#
# Youngs Moduli (GPa) = 51.43946 31.93359 36.41081
#
# Poissons Ratio (x) = -0.09042 0.07843
# Poissons Ratio (y) = -0.14565 -0.51294
# Poissons Ratio (z) = 0.11080 -0.44986
#
# Static dielectric constant tensor:
#      x y z
#    x 2.118270 0.000000 0.000000 
#    y 0.000000 1.848890 0.000000 
#    z 0.000000 0.000000 7.384840 
# 
# From -- ./inp_files/5698.got.cif
#   From: 2010.05.17/outbox.cif.g08.bks.cpg/sg19_3_cif.got.tgz:5698.got - 2010.06.03 22:46:19.
