data_PCOD9315615
_publ_section_title
;
Structure prediction by ZEFSAII (Michael W. Deem and Ramdas Pophale) SiO2 
 PCOD9315615
Probable space group: P 21 21 21
;
_chemical_formula_sum "Si O2"
_cell_formula_units_Z 32
_cell_length_a 11.842245
_cell_length_b 8.692813
_cell_length_c 13.941443
_cell_angle_alpha 90.000000
_cell_angle_beta 90.000000
_cell_angle_gamma 90.000000
_cell_volume 1435.165899
_symmetry_space_group_name_H-M "P 21 21 21"
_symmetry_group_IT_number 19
_symmetry_cell_setting 'orthorhombic'
loop_
_space_group_symop_operation_xyz
x,y,z
1/2-x,-y,1/2+z
1/2+x,1/2-y,-z
-x,1/2+y,1/2-z
loop_
_atom_site_type_symbol
_atom_site_label
_atom_site_fract_x
_atom_site_fract_y
_atom_site_fract_z
Si Si1 0.238027 0.423555 0.989385
Si Si2 0.997850 0.253471 0.764359
Si Si3 0.234240 0.289383 0.195321
Si Si4 0.681416 0.397843 0.500439
Si Si5 0.836605 0.433493 0.326112
Si Si6 0.475990 0.458861 0.393739
Si Si7 0.905340 0.884315 0.119199
Si Si8 0.295125 0.876427 0.363324
O O1 0.140063 0.538036 0.951637
O O2 0.356902 0.481138 0.948255
O O3 0.216054 0.261969 0.937538
O O4 0.226702 0.395629 0.101689
O O5 0.034974 0.418180 0.806738
O O6 0.080277 0.135537 0.819951
O O7 0.866249 0.234265 0.784652
O O8 0.007984 0.204716 0.653293
O O9 0.171496 0.364974 0.285717
O O10 0.184463 0.118287 0.176475
O O11 0.758737 0.361333 0.409243
O O12 0.581691 0.508196 0.459759
O O13 0.614980 0.265030 0.554450
O O14 0.763658 0.472800 0.578307
O O15 0.792116 0.367389 0.225188
O O16 0.966572 0.403428 0.348274
#
# Coordination Sequence:
#
# PCOD9315615 Si02
#       8
#     4   4   4   4   4   4   4   4
#     4  11  27  44  72 111 145 190 245 307 365 447
#     4  11  22  44  74 104 141 194 246 309 356 445
#     4  12  25  49  73 108 150 198 245 302 383 436
#     4  12  26  49  73 108 144 200 245 309 371 446
#     4  12  27  50  76 106 152 204 243 307 379 450
#     4  11  24  44  72 104 144 189 245 305 365 433
#     4  12  31  45  76 113 152 192 256 311 371 447
#     4  11  24  45  76 106 144 193 251 300 378 446
#
# _framework density 22.297073999999999
#
# number of rings (size 3 to 8) (size 9 to 14) (size 15 to 20)
#    0.000    0.500    6.250    0.000    7.000    2.000 
#    0.000    0.000    0.000    0.000    0.000    0.000 
#    0.000    0.000    0.000    0.000    0.000    0.000 
#
# Total GULP energy -178999.990879 kJ/mol
# GULP energy per Si atom -5593.749715 kJ/mol
# Density = 2.224632 g / cm^3
# Si number density = 22.297074 Si / 1000 Ang^3
#
#
#
# Elastic Constant Matrix: (Units=GPa)
#
#
# Indices 1 2 3 4 5 6 
#
# 1 87.9850 3.9134 10.6918 0.0000 0.0000 0.0000
# 2 3.9134 29.3132 15.9015 0.0000 0.0000 0.0000
# 3 10.6918 15.9015 128.7980 0.0000 0.0000 0.0000
# 4 0.0000 0.0000 0.0000 22.6279 0.0000 0.0000
# 5 0.0000 0.0000 0.0000 0.0000 23.6856 0.0000
# 6 0.0000 0.0000 0.0000 0.0000 0.0000 21.7866
#
#
#
# Elastic Compliance Matrix: (Units=1/GPa)
#
#
# Indices 1 2 3 4 5 6 
#
# 1 0.011514 -0.001092 -0.000821 0.000000 0.000000 0.000000
# 2 -0.001092 0.036667 -0.004436 0.000000 0.000000 0.000000
# 3 -0.000821 -0.004436 0.008380 0.000000 0.000000 0.000000
# 4 0.000000 0.000000 0.000000 0.044193 0.000000 0.000000
# 5 0.000000 0.000000 0.000000 0.000000 0.042220 0.000000
# 6 0.000000 0.000000 0.000000 0.000000 0.000000 0.045900
#
#
# Mechanical properties :
#
#
# Convention : Reuss Voigt Hill
#
# Bulk Modulus (GPa) = 22.79860 34.12331 28.46096
# Shear Modulus (GPa) = 23.12757 27.99264 25.56010
#
# Velocity S-wave (km/s) = 3.22413 3.54706 3.38944
# Velocity P-wave (km/s) = 4.90990 5.66681 5.30188
#
# Compressibility (1/GPa) = 0.04386234
#
# Stress axis : x y z
#
# Youngs Moduli (GPa) = 86.85148 27.27278 119.33236
#
# Poissons Ratio (x) = 0.02978 0.09797
# Poissons Ratio (y) = 0.09482 0.52939
# Poissons Ratio (z) = 0.07131 0.12099
#
# Static dielectric constant tensor:
#      x y z
#    x 1.788690 0.000000 0.000000 
#    y 0.000000 1.888510 0.000000 
#    z 0.000000 0.000000 1.811700 
# 
# From -- ./inp_files/6122.got.cif
#   From: 2010.05.17/outbox.cif.g08.bks.cpg/sg19_4_cif.got.tgz:6122.got - 2010.06.03 22:46:19.
