data_PCOD9315678
_publ_section_title
;
Structure prediction by ZEFSAII (Michael W. Deem and Ramdas Pophale) SiO2 
 PCOD9315678
Probable space group: P 21 21 21
;
_chemical_formula_sum "Si O2"
_cell_formula_units_Z 24
_cell_length_a 8.747571
_cell_length_b 7.371420
_cell_length_c 16.811259
_cell_angle_alpha 90.000000
_cell_angle_beta 90.000000
_cell_angle_gamma 90.000000
_cell_volume 1084.023936
_symmetry_space_group_name_H-M "P 21 21 21"
_symmetry_group_IT_number 19
_symmetry_cell_setting 'orthorhombic'
loop_
_space_group_symop_operation_xyz
x,y,z
1/2-x,-y,1/2+z
1/2+x,1/2-y,-z
-x,1/2+y,1/2-z
loop_
_atom_site_type_symbol
_atom_site_label
_atom_site_fract_x
_atom_site_fract_y
_atom_site_fract_z
Si Si1 0.344699 0.078679 0.241419
Si Si2 0.133483 0.813220 0.425350
Si Si3 0.697072 0.175544 0.221510
Si Si4 0.825612 0.904980 0.336093
Si Si5 0.624142 0.039185 0.480452
Si Si6 0.199539 0.834022 0.926959
O O1 0.299482 0.868800 0.233277
O O2 0.306554 0.139726 0.331855
O O3 0.526682 0.096459 0.229030
O O4 0.255940 0.215546 0.184448
O O5 0.261654 0.724385 0.368583
O O6 0.219693 0.347889 0.455189
O O7 0.204417 0.995362 0.461151
O O8 0.993134 0.869716 0.369226
O O9 0.815384 0.033937 0.259144
O O10 0.727064 0.007797 0.402904
O O11 0.471816 0.147168 0.458591
O O12 0.583528 0.839731 0.513109
#
# Coordination Sequence:
#
# PCOD9315678 Si02
#       6
#     4   4   4   4   4   4
#     4  11  23  45  70  99 138 183 234 278 347 413
#     4  11  27  43  69 104 142 176 234 287 352 418
#     4  11  23  43  70 100 136 180 229 286 340 418
#     4  12  25  43  69 104 134 186 230 286 351 408
#     4  12  25  47  71 100 143 185 231 290 352 419
#     4  11  25  47  69 103 139 186 232 287 352 422
#
# _framework density 22.139733
#
# number of rings (size 3 to 8) (size 9 to 14) (size 15 to 20)
#    0.000    0.667    3.333    4.000    4.667    4.000 
#    0.000    0.000    0.000    0.000    0.000    0.000 
#    0.000    0.000    0.000    0.000    0.000    0.000 
#
# Total GULP energy -134420.648792 kJ/mol
# GULP energy per Si atom -5600.860366 kJ/mol
# Density = 2.208934 g / cm^3
# Si number density = 22.139733 Si / 1000 Ang^3
#
#
#
# Elastic Constant Matrix: (Units=GPa)
#
#
# Indices 1 2 3 4 5 6 
#
# 1 78.9071 15.8688 7.3106 0.0000 0.0000 0.0000
# 2 15.8688 91.7015 2.5425 0.0000 0.0000 0.0000
# 3 7.3106 2.5425 14.2703 0.0000 0.0000 0.0000
# 4 0.0000 0.0000 0.0000 41.8560 0.0000 0.0000
# 5 0.0000 0.0000 0.0000 0.0000 22.8687 0.0000
# 6 0.0000 0.0000 0.0000 0.0000 0.0000 30.7987
#
#
#
# Elastic Compliance Matrix: (Units=1/GPa)
#
#
# Indices 1 2 3 4 5 6 
#
# 1 0.013729 -0.002192 -0.006643 0.000000 0.000000 0.000000
# 2 -0.002192 0.011309 -0.000892 0.000000 0.000000 0.000000
# 3 -0.006643 -0.000892 0.073638 0.000000 0.000000 0.000000
# 4 0.000000 0.000000 0.000000 0.023891 0.000000 0.000000
# 5 0.000000 0.000000 0.000000 0.000000 0.043728 0.000000
# 6 0.000000 0.000000 0.000000 0.000000 0.000000 0.032469
#
#
# Mechanical properties :
#
#
# Convention : Reuss Voigt Hill
#
# Bulk Modulus (GPa) = 12.62265 26.25810 19.44037
# Shear Modulus (GPa) = 20.43939 29.71515 25.07727
#
# Velocity S-wave (km/s) = 3.04172 3.66753 3.36918
# Velocity P-wave (km/s) = 4.24850 5.46080 4.89234
#
# Compressibility (1/GPa) = 0.07922265
#
# Stress axis : x y z
#
# Youngs Moduli (GPa) = 72.83660 88.42559 13.57994
#
# Poissons Ratio (x) = 0.19380 0.09021
# Poissons Ratio (y) = 0.15963 0.01212
# Poissons Ratio (z) = 0.48386 0.07889
#
# Static dielectric constant tensor:
#      x y z
#    x 1.771520 0.000000 0.000000 
#    y 0.000000 1.800350 0.000000 
#    z 0.000000 0.000000 1.801860 
# 
# From -- ./inp_files/6564.got.cif
#   From: 2010.05.17/outbox.cif.g08.bks.cpg/sg19_4_cif.got.tgz:6564.got - 2010.06.03 22:46:19.
