data_PCOD9315939
_publ_section_title
;
Structure prediction by ZEFSAII (Michael W. Deem and Ramdas Pophale) SiO2 
 PCOD9315939
Probable space group: P 21 21 21
;
_chemical_formula_sum "Si O2"
_cell_formula_units_Z 32
_cell_length_a 18.497609
_cell_length_b 4.940884
_cell_length_c 13.961068
_cell_angle_alpha 90.000000
_cell_angle_beta 90.000000
_cell_angle_gamma 90.000000
_cell_volume 1275.965393
_symmetry_space_group_name_H-M "P 21 21 21"
_symmetry_group_IT_number 19
_symmetry_cell_setting 'orthorhombic'
loop_
_space_group_symop_operation_xyz
x,y,z
1/2-x,-y,1/2+z
1/2+x,1/2-y,-z
-x,1/2+y,1/2-z
loop_
_atom_site_type_symbol
_atom_site_label
_atom_site_fract_x
_atom_site_fract_y
_atom_site_fract_z
Si Si1 0.679684 0.128013 0.162225
Si Si2 0.749564 0.359623 0.753234
Si Si3 0.004315 0.413143 0.997882
Si Si4 0.631456 0.510126 0.613004
Si Si5 0.239971 0.150569 0.022495
Si Si6 0.516414 0.308720 0.191061
Si Si7 0.906813 0.377112 0.454025
Si Si8 0.551367 0.857656 0.752959
O O1 0.725829 0.335017 0.229110
O O2 0.599276 0.246983 0.164199
O O3 0.691228 0.835762 0.206629
O O4 0.713171 0.132138 0.055727
O O5 0.673672 0.339996 0.694568
O O6 0.745126 0.287495 0.865074
O O7 0.971534 0.287179 0.901561
O O8 0.047151 0.157198 0.044156
O O9 0.944583 0.560813 0.063551
O O10 0.058705 0.657172 0.975935
O O11 0.686886 0.544979 0.525676
O O12 0.605627 0.784739 0.667066
O O13 0.174452 0.939697 0.019441
O O14 0.502949 0.612643 0.221627
O O15 0.910381 0.231822 0.350991
O O16 0.482482 0.653579 0.745722
#
# Coordination Sequence:
#
# PCOD9315939 Si02
#       8
#     4   4   4   4   4   4   4   4
#     4  11  27  49  73 106 148 196 253 302 374 464
#     4  11  27  49  74 107 152 202 246 314 381 445
#     4  12  27  46  75 110 144 191 255 312 370 451
#     4  11  26  45  74 113 148 189 258 307 369 456
#     4  11  27  49  76 108 153 200 247 310 386 445
#     4  12  27  48  75 104 145 197 251 308 376 444
#     4  12  24  47  74 104 144 194 239 300 382 447
#     4  12  23  45  71 106 146 187 239 309 374 442
#
# _framework density 25.079051
#
# number of rings (size 3 to 8) (size 9 to 14) (size 15 to 20)
#    0.000    0.500    5.000    1.500    7.000    7.000 
#    0.000    0.000    0.000    0.000    0.000    0.000 
#    0.000    0.000    0.000    0.000    0.000    0.000 
#
# Total GULP energy -179143.985006 kJ/mol
# GULP energy per Si atom -5598.249531 kJ/mol
# Density = 2.502197 g / cm^3
# Si number density = 25.079051 Si / 1000 Ang^3
#
#
#
# Elastic Constant Matrix: (Units=GPa)
#
#
# Indices 1 2 3 4 5 6 
#
# 1 113.1335 11.0355 28.7394 0.0000 0.0000 0.0000
# 2 11.0355 76.0850 14.3657 0.0000 0.0000 0.0000
# 3 28.7394 14.3657 167.7765 0.0000 0.0000 0.0000
# 4 0.0000 0.0000 0.0000 30.0669 0.0000 0.0000
# 5 0.0000 0.0000 0.0000 0.0000 50.5729 0.0000
# 6 0.0000 0.0000 0.0000 0.0000 0.0000 35.0467
#
#
#
# Elastic Compliance Matrix: (Units=1/GPa)
#
#
# Indices 1 2 3 4 5 6 
#
# 1 0.009326 -0.001068 -0.001506 0.000000 0.000000 0.000000
# 2 -0.001068 0.013482 -0.000971 0.000000 0.000000 0.000000
# 3 -0.001506 -0.000971 0.006301 0.000000 0.000000 0.000000
# 4 0.000000 0.000000 0.000000 0.033259 0.000000 0.000000
# 5 0.000000 0.000000 0.000000 0.000000 0.019773 0.000000
# 6 0.000000 0.000000 0.000000 0.000000 0.000000 0.028533
#
#
# Mechanical properties :
#
#
# Convention : Reuss Voigt Hill
#
# Bulk Modulus (GPa) = 45.41824 51.69734 48.55779
# Shear Modulus (GPa) = 39.96632 43.32760 41.64696
#
# Velocity S-wave (km/s) = 3.99634 4.16100 4.07950
# Velocity P-wave (km/s) = 6.28042 6.61390 6.44932
#
# Compressibility (1/GPa) = 0.02201759
#
# Stress axis : x y z
#
# Youngs Moduli (GPa) = 107.22835 74.17546 158.69348
#
# Poissons Ratio (x) = 0.07924 0.23899
# Poissons Ratio (y) = 0.11455 0.15415
# Poissons Ratio (z) = 0.16149 0.07205
#
# Static dielectric constant tensor:
#      x y z
#    x 1.991840 0.000000 0.000000 
#    y 0.000000 1.943550 0.000000 
#    z 0.000000 0.000000 2.064300 
# 
# From -- ./inp_files/6310.got.cif
#   From: 2010.05.17/outbox.cif.g08.bks.cpg/sg19_4_cif.got.tgz:6310.got - 2010.06.03 22:46:19.
