data_PCOD9315338
_publ_section_title
;
Structure prediction by ZEFSAII (Michael W. Deem and Ramdas Pophale) SiO2 
 PCOD9315338
Probable space group: P 21 21 21
;
_chemical_formula_sum "Si O2"
_cell_formula_units_Z 28
_cell_length_a 5.221318
_cell_length_b 8.232200
_cell_length_c 27.984740
_cell_angle_alpha 90.000000
_cell_angle_beta 90.000000
_cell_angle_gamma 90.000000
_cell_volume 1202.866234
_symmetry_space_group_name_H-M "P 21 21 21"
_symmetry_group_IT_number 19
_symmetry_cell_setting 'orthorhombic'
loop_
_space_group_symop_operation_xyz
x,y,z
1/2-x,-y,1/2+z
1/2+x,1/2-y,-z
-x,1/2+y,1/2-z
loop_
_atom_site_type_symbol
_atom_site_label
_atom_site_fract_x
_atom_site_fract_y
_atom_site_fract_z
Si Si1 0.950531 0.922685 0.903189
Si Si2 0.099429 0.597368 0.691270
Si Si3 0.608047 0.546172 0.325244
Si Si4 0.585743 0.455991 0.735270
Si Si5 0.946330 0.637460 0.504076
Si Si6 0.671681 0.580756 0.913750
Si Si7 0.201486 0.286655 0.338257
O O1 0.792848 0.761404 0.918831
O O2 0.192419 0.850827 0.874481
O O3 0.825700 0.030390 0.861221
O O4 0.018080 0.035836 0.947363
O O5 0.993712 0.779650 0.687238
O O6 0.357325 0.575093 0.721372
O O7 0.869055 0.500115 0.715758
O O8 0.862189 0.550845 0.291746
O O9 0.644131 0.534284 0.382321
O O10 0.436813 0.387164 0.315642
O O11 0.530471 0.297083 0.702577
O O12 0.197537 0.746630 0.494597
O O13 0.906297 0.505657 0.462031
O O14 0.445724 0.601068 0.875572
#
# Coordination Sequence:
#
# PCOD9315338 Si02
#       7
#     4   4   4   4   4   4   4
#     4  10  25  47  73 103 147 191 242 298 371 440
#     4  11  25  44  69 104 141 190 243 303 355 430
#     4  11  26  41  72 102 149 188 245 301 364 419
#     4  11  25  44  69 103 146 194 243 293 361 437
#     4  12  31  49  79 113 149 186 248 307 378 435
#     4  11  26  46  75 103 149 192 248 299 371 441
#     4  10  24  45  69 106 145 197 245 297 362 446
#
# _framework density 23.277733999999999
#
# number of rings (size 3 to 8) (size 9 to 14) (size 15 to 20)
#    0.000    1.143    1.429    1.714   16.000    1.143 
#    0.000    0.000    0.000    0.000    0.000    0.000 
#    0.000    0.000    0.000    0.000    0.000    0.000 
#
# Total GULP energy -156435.859026 kJ/mol
# GULP energy per Si atom -5586.994965 kJ/mol
# Density = 2.322475 g / cm^3
# Si number density = 23.277734 Si / 1000 Ang^3
#
#
#
# Elastic Constant Matrix: (Units=GPa)
#
#
# Indices 1 2 3 4 5 6 
#
# 1 80.5323 21.2301 35.5832 0.0000 0.0000 0.0000
# 2 21.2301 83.6860 52.3448 0.0000 0.0000 0.0000
# 3 35.5832 52.3448 180.8610 0.0000 0.0000 0.0000
# 4 0.0000 0.0000 0.0000 48.5889 0.0000 0.0000
# 5 0.0000 0.0000 0.0000 0.0000 28.9197 0.0000
# 6 0.0000 0.0000 0.0000 0.0000 0.0000 29.5832
#
#
#
# Elastic Compliance Matrix: (Units=1/GPa)
#
#
# Indices 1 2 3 4 5 6 
#
# 1 0.013930 -0.002222 -0.002098 0.000000 0.000000 0.000000
# 2 -0.002222 0.014945 -0.003888 0.000000 0.000000 0.000000
# 3 -0.002098 -0.003888 0.007067 0.000000 0.000000 0.000000
# 4 0.000000 0.000000 0.000000 0.020581 0.000000 0.000000
# 5 0.000000 0.000000 0.000000 0.000000 0.034579 0.000000
# 6 0.000000 0.000000 0.000000 0.000000 0.000000 0.033803
#
#
# Mechanical properties :
#
#
# Convention : Reuss Voigt Hill
#
# Bulk Modulus (GPa) = 51.21161 62.59950 56.90555
# Shear Modulus (GPa) = 33.82287 37.14643 35.48465
#
# Velocity S-wave (km/s) = 3.81598 3.99907 3.90860
# Velocity P-wave (km/s) = 6.43922 6.94797 6.69843
#
# Compressibility (1/GPa) = 0.01952682
#
# Stress axis : x y z
#
# Youngs Moduli (GPa) = 71.78799 66.91117 141.49979
#
# Poissons Ratio (x) = 0.14866 0.29681
# Poissons Ratio (y) = 0.15950 0.55020
# Poissons Ratio (z) = 0.15058 0.26017
#
# Static dielectric constant tensor:
#      x y z
#    x 1.933700 0.000000 0.000000 
#    y 0.000000 1.961130 0.000000 
#    z 0.000000 0.000000 1.847880 
# 
# From -- ./inp_files/7263.got.cif
#   From: 2010.05.17/outbox.cif.g08.bks.cpg/sg19_4_cif.got.tgz:7263.got - 2010.06.03 22:46:19.
