data_PCOD9315403
_publ_section_title
;
Structure prediction by ZEFSAII (Michael W. Deem and Ramdas Pophale) SiO2 
 PCOD9315403
Probable space group: P 21 21 21
;
_chemical_formula_sum "Si O2"
_cell_formula_units_Z 32
_cell_length_a 9.527008
_cell_length_b 10.974834
_cell_length_c 13.366479
_cell_angle_alpha 90.000000
_cell_angle_beta 90.000000
_cell_angle_gamma 90.000000
_cell_volume 1397.563373
_symmetry_space_group_name_H-M "P 21 21 21"
_symmetry_group_IT_number 19
_symmetry_cell_setting 'orthorhombic'
loop_
_space_group_symop_operation_xyz
x,y,z
1/2-x,-y,1/2+z
1/2+x,1/2-y,-z
-x,1/2+y,1/2-z
loop_
_atom_site_type_symbol
_atom_site_label
_atom_site_fract_x
_atom_site_fract_y
_atom_site_fract_z
Si Si1 0.159546 0.378971 0.851522
Si Si2 0.281242 0.774957 0.837828
Si Si3 0.758292 0.369611 0.090916
Si Si4 0.079702 0.478910 0.361927
Si Si5 0.148700 0.789984 0.622679
Si Si6 0.575998 0.599093 0.040534
Si Si7 0.503232 0.967847 0.851697
Si Si8 0.320808 0.498203 0.136408
O O1 0.206515 0.238956 0.839398
O O2 0.293329 0.440335 0.909115
O O3 0.155508 0.456138 0.750009
O O4 0.999670 0.361931 0.888990
O O5 0.344384 0.642532 0.823398
O O6 0.219868 0.819125 0.730435
O O7 0.156295 0.783650 0.919170
O O8 0.407500 0.855298 0.883781
O O9 0.658487 0.487328 0.093014
O O10 0.911333 0.413500 0.124762
O O11 0.762606 0.323374 0.975970
O O12 0.945790 0.436196 0.425866
O O13 0.023179 0.550720 0.266743
O O14 0.132459 0.642597 0.624929
O O15 0.416408 0.591176 0.075094
O O16 0.658719 0.984202 0.891582
#
# Coordination Sequence:
#
# PCOD9315403 Si02
#       8
#     4   4   4   4   4   4   4   4
#     4  11  24  41  70 103 133 181 227 289 357 402
#     4  11  24  46  67 101 145 179 232 289 358 418
#     4  11  26  42  72 104 136 178 244 286 344 410
#     4  11  25  44  70 100 142 186 237 283 361 421
#     4  12  23  43  70  99 142 180 226 295 336 414
#     4  11  24  46  66 102 138 187 234 290 342 431
#     4  10  25  43  69 101 136 182 230 292 350 410
#     4  11  23  41  68  98 140 175 226 286 346 416
#
# _framework density 22.896993999999999
#
# number of rings (size 3 to 8) (size 9 to 14) (size 15 to 20)
#    0.000    1.000    5.000    1.500    7.000    1.000 
#    2.250    0.000    0.000    0.000    0.000    0.000 
#    0.000    0.000    0.000    0.000    0.000    0.000 
#
# Total GULP energy -178599.222560 kJ/mol
# GULP energy per Si atom -5581.225705 kJ/mol
# Density = 2.284488 g / cm^3
# Si number density = 22.896994 Si / 1000 Ang^3
#
#
#
# Elastic Constant Matrix: (Units=GPa)
#
#
# Indices 1 2 3 4 5 6 
#
# 1 94.1138 -3.6868 -0.2529 0.0000 0.0000 0.0000
# 2 -3.6868 37.3214 -8.9004 0.0000 0.0000 0.0000
# 3 -0.2529 -8.9004 39.3561 0.0000 0.0000 0.0000
# 4 0.0000 0.0000 0.0000 24.1406 0.0000 0.0000
# 5 0.0000 0.0000 0.0000 0.0000 31.3021 0.0000
# 6 0.0000 0.0000 0.0000 0.0000 0.0000 25.3176
#
#
#
# Elastic Compliance Matrix: (Units=1/GPa)
#
#
# Indices 1 2 3 4 5 6 
#
# 1 0.010671 0.001131 0.000324 0.000000 0.000000 0.000000
# 2 0.001131 0.028442 0.006439 0.000000 0.000000 0.000000
# 3 0.000324 0.006439 0.026867 0.000000 0.000000 0.000000
# 4 0.000000 0.000000 0.000000 0.041424 0.000000 0.000000
# 5 0.000000 0.000000 0.000000 0.000000 0.031947 0.000000
# 6 0.000000 0.000000 0.000000 0.000000 0.000000 0.039498
#
#
# Mechanical properties :
#
#
# Convention : Reuss Voigt Hill
#
# Bulk Modulus (GPa) = 12.22937 16.12345 14.17641
# Shear Modulus (GPa) = 26.27225 28.39415 27.33320
#
# Velocity S-wave (km/s) = 3.39102 3.52530 3.45881
# Velocity P-wave (km/s) = 4.54804 4.86080 4.70702
#
# Compressibility (1/GPa) = 0.08177038
#
# Stress axis : x y z
#
# Youngs Moduli (GPa) = 93.71515 35.15958 37.21983
#
# Poissons Ratio (x) = -0.03978 -0.01208
# Poissons Ratio (y) = -0.10604 -0.23967
# Poissons Ratio (z) = -0.03040 -0.22641
#
# Static dielectric constant tensor:
#      x y z
#    x 1.869930 0.000000 0.000000 
#    y 0.000000 1.834570 0.000000 
#    z 0.000000 0.000000 1.945680 
# 
# From -- ./inp_files/5949.got.cif
#   From: 2010.05.17/outbox.cif.g08.bks.cpg/sg19_3_cif.got.tgz:5949.got - 2010.06.03 22:46:19.
