data_PCOD9315050
_publ_section_title
;
Structure prediction by ZEFSAII (Michael W. Deem and Ramdas Pophale) SiO2 
 PCOD9315050
Probable space group: P 21 21 21
;
_chemical_formula_sum "Si O2"
_cell_formula_units_Z 28
_cell_length_a 11.851064
_cell_length_b 18.188473
_cell_length_c 5.147528
_cell_angle_alpha 90.000000
_cell_angle_beta 90.000000
_cell_angle_gamma 90.000000
_cell_volume 1109.563855
_symmetry_space_group_name_H-M "P 21 21 21"
_symmetry_group_IT_number 19
_symmetry_cell_setting 'orthorhombic'
loop_
_space_group_symop_operation_xyz
x,y,z
1/2-x,-y,1/2+z
1/2+x,1/2-y,-z
-x,1/2+y,1/2-z
loop_
_atom_site_type_symbol
_atom_site_label
_atom_site_fract_x
_atom_site_fract_y
_atom_site_fract_z
Si Si1 0.981407 0.267351 0.502942
Si Si2 0.777027 0.956557 0.948580
Si Si3 0.921840 0.646684 0.635323
Si Si4 0.821033 0.512281 0.949614
Si Si5 0.502542 0.102190 0.199543
Si Si6 0.371091 0.343035 0.851978
Si Si7 0.837541 0.788207 0.373448
O O1 0.931827 0.341004 0.623125
O O2 0.912410 0.234122 0.266665
O O3 0.999190 0.200311 0.695653
O O4 0.109984 0.284489 0.411584
O O5 0.697267 0.890077 0.858078
O O6 0.906056 0.939425 0.877049
O O7 0.740032 0.020286 0.744951
O O8 0.862320 0.588144 0.817984
O O9 0.842860 0.705259 0.486460
O O10 0.015228 0.614472 0.437122
O O11 0.730377 0.481819 0.737256
O O12 0.924627 0.455092 0.947532
O O13 0.574417 0.157347 0.018882
O O14 0.282469 0.322855 0.075002
#
# Coordination Sequence:
#
# PCOD9315050 Si02
#       7
#     4   4   4   4   4   4   4
#     4  10  23  43  72  98 145 182 237 302 345 426
#     4  11  26  43  74 107 143 187 230 299 363 420
#     4  10  24  44  66 106 136 188 239 293 347 431
#     4  12  31  48  73 103 144 198 237 288 355 427
#     4  10  25  46  69 103 143 184 242 294 353 424
#     4  10  23  41  73 102 140 185 238 297 355 418
#     4   9  22  43  69 105 139 182 239 297 360 410
#
# _framework density 25.235143000000001
#
# number of rings (size 3 to 8) (size 9 to 14) (size 15 to 20)
#    0.000    1.714    0.000    0.857   16.000    4.571 
#    0.000    0.000    0.000    0.000    0.000    0.000 
#    0.000    0.000    0.000    0.000    0.000    0.000 
#
# Total GULP energy -156804.178517 kJ/mol
# GULP energy per Si atom -5600.149233 kJ/mol
# Density = 2.517771 g / cm^3
# Si number density = 25.235143 Si / 1000 Ang^3
#
#
#
# Elastic Constant Matrix: (Units=GPa)
#
#
# Indices 1 2 3 4 5 6 
#
# 1 74.0015 25.0403 2.5863 0.0000 0.0000 0.0000
# 2 25.0403 86.6513 -2.1872 0.0000 0.0000 0.0000
# 3 2.5863 -2.1872 49.7932 0.0000 0.0000 0.0000
# 4 0.0000 0.0000 0.0000 41.3116 0.0000 0.0000
# 5 0.0000 0.0000 0.0000 0.0000 34.3076 0.0000
# 6 0.0000 0.0000 0.0000 0.0000 0.0000 22.9667
#
#
#
# Elastic Compliance Matrix: (Units=1/GPa)
#
#
# Indices 1 2 3 4 5 6 
#
# 1 0.015025 -0.004366 -0.000972 0.000000 0.000000 0.000000
# 2 -0.004366 0.012822 0.000790 0.000000 0.000000 0.000000
# 3 -0.000972 0.000790 0.020168 0.000000 0.000000 0.000000
# 4 0.000000 0.000000 0.000000 0.024206 0.000000 0.000000
# 5 0.000000 0.000000 0.000000 0.000000 0.029148 0.000000
# 6 0.000000 0.000000 0.000000 0.000000 0.000000 0.043541
#
#
# Mechanical properties :
#
#
# Convention : Reuss Voigt Hill
#
# Bulk Modulus (GPa) = 25.69495 29.03609 27.36552
# Shear Modulus (GPa) = 29.94361 32.05095 30.99728
#
# Velocity S-wave (km/s) = 3.44842 3.56770 3.50857
# Velocity P-wave (km/s) = 5.10488 5.33877 5.22314
#
# Compressibility (1/GPa) = 0.03891816
#
# Stress axis : x y z
#
# Youngs Moduli (GPa) = 66.55720 77.98963 49.58281
#
# Poissons Ratio (x) = 0.34053 0.04820
# Poissons Ratio (y) = 0.29061 -0.03917
# Poissons Ratio (z) = 0.06471 -0.06161
#
# Static dielectric constant tensor:
#      x y z
#    x 1.968740 0.000000 0.000000 
#    y 0.000000 1.988740 0.000000 
#    z 0.000000 0.000000 2.033780 
# 
# From -- ./inp_files/1124.got.cif
#   From: 2010.05.17/outbox.cif.g08.bks.cpg/sg19_1_cif.got.tgz:1124.got - 2010.06.03 22:46:19.
