data_PCOD9315636
_publ_section_title
;
Structure prediction by ZEFSAII (Michael W. Deem and Ramdas Pophale) SiO2 
 PCOD9315636
Probable space group: P 21 21 21
;
_chemical_formula_sum "Si O2"
_cell_formula_units_Z 32
_cell_length_a 13.859075
_cell_length_b 9.236998
_cell_length_c 10.475483
_cell_angle_alpha 90.000000
_cell_angle_beta 90.000000
_cell_angle_gamma 90.000000
_cell_volume 1341.032030
_symmetry_space_group_name_H-M "P 21 21 21"
_symmetry_group_IT_number 19
_symmetry_cell_setting 'orthorhombic'
loop_
_space_group_symop_operation_xyz
x,y,z
1/2-x,-y,1/2+z
1/2+x,1/2-y,-z
-x,1/2+y,1/2-z
loop_
_atom_site_type_symbol
_atom_site_label
_atom_site_fract_x
_atom_site_fract_y
_atom_site_fract_z
Si Si1 0.272044 0.412951 0.155234
Si Si2 0.951048 0.180531 0.200711
Si Si3 0.700953 0.657777 0.519466
Si Si4 0.458327 0.524244 0.287574
Si Si5 0.882340 0.669730 0.692649
Si Si6 0.096187 0.370772 0.329754
Si Si7 0.309519 0.824809 0.028111
Si Si8 0.362224 0.369558 0.518991
O O1 0.369979 0.490817 0.192842
O O2 0.200601 0.415135 0.275476
O O3 0.214726 0.501024 0.046343
O O4 0.294634 0.252041 0.108575
O O5 0.873325 0.262971 0.114539
O O6 0.913150 0.160758 0.345913
O O7 0.045828 0.276877 0.218557
O O8 0.962988 0.017927 0.147738
O O9 0.807660 0.660102 0.578799
O O10 0.673035 0.491897 0.501910
O O11 0.554892 0.471625 0.220405
O O12 0.452436 0.692221 0.324272
O O13 0.434887 0.424221 0.410898
O O14 0.820163 0.695416 0.820988
O O15 0.113985 0.272969 0.452370
O O16 0.203375 0.769466 0.987029
#
# Coordination Sequence:
#
# PCOD9315636 Si02
#       8
#     4   4   4   4   4   4   4   4
#     4  11  24  45  71  96 136 190 226 288 351 415
#     4  11  24  45  71 101 141 179 232 291 352 412
#     4  12  27  45  71  99 143 183 238 288 346 418
#     4  12  26  46  74 103 147 185 239 289 366 416
#     4  12  28  48  70 107 143 187 234 298 350 431
#     4  11  24  43  71 103 136 180 230 286 350 414
#     4  12  25  43  74  98 138 183 237 284 354 412
#     4  11  22  47  72  95 134 187 226 290 351 420
#
# _framework density 23.862220000000001
#
# number of rings (size 3 to 8) (size 9 to 14) (size 15 to 20)
#    0.000    0.500    5.000    3.000    5.250    3.000 
#    0.000    0.000    0.000    0.000    0.000    0.000 
#    0.000    0.000    0.000    0.000    0.000    0.000 
#
# Total GULP energy -179362.163919 kJ/mol
# GULP energy per Si atom -5605.067622 kJ/mol
# Density = 2.380791 g / cm^3
# Si number density = 23.862220 Si / 1000 Ang^3
#
#
#
# Elastic Constant Matrix: (Units=GPa)
#
#
# Indices 1 2 3 4 5 6 
#
# 1 45.6999 -2.7712 -3.2329 0.0000 0.0000 0.0000
# 2 -2.7712 134.8464 9.5944 0.0000 0.0000 0.0000
# 3 -3.2329 9.5944 43.6625 0.0000 0.0000 0.0000
# 4 0.0000 0.0000 0.0000 30.6667 0.0000 0.0000
# 5 0.0000 0.0000 0.0000 0.0000 20.7611 0.0000
# 6 0.0000 0.0000 0.0000 0.0000 0.0000 32.0116
#
#
#
# Elastic Compliance Matrix: (Units=1/GPa)
#
#
# Indices 1 2 3 4 5 6 
#
# 1 0.022013 0.000342 0.001555 0.000000 0.000000 0.000000
# 2 0.000342 0.007539 -0.001631 0.000000 0.000000 0.000000
# 3 0.001555 -0.001631 0.023377 0.000000 0.000000 0.000000
# 4 0.000000 0.000000 0.000000 0.032609 0.000000 0.000000
# 5 0.000000 0.000000 0.000000 0.000000 0.048167 0.000000
# 6 0.000000 0.000000 0.000000 0.000000 0.000000 0.031239
#
#
# Mechanical properties :
#
#
# Convention : Reuss Voigt Hill
#
# Bulk Modulus (GPa) = 18.70611 25.70995 22.20803
# Shear Modulus (GPa) = 27.43764 31.39579 29.41672
#
# Velocity S-wave (km/s) = 3.39460 3.63121 3.51490
# Velocity P-wave (km/s) = 4.81878 5.32716 5.07933
#
# Compressibility (1/GPa) = 0.05345848
#
# Stress axis : x y z
#
# Youngs Moduli (GPa) = 45.42858 132.64474 42.77790
#
# Poissons Ratio (x) = -0.04533 -0.06651
# Poissons Ratio (y) = -0.01553 0.06978
# Poissons Ratio (z) = -0.07063 0.21638
#
# Static dielectric constant tensor:
#      x y z
#    x 1.906720 0.000000 0.000000 
#    y 0.000000 1.910740 0.000000 
#    z 0.000000 0.000000 1.882020 
# 
# From -- ./inp_files/3980.got.cif
#   From: 2010.05.17/outbox.cif.g08.bks.cpg/sg19_2_cif.got.tgz:3980.got - 2010.06.03 22:46:19.
