data_PCOD9315788
_publ_section_title
;
Structure prediction by ZEFSAII (Michael W. Deem and Ramdas Pophale) SiO2 
 PCOD9315788
Probable space group: P 21 21 21
;
_chemical_formula_sum "Si O2"
_cell_formula_units_Z 24
_cell_length_a 17.931387
_cell_length_b 10.581232
_cell_length_c 5.040212
_cell_angle_alpha 90.000000
_cell_angle_beta 90.000000
_cell_angle_gamma 90.000000
_cell_volume 956.310500
_symmetry_space_group_name_H-M "P 21 21 21"
_symmetry_group_IT_number 19
_symmetry_cell_setting 'orthorhombic'
loop_
_space_group_symop_operation_xyz
x,y,z
1/2-x,-y,1/2+z
1/2+x,1/2-y,-z
-x,1/2+y,1/2-z
loop_
_atom_site_type_symbol
_atom_site_label
_atom_site_fract_x
_atom_site_fract_y
_atom_site_fract_z
Si Si1 0.350370 0.570337 0.755552
Si Si2 0.941664 0.476873 0.753823
Si Si3 0.209309 0.956741 0.445301
Si Si4 0.299241 0.318355 0.063810
Si Si5 0.574119 0.873341 0.081997
Si Si6 0.509837 0.667576 0.760109
O O1 0.280208 0.657866 0.698973
O O2 0.379920 0.498542 0.493479
O O3 0.423807 0.645993 0.846347
O O4 0.322428 0.450982 0.929101
O O5 0.863587 0.505499 0.895569
O O6 0.942950 0.422803 0.457982
O O7 0.000642 0.591186 0.756223
O O8 0.978179 0.376530 0.961037
O O9 0.203841 0.806545 0.385646
O O10 0.227497 0.026024 0.172063
O O11 0.364530 0.290028 0.272619
O O12 0.541780 0.805209 0.822284
#
# Coordination Sequence:
#
# PCOD9315788 Si02
#       6
#     4   4   4   4   4   4
#     4  11  25  44  72 112 141 192 246 298 380 427
#     4  11  24  46  69  99 136 183 245 278 359 425
#     4  12  29  49  70 106 148 197 242 298 369 438
#     4  12  24  45  74 105 150 191 241 313 361 443
#     4  11  24  44  72 100 147 186 234 306 358 439
#     4  11  24  44  71 104 138 187 234 293 357 430
#
# _framework density 25.096454000000001
#
# number of rings (size 3 to 8) (size 9 to 14) (size 15 to 20)
#    0.000    0.667    5.000    2.000    4.667    0.000 
#    6.000    0.000    0.000    0.000    0.000    0.000 
#    0.000    0.000    0.000    0.000    0.000    0.000 
#
# Total GULP energy -134308.448379 kJ/mol
# GULP energy per Si atom -5596.185349 kJ/mol
# Density = 2.503933 g / cm^3
# Si number density = 25.096454 Si / 1000 Ang^3
#
#
#
# Elastic Constant Matrix: (Units=GPa)
#
#
# Indices 1 2 3 4 5 6 
#
# 1 151.8995 27.5489 8.2625 0.0000 0.0000 0.0000
# 2 27.5489 70.5151 20.4669 0.0000 0.0000 0.0000
# 3 8.2625 20.4669 75.7770 0.0000 0.0000 0.0000
# 4 0.0000 0.0000 0.0000 43.2574 0.0000 0.0000
# 5 0.0000 0.0000 0.0000 0.0000 36.8472 0.0000
# 6 0.0000 0.0000 0.0000 0.0000 0.0000 38.8196
#
#
#
# Elastic Compliance Matrix: (Units=1/GPa)
#
#
# Indices 1 2 3 4 5 6 
#
# 1 0.007085 -0.002760 -0.000027 0.000000 0.000000 0.000000
# 2 -0.002760 0.016463 -0.004146 0.000000 0.000000 0.000000
# 3 -0.000027 -0.004146 0.014319 0.000000 0.000000 0.000000
# 4 0.000000 0.000000 0.000000 0.023117 0.000000 0.000000
# 5 0.000000 0.000000 0.000000 0.000000 0.027139 0.000000
# 6 0.000000 0.000000 0.000000 0.000000 0.000000 0.025760
#
#
# Mechanical properties :
#
#
# Convention : Reuss Voigt Hill
#
# Bulk Modulus (GPa) = 41.66346 45.63868 43.65107
# Shear Modulus (GPa) = 36.83221 39.91240 38.37230
#
# Velocity S-wave (km/s) = 3.83512 3.99226 3.91448
# Velocity P-wave (km/s) = 6.02065 6.28296 6.15320
#
# Compressibility (1/GPa) = 0.02400185
#
# Stress axis : x y z
#
# Youngs Moduli (GPa) = 141.13565 60.74230 69.83598
#
# Poissons Ratio (x) = 0.16767 0.00189
# Poissons Ratio (y) = 0.38957 0.28951
# Poissons Ratio (z) = 0.00382 0.25181
#
# Static dielectric constant tensor:
#      x y z
#    x 1.998530 0.000000 0.000000 
#    y 0.000000 1.989550 0.000000 
#    z 0.000000 0.000000 1.964730 
# 
# From -- ./inp_files/948.got.cif
#   From: 2010.05.17/outbox.cif.g08.bks.cpg/sg19_1_cif.got.tgz:948.got - 2010.06.03 22:46:19.
