data_PCOD9315012
_publ_section_title
;
Structure prediction by ZEFSAII (Michael W. Deem and Ramdas Pophale) SiO2 
 PCOD9315012
Probable space group: P 21 21 21
;
_chemical_formula_sum "Si O2"
_cell_formula_units_Z 20
_cell_length_a 11.520947
_cell_length_b 5.256086
_cell_length_c 12.916397
_cell_angle_alpha 90.000000
_cell_angle_beta 90.000000
_cell_angle_gamma 90.000000
_cell_volume 782.153560
_symmetry_space_group_name_H-M "P 21 21 21"
_symmetry_group_IT_number 19
_symmetry_cell_setting 'orthorhombic'
loop_
_space_group_symop_operation_xyz
x,y,z
1/2-x,-y,1/2+z
1/2+x,1/2-y,-z
-x,1/2+y,1/2-z
loop_
_atom_site_type_symbol
_atom_site_label
_atom_site_fract_x
_atom_site_fract_y
_atom_site_fract_z
Si Si1 0.834322 0.206994 0.445806
Si Si2 0.947904 0.920933 0.618448
Si Si3 0.254640 0.746547 0.845905
Si Si4 0.170763 0.122868 0.709295
Si Si5 0.014807 0.510067 0.314693
O O1 0.895684 0.967167 0.503389
O O2 0.761156 0.342272 0.537327
O O3 0.741228 0.162781 0.354707
O O4 0.934567 0.392279 0.404612
O O5 0.873091 0.138472 0.676912
O O6 0.081806 0.984626 0.631789
O O7 0.904186 0.688946 0.688036
O O8 0.351575 0.530642 0.849288
O O9 0.272724 0.948133 0.756321
O O10 0.996779 0.798299 0.277698
#
# Coordination Sequence:
#
# PCOD9315012 Si02
#       5
#     4   4   4   4   4
#     4  10  24  43  66 100 139 178 238 286 347 430
#     4  10  23  40  68  97 129 185 231 285 364 411
#     4  10  24  41  68 100 133 185 233 281 360 415
#     4  12  20  46  66  96 142 175 234 300 344 432
#     4  12  25  46  70 103 145 189 232 296 361 416
#
# _framework density 25.570426999999999
#
# number of rings (size 3 to 8) (size 9 to 14) (size 15 to 20)
#    1.200    0.000    4.000    2.400    0.000    1.600 
#    3.600    0.000    0.000    0.000    0.000    0.000 
#    0.000    0.000    0.000    0.000    0.000    0.000 
#
# Total GULP energy -111449.655148 kJ/mol
# GULP energy per Si atom -5572.482757 kJ/mol
# Density = 2.551223 g / cm^3
# Si number density = 25.570427 Si / 1000 Ang^3
#
#
#
# Elastic Constant Matrix: (Units=GPa)
#
#
# Indices 1 2 3 4 5 6 
#
# 1 81.7637 3.9492 25.3600 0.0000 0.0000 0.0000
# 2 3.9492 47.0004 3.4677 0.0000 0.0000 0.0000
# 3 25.3600 3.4677 88.9796 0.0000 0.0000 0.0000
# 4 0.0000 0.0000 0.0000 35.3003 0.0000 0.0000
# 5 0.0000 0.0000 0.0000 0.0000 55.5172 0.0000
# 6 0.0000 0.0000 0.0000 0.0000 0.0000 31.3652
#
#
#
# Elastic Compliance Matrix: (Units=1/GPa)
#
#
# Indices 1 2 3 4 5 6 
#
# 1 0.013450 -0.000850 -0.003800 0.000000 0.000000 0.000000
# 2 -0.000850 0.021391 -0.000591 0.000000 0.000000 0.000000
# 3 -0.003800 -0.000591 0.012345 0.000000 0.000000 0.000000
# 4 0.000000 0.000000 0.000000 0.028328 0.000000 0.000000
# 5 0.000000 0.000000 0.000000 0.000000 0.018012 0.000000
# 6 0.000000 0.000000 0.000000 0.000000 0.000000 0.031882
#
#
# Mechanical properties :
#
#
# Convention : Reuss Voigt Hill
#
# Bulk Modulus (GPa) = 27.24556 31.47750 29.36153
# Shear Modulus (GPa) = 33.75480 36.76764 35.26122
#
# Velocity S-wave (km/s) = 3.63722 3.79608 3.71750
# Velocity P-wave (km/s) = 5.32141 5.61698 5.47119
#
# Compressibility (1/GPa) = 0.03670323
#
# Stress axis : x y z
#
# Youngs Moduli (GPa) = 74.34881 46.74762 81.00640
#
# Poissons Ratio (x) = 0.03972 0.30785
# Poissons Ratio (y) = 0.06318 0.04791
# Poissons Ratio (z) = 0.28255 0.02765
#
# Static dielectric constant tensor:
#      x y z
#    x 1.959440 0.000000 0.000000 
#    y 0.000000 2.108450 0.000000 
#    z 0.000000 0.000000 2.086940 
# 
# From -- ./inp_files/4417.got.cif
#   From: 2010.05.17/outbox.cif.g08.bks.cpg/sg19_3_cif.got.tgz:4417.got - 2010.06.03 22:46:19.
