data_PCOD9315316
_publ_section_title
;
Structure prediction by ZEFSAII (Michael W. Deem and Ramdas Pophale) SiO2 
 PCOD9315316
Probable space group: P 21 21 21
;
_chemical_formula_sum "Si O2"
_cell_formula_units_Z 28
_cell_length_a 5.131876
_cell_length_b 16.204093
_cell_length_c 13.298642
_cell_angle_alpha 90.000000
_cell_angle_beta 90.000000
_cell_angle_gamma 90.000000
_cell_volume 1105.880439
_symmetry_space_group_name_H-M "P 21 21 21"
_symmetry_group_IT_number 19
_symmetry_cell_setting 'orthorhombic'
loop_
_space_group_symop_operation_xyz
x,y,z
1/2-x,-y,1/2+z
1/2+x,1/2-y,-z
-x,1/2+y,1/2-z
loop_
_atom_site_type_symbol
_atom_site_label
_atom_site_fract_x
_atom_site_fract_y
_atom_site_fract_z
Si Si1 0.870344 0.423439 0.606393
Si Si2 0.524851 0.198352 0.022962
Si Si3 0.129580 0.576554 0.606352
Si Si4 0.000008 0.500012 0.269698
Si Si5 0.975225 0.698325 0.977075
Si Si6 0.282021 0.839448 0.229875
Si Si7 0.717895 0.160589 0.229919
O O1 0.726954 0.468930 0.697331
O O2 0.653199 0.374511 0.543531
O O3 0.999861 0.500002 0.546229
O O4 0.074936 0.366806 0.667582
O O5 0.653452 0.125518 0.956559
O O6 0.242726 0.230592 0.992727
O O7 0.515779 0.175244 0.139983
O O8 0.273341 0.531029 0.697173
O O9 0.925049 0.633140 0.667644
O O10 0.895449 0.413765 0.313493
O O11 0.104773 0.586244 0.313461
O O12 0.984144 0.675172 0.860066
O O13 0.757316 0.769366 0.992770
O O14 0.149030 0.750013 0.249983
#
# Coordination Sequence:
#
# PCOD9315316 Si02
#       7
#     4   4   4   4   4   4   4
#     4  10  24  46  67 106 145 194 247 310 370 443
#     4  12  27  46  75 111 144 197 252 303 372 449
#     4  10  24  46  67 106 145 194 247 310 370 443
#     4  10  24  44  72 102 146 192 246 308 374 432
#     4  12  27  46  75 111 144 197 252 303 372 449
#     4  11  23  45  72 105 148 196 243 310 368 440
#     4  11  23  45  72 105 148 196 243 310 368 440
#
# _framework density 25.319189999999999
#
# number of rings (size 3 to 8) (size 9 to 14) (size 15 to 20)
#    0.000    1.143    2.857    1.714   10.000    1.143 
#    7.714    0.000    0.000    0.000    0.000    0.000 
#    0.000    0.000    0.000    0.000    0.000    0.000 
#
# Total GULP energy -156412.422812 kJ/mol
# GULP energy per Si atom -5586.157958 kJ/mol
# Density = 2.526156 g / cm^3
# Si number density = 25.319190 Si / 1000 Ang^3
#
#
#
# Elastic Constant Matrix: (Units=GPa)
#
#
# Indices 1 2 3 4 5 6 
#
# 1 32.4672 4.7043 9.2964 0.0000 0.0000 0.0000
# 2 4.7043 148.5000 26.8134 0.0000 0.0000 0.0000
# 3 9.2964 26.8134 72.2913 0.0000 0.0000 0.0000
# 4 0.0000 0.0000 0.0000 17.3672 0.0000 0.0000
# 5 0.0000 0.0000 0.0000 0.0000 9.7048 0.0000
# 6 0.0000 0.0000 0.0000 0.0000 0.0000 38.2386
#
#
#
# Elastic Compliance Matrix: (Units=1/GPa)
#
#
# Indices 1 2 3 4 5 6 
#
# 1 0.031989 -0.000290 -0.004006 0.000000 0.000000 0.000000
# 2 -0.000290 0.007220 -0.002641 0.000000 0.000000 0.000000
# 3 -0.004006 -0.002641 0.015328 0.000000 0.000000 0.000000
# 4 0.000000 0.000000 0.000000 0.057580 0.000000 0.000000
# 5 0.000000 0.000000 0.000000 0.000000 0.103042 0.000000
# 6 0.000000 0.000000 0.000000 0.000000 0.000000 0.026152
#
#
# Mechanical properties :
#
#
# Convention : Reuss Voigt Hill
#
# Bulk Modulus (GPa) = 24.59221 37.20963 30.90092
# Shear Modulus (GPa) = 18.60546 27.22509 22.91528
#
# Velocity S-wave (km/s) = 2.71373 3.28270 3.01168
# Velocity P-wave (km/s) = 4.42188 5.39409 4.93200
#
# Compressibility (1/GPa) = 0.04066328
#
# Stress axis : x y z
#
# Youngs Moduli (GPa) = 31.26037 138.50428 65.24209
#
# Poissons Ratio (x) = 0.04017 0.26137
# Poissons Ratio (y) = 0.00907 0.17228
# Poissons Ratio (z) = 0.12523 0.36574
#
# Static dielectric constant tensor:
#      x y z
#    x 2.061990 0.000000 0.000000 
#    y 0.000000 2.232080 0.000000 
#    z 0.000000 0.000000 1.965230 
# 
# From -- ./inp_files/5712.got.cif
#   From: 2010.05.17/outbox.cif.g08.bks.cpg/sg19_3_cif.got.tgz:5712.got - 2010.06.03 22:46:19.
