data_PCOD9315017
_publ_section_title
;
Structure prediction by ZEFSAII (Michael W. Deem and Ramdas Pophale) SiO2 
 PCOD9315017
Probable space group: P 21 21 21
;
_chemical_formula_sum "Si O2"
_cell_formula_units_Z 24
_cell_length_a 12.237507
_cell_length_b 11.756033
_cell_length_c 6.579084
_cell_angle_alpha 90.000000
_cell_angle_beta 90.000000
_cell_angle_gamma 90.000000
_cell_volume 946.496868
_symmetry_space_group_name_H-M "P 21 21 21"
_symmetry_group_IT_number 19
_symmetry_cell_setting 'orthorhombic'
loop_
_space_group_symop_operation_xyz
x,y,z
1/2-x,-y,1/2+z
1/2+x,1/2-y,-z
-x,1/2+y,1/2-z
loop_
_atom_site_type_symbol
_atom_site_label
_atom_site_fract_x
_atom_site_fract_y
_atom_site_fract_z
Si Si1 0.106980 0.550932 0.567440
Si Si2 0.962447 0.909867 0.560905
Si Si3 0.188385 0.942376 0.676238
Si Si4 0.909078 0.678761 0.364840
Si Si5 0.308606 0.405488 0.478170
Si Si6 0.785363 0.680475 0.970247
O O1 0.054236 0.448868 0.704599
O O2 0.209018 0.494158 0.455159
O O3 0.156464 0.630381 0.748847
O O4 0.018410 0.616327 0.436917
O O5 0.905556 0.795515 0.490753
O O6 0.909303 0.017948 0.448390
O O7 0.091430 0.900817 0.531435
O O8 0.306187 0.902779 0.598573
O O9 0.191472 0.879582 0.891934
O O10 0.177745 0.078820 0.673859
O O11 0.732887 0.797725 0.897388
O O12 0.886277 0.707244 0.125505
#
# Coordination Sequence:
#
# PCOD9315017 Si02
#       6
#     4   4   4   4   4   4
#     4  10  23  41  70  98 137 176 239 271 356 403
#     4  10  23  40  75  94 138 180 225 284 348 400
#     4  10  23  45  67 102 130 188 225 284 356 402
#     4  10  23  42  69  99 140 180 221 295 337 413
#     4  10  23  43  68 102 132 182 228 289 336 422
#     4  10  23  43  67  95 143 164 244 279 341 412
#
# _framework density 25.356660999999999
#
# number of rings (size 3 to 8) (size 9 to 14) (size 15 to 20)
#    2.000    0.000    0.000    3.000    2.333    5.333 
#    3.000    0.000    0.000    0.000    0.000    0.000 
#    0.000    0.000    0.000    0.000    0.000    0.000 
#
# Total GULP energy -133914.667457 kJ/mol
# GULP energy per Si atom -5579.777811 kJ/mol
# Density = 2.529895 g / cm^3
# Si number density = 25.356661 Si / 1000 Ang^3
#
#
#
# Elastic Constant Matrix: (Units=GPa)
#
#
# Indices 1 2 3 4 5 6 
#
# 1 78.2759 16.4796 -0.0857 0.0000 0.0000 0.0000
# 2 16.4796 128.4468 5.6779 0.0000 0.0000 0.0000
# 3 -0.0857 5.6779 48.8993 0.0000 0.0000 0.0000
# 4 0.0000 0.0000 0.0000 28.9496 0.0000 0.0000
# 5 0.0000 0.0000 0.0000 0.0000 8.8667 0.0000
# 6 0.0000 0.0000 0.0000 0.0000 0.0000 32.1577
#
#
#
# Elastic Compliance Matrix: (Units=1/GPa)
#
#
# Indices 1 2 3 4 5 6 
#
# 1 0.013132 -0.001695 0.000220 0.000000 0.000000 0.000000
# 2 -0.001695 0.008044 -0.000937 0.000000 0.000000 0.000000
# 3 0.000220 -0.000937 0.020559 0.000000 0.000000 0.000000
# 4 0.000000 0.000000 0.000000 0.034543 0.000000 0.000000
# 5 0.000000 0.000000 0.000000 0.000000 0.112781 0.000000
# 6 0.000000 0.000000 0.000000 0.000000 0.000000 0.031097
#
#
# Mechanical properties :
#
#
# Convention : Reuss Voigt Hill
#
# Bulk Modulus (GPa) = 27.09129 33.30728 30.19929
# Shear Modulus (GPa) = 21.07177 29.56482 25.31829
#
# Velocity S-wave (km/s) = 2.88586 3.41832 3.16331
# Velocity P-wave (km/s) = 4.67028 5.36133 5.02770
#
# Compressibility (1/GPa) = 0.03691223
#
# Stress axis : x y z
#
# Youngs Moduli (GPa) = 76.14793 124.31386 48.63966
#
# Poissons Ratio (x) = 0.21066 -0.01069
# Poissons Ratio (y) = 0.12904 0.04558
# Poissons Ratio (z) = -0.01674 0.11648
#
# Static dielectric constant tensor:
#      x y z
#    x 2.012220 0.000000 0.000000 
#    y 0.000000 1.953110 0.000000 
#    z 0.000000 0.000000 2.105000 
# 
# From -- ./inp_files/4962.got.cif
#   From: 2010.05.17/outbox.cif.g08.bks.cpg/sg19_3_cif.got.tgz:4962.got - 2010.06.03 22:46:19.
