data_PCOD9315597
_publ_section_title
;
Structure prediction by ZEFSAII (Michael W. Deem and Ramdas Pophale) SiO2 
 PCOD9315597
Probable space group: P 21 21 21
;
_chemical_formula_sum "Si O2"
_cell_formula_units_Z 32
_cell_length_a 7.932260
_cell_length_b 13.395744
_cell_length_c 12.360570
_cell_angle_alpha 90.000000
_cell_angle_beta 90.000000
_cell_angle_gamma 90.000000
_cell_volume 1313.415928
_symmetry_space_group_name_H-M "P 21 21 21"
_symmetry_group_IT_number 19
_symmetry_cell_setting 'orthorhombic'
loop_
_space_group_symop_operation_xyz
x,y,z
1/2-x,-y,1/2+z
1/2+x,1/2-y,-z
-x,1/2+y,1/2-z
loop_
_atom_site_type_symbol
_atom_site_label
_atom_site_fract_x
_atom_site_fract_y
_atom_site_fract_z
Si Si1 0.950843 0.977170 0.620411
Si Si2 0.204041 0.043701 0.000327
Si Si3 0.524550 0.696317 0.236818
Si Si4 0.448502 0.343106 0.635244
Si Si5 0.803638 0.941181 0.414427
Si Si6 0.951507 0.603617 0.699669
Si Si7 0.191061 0.823443 0.987857
Si Si8 0.610090 0.278778 0.851833
O O1 0.106502 0.948094 0.543749
O O2 0.948710 0.906771 0.723726
O O3 0.794408 0.966284 0.542360
O O4 0.001470 0.079797 0.676192
O O5 0.108776 0.138258 0.053229
O O6 0.190227 0.048210 0.869774
O O7 0.145600 0.932943 0.035263
O O8 0.412492 0.780556 0.292450
O O9 0.562524 0.697149 0.110736
O O10 0.707174 0.709267 0.293909
O O11 0.386051 0.457704 0.633220
O O12 0.325814 0.266257 0.572667
O O13 0.625278 0.335069 0.568193
O O14 0.481352 0.306059 0.756749
O O15 0.620505 0.921251 0.365994
O O16 0.898285 0.835441 0.392463
#
# Coordination Sequence:
#
# PCOD9315597 Si02
#       8
#     4   4   4   4   4   4   4   4
#     4  11  22  43  69  98 137 181 230 292 344 421
#     4  11  23  43  71 100 137 185 239 286 355 421
#     4   9  20  41  66  94 136 173 231 281 356 404
#     4  11  25  43  69 101 143 185 239 293 355 422
#     4  11  24  45  67 101 139 182 236 294 358 424
#     4  11  24  43  69 100 138 188 222 297 355 416
#     4  11  23  43  67 103 138 192 233 295 346 433
#     4   9  23  43  68  99 136 178 232 300 345 421
#
# _framework density 24.363951
#
# number of rings (size 3 to 8) (size 9 to 14) (size 15 to 20)
#    0.000    1.500    2.500    1.500    3.500    1.000 
#    0.000    0.000    0.000    0.000    0.000    0.000 
#    0.000    0.000    0.000    0.000    0.000    0.000 
#
# Total GULP energy -178859.108419 kJ/mol
# GULP energy per Si atom -5589.347138 kJ/mol
# Density = 2.430850 g / cm^3
# Si number density = 24.363951 Si / 1000 Ang^3
#
#
#
# Elastic Constant Matrix: (Units=GPa)
#
#
# Indices 1 2 3 4 5 6 
#
# 1 70.8917 21.9698 28.9356 0.0000 0.0000 0.0000
# 2 21.9698 165.7353 27.6934 0.0000 0.0000 0.0000
# 3 28.9356 27.6934 102.0319 0.0000 0.0000 0.0000
# 4 0.0000 0.0000 0.0000 24.9332 0.0000 0.0000
# 5 0.0000 0.0000 0.0000 0.0000 40.3752 0.0000
# 6 0.0000 0.0000 0.0000 0.0000 0.0000 25.8652
#
#
#
# Elastic Compliance Matrix: (Units=1/GPa)
#
#
# Indices 1 2 3 4 5 6 
#
# 1 0.016280 -0.001452 -0.004223 0.000000 0.000000 0.000000
# 2 -0.001452 0.006450 -0.001339 0.000000 0.000000 0.000000
# 3 -0.004223 -0.001339 0.011362 0.000000 0.000000 0.000000
# 4 0.000000 0.000000 0.000000 0.040107 0.000000 0.000000
# 5 0.000000 0.000000 0.000000 0.000000 0.024768 0.000000
# 6 0.000000 0.000000 0.000000 0.000000 0.000000 0.038662
#
#
# Mechanical properties :
#
#
# Convention : Reuss Voigt Hill
#
# Bulk Modulus (GPa) = 49.84108 55.09520 52.46814
# Shear Modulus (GPa) = 31.57689 35.57205 33.57447
#
# Velocity S-wave (km/s) = 3.60397 3.82518 3.71622
# Velocity P-wave (km/s) = 6.14975 6.49398 6.32421
#
# Compressibility (1/GPa) = 0.02006377
#
# Stress axis : x y z
#
# Youngs Moduli (GPa) = 61.42633 155.03996 88.01489
#
# Poissons Ratio (x) = 0.22519 0.37165
# Poissons Ratio (y) = 0.08922 0.11783
# Poissons Ratio (z) = 0.25938 0.20756
#
# Static dielectric constant tensor:
#      x y z
#    x 1.991260 0.000000 0.000000 
#    y 0.000000 1.933010 0.000000 
#    z 0.000000 0.000000 1.961370 
# 
# From -- ./inp_files/4676.got.cif
#   From: 2010.05.17/outbox.cif.g08.bks.cpg/sg19_3_cif.got.tgz:4676.got - 2010.06.03 22:46:19.
