data_PCOD9315816
_publ_section_title
;
Structure prediction by ZEFSAII (Michael W. Deem and Ramdas Pophale) SiO2 
 PCOD9315816
Probable space group: P 21 21 21
;
_chemical_formula_sum "Si O2"
_cell_formula_units_Z 32
_cell_length_a 11.861371
_cell_length_b 15.255939
_cell_length_c 8.968514
_cell_angle_alpha 90.000000
_cell_angle_beta 90.000000
_cell_angle_gamma 90.000000
_cell_volume 1622.909580
_symmetry_space_group_name_H-M "P 21 21 21"
_symmetry_group_IT_number 19
_symmetry_cell_setting 'orthorhombic'
loop_
_space_group_symop_operation_xyz
x,y,z
1/2-x,-y,1/2+z
1/2+x,1/2-y,-z
-x,1/2+y,1/2-z
loop_
_atom_site_type_symbol
_atom_site_label
_atom_site_fract_x
_atom_site_fract_y
_atom_site_fract_z
Si Si1 0.729241 0.608048 0.896736
Si Si2 0.466829 0.793433 0.108314
Si Si3 0.291283 0.070746 0.256989
Si Si4 0.117960 0.187979 0.083084
Si Si5 0.573835 0.758598 0.794281
Si Si6 0.941949 0.091786 0.877735
Si Si7 0.253553 0.660869 0.418348
Si Si8 0.039614 0.400308 0.748513
O O1 0.841891 0.666901 0.902414
O O2 0.755612 0.525304 0.794088
O O3 0.628741 0.665389 0.830109
O O4 0.700927 0.579035 0.065011
O O5 0.535285 0.851109 0.228968
O O6 0.458024 0.692327 0.161302
O O7 0.527490 0.796667 0.949000
O O8 0.199460 0.137842 0.195302
O O9 0.413318 0.092531 0.187272
O O10 0.028166 0.244759 0.176680
O O11 0.192470 0.248680 0.976695
O O12 0.043677 0.120430 0.987042
O O13 0.670941 0.818019 0.719707
O O14 0.945210 0.988596 0.846617
O O15 0.825091 0.119468 0.954741
O O16 0.359214 0.603350 0.366566
#
# Coordination Sequence:
#
# PCOD9315816 Si02
#       8
#     4   4   4   4   4   4   4   4
#     4  12  25  44  70 105 143 185 229 301 348 431
#     4  12  23  47  69 104 144 185 233 293 358 416
#     4  12  26  42  71 107 139 186 242 291 357 423
#     4  11  24  46  71 105 136 187 239 292 357 422
#     4  11  25  44  73 102 136 187 233 286 363 420
#     4  11  25  47  71 103 143 183 240 294 347 432
#     4  11  26  46  71  99 142 191 229 298 350 421
#     4  12  24  44  70 101 143 188 233 289 358 413
#
# _framework density 19.717672
#
# number of rings (size 3 to 8) (size 9 to 14) (size 15 to 20)
#    0.000    0.500    6.250    1.500    3.500    1.000 
#    2.250    0.000    0.000    0.000    0.000    0.000 
#    0.000    0.000    0.000    0.000    0.000    0.000 
#
# Total GULP energy -178996.232550 kJ/mol
# GULP energy per Si atom -5593.632267 kJ/mol
# Density = 1.967279 g / cm^3
# Si number density = 19.717672 Si / 1000 Ang^3
#
#
#
# Elastic Constant Matrix: (Units=GPa)
#
#
# Indices 1 2 3 4 5 6 
#
# 1 126.1933 52.8334 33.9868 0.0000 0.0000 0.0000
# 2 52.8334 122.4403 39.0196 0.0000 0.0000 0.0000
# 3 33.9868 39.0196 81.6510 0.0000 0.0000 0.0000
# 4 0.0000 0.0000 0.0000 23.1580 0.0000 0.0000
# 5 0.0000 0.0000 0.0000 0.0000 38.5109 0.0000
# 6 0.0000 0.0000 0.0000 0.0000 0.0000 27.6248
#
#
#
# Elastic Compliance Matrix: (Units=1/GPa)
#
#
# Indices 1 2 3 4 5 6 
#
# 1 0.010086 -0.003556 -0.002499 0.000000 0.000000 0.000000
# 2 -0.003556 0.010888 -0.003723 0.000000 0.000000 0.000000
# 3 -0.002499 -0.003723 0.015067 0.000000 0.000000 0.000000
# 4 0.000000 0.000000 0.000000 0.043182 0.000000 0.000000
# 5 0.000000 0.000000 0.000000 0.000000 0.025967 0.000000
# 6 0.000000 0.000000 0.000000 0.000000 0.000000 0.036199
#
#
# Mechanical properties :
#
#
# Convention : Reuss Voigt Hill
#
# Bulk Modulus (GPa) = 60.66147 64.66269 62.66208
# Shear Modulus (GPa) = 30.04096 31.48839 30.76468
#
# Velocity S-wave (km/s) = 3.90751 4.00054 3.95430
# Velocity P-wave (km/s) = 7.15472 7.36237 7.25929
#
# Compressibility (1/GPa) = 0.01648493
#
# Stress axis : x y z
#
# Youngs Moduli (GPa) = 99.14632 91.84349 66.37156
#
# Poissons Ratio (x) = 0.32658 0.16586
# Poissons Ratio (y) = 0.35254 0.24711
# Poissons Ratio (z) = 0.24777 0.34195
#
# Static dielectric constant tensor:
#      x y z
#    x 1.687580 0.000000 0.000000 
#    y 0.000000 1.669600 0.000000 
#    z 0.000000 0.000000 1.688450 
# 
# From -- ./inp_files/3652.got.cif
#   From: 2010.05.17/outbox.cif.g08.bks.cpg/sg19_2_cif.got.tgz:3652.got - 2010.06.03 22:46:19.
