data_PCOD9315344
_publ_section_title
;
Structure prediction by ZEFSAII (Michael W. Deem and Ramdas Pophale) SiO2 
 PCOD9315344
Probable space group: P 21 21 21
;
_chemical_formula_sum "Si O2"
_cell_formula_units_Z 28
_cell_length_a 12.483008
_cell_length_b 5.037657
_cell_length_c 16.683227
_cell_angle_alpha 90.000000
_cell_angle_beta 90.000000
_cell_angle_gamma 90.000000
_cell_volume 1049.126609
_symmetry_space_group_name_H-M "P 21 21 21"
_symmetry_group_IT_number 19
_symmetry_cell_setting 'orthorhombic'
loop_
_space_group_symop_operation_xyz
x,y,z
1/2-x,-y,1/2+z
1/2+x,1/2-y,-z
-x,1/2+y,1/2-z
loop_
_atom_site_type_symbol
_atom_site_label
_atom_site_fract_x
_atom_site_fract_y
_atom_site_fract_z
Si Si1 0.512379 0.860341 0.708259
Si Si2 0.468558 0.235551 0.455129
Si Si3 0.355896 0.477714 0.303779
Si Si4 0.282766 0.024438 0.836956
Si Si5 0.877231 0.919294 0.418467
Si Si6 0.667859 0.143163 0.372596
Si Si7 0.246305 0.962122 0.507253
O O1 0.465550 0.670616 0.779701
O O2 0.619663 0.688303 0.698952
O O3 0.433722 0.805714 0.634165
O O4 0.440914 0.373621 0.369497
O O5 0.466699 0.450051 0.526524
O O6 0.573643 0.062114 0.436530
O O7 0.364090 0.079659 0.486889
O O8 0.308323 0.748362 0.339577
O O9 0.382867 0.562372 0.212857
O O10 0.270968 0.234029 0.298635
O O11 0.314127 0.961202 0.927835
O O12 0.779437 0.838753 0.478001
O O13 0.795667 0.074842 0.359994
O O14 0.689527 0.435776 0.412118
#
# Coordination Sequence:
#
# PCOD9315344 Si02
#       7
#     4   4   4   4   4   4   4
#     4  12  27  43  72 108 145 190 242 298 361 431
#     4  10  24  46  70 103 142 191 243 297 363 444
#     4  11  25  46  72 105 148 184 244 296 367 435
#     4  11  23  48  70 101 146 195 232 298 365 429
#     4  11  24  47  69 105 143 190 249 299 361 448
#     4  11  25  43  72 103 143 191 239 309 370 424
#     4  10  24  45  71  99 141 189 245 297 361 439
#
# _framework density 26.688866000000001
#
# number of rings (size 3 to 8) (size 9 to 14) (size 15 to 20)
#    0.000    1.143    1.429    3.429    8.000    4.571 
#    0.000    0.000    0.000    0.000    0.000    0.000 
#    0.000    0.000    0.000    0.000    0.000    0.000 
#
# Total GULP energy -155932.549889 kJ/mol
# GULP energy per Si atom -5569.019639 kJ/mol
# Density = 2.662812 g / cm^3
# Si number density = 26.688866 Si / 1000 Ang^3
#
#
#
# Elastic Constant Matrix: (Units=GPa)
#
#
# Indices 1 2 3 4 5 6 
#
# 1 119.1806 20.1633 44.9101 0.0000 0.0000 0.0000
# 2 20.1633 67.1822 20.5675 0.0000 0.0000 0.0000
# 3 44.9101 20.5675 114.9656 0.0000 0.0000 0.0000
# 4 0.0000 0.0000 0.0000 24.4720 0.0000 0.0000
# 5 0.0000 0.0000 0.0000 0.0000 32.4706 0.0000
# 6 0.0000 0.0000 0.0000 0.0000 0.0000 17.5498
#
#
#
# Elastic Compliance Matrix: (Units=1/GPa)
#
#
# Indices 1 2 3 4 5 6 
#
# 1 0.010068 -0.001923 -0.003589 0.000000 0.000000 0.000000
# 2 -0.001923 0.016115 -0.002132 0.000000 0.000000 0.000000
# 3 -0.003589 -0.002132 0.010482 0.000000 0.000000 0.000000
# 4 0.000000 0.000000 0.000000 0.040863 0.000000 0.000000
# 5 0.000000 0.000000 0.000000 0.000000 0.030797 0.000000
# 6 0.000000 0.000000 0.000000 0.000000 0.000000 0.056981
#
#
# Mechanical properties :
#
#
# Convention : Reuss Voigt Hill
#
# Bulk Modulus (GPa) = 46.77913 52.51225 49.64569
# Shear Modulus (GPa) = 26.63555 29.27764 27.95660
#
# Velocity S-wave (km/s) = 3.16254 3.31569 3.24002
# Velocity P-wave (km/s) = 5.55889 5.86318 5.71306
#
# Compressibility (1/GPa) = 0.02137705
#
# Stress axis : x y z
#
# Youngs Moduli (GPa) = 99.32038 62.05522 95.40475
#
# Poissons Ratio (x) = 0.11934 0.34242
# Poissons Ratio (y) = 0.19100 0.20338
# Poissons Ratio (z) = 0.35647 0.13228
#
# Static dielectric constant tensor:
#      x y z
#    x 2.345310 0.000000 0.000000 
#    y 0.000000 2.335160 0.000000 
#    z 0.000000 0.000000 2.742490 
# 
# From -- ./inp_files/6705.got.cif
#   From: 2010.05.17/outbox.cif.g08.bks.cpg/sg19_4_cif.got.tgz:6705.got - 2010.06.03 22:46:19.
