data_PCOD9315051
_publ_section_title
;
Structure prediction by ZEFSAII (Michael W. Deem and Ramdas Pophale) SiO2 
 PCOD9315051
Probable space group: P 21 21 21
;
_chemical_formula_sum "Si O2"
_cell_formula_units_Z 32
_cell_length_a 12.639306
_cell_length_b 5.508300
_cell_length_c 19.263971
_cell_angle_alpha 90.000000
_cell_angle_beta 90.000000
_cell_angle_gamma 90.000000
_cell_volume 1341.178644
_symmetry_space_group_name_H-M "P 21 21 21"
_symmetry_group_IT_number 19
_symmetry_cell_setting 'orthorhombic'
loop_
_space_group_symop_operation_xyz
x,y,z
1/2-x,-y,1/2+z
1/2+x,1/2-y,-z
-x,1/2+y,1/2-z
loop_
_atom_site_type_symbol
_atom_site_label
_atom_site_fract_x
_atom_site_fract_y
_atom_site_fract_z
Si Si1 0.276444 0.766125 0.560182
Si Si2 0.027968 0.480732 0.014043
Si Si3 0.282255 0.636563 0.155940
Si Si4 0.667950 0.683199 0.580804
Si Si5 0.065427 0.852710 0.125696
Si Si6 0.165238 0.320884 0.337480
Si Si7 0.958818 0.512148 0.859759
Si Si8 0.870643 0.165535 0.740731
O O1 0.349550 0.565341 0.523438
O O2 0.204151 0.606584 0.610592
O O3 0.222176 0.876341 0.492852
O O4 0.357748 0.928151 0.603898
O O5 0.955494 0.302008 0.059941
O O6 0.017884 0.739276 0.053545
O O7 0.999869 0.434118 0.934751
O O8 0.156847 0.682588 0.161103
O O9 0.349423 0.849996 0.121645
O O10 0.348642 0.599525 0.226350
O O11 0.677799 0.437457 0.624351
O O12 0.699211 0.933136 0.619936
O O13 0.960934 0.867732 0.173696
O O14 0.247671 0.275909 0.274912
O O15 0.929122 0.330250 0.797427
O O16 0.056761 0.664469 0.827155
#
# Coordination Sequence:
#
# PCOD9315051 Si02
#       8
#     4   4   4   4   4   4   4   4
#     4  11  23  42  73 105 146 191 245 315 385 443
#     4  10  23  41  73 105 145 191 243 314 383 446
#     4  11  25  46  71 103 146 194 257 302 378 448
#     4  11  24  44  72 110 150 192 244 315 378 450
#     4  10  23  46  71 108 146 188 249 317 385 449
#     4  11  27  48  74 109 154 195 254 308 381 456
#     4  12  26  47  71 108 148 201 258 315 376 462
#     4  12  27  48  73 102 151 202 256 310 374 458
#
# _framework density 23.859608999999999
#
# number of rings (size 3 to 8) (size 9 to 14) (size 15 to 20)
#    0.000    1.000    2.500    3.000   10.500    2.000 
#    4.500    0.000    0.000    0.000    0.000    0.000 
#    0.000    0.000    0.000    0.000    0.000    0.000 
#
# Total GULP energy -178250.627112 kJ/mol
# GULP energy per Si atom -5570.332097 kJ/mol
# Density = 2.380530 g / cm^3
# Si number density = 23.859609 Si / 1000 Ang^3
#
#
#
# Elastic Constant Matrix: (Units=GPa)
#
#
# Indices 1 2 3 4 5 6 
#
# 1 97.8593 5.3837 23.1269 0.0000 0.0000 0.0000
# 2 5.3837 60.8103 5.4961 0.0000 0.0000 0.0000
# 3 23.1269 5.4961 48.0026 0.0000 0.0000 0.0000
# 4 0.0000 0.0000 0.0000 20.2208 0.0000 0.0000
# 5 0.0000 0.0000 0.0000 0.0000 43.9524 0.0000
# 6 0.0000 0.0000 0.0000 0.0000 0.0000 26.0045
#
#
#
# Elastic Compliance Matrix: (Units=1/GPa)
#
#
# Indices 1 2 3 4 5 6 
#
# 1 0.011548 -0.000525 -0.005504 0.000000 0.000000 0.000000
# 2 -0.000525 0.016640 -0.001652 0.000000 0.000000 0.000000
# 3 -0.005504 -0.001652 0.023673 0.000000 0.000000 0.000000
# 4 0.000000 0.000000 0.000000 0.049454 0.000000 0.000000
# 5 0.000000 0.000000 0.000000 0.000000 0.022752 0.000000
# 6 0.000000 0.000000 0.000000 0.000000 0.000000 0.038455
#
#
# Mechanical properties :
#
#
# Convention : Reuss Voigt Hill
#
# Bulk Modulus (GPa) = 27.39748 30.52062 28.95905
# Shear Modulus (GPa) = 26.30870 29.54655 27.92763
#
# Velocity S-wave (km/s) = 3.32421 3.52284 3.42497
# Velocity P-wave (km/s) = 5.12265 5.41911 5.27296
#
# Compressibility (1/GPa) = 0.03649971
#
# Stress axis : x y z
#
# Youngs Moduli (GPa) = 86.59278 60.09471 42.24225
#
# Poissons Ratio (x) = 0.03155 0.23249
# Poissons Ratio (y) = 0.04546 0.06980
# Poissons Ratio (z) = 0.47658 0.09930
#
# Static dielectric constant tensor:
#      x y z
#    x 2.057720 0.000000 0.000000 
#    y 0.000000 2.034620 0.000000 
#    z 0.000000 0.000000 2.019880 
# 
# From -- ./inp_files/7139.got.cif
#   From: 2010.05.17/outbox.cif.g08.bks.cpg/sg19_4_cif.got.tgz:7139.got - 2010.06.03 22:46:19.
