data_PCOD9315889
_publ_section_title
;
Structure prediction by ZEFSAII (Michael W. Deem and Ramdas Pophale) SiO2 
 PCOD9315889
Probable space group: P 21 21 21
;
_chemical_formula_sum "Si O2"
_cell_formula_units_Z 32
_cell_length_a 11.855799
_cell_length_b 5.279374
_cell_length_c 19.890824
_cell_angle_alpha 90.000000
_cell_angle_beta 90.000000
_cell_angle_gamma 90.000000
_cell_volume 1244.990483
_symmetry_space_group_name_H-M "P 21 21 21"
_symmetry_group_IT_number 19
_symmetry_cell_setting 'orthorhombic'
loop_
_space_group_symop_operation_xyz
x,y,z
1/2-x,-y,1/2+z
1/2+x,1/2-y,-z
-x,1/2+y,1/2-z
loop_
_atom_site_type_symbol
_atom_site_label
_atom_site_fract_x
_atom_site_fract_y
_atom_site_fract_z
Si Si1 0.749493 0.055629 0.827684
Si Si2 0.997010 0.374524 0.468075
Si Si3 0.253894 0.062713 0.593346
Si Si4 0.623034 0.933005 0.080616
Si Si5 0.314807 0.257385 0.975188
Si Si6 0.001425 0.430614 0.220984
Si Si7 0.563138 0.080088 0.224036
Si Si8 0.674654 0.391655 0.630449
O O1 0.782881 0.834855 0.879956
O O2 0.613688 0.038614 0.822950
O O3 0.816915 0.986048 0.759909
O O4 0.774559 0.336802 0.854781
O O5 0.886530 0.435679 0.424582
O O6 0.962090 0.220177 0.534010
O O7 0.067578 0.616105 0.491855
O O8 0.082779 0.237307 0.417821
O O9 0.201624 0.980359 0.522869
O O10 0.707395 0.742126 0.119954
O O11 0.702193 0.074399 0.025465
O O12 0.570583 0.088852 0.142610
O O13 0.315937 0.173231 0.898071
O O14 0.970289 0.134334 0.220298
O O15 0.886529 0.581784 0.200685
O O16 0.516609 0.345638 0.252947
#
# Coordination Sequence:
#
# PCOD9315889 Si02
#       8
#     4   4   4   4   4   4   4   4
#     4  12  27  49  77 108 156 197 256 318 374 467
#     4  11  25  47  75 116 151 204 248 329 393 463
#     4  12  25  49  75 115 153 197 252 316 386 463
#     4  11  27  51  76 112 159 200 263 324 386 473
#     4  11  27  44  81 112 155 201 251 321 399 463
#     4  12  27  45  76 109 144 195 244 312 382 450
#     4  12  31  54  78 112 151 214 267 320 388 470
#     4  11  25  45  76 112 151 196 257 312 392 469
#
# _framework density 25.703006999999999
#
# number of rings (size 3 to 8) (size 9 to 14) (size 15 to 20)
#    0.000    0.500    2.500    3.750   12.250    1.000 
#    0.000    0.000    0.000    0.000    0.000    0.000 
#    0.000    0.000    0.000    0.000    0.000    0.000 
#
# Total GULP energy -179076.232548 kJ/mol
# GULP energy per Si atom -5596.132267 kJ/mol
# Density = 2.564451 g / cm^3
# Si number density = 25.703007 Si / 1000 Ang^3
#
#
#
# Elastic Constant Matrix: (Units=GPa)
#
#
# Indices 1 2 3 4 5 6 
#
# 1 61.0525 23.6411 -8.8302 0.0000 0.0000 0.0000
# 2 23.6411 88.2895 14.8624 0.0000 0.0000 0.0000
# 3 -8.8302 14.8624 74.3877 0.0000 0.0000 0.0000
# 4 0.0000 0.0000 0.0000 41.3917 0.0000 0.0000
# 5 0.0000 0.0000 0.0000 0.0000 35.3884 0.0000
# 6 0.0000 0.0000 0.0000 0.0000 0.0000 32.4566
#
#
#
# Elastic Compliance Matrix: (Units=1/GPa)
#
#
# Indices 1 2 3 4 5 6 
#
# 1 0.019070 -0.005678 0.003398 0.000000 0.000000 0.000000
# 2 -0.005678 0.013411 -0.003354 0.000000 0.000000 0.000000
# 3 0.003398 -0.003354 0.014517 0.000000 0.000000 0.000000
# 4 0.000000 0.000000 0.000000 0.024159 0.000000 0.000000
# 5 0.000000 0.000000 0.000000 0.000000 0.028258 0.000000
# 6 0.000000 0.000000 0.000000 0.000000 0.000000 0.030810
#
#
# Mechanical properties :
#
#
# Convention : Reuss Voigt Hill
#
# Bulk Modulus (GPa) = 27.98760 31.45291 29.72025
# Shear Modulus (GPa) = 32.59398 34.78443 33.68921
#
# Velocity S-wave (km/s) = 3.56490 3.68274 3.62430
# Velocity P-wave (km/s) = 5.27799 5.50882 5.39464
#
# Compressibility (1/GPa) = 0.03573011
#
# Stress axis : x y z
#
# Youngs Moduli (GPa) = 52.43948 74.56369 68.88712
#
# Poissons Ratio (x) = 0.42339 -0.23409
# Poissons Ratio (y) = 0.29776 0.23102
# Poissons Ratio (z) = -0.17820 0.25006
#
# Static dielectric constant tensor:
#      x y z
#    x 2.068810 0.000000 0.000000 
#    y 0.000000 2.196830 0.000000 
#    z 0.000000 0.000000 2.144520 
# 
# From -- ./inp_files/7172.got.cif
#   From: 2010.05.17/outbox.cif.g08.bks.cpg/sg19_4_cif.got.tgz:7172.got - 2010.06.03 22:46:19.
