data_PCOD9315089
_publ_section_title
;
Structure prediction by ZEFSAII (Michael W. Deem and Ramdas Pophale) SiO2 
 PCOD9315089
Probable space group: P 21 21 21
;
_chemical_formula_sum "Si O2"
_cell_formula_units_Z 28
_cell_length_a 5.108112
_cell_length_b 13.080565
_cell_length_c 17.979961
_cell_angle_alpha 90.000000
_cell_angle_beta 90.000000
_cell_angle_gamma 90.000000
_cell_volume 1201.366893
_symmetry_space_group_name_H-M "P 21 21 21"
_symmetry_group_IT_number 19
_symmetry_cell_setting 'orthorhombic'
loop_
_space_group_symop_operation_xyz
x,y,z
1/2-x,-y,1/2+z
1/2+x,1/2-y,-z
-x,1/2+y,1/2-z
loop_
_atom_site_type_symbol
_atom_site_label
_atom_site_fract_x
_atom_site_fract_y
_atom_site_fract_z
Si Si1 0.381721 0.719023 0.961209
Si Si2 0.917336 0.510227 0.478782
Si Si3 0.333200 0.291340 0.681258
Si Si4 0.718094 0.360479 0.768866
Si Si5 0.574333 0.861858 0.225943
Si Si6 0.515726 0.515935 0.149292
Si Si7 0.404084 0.539749 0.389160
O O1 0.483125 0.604402 0.965058
O O2 0.455445 0.770715 0.883477
O O3 0.075659 0.726083 0.979466
O O4 0.132341 0.573430 0.429363
O O5 0.927686 0.524514 0.567431
O O6 0.617811 0.517495 0.453242
O O7 0.408023 0.342236 0.761759
O O8 0.208261 0.181105 0.699343
O O9 0.152670 0.379771 0.645499
O O10 0.797067 0.246990 0.743144
O O11 0.753239 0.445359 0.704003
O O12 0.904562 0.392770 0.835444
O O13 0.602327 0.925690 0.301303
O O14 0.659713 0.939740 0.161294
#
# Coordination Sequence:
#
# PCOD9315089 Si02
#       7
#     4   4   4   4   4   4   4
#     4  12  23  37  64 102 141 172 214 271 351 407
#     4  12  24  43  64 101 137 179 211 282 334 399
#     4  11  22  38  67  94 132 176 222 279 332 400
#     4  10  24  43  66  96 130 178 226 279 324 399
#     4  10  23  43  64  98 124 183 219 281 321 405
#     4  10  24  41  66  95 137 168 227 270 344 395
#     4  11  26  43  69  96 137 174 227 268 340 397
#
# _framework density 23.306785999999999
#
# number of rings (size 3 to 8) (size 9 to 14) (size 15 to 20)
#    0.000    1.143    2.857    2.571   10.000    1.143 
#    0.000    1.429    0.000    0.000    0.000    0.000 
#    0.000    0.000    0.000    0.000    0.000    0.000 
#
# Total GULP energy -156037.380509 kJ/mol
# GULP energy per Si atom -5572.763590 kJ/mol
# Density = 2.325374 g / cm^3
# Si number density = 23.306786 Si / 1000 Ang^3
#
#
#
# Elastic Constant Matrix: (Units=GPa)
#
#
# Indices 1 2 3 4 5 6 
#
# 1 51.1784 -0.6688 18.2285 0.0000 0.0000 0.0000
# 2 -0.6688 48.8329 22.6926 0.0000 0.0000 0.0000
# 3 18.2285 22.6926 130.7704 0.0000 0.0000 0.0000
# 4 0.0000 0.0000 0.0000 24.0127 0.0000 0.0000
# 5 0.0000 0.0000 0.0000 0.0000 27.7975 0.0000
# 6 0.0000 0.0000 0.0000 0.0000 0.0000 17.2145
#
#
#
# Elastic Compliance Matrix: (Units=1/GPa)
#
#
# Indices 1 2 3 4 5 6 
#
# 1 0.020699 0.001767 -0.003192 0.000000 0.000000 0.000000
# 2 0.001767 0.022425 -0.004138 0.000000 0.000000 0.000000
# 3 -0.003192 -0.004138 0.008810 0.000000 0.000000 0.000000
# 4 0.000000 0.000000 0.000000 0.041645 0.000000 0.000000
# 5 0.000000 0.000000 0.000000 0.000000 0.035975 0.000000
# 6 0.000000 0.000000 0.000000 0.000000 0.000000 0.058090
#
#
# Mechanical properties :
#
#
# Convention : Reuss Voigt Hill
#
# Bulk Modulus (GPa) = 24.50456 34.58735 29.54596
# Shear Modulus (GPa) = 23.54353 26.50691 25.02522
#
# Velocity S-wave (km/s) = 3.18175 3.37605 3.28034
# Velocity P-wave (km/s) = 4.90253 5.48354 5.20115
#
# Compressibility (1/GPa) = 0.04080873
#
# Stress axis : x y z
#
# Youngs Moduli (GPa) = 48.31042 44.59311 113.50819
#
# Poissons Ratio (x) = -0.07879 0.36231
# Poissons Ratio (y) = -0.08536 0.46966
# Poissons Ratio (z) = 0.15420 0.18451
#
# Static dielectric constant tensor:
#      x y z
#    x 2.281300 0.000000 0.000000 
#    y 0.000000 1.875830 0.000000 
#    z 0.000000 0.000000 1.977380 
# 
# From -- ./inp_files/6233.got.cif
#   From: 2010.05.17/outbox.cif.g08.bks.cpg/sg19_4_cif.got.tgz:6233.got - 2010.06.03 22:46:19.
