data_PCOD9315382
_publ_section_title
;
Structure prediction by ZEFSAII (Michael W. Deem and Ramdas Pophale) SiO2 
 PCOD9315382
Probable space group: P 21 21 21
;
_chemical_formula_sum "Si O2"
_cell_formula_units_Z 16
_cell_length_a 6.738248
_cell_length_b 6.723491
_cell_length_c 12.515614
_cell_angle_alpha 90.000000
_cell_angle_beta 90.000000
_cell_angle_gamma 90.000000
_cell_volume 567.014258
_symmetry_space_group_name_H-M "P 21 21 21"
_symmetry_group_IT_number 19
_symmetry_cell_setting 'orthorhombic'
loop_
_space_group_symop_operation_xyz
x,y,z
1/2-x,-y,1/2+z
1/2+x,1/2-y,-z
-x,1/2+y,1/2-z
loop_
_atom_site_type_symbol
_atom_site_label
_atom_site_fract_x
_atom_site_fract_y
_atom_site_fract_z
Si Si1 0.236236 0.894738 0.387468
Si Si2 0.668686 0.977963 0.121577
Si Si3 0.500179 0.358087 0.753816
Si Si4 0.778858 0.719312 0.932387
O O1 0.388933 0.712481 0.383153
O O2 0.033592 0.766353 0.363143
O O3 0.247508 0.027387 0.491446
O O4 0.204240 0.046464 0.287564
O O5 0.826509 0.973411 0.217617
O O6 0.483202 0.830091 0.126844
O O7 0.775936 0.906467 0.012483
O O8 0.393845 0.262414 0.650315
#
# Coordination Sequence:
#
# PCOD9315382 Si02
#       4
#     4   4   4   4
#     4  10  24  48  74 111 149 206 244 316 380 453
#     4  10  27  45  76 112 147 204 253 313 378 454
#     4  10  24  48  76 104 155 200 254 306 384 449
#     4  12  23  51  74 115 153 198 257 315 376 458
#
# _framework density 28.217984999999999
#
# number of rings (size 3 to 8) (size 9 to 14) (size 15 to 20)
#    1.500    0.000    2.500    1.500    0.000    6.000 
#    9.000    0.000    0.000    0.000    0.000    0.000 
#    0.000    0.000    0.000    0.000    0.000    0.000 
#
# Total GULP energy -89193.866378 kJ/mol
# GULP energy per Si atom -5574.616649 kJ/mol
# Density = 2.815376 g / cm^3
# Si number density = 28.217985 Si / 1000 Ang^3
#
#
#
# Elastic Constant Matrix: (Units=GPa)
#
#
# Indices 1 2 3 4 5 6 
#
# 1 86.1996 39.0525 41.4582 0.0000 0.0000 0.0000
# 2 39.0525 141.1846 53.9556 0.0000 0.0000 0.0000
# 3 41.4582 53.9556 124.6327 0.0000 0.0000 0.0000
# 4 0.0000 0.0000 0.0000 64.2963 0.0000 0.0000
# 5 0.0000 0.0000 0.0000 0.0000 44.6478 0.0000
# 6 0.0000 0.0000 0.0000 0.0000 0.0000 39.7374
#
#
#
# Elastic Compliance Matrix: (Units=1/GPa)
#
#
# Indices 1 2 3 4 5 6 
#
# 1 0.014571 -0.002610 -0.003717 0.000000 0.000000 0.000000
# 2 -0.002610 0.008955 -0.003008 0.000000 0.000000 0.000000
# 3 -0.003717 -0.003008 0.010562 0.000000 0.000000 0.000000
# 4 0.000000 0.000000 0.000000 0.015553 0.000000 0.000000
# 5 0.000000 0.000000 0.000000 0.000000 0.022397 0.000000
# 6 0.000000 0.000000 0.000000 0.000000 0.000000 0.025165
#
#
# Mechanical properties :
#
#
# Convention : Reuss Voigt Hill
#
# Bulk Modulus (GPa) = 64.86236 68.99441 66.92838
# Shear Modulus (GPa) = 41.31759 44.23968 42.77864
#
# Velocity S-wave (km/s) = 3.83068 3.96382 3.89782
# Velocity P-wave (km/s) = 6.52698 6.74187 6.63529
#
# Compressibility (1/GPa) = 0.01541726
#
# Stress axis : x y z
#
# Youngs Moduli (GPa) = 68.62869 111.67512 94.67515
#
# Poissons Ratio (x) = 0.29146 0.35192
# Poissons Ratio (y) = 0.17912 0.28482
# Poissons Ratio (z) = 0.25510 0.33596
#
# Static dielectric constant tensor:
#      x y z
#    x 2.236460 0.000000 0.000000 
#    y 0.000000 2.895670 0.000000 
#    z 0.000000 0.000000 2.145350 
# 
# From -- ./inp_files/5798.got.cif
#   From: 2010.05.17/outbox.cif.g08.bks.cpg/sg19_3_cif.got.tgz:5798.got - 2010.06.03 22:46:19.
