data_PCOD9315049
_publ_section_title
;
Structure prediction by ZEFSAII (Michael W. Deem and Ramdas Pophale) SiO2 
 PCOD9315049
Probable space group: P 21 21 21
;
_chemical_formula_sum "Si O2"
_cell_formula_units_Z 24
_cell_length_a 8.030284
_cell_length_b 12.546331
_cell_length_c 9.205462
_cell_angle_alpha 90.000000
_cell_angle_beta 90.000000
_cell_angle_gamma 90.000000
_cell_volume 927.455830
_symmetry_space_group_name_H-M "P 21 21 21"
_symmetry_group_IT_number 19
_symmetry_cell_setting 'orthorhombic'
loop_
_space_group_symop_operation_xyz
x,y,z
1/2-x,-y,1/2+z
1/2+x,1/2-y,-z
-x,1/2+y,1/2-z
loop_
_atom_site_type_symbol
_atom_site_label
_atom_site_fract_x
_atom_site_fract_y
_atom_site_fract_z
Si Si1 0.571564 0.770111 0.455973
Si Si2 0.731304 0.956246 0.274222
Si Si3 0.725911 0.612351 0.062743
Si Si4 0.605673 0.884822 0.966110
Si Si5 0.406019 0.681746 0.186751
Si Si6 0.677815 0.403188 0.893991
O O1 0.686911 0.856806 0.375609
O O2 0.431428 0.743560 0.335420
O O3 0.673293 0.661941 0.473133
O O4 0.483993 0.827937 0.589452
O O5 0.715632 0.918526 0.107848
O O6 0.887175 0.014180 0.351339
O O7 0.600318 0.053943 0.282523
O O8 0.573079 0.694075 0.091208
O O9 0.769480 0.584438 0.229292
O O10 0.653769 0.515040 0.970831
O O11 0.911827 0.634331 0.000648
O O12 0.725069 0.801152 0.882063
#
# Coordination Sequence:
#
# PCOD9315049 Si02
#       6
#     4   4   4   4   4   4
#     4  11  24  43  70 102 140 177 241 286 343 422
#     4  10  23  44  68  98 135 180 230 285 341 415
#     4  11  23  44  70  99 137 182 231 278 361 400
#     4  10  23  41  72  94 135 186 225 278 358 407
#     4   9  23  43  66  98 134 175 225 288 337 407
#     4  11  26  43  74 103 135 188 234 293 344 429
#
# _framework density 25.877241999999999
#
# number of rings (size 3 to 8) (size 9 to 14) (size 15 to 20)
#    1.000    0.667    1.667    2.000   11.667    0.000 
#    6.000    0.000    0.000    0.000    0.000    0.000 
#    0.000    0.000    0.000    0.000    0.000    0.000 
#
# Total GULP energy -134100.808074 kJ/mol
# GULP energy per Si atom -5587.533670 kJ/mol
# Density = 2.581834 g / cm^3
# Si number density = 25.877242 Si / 1000 Ang^3
#
#
#
# Elastic Constant Matrix: (Units=GPa)
#
#
# Indices 1 2 3 4 5 6 
#
# 1 74.2918 5.8960 11.2732 0.0000 0.0000 0.0000
# 2 5.8960 34.1714 0.5822 0.0000 0.0000 0.0000
# 3 11.2732 0.5822 50.9362 0.0000 0.0000 0.0000
# 4 0.0000 0.0000 0.0000 35.8900 0.0000 0.0000
# 5 0.0000 0.0000 0.0000 0.0000 46.8190 0.0000
# 6 0.0000 0.0000 0.0000 0.0000 0.0000 49.8439
#
#
#
# Elastic Compliance Matrix: (Units=1/GPa)
#
#
# Indices 1 2 3 4 5 6 
#
# 1 0.014120 -0.002383 -0.003098 0.000000 0.000000 0.000000
# 2 -0.002383 0.029672 0.000188 0.000000 0.000000 0.000000
# 3 -0.003098 0.000188 0.020316 0.000000 0.000000 0.000000
# 4 0.000000 0.000000 0.000000 0.027863 0.000000 0.000000
# 5 0.000000 0.000000 0.000000 0.000000 0.021359 0.000000
# 6 0.000000 0.000000 0.000000 0.000000 0.000000 0.020063
#
#
# Mechanical properties :
#
#
# Convention : Reuss Voigt Hill
#
# Bulk Modulus (GPa) = 18.68386 21.65580 20.16983
# Shear Modulus (GPa) = 30.89881 35.95378 33.42629
#
# Velocity S-wave (km/s) = 3.45926 3.73151 3.59796
# Velocity P-wave (km/s) = 4.81572 5.19157 5.00717
#
# Compressibility (1/GPa) = 0.05352214
#
# Stress axis : x y z
#
# Youngs Moduli (GPa) = 70.82328 33.70148 49.22265
#
# Poissons Ratio (x) = 0.08033 0.15248
# Poissons Ratio (y) = 0.16880 -0.00927
# Poissons Ratio (z) = 0.21939 -0.00635
#
# Static dielectric constant tensor:
#      x y z
#    x 2.094780 0.000000 0.000000 
#    y 0.000000 2.044030 0.000000 
#    z 0.000000 0.000000 1.994830 
# 
# From -- ./inp_files/2844.got.cif
#   From: 2010.05.17/outbox.cif.g08.bks.cpg/sg19_2_cif.got.tgz:2844.got - 2010.06.03 22:46:19.
