data_PCOD9315198
_publ_section_title
;
Structure prediction by ZEFSAII (Michael W. Deem and Ramdas Pophale) SiO2 
 PCOD9315198
Probable space group: P 21 21 21
;
_chemical_formula_sum "Si O2"
_cell_formula_units_Z 24
_cell_length_a 14.410720
_cell_length_b 5.188297
_cell_length_c 12.571281
_cell_angle_alpha 90.000000
_cell_angle_beta 90.000000
_cell_angle_gamma 90.000000
_cell_volume 939.918165
_symmetry_space_group_name_H-M "P 21 21 21"
_symmetry_group_IT_number 19
_symmetry_cell_setting 'orthorhombic'
loop_
_space_group_symop_operation_xyz
x,y,z
1/2-x,-y,1/2+z
1/2+x,1/2-y,-z
-x,1/2+y,1/2-z
loop_
_atom_site_type_symbol
_atom_site_label
_atom_site_fract_x
_atom_site_fract_y
_atom_site_fract_z
Si Si1 0.351171 0.791416 0.934803
Si Si2 0.866787 0.657665 0.665786
Si Si3 0.752495 0.318842 0.957026
Si Si4 0.729874 0.867561 0.239212
Si Si5 0.024436 0.859631 0.315380
Si Si6 0.962948 0.104311 0.969263
O O1 0.304241 0.592639 0.854856
O O2 0.376522 0.021941 0.853107
O O3 0.443107 0.687126 0.991490
O O4 0.277648 0.880375 0.023128
O O5 0.815234 0.728943 0.554824
O O6 0.830986 0.380868 0.705026
O O7 0.974044 0.640098 0.633124
O O8 0.834912 0.882001 0.745236
O O9 0.716808 0.216905 0.845379
O O10 0.857932 0.205722 0.955332
O O11 0.991797 0.746464 0.428920
O O12 0.022627 0.614138 0.236436
#
# Coordination Sequence:
#
# PCOD9315198 Si02
#       6
#     4   4   4   4   4   4
#     4  10  23  46  69 106 147 190 243 305 363 437
#     4  11  27  45  70 110 140 190 247 296 363 444
#     4  10  25  46  72 102 149 191 233 314 360 428
#     4  11  26  46  71 103 144 190 246 294 369 438
#     4  11  23  38  64 105 136 182 239 294 359 428
#     4  11  24  45  72 102 154 185 244 303 364 433
#
# _framework density 25.534134999999999
#
# number of rings (size 3 to 8) (size 9 to 14) (size 15 to 20)
#    0.000    1.333    3.333    0.000    9.333    1.333 
#    3.000    0.000    0.000    0.000    0.000    0.000 
#    0.000    0.000    0.000    0.000    0.000    0.000 
#
# Total GULP energy -133993.602537 kJ/mol
# GULP energy per Si atom -5583.066772 kJ/mol
# Density = 2.547602 g / cm^3
# Si number density = 25.534135 Si / 1000 Ang^3
#
#
#
# Elastic Constant Matrix: (Units=GPa)
#
#
# Indices 1 2 3 4 5 6 
#
# 1 64.6363 5.4016 2.9373 0.0000 0.0000 0.0000
# 2 5.4016 106.6464 17.9638 0.0000 0.0000 0.0000
# 3 2.9373 17.9638 70.3622 0.0000 0.0000 0.0000
# 4 0.0000 0.0000 0.0000 30.2195 0.0000 0.0000
# 5 0.0000 0.0000 0.0000 0.0000 46.1262 0.0000
# 6 0.0000 0.0000 0.0000 0.0000 0.0000 23.5667
#
#
#
# Elastic Compliance Matrix: (Units=1/GPa)
#
#
# Indices 1 2 3 4 5 6 
#
# 1 0.015552 -0.000709 -0.000468 0.000000 0.000000 0.000000
# 2 -0.000709 0.009830 -0.002480 0.000000 0.000000 0.000000
# 3 -0.000468 -0.002480 0.014865 0.000000 0.000000 0.000000
# 4 0.000000 0.000000 0.000000 0.033091 0.000000 0.000000
# 5 0.000000 0.000000 0.000000 0.000000 0.021680 0.000000
# 6 0.000000 0.000000 0.000000 0.000000 0.000000 0.042433
#
#
# Mechanical properties :
#
#
# Convention : Reuss Voigt Hill
#
# Bulk Modulus (GPa) = 30.36504 32.69448 31.52976
# Shear Modulus (GPa) = 32.10425 34.33864 33.22144
#
# Velocity S-wave (km/s) = 3.54970 3.67115 3.61093
# Velocity P-wave (km/s) = 5.35894 5.54994 5.45527
#
# Compressibility (1/GPa) = 0.03293261
#
# Stress axis : x y z
#
# Youngs Moduli (GPa) = 64.30165 101.72477 67.27244
#
# Poissons Ratio (x) = 0.07210 0.03150
# Poissons Ratio (y) = 0.04558 0.16685
# Poissons Ratio (z) = 0.03011 0.25230
#
# Static dielectric constant tensor:
#      x y z
#    x 2.074900 0.000000 0.000000 
#    y 0.000000 2.148650 0.000000 
#    z 0.000000 0.000000 2.031010 
# 
# From -- ./inp_files/5324.got.cif
#   From: 2010.05.17/outbox.cif.g08.bks.cpg/sg19_3_cif.got.tgz:5324.got - 2010.06.03 22:46:19.
