data_PCOD9315759
_publ_section_title
;
Structure prediction by ZEFSAII (Michael W. Deem and Ramdas Pophale) SiO2 
 PCOD9315759
Probable space group: P 21 21 21
;
_chemical_formula_sum "Si O2"
_cell_formula_units_Z 28
_cell_length_a 5.014427
_cell_length_b 25.077158
_cell_length_c 8.049953
_cell_angle_alpha 90.000000
_cell_angle_beta 90.000000
_cell_angle_gamma 90.000000
_cell_volume 1012.262094
_symmetry_space_group_name_H-M "P 21 21 21"
_symmetry_group_IT_number 19
_symmetry_cell_setting 'orthorhombic'
loop_
_space_group_symop_operation_xyz
x,y,z
1/2-x,-y,1/2+z
1/2+x,1/2-y,-z
-x,1/2+y,1/2-z
loop_
_atom_site_type_symbol
_atom_site_label
_atom_site_fract_x
_atom_site_fract_y
_atom_site_fract_z
Si Si1 0.074194 0.736297 0.900535
Si Si2 0.192040 0.320587 0.836985
Si Si3 0.755783 0.047789 0.874530
Si Si4 0.382701 0.100754 0.634954
Si Si5 0.801890 0.618382 0.226759
Si Si6 0.005380 0.656428 0.648283
Si Si7 0.389691 0.012451 0.171012
O O1 0.915874 0.768869 0.758151
O O2 0.134999 0.679369 0.818325
O O3 0.853645 0.738288 0.045623
O O4 0.412134 0.353531 0.731574
O O5 0.917214 0.354783 0.851151
O O6 0.359885 0.307740 0.003798
O O7 0.644779 0.072524 0.703271
O O8 0.535722 0.034186 0.008952
O O9 0.924303 0.098774 0.930485
O O10 0.917104 0.995186 0.829302
O O11 0.343885 0.123300 0.452033
O O12 0.286311 0.143665 0.773954
O O13 0.198714 0.047699 0.640130
O O14 0.823876 0.555926 0.272422
#
# Coordination Sequence:
#
# PCOD9315759 Si02
#       7
#     4   4   4   4   4   4   4
#     4  12  29  53  83 114 152 201 263 329 400 472
#     4  12  28  50  77 113 149 199 251 323 391 462
#     4  11  24  44  70 110 153 206 258 316 384 465
#     4  11  25  42  73 107 154 210 256 316 383 458
#     4  12  27  46  75 110 155 198 259 313 385 460
#     4  11  27  48  77 109 155 198 262 322 393 467
#     4  11  24  41  71 107 156 206 259 315 380 464
#
# _framework density 27.660823000000001
#
# number of rings (size 3 to 8) (size 9 to 14) (size 15 to 20)
#    0.000    0.571    1.429    5.143   12.000    4.571 
#    0.000    0.000    0.000    0.000    0.000    0.000 
#    0.000    0.000    0.000    0.000    0.000    0.000 
#
# Total GULP energy -156634.992037 kJ/mol
# GULP energy per Si atom -5594.106858 kJ/mol
# Density = 2.759787 g / cm^3
# Si number density = 27.660823 Si / 1000 Ang^3
#
#
#
# Elastic Constant Matrix: (Units=GPa)
#
#
# Indices 1 2 3 4 5 6 
#
# 1 127.3583 26.7630 9.2097 0.0000 0.0000 0.0000
# 2 26.7630 81.0588 15.7043 0.0000 0.0000 0.0000
# 3 9.2097 15.7043 114.7764 0.0000 0.0000 0.0000
# 4 0.0000 0.0000 0.0000 52.5610 0.0000 0.0000
# 5 0.0000 0.0000 0.0000 0.0000 52.8131 0.0000
# 6 0.0000 0.0000 0.0000 0.0000 0.0000 47.3126
#
#
#
# Elastic Compliance Matrix: (Units=1/GPa)
#
#
# Indices 1 2 3 4 5 6 
#
# 1 0.008448 -0.002730 -0.000304 0.000000 0.000000 0.000000
# 2 -0.002730 0.013555 -0.001636 0.000000 0.000000 0.000000
# 3 -0.000304 -0.001636 0.008961 0.000000 0.000000 0.000000
# 4 0.000000 0.000000 0.000000 0.019025 0.000000 0.000000
# 5 0.000000 0.000000 0.000000 0.000000 0.018935 0.000000
# 6 0.000000 0.000000 0.000000 0.000000 0.000000 0.021136
#
#
# Mechanical properties :
#
#
# Convention : Reuss Voigt Hill
#
# Bulk Modulus (GPa) = 46.24639 47.39415 46.82027
# Shear Modulus (GPa) = 46.90103 48.63845 47.76974
#
# Velocity S-wave (km/s) = 4.12220 4.19786 4.16021
# Velocity P-wave (km/s) = 6.27791 6.37709 6.32770
#
# Compressibility (1/GPa) = 0.02162331
#
# Stress axis : x y z
#
# Youngs Moduli (GPa) = 118.37704 73.77345 111.59725
#
# Poissons Ratio (x) = 0.20141 0.03396
# Poissons Ratio (y) = 0.32319 0.18253
# Poissons Ratio (z) = 0.03602 0.12066
#
# Static dielectric constant tensor:
#      x y z
#    x 2.208270 0.000000 0.000000 
#    y 0.000000 2.234890 0.000000 
#    z 0.000000 0.000000 2.217690 
# 
# From -- ./inp_files/2436.got.cif
#   From: 2010.05.17/outbox.cif.g08.bks.cpg/sg19_2_cif.got.tgz:2436.got - 2010.06.03 22:46:19.
