data_PCOD9315113
_publ_section_title
;
Structure prediction by ZEFSAII (Michael W. Deem and Ramdas Pophale) SiO2 
 PCOD9315113
Probable space group: P 21 21 21
;
_chemical_formula_sum "Si O2"
_cell_formula_units_Z 32
_cell_length_a 14.725884
_cell_length_b 15.680340
_cell_length_c 5.565811
_cell_angle_alpha 90.000000
_cell_angle_beta 90.000000
_cell_angle_gamma 90.000000
_cell_volume 1285.183985
_symmetry_space_group_name_H-M "P 21 21 21"
_symmetry_group_IT_number 19
_symmetry_cell_setting 'orthorhombic'
loop_
_space_group_symop_operation_xyz
x,y,z
1/2-x,-y,1/2+z
1/2+x,1/2-y,-z
-x,1/2+y,1/2-z
loop_
_atom_site_type_symbol
_atom_site_label
_atom_site_fract_x
_atom_site_fract_y
_atom_site_fract_z
Si Si1 0.384288 0.489299 0.324387
Si Si2 0.650442 0.303384 0.587458
Si Si3 0.002118 0.071665 0.304000
Si Si4 0.660094 0.154081 0.934367
Si Si5 0.988765 0.760028 0.740449
Si Si6 0.022988 0.920118 0.985506
Si Si7 0.719280 0.544872 0.160033
Si Si8 0.650114 0.844196 0.486144
O O1 0.471567 0.439003 0.424062
O O2 0.345422 0.552133 0.524783
O O3 0.426275 0.548471 0.118171
O O4 0.324044 0.414638 0.217061
O O5 0.579487 0.359645 0.746193
O O6 0.667106 0.209352 0.691569
O O7 0.593814 0.297479 0.340854
O O8 0.738811 0.362177 0.597145
O O9 0.911237 0.106429 0.177716
O O10 0.032214 0.977827 0.220591
O O11 0.751483 0.184718 0.076191
O O12 0.563563 0.183454 0.044417
O O13 0.018430 0.818590 0.968411
O O14 0.080264 0.721910 0.630604
O O15 0.110745 0.946696 0.832091
O O16 0.752853 0.510967 0.421847
#
# Coordination Sequence:
#
# PCOD9315113 Si02
#       8
#     4   4   4   4   4   4   4   4
#     4  10  23  43  71  96 141 182 238 294 363 447
#     4  12  24  44  71  99 145 188 239 305 369 441
#     4  11  21  42  70  94 134 187 227 287 364 435
#     4  11  26  44  68 107 141 179 244 306 359 450
#     4  11  24  47  67 100 144 186 239 310 372 444
#     4  10  23  44  67 103 138 188 242 297 370 447
#     4  12  27  44  76 113 151 198 255 309 375 454
#     4  11  24  42  70 100 136 184 234 294 370 436
#
# _framework density 24.899158
#
# number of rings (size 3 to 8) (size 9 to 14) (size 15 to 20)
#    0.000    1.000    3.750    2.250    5.250    1.000 
#    2.250    0.000    0.000    0.000    0.000    0.000 
#    0.000    0.000    0.000    0.000    0.000    0.000 
#
# Total GULP energy -178463.287077 kJ/mol
# GULP energy per Si atom -5576.977721 kJ/mol
# Density = 2.484249 g / cm^3
# Si number density = 24.899158 Si / 1000 Ang^3
#
#
#
# Elastic Constant Matrix: (Units=GPa)
#
#
# Indices 1 2 3 4 5 6 
#
# 1 130.5491 20.4238 -2.4894 0.0000 0.0000 0.0000
# 2 20.4238 62.9784 12.3443 0.0000 0.0000 0.0000
# 3 -2.4894 12.3443 34.3917 0.0000 0.0000 0.0000
# 4 0.0000 0.0000 0.0000 23.6161 0.0000 0.0000
# 5 0.0000 0.0000 0.0000 0.0000 30.0633 0.0000
# 6 0.0000 0.0000 0.0000 0.0000 0.0000 40.3388
#
#
#
# Elastic Compliance Matrix: (Units=1/GPa)
#
#
# Indices 1 2 3 4 5 6 
#
# 1 0.008156 -0.002970 0.001656 0.000000 0.000000 0.000000
# 2 -0.002970 0.018161 -0.006734 0.000000 0.000000 0.000000
# 3 0.001656 -0.006734 0.031614 0.000000 0.000000 0.000000
# 4 0.000000 0.000000 0.000000 0.042344 0.000000 0.000000
# 5 0.000000 0.000000 0.000000 0.000000 0.033263 0.000000
# 6 0.000000 0.000000 0.000000 0.000000 0.000000 0.024790
#
#
# Mechanical properties :
#
#
# Convention : Reuss Voigt Hill
#
# Bulk Modulus (GPa) = 23.90227 32.05296 27.97761
# Shear Modulus (GPa) = 26.54378 31.97968 29.26173
#
# Velocity S-wave (km/s) = 3.26859 3.58770 3.43185
# Velocity P-wave (km/s) = 4.88522 5.48299 5.19271
#
# Compressibility (1/GPa) = 0.04183704
#
# Stress axis : x y z
#
# Youngs Moduli (GPa) = 122.60723 55.06194 31.63193
#
# Poissons Ratio (x) = 0.16352 -0.05239
# Poissons Ratio (y) = 0.36410 0.21300
# Poissons Ratio (z) = -0.20307 0.37077
#
# Static dielectric constant tensor:
#      x y z
#    x 1.978760 0.000000 0.000000 
#    y 0.000000 2.049880 0.000000 
#    z 0.000000 0.000000 2.041430 
# 
# From -- ./inp_files/1593.got.cif
#   From: 2010.05.17/outbox.cif.g08.bks.cpg/sg19_1_cif.got.tgz:1593.got - 2010.06.03 22:46:19.
