data_PCOD9316582
_publ_section_title
;
Structure prediction by ZEFSAII (Michael W. Deem and Ramdas Pophale) SiO2 
 PCOD9316582
Probable space group: C 2 2 21
;
_chemical_formula_sum "Si O2"
_cell_formula_units_Z 52
_cell_length_a 6.820793
_cell_length_b 21.799019
_cell_length_c 15.194624
_cell_angle_alpha 90.000000
_cell_angle_beta 90.000000
_cell_angle_gamma 90.000000
_cell_volume 2259.236923
_symmetry_space_group_name_H-M "C 2 2 21"
_symmetry_group_IT_number 20
_symmetry_cell_setting 'orthorhombic'
loop_
_space_group_symop_operation_xyz
x,y,z
-x,-y,1/2+z
x,-y,-z
-x,y,1/2-z
1/2+x,1/2+y,z
1/2-x,1/2-y,1/2+z
1/2+x,1/2-y,-z
1/2-x,1/2+y,1/2-z
loop_
_atom_site_type_symbol
_atom_site_label
_atom_site_fract_x
_atom_site_fract_y
_atom_site_fract_z
Si Si1 0.263184 0.152872 0.274916
Si Si2 0.616269 0.940147 0.054372
Si Si3 0.000000 0.808877 0.250000
Si Si4 0.811674 0.402487 0.183720
Si Si5 0.732566 0.224021 0.387181
Si Si6 0.228951 0.487005 0.778674
Si Si7 0.851768 0.681196 0.464172
O O1 0.500000 0.152353 0.250000
O O2 0.165157 0.182981 0.188461
O O3 0.202037 0.082109 0.288164
O O4 0.250382 0.188568 0.368166
O O5 0.420438 0.909210 0.092364
O O6 0.736460 0.970821 0.134431
O O7 0.716411 0.884350 0.002903
O O8 0.562309 0.000000 0.000000
O O9 0.839195 0.849248 0.299839
O O10 0.887505 0.770860 0.175456
O O11 0.700806 0.466880 0.203090
O O12 0.000000 0.393245 0.250000
O O13 0.830107 0.265618 0.462860
O O14 0.580136 0.180558 0.437939
O O15 0.000000 0.480172 0.750000
#
# Coordination Sequence:
#
# PCOD9316582 Si02
#       7
#     8   8   4   8   8   8   8
#     4   9  17  36  60  85 122 167 208 257 321 388
#     4  10  18  32  62  97 118 152 215 270 318 384
#     4  12  22  44  60  88 134 166 206 260 332 380
#     4   9  21  36  64  92 117 166 209 261 317 390
#     4  11  24  39  63  90 128 175 211 266 328 394
#     4   8  15  32  57  89 114 151 207 256 314 381
#     4  11  22  38  62  94 125 168 221 266 320 396
#
# _framework density 23.01662
#
# number of rings (size 3 to 8) (size 9 to 14) (size 15 to 20)
#    0.000    2.462    3.846    1.846    4.308    0.000 
#    0.000    0.769    6.769    0.000    0.000    0.000 
#    0.000    0.000    0.000    0.000    0.000    0.000 
#
# Total GULP energy -144878.359491 kJ/mol
# GULP energy per Si atom -5572.244596 kJ/mol
# Density = 2.296423 g / cm^3
# Si number density = 23.016620 Si / 1000 Ang^3
#
#
#
# Elastic Constant Matrix: (Units=GPa)
#
#
# Indices 1 2 3 4 5 6 
#
# 1 41.8803 0.0904 14.8124 0.0000 0.0000 0.0000
# 2 0.0904 109.8678 46.7469 0.0000 0.0000 0.0000
# 3 14.8124 46.7469 149.4144 0.0000 0.0000 0.0000
# 4 0.0000 0.0000 0.0000 35.8019 0.0000 0.0000
# 5 0.0000 0.0000 0.0000 0.0000 27.8794 0.0000
# 6 0.0000 0.0000 0.0000 0.0000 0.0000 -0.6026
#
#
#
# Elastic Compliance Matrix: (Units=1/GPa)
#
#
# Indices 1 2 3 4 5 6 
#
# 1 0.024879 0.001187 -0.002838 0.000000 0.000000 0.000000
# 2 0.001187 0.010556 -0.003420 0.000000 0.000000 0.000000
# 3 -0.002838 -0.003420 0.008044 0.000000 0.000000 0.000000
# 4 0.000000 0.000000 0.000000 0.027931 0.000000 0.000000
# 5 0.000000 0.000000 0.000000 0.000000 0.035869 0.000000
# 6 0.000000 0.000000 0.000000 0.000000 0.000000 -1.659584
#
#
# Mechanical properties :
#
#
# Convention : Reuss Voigt Hill
#
# Bulk Modulus (GPa) = 29.99692 47.16245 38.57968
# Shear Modulus (GPa) = -3.26573 28.58328 12.65877
#
# Velocity S-wave (km/s) = -1.19245 3.52782 2.34772
# Velocity P-wave (km/s) = 3.34142 6.09336 4.91397
#
# Compressibility (1/GPa) = 0.03333676
#
# Stress axis : x y z
#
# Youngs Moduli (GPa) = 40.19509 94.73134 124.31266
#
# Poissons Ratio (x) = -0.11244 0.35277
# Poissons Ratio (y) = -0.04771 0.42519
# Poissons Ratio (z) = 0.11406 0.32401
#
# Static dielectric constant tensor:
#      x y z
#    x 1.978530 0.000000 0.000000 
#    y 0.000000 1.907770 0.000000 
#    z 0.000000 0.000000 1.942530 
# 
# From -- ./inp_files/19126.got.cif
#   From: 2010.05.17/outbox.cif.g08.bks.cpg/sg20_10_cif.got.tgz:19126.got - 2010.06.03 22:52:26.
