data_PCOD9316494
_publ_section_title
;
Structure prediction by ZEFSAII (Michael W. Deem and Ramdas Pophale) SiO2 
 PCOD9316494
Probable space group: C 2 2 21
;
_chemical_formula_sum "Si O2"
_cell_formula_units_Z 40
_cell_length_a 7.272532
_cell_length_b 27.373702
_cell_length_c 7.967323
_cell_angle_alpha 90.000000
_cell_angle_beta 90.000000
_cell_angle_gamma 90.000000
_cell_volume 1586.103780
_symmetry_space_group_name_H-M "C 2 2 21"
_symmetry_group_IT_number 20
_symmetry_cell_setting 'orthorhombic'
loop_
_space_group_symop_operation_xyz
x,y,z
-x,-y,1/2+z
x,-y,-z
-x,y,1/2-z
1/2+x,1/2+y,z
1/2-x,1/2-y,1/2+z
1/2+x,1/2-y,-z
1/2-x,1/2+y,1/2-z
loop_
_atom_site_type_symbol
_atom_site_label
_atom_site_fract_x
_atom_site_fract_y
_atom_site_fract_z
Si Si1 0.716929 0.386250 0.216867
Si Si2 0.756756 0.086946 0.084024
Si Si3 0.113882 0.207381 0.975688
Si Si4 0.822251 0.052440 0.420283
Si Si5 0.762524 0.693532 0.347488
O O1 0.500000 0.395220 0.250000
O O2 0.799264 0.407972 0.389168
O O3 0.716668 0.329465 0.153079
O O4 0.786710 0.416522 0.057353
O O5 0.725823 0.049125 0.238171
O O6 0.681278 0.137703 0.156305
O O7 0.981589 0.081244 0.085030
O O8 0.201916 0.205855 0.159748
O O9 0.906434 0.191827 0.018884
O O10 0.113358 0.262608 0.911367
O O11 0.860625 0.000000 0.500000
#
# Coordination Sequence:
#
# PCOD9316494 Si02
#       5
#     8   8   8   8   8
#     4  10  18  31  49  68 105 143 175 223 275 321
#     4  10  19  31  45  70 105 138 177 225 276 320
#     4  11  21  35  54  79 107 155 193 226 282 333
#     4  10  19  29  46  70 103 139 180 219 278 336
#     4  11  21  36  54  78 113 152 190 234 275 339
#
# _framework density 25.219028000000002
#
# number of rings (size 3 to 8) (size 9 to 14) (size 15 to 20)
#    0.000    1.600    6.000    2.400    8.400    0.000 
#    0.000    0.000    0.000    0.000    0.000    0.000 
#    0.000    1.600    8.400    0.400    6.800    1.600 
#
# Total GULP energy -111464.997295 kJ/mol
# GULP energy per Si atom -5573.249865 kJ/mol
# Density = 2.516163 g / cm^3
# Si number density = 25.219028 Si / 1000 Ang^3
#
#
#
# Elastic Constant Matrix: (Units=GPa)
#
#
# Indices 1 2 3 4 5 6 
#
# 1 60.3411 19.8410 14.4388 0.0000 0.0000 0.0000
# 2 19.8410 107.3369 50.6269 0.0000 0.0000 0.0000
# 3 14.4388 50.6269 202.0578 0.0000 0.0000 0.0000
# 4 0.0000 0.0000 0.0000 27.9964 0.0000 0.0000
# 5 0.0000 0.0000 0.0000 0.0000 4.7292 0.0000
# 6 0.0000 0.0000 0.0000 0.0000 0.0000 12.4027
#
#
#
# Elastic Compliance Matrix: (Units=1/GPa)
#
#
# Indices 1 2 3 4 5 6 
#
# 1 0.017690 -0.003032 -0.000504 0.000000 0.000000 0.000000
# 2 -0.003032 0.011085 -0.002561 0.000000 0.000000 0.000000
# 3 -0.000504 -0.002561 0.005627 0.000000 0.000000 0.000000
# 4 0.000000 0.000000 0.000000 0.035719 0.000000 0.000000
# 5 0.000000 0.000000 0.000000 0.000000 0.211452 0.000000
# 6 0.000000 0.000000 0.000000 0.000000 0.000000 0.080628
#
#
# Mechanical properties :
#
#
# Convention : Reuss Voigt Hill
#
# Bulk Modulus (GPa) = 45.03035 59.94994 52.49015
# Shear Modulus (GPa) = 13.09595 28.01425 20.55510
#
# Velocity S-wave (km/s) = 2.28126 3.33654 2.85803
# Velocity P-wave (km/s) = 4.98331 6.21825 5.63471
#
# Compressibility (1/GPa) = 0.02220724
#
# Stress axis : x y z
#
# Youngs Moduli (GPa) = 56.52863 90.21435 177.72350
#
# Poissons Ratio (x) = 0.27354 0.08965
# Poissons Ratio (y) = 0.17140 0.45509
# Poissons Ratio (z) = 0.02851 0.23101
#
# Static dielectric constant tensor:
#      x y z
#    x 2.052880 0.000000 0.000000 
#    y 0.000000 1.972670 0.000000 
#    z 0.000000 0.000000 2.069310 
# 
# From -- ./inp_files/7485.got.cif
#   From: 2010.05.17/outbox.cif.g08.bks.cpg/sg20_4_cif.got.tgz:7485.got - 2010.06.03 22:52:26.
