data_PCOD9316171
_publ_section_title
;
Structure prediction by ZEFSAII (Michael W. Deem and Ramdas Pophale) SiO2 
 PCOD9316171
Probable space group: P 21 21 21
;
_chemical_formula_sum "Si O2"
_cell_formula_units_Z 28
_cell_length_a 24.000000
_cell_length_b 6.000000
_cell_length_c 9.000000
_cell_angle_alpha 90.000000
_cell_angle_beta 90.000000
_cell_angle_gamma 90.000000
_cell_volume 1296.000000
_symmetry_space_group_name_H-M "P 21 21 21"
_symmetry_group_IT_number 19
_symmetry_cell_setting 'orthorhombic'
loop_
_space_group_symop_operation_xyz
x,y,z
1/2-x,-y,1/2+z
1/2+x,1/2-y,-z
-x,1/2+y,1/2-z
loop_
_atom_site_type_symbol
_atom_site_label
_atom_site_fract_x
_atom_site_fract_y
_atom_site_fract_z
Si Si1 0.324321 0.561150 0.486227
Si Si2 0.111421 0.067279 0.085482
Si Si3 0.659957 0.514869 0.602540
Si Si4 0.208160 0.490463 0.337657
Si Si5 0.062843 0.693167 0.893000
Si Si6 0.948059 0.412939 0.924058
Si Si7 0.991905 0.765404 0.315150
O O1 0.340203 0.824728 0.487016
O O2 0.273561 0.502288 0.378032
O O3 0.307107 0.506629 0.659541
O O4 0.380657 0.443759 0.426477
O O5 0.136603 0.960896 0.230894
O O6 0.072788 0.269240 0.141366
O O7 0.070162 0.899964 0.004188
O O8 0.686385 0.770174 0.586462
O O9 0.608754 0.484141 0.487910
O O10 0.689394 0.264042 0.607377
O O11 0.063663 0.794505 0.729657
O O12 0.003219 0.569291 0.908738
O O13 0.966978 0.234674 0.046772
O O14 0.996502 0.524433 0.232342
#
# Coordination Sequence:
#
# PCOD9316171 Si02
#       7
#     4   4   4   4   4   4   4
#     4  11  27  50  78 108 152 203 259 323 385 449
#     4  11  24  47  75 106 152 193 255 313 379 445
#     4  11  27  47  77 112 146 202 265 310 381 467
#     4  11  28  50  77 114 150 203 265 325 384 453
#     4  12  27  51  69 117 160 202 250 323 391 463
#     4  12  28  45  77 111 159 205 248 313 395 469
#     4  12  25  42  73 108 149 200 246 301 363 456
#
# _framework density 21.604938000000001
#
# number of rings (size 3 to 8) (size 9 to 14) (size 15 to 20)
#    0.000    0.571    4.286    1.714    8.000    2.286 
#    0.000    0.000    0.000    0.000    0.000    0.000 
#    0.000    0.000    0.000    0.000    0.000    0.000 
#
# Total GULP energy -155909.688542 kJ/mol
# GULP energy per Si atom -5568.203162 kJ/mol
# Density = 2.155576 g / cm^3
# Si number density = 21.604938 Si / 1000 Ang^3
#
#
#
# Elastic Constant Matrix: (Units=GPa)
#
#
# Indices 1 2 3 4 5 6 
#
# 1 125.2197 69.8541 47.5063 0.0000 0.0000 0.0000
# 2 69.8541 137.6199 54.7113 0.0000 0.0000 0.0000
# 3 47.5063 54.7113 87.1815 0.0000 0.0000 0.0000
# 4 0.0000 0.0000 0.0000 22.5051 0.0000 0.0000
# 5 0.0000 0.0000 0.0000 0.0000 41.9238 0.0000
# 6 0.0000 0.0000 0.0000 0.0000 0.0000 30.9393
#
#
#
# Elastic Compliance Matrix: (Units=1/GPa)
#
#
# Indices 1 2 3 4 5 6 
#
# 1 0.011932 -0.004626 -0.003599 0.000000 0.000000 0.000000
# 2 -0.004626 0.011475 -0.004681 0.000000 0.000000 0.000000
# 3 -0.003599 -0.004681 0.016369 0.000000 0.000000 0.000000
# 4 0.000000 0.000000 0.000000 0.044434 0.000000 0.000000
# 5 0.000000 0.000000 0.000000 0.000000 0.023853 0.000000
# 6 0.000000 0.000000 0.000000 0.000000 0.000000 0.032321
#
#
# Mechanical properties :
#
#
# Convention : Reuss Voigt Hill
#
# Bulk Modulus (GPa) = 71.60670 77.12938 74.36804
# Shear Modulus (GPa) = 29.26544 30.93693 30.10119
#
# Velocity S-wave (km/s) = 3.68444 3.78820 3.73668
# Velocity P-wave (km/s) = 7.16350 7.41022 7.28791
#
# Compressibility (1/GPa) = 0.01396517
#
# Stress axis : x y z
#
# Youngs Moduli (GPa) = 83.80992 87.14476 61.09169
#
# Poissons Ratio (x) = 0.40310 0.21986
# Poissons Ratio (y) = 0.38768 0.28595
# Poissons Ratio (z) = 0.30162 0.40790
#
# Static dielectric constant tensor:
#      x y z
#    x 1.849690 0.000000 0.000000 
#    y 0.000000 1.873260 0.000000 
#    z 0.000000 0.000000 1.828120 
# 
# From -- ./inp_files/4347.got.cif
#   From: 2010.05.17/outbox.ucp.g08.bks.cvg/sg19_3_cif.got.tgz:4347.got - 2010.06.11 13:13:52.
