data_PCOD9316466
_publ_section_title
;
Structure prediction by ZEFSAII (Michael W. Deem and Ramdas Pophale) SiO2 
 PCOD9316466
Probable space group: C 2 2 21
;
_chemical_formula_sum "Si O2"
_cell_formula_units_Z 40
_cell_length_a 7.580164
_cell_length_b 30.397496
_cell_length_c 7.988414
_cell_angle_alpha 90.000000
_cell_angle_beta 90.000000
_cell_angle_gamma 90.000000
_cell_volume 1840.674416
_symmetry_space_group_name_H-M "C 2 2 21"
_symmetry_group_IT_number 20
_symmetry_cell_setting 'orthorhombic'
loop_
_space_group_symop_operation_xyz
x,y,z
-x,-y,1/2+z
x,-y,-z
-x,y,1/2-z
1/2+x,1/2+y,z
1/2-x,1/2-y,1/2+z
1/2+x,1/2-y,-z
1/2-x,1/2+y,1/2-z
loop_
_atom_site_type_symbol
_atom_site_label
_atom_site_fract_x
_atom_site_fract_y
_atom_site_fract_z
Si Si1 0.118011 0.101087 0.491887
Si Si2 0.273695 0.000000 0.000000
Si Si3 0.500000 0.245740 0.750000
Si Si4 0.000000 0.035536 0.750000
Si Si5 0.279823 0.089697 0.136284
Si Si6 0.500000 0.166208 0.250000
Si Si7 0.729063 0.299669 0.492281
O O1 0.237069 0.086430 0.334620
O O2 0.163868 0.150645 0.542242
O O3 0.124961 0.066502 0.639605
O O4 0.912041 0.098550 0.440988
O O5 0.362371 0.046338 0.049120
O O6 0.136549 0.993659 0.150429
O O7 0.574343 0.273119 0.589158
O O8 0.333563 0.219510 0.668086
O O9 0.396381 0.133356 0.125173
O O10 0.629105 0.194940 0.140970
#
# Coordination Sequence:
#
# PCOD9316466 Si02
#       7
#     8   4   4   4   8   4   8
#     4   9  19  35  57  80 109 151 197 238 294 367
#     4  10  18  30  50  82 114 142 194 250 290 346
#     4  12  26  42  67  97 124 160 200 261 319 358
#     4  10  18  30  54  80 108 148 190 240 294 350
#     4   9  18  34  56  81 111 155 195 241 298 346
#     4  10  20  40  61  81 120 164 198 243 305 372
#     4  11  24  42  63  91 123 157 203 252 306 377
#
# _framework density 21.731165000000001
#
# number of rings (size 3 to 8) (size 9 to 14) (size 15 to 20)
#    0.000    2.000    0.000    6.000    0.000    4.800 
#    0.000    4.000    0.000    0.000    0.000    0.000 
#    0.000    0.000    0.000    0.000    0.000    0.000 
#
# Total GULP energy -111547.410725 kJ/mol
# GULP energy per Si atom -5577.370536 kJ/mol
# Density = 2.168170 g / cm^3
# Si number density = 21.731165 Si / 1000 Ang^3
#
#
#
# Elastic Constant Matrix: (Units=GPa)
#
#
# Indices 1 2 3 4 5 6 
#
# 1 46.2986 11.4592 3.1444 0.0000 0.0000 0.0000
# 2 11.4592 69.3965 14.6862 0.0000 0.0000 0.0000
# 3 3.1444 14.6862 39.7223 0.0000 0.0000 0.0000
# 4 0.0000 0.0000 0.0000 44.7898 0.0000 0.0000
# 5 0.0000 0.0000 0.0000 0.0000 28.5687 0.0000
# 6 0.0000 0.0000 0.0000 0.0000 0.0000 41.7502
#
#
#
# Elastic Compliance Matrix: (Units=1/GPa)
#
#
# Indices 1 2 3 4 5 6 
#
# 1 0.022526 -0.003626 -0.000443 0.000000 0.000000 0.000000
# 2 -0.003626 0.016217 -0.005709 0.000000 0.000000 0.000000
# 3 -0.000443 -0.005709 0.027320 0.000000 0.000000 0.000000
# 4 0.000000 0.000000 0.000000 0.022327 0.000000 0.000000
# 5 0.000000 0.000000 0.000000 0.000000 0.035003 0.000000
# 6 0.000000 0.000000 0.000000 0.000000 0.000000 0.023952
#
#
# Mechanical properties :
#
#
# Convention : Reuss Voigt Hill
#
# Bulk Modulus (GPa) = 21.50118 23.77748 22.63933
# Shear Modulus (GPa) = 27.41180 31.43024 29.42102
#
# Velocity S-wave (km/s) = 3.55548 3.80718 3.68348
# Velocity P-wave (km/s) = 5.17406 5.50378 5.34146
#
# Compressibility (1/GPa) = 0.04650908
#
# Stress axis : x y z
#
# Youngs Moduli (GPa) = 44.39225 61.66436 36.60267
#
# Poissons Ratio (x) = 0.22360 0.01620
# Poissons Ratio (y) = 0.16097 0.20895
# Poissons Ratio (z) = 0.01965 0.35202
#
# Static dielectric constant tensor:
#      x y z
#    x 1.829480 0.000000 0.000000 
#    y 0.000000 1.803380 0.000000 
#    z 0.000000 0.000000 1.852980 
# 
# From -- ./inp_files/6322.got.cif
#   From: 2010.05.17/outbox.cif.g08.bks.cpg/sg20_4_cif.got.tgz:6322.got - 2010.06.03 22:52:26.
