data_PCOD9316492
_publ_section_title
;
Structure prediction by ZEFSAII (Michael W. Deem and Ramdas Pophale) SiO2 
 PCOD9316492
Probable space group: C 2 2 21
;
_chemical_formula_sum "Si O2"
_cell_formula_units_Z 48
_cell_length_a 22.334309
_cell_length_b 30.096761
_cell_length_c 5.208150
_cell_angle_alpha 90.000000
_cell_angle_beta 90.000000
_cell_angle_gamma 90.000000
_cell_volume 3500.868224
_symmetry_space_group_name_H-M "C 2 2 21"
_symmetry_group_IT_number 20
_symmetry_cell_setting 'orthorhombic'
loop_
_space_group_symop_operation_xyz
x,y,z
-x,-y,1/2+z
x,-y,-z
-x,y,1/2-z
1/2+x,1/2+y,z
1/2-x,1/2-y,1/2+z
1/2+x,1/2-y,-z
1/2-x,1/2+y,1/2-z
loop_
_atom_site_type_symbol
_atom_site_label
_atom_site_fract_x
_atom_site_fract_y
_atom_site_fract_z
Si Si1 0.273620 0.806653 0.462052
Si Si2 0.459907 0.212409 0.997612
Si Si3 0.065018 0.386967 0.641821
Si Si4 0.341308 0.051351 0.928206
Si Si5 0.171581 0.261584 0.537327
Si Si6 0.182926 0.400946 0.919668
O O1 0.208104 0.784455 0.476887
O O2 0.311620 0.784135 0.691801
O O3 0.277346 0.859134 0.502780
O O4 0.302429 0.792377 0.191339
O O5 0.500000 0.218953 0.250000
O O6 0.439826 0.160469 0.002723
O O7 0.399342 0.240716 0.006461
O O8 0.500000 0.220912 0.750000
O O9 0.093738 0.425187 0.465537
O O10 0.114903 0.383051 0.867437
O O11 0.000000 0.398165 0.750000
O O12 0.319237 0.063098 0.645399
O O13 0.302362 0.923261 0.853680
O O14 0.343973 0.000000 0.000000
#
# Coordination Sequence:
#
# PCOD9316492 Si02
#       6
#     8   8   8   8   8   8
#     4  10  18  31  48  66  85 111 141 192 216 266
#     4  11  21  30  45  64  91 118 146 181 221 261
#     4   9  21  29  45  57  81 107 148 183 219 254
#     4  10  21  34  44  59  81 107 145 187 227 267
#     4  10  19  30  46  67  89 109 146 179 226 256
#     4  10  19  32  47  59  82 104 145 176 230 258
#
# _framework density 13.710884
#
# number of rings (size 3 to 8) (size 9 to 14) (size 15 to 20)
#    1.000    1.000    1.667    3.500    7.000    0.000 
#    3.000    0.000    0.000    0.000    0.000    0.000 
#    0.000    0.000    0.000    0.000    0.000   16.667 
#
# Total GULP energy -133670.102605 kJ/mol
# GULP energy per Si atom -5569.587609 kJ/mol
# Density = 1.367968 g / cm^3
# Si number density = 13.710884 Si / 1000 Ang^3
#
#
#
# Elastic Constant Matrix: (Units=GPa)
#
#
# Indices 1 2 3 4 5 6 
#
# 1 58.2653 29.6024 6.6129 0.0000 0.0000 0.0000
# 2 29.6024 35.8064 -5.1702 0.0000 0.0000 0.0000
# 3 6.6129 -5.1702 43.8463 0.0000 0.0000 0.0000
# 4 0.0000 0.0000 0.0000 3.5977 0.0000 0.0000
# 5 0.0000 0.0000 0.0000 0.0000 14.0250 0.0000
# 6 0.0000 0.0000 0.0000 0.0000 0.0000 7.8760
#
#
#
# Elastic Compliance Matrix: (Units=1/GPa)
#
#
# Indices 1 2 3 4 5 6 
#
# 1 0.032215 -0.027808 -0.008138 0.000000 0.000000 0.000000
# 2 -0.027808 0.052416 0.010375 0.000000 0.000000 0.000000
# 3 -0.008138 0.010375 0.025258 0.000000 0.000000 0.000000
# 4 0.000000 0.000000 0.000000 0.277957 0.000000 0.000000
# 5 0.000000 0.000000 0.000000 0.000000 0.071301 0.000000
# 6 0.000000 0.000000 0.000000 0.000000 0.000000 0.126968
#
#
# Mechanical properties :
#
#
# Convention : Reuss Voigt Hill
#
# Bulk Modulus (GPa) = 17.02236 22.22312 19.62274
# Shear Modulus (GPa) = 7.61223 12.22460 9.91842
#
# Velocity S-wave (km/s) = 2.35882 2.98920 2.69252
# Velocity P-wave (km/s) = 4.45655 5.30635 4.89991
#
# Compressibility (1/GPa) = 0.05874625
#
# Stress axis : x y z
#
# Youngs Moduli (GPa) = 31.04180 19.07821 39.59205
#
# Poissons Ratio (x) = 0.53053 0.32219
# Poissons Ratio (y) = 0.86321 -0.41076
# Poissons Ratio (z) = 0.25261 -0.19793
#
# Static dielectric constant tensor:
#      x y z
#    x 1.438030 0.000000 0.000000 
#    y 0.000000 1.441780 0.000000 
#    z 0.000000 0.000000 1.476610 
# 
# From -- ./inp_files/2185.got.cif
#   From: 2010.05.17/outbox.cif.g08.bks.cpg/sg20_2_cif.got.tgz:2185.got - 2010.06.03 22:52:26.
