data_PCOD9316590
_publ_section_title
;
Structure prediction by ZEFSAII (Michael W. Deem and Ramdas Pophale) SiO2 
 PCOD9316590
Probable space group: C 2 2 21
;
_chemical_formula_sum "Si O2"
_cell_formula_units_Z 64
_cell_length_a 26.471542
_cell_length_b 8.205586
_cell_length_c 13.728927
_cell_angle_alpha 90.000000
_cell_angle_beta 90.000000
_cell_angle_gamma 90.000000
_cell_volume 2982.122212
_symmetry_space_group_name_H-M "C 2 2 21"
_symmetry_group_IT_number 20
_symmetry_cell_setting 'orthorhombic'
loop_
_space_group_symop_operation_xyz
x,y,z
-x,-y,1/2+z
x,-y,-z
-x,y,1/2-z
1/2+x,1/2+y,z
1/2-x,1/2-y,1/2+z
1/2+x,1/2-y,-z
1/2-x,1/2+y,1/2-z
loop_
_atom_site_type_symbol
_atom_site_label
_atom_site_fract_x
_atom_site_fract_y
_atom_site_fract_z
Si Si1 0.591198 0.004585 0.115719
Si Si2 0.312193 0.122309 0.289830
Si Si3 0.807386 0.185226 0.523486
Si Si4 0.557382 0.346056 0.216149
Si Si5 0.302420 0.813335 0.030299
Si Si6 0.859898 0.178179 0.872468
Si Si7 0.696977 0.378040 0.711413
Si Si8 0.610089 0.663215 0.131647
O O1 0.576862 0.824000 0.154867
O O2 0.651161 0.010394 0.145301
O O3 0.568059 0.168793 0.164877
O O4 0.581846 0.000000 0.000000
O O5 0.312326 0.279895 0.361990
O O6 0.337584 0.171689 0.189858
O O7 0.254863 0.078511 0.268666
O O8 0.752502 0.263530 0.496097
O O9 0.861579 0.205965 0.471010
O O10 0.797300 0.000000 0.500000
O O11 0.500000 0.363083 0.250000
O O12 0.588040 0.353965 0.318298
O O13 0.578569 0.495918 0.148643
O O14 0.303575 0.783144 0.145116
O O15 0.350884 0.726193 0.982933
O O16 0.304928 0.000000 0.000000
O O17 0.825096 0.023826 0.852015
O O18 0.659205 0.354249 0.799827
#
# Coordination Sequence:
#
# PCOD9316590 Si02
#       8
#     8   8   8   8   8   8   8   8
#     4  11  23  39  69 101 129 165 212 270 329 383
#     4  10  21  32  56  91 131 167 201 251 310 369
#     4  10  18  33  53  90 130 168 201 248 302 383
#     4  10  25  48  69  90 123 162 213 281 339 381
#     4  10  22  34  55  84 127 167 212 252 303 373
#     4  10  21  39  59  81 118 163 205 258 311 378
#     4  10  22  34  55  89 125 176 211 242 304 384
#     4  11  23  39  68  91 132 171 218 267 320 385
#
# _framework density 21.461227000000001
#
# number of rings (size 3 to 8) (size 9 to 14) (size 15 to 20)
#    0.000    1.750    1.250    3.375    7.000    1.500 
#    0.000    0.625   11.000    0.000    0.000    0.000 
#    0.000    0.000    0.000    0.000    0.000    0.000 
#
# Total GULP energy -178290.868401 kJ/mol
# GULP energy per Si atom -5571.589638 kJ/mol
# Density = 2.141238 g / cm^3
# Si number density = 21.461227 Si / 1000 Ang^3
#
#
#
# Elastic Constant Matrix: (Units=GPa)
#
#
# Indices 1 2 3 4 5 6 
#
# 1 115.1709 34.0173 21.5407 0.0000 0.0000 0.0000
# 2 34.0173 104.5345 7.4899 0.0000 0.0000 0.0000
# 3 21.5407 7.4899 61.4672 0.0000 0.0000 0.0000
# 4 0.0000 0.0000 0.0000 27.0739 0.0000 0.0000
# 5 0.0000 0.0000 0.0000 0.0000 18.1516 0.0000
# 6 0.0000 0.0000 0.0000 0.0000 0.0000 16.0729
#
#
#
# Elastic Compliance Matrix: (Units=1/GPa)
#
#
# Indices 1 2 3 4 5 6 
#
# 1 0.010192 -0.003088 -0.003196 0.000000 0.000000 0.000000
# 2 -0.003088 0.010586 -0.000208 0.000000 0.000000 0.000000
# 3 -0.003196 -0.000208 0.017414 0.000000 0.000000 0.000000
# 4 0.000000 0.000000 0.000000 0.036936 0.000000 0.000000
# 5 0.000000 0.000000 0.000000 0.000000 0.055092 0.000000
# 6 0.000000 0.000000 0.000000 0.000000 0.000000 0.062216
#
#
# Mechanical properties :
#
#
# Convention : Reuss Voigt Hill
#
# Bulk Modulus (GPa) = 39.66688 45.25203 42.45946
# Shear Modulus (GPa) = 23.38390 26.80133 25.09261
#
# Velocity S-wave (km/s) = 3.30447 3.53771 3.42308
# Velocity P-wave (km/s) = 5.75174 6.14967 5.95403
#
# Compressibility (1/GPa) = 0.02520995
#
# Stress axis : x y z
#
# Youngs Moduli (GPa) = 98.11164 94.46487 57.42490
#
# Poissons Ratio (x) = 0.29169 0.18351
# Poissons Ratio (y) = 0.30295 0.01193
# Poissons Ratio (z) = 0.31353 0.01963
#
# Static dielectric constant tensor:
#      x y z
#    x 1.793880 0.000000 0.000000 
#    y 0.000000 1.894410 0.000000 
#    z 0.000000 0.000000 1.852830 
# 
# From -- ./inp_files/22040.got.cif
#   From: 2010.05.17/outbox.cif.g08.bks.cpg/sg20_12_cif.got.tgz:22040.got - 2010.06.03 22:52:26.
