data_PCOD9316937
_publ_section_title
;
Structure prediction by ZEFSAII (Michael W. Deem and Ramdas Pophale) SiO2 
 PCOD9316937
Probable space group: C 2 2 21
;
_chemical_formula_sum "Si O2"
_cell_formula_units_Z 52
_cell_length_a 16.656575
_cell_length_b 17.990650
_cell_length_c 9.351477
_cell_angle_alpha 90.000000
_cell_angle_beta 90.000000
_cell_angle_gamma 90.000000
_cell_volume 2802.288015
_symmetry_space_group_name_H-M "C 2 2 21"
_symmetry_group_IT_number 20
_symmetry_cell_setting 'orthorhombic'
loop_
_space_group_symop_operation_xyz
x,y,z
-x,-y,1/2+z
x,-y,-z
-x,y,1/2-z
1/2+x,1/2+y,z
1/2-x,1/2-y,1/2+z
1/2+x,1/2-y,-z
1/2-x,1/2+y,1/2-z
loop_
_atom_site_type_symbol
_atom_site_label
_atom_site_fract_x
_atom_site_fract_y
_atom_site_fract_z
Si Si1 0.719827 0.924011 0.083719
Si Si2 0.500000 0.561727 0.250000
Si Si3 0.600209 0.576326 0.674932
Si Si4 0.500000 0.862719 0.250000
Si Si5 0.593842 0.193788 0.006355
Si Si6 0.119739 0.521163 0.652482
Si Si7 0.945065 0.861662 0.464292
Si Si8 0.500000 0.893687 0.750000
O O1 0.814349 0.914363 0.102738
O O2 0.681112 0.942110 0.237783
O O3 0.674998 0.855203 0.006949
O O4 0.702899 0.000000 0.000000
O O5 0.437919 0.506316 0.169017
O O6 0.454797 0.607444 0.374517
O O7 0.603566 0.591073 0.846029
O O8 0.535503 0.631926 0.602152
O O9 0.443848 0.814414 0.348910
O O10 0.450962 0.917449 0.145081
O O11 0.594679 0.280758 0.038384
O O12 0.534765 0.156036 0.121951
O O13 0.155068 0.500000 0.500000
O O14 0.073759 0.448029 0.708792
#
# Coordination Sequence:
#
# PCOD9316937 Si02
#       8
#     8   4   8   4   8   8   8   4
#     4  11  22  38  58  93 125 161 201 262 309 360
#     4  10  19  39  71  91 106 156 212 260 299 363
#     4  10  21  41  64  88 121 151 212 260 309 360
#     4   9  19  30  50  79 115 154 198 246 276 366
#     4  11  21  36  60  87 124 161 201 246 312 374
#     4  10  19  31  51  82 115 156 206 242 292 351
#     4  10  21  39  64  92 115 164 206 251 306 379
#     4  11  18  33  55  80 119 164 202 236 289 383
#
# _framework density 18.556266999999998
#
# number of rings (size 3 to 8) (size 9 to 14) (size 15 to 20)
#    0.000    1.846    3.077    4.154    0.000    1.231 
#    0.000    6.154    0.000    0.000    0.000    0.000 
#    0.000    0.000    0.000    0.000    0.000    0.000 
#
# Total GULP energy -144852.724704 kJ/mol
# GULP energy per Si atom -5571.258642 kJ/mol
# Density = 1.851403 g / cm^3
# Si number density = 18.556267 Si / 1000 Ang^3
#
#
#
# Elastic Constant Matrix: (Units=GPa)
#
#
# Indices 1 2 3 4 5 6 
#
# 1 84.2627 26.2243 9.5397 0.0000 0.0000 0.0000
# 2 26.2243 91.7037 21.2429 0.0000 0.0000 0.0000
# 3 9.5397 21.2429 76.8512 0.0000 0.0000 0.0000
# 4 0.0000 0.0000 0.0000 26.2450 0.0000 0.0000
# 5 0.0000 0.0000 0.0000 0.0000 24.1220 0.0000
# 6 0.0000 0.0000 0.0000 0.0000 0.0000 8.7626
#
#
#
# Elastic Compliance Matrix: (Units=1/GPa)
#
#
# Indices 1 2 3 4 5 6 
#
# 1 0.013055 -0.003588 -0.000629 0.000000 0.000000 0.000000
# 2 -0.003588 0.012637 -0.003048 0.000000 0.000000 0.000000
# 3 -0.000629 -0.003048 0.013933 0.000000 0.000000 0.000000
# 4 0.000000 0.000000 0.000000 0.038102 0.000000 0.000000
# 5 0.000000 0.000000 0.000000 0.000000 0.041456 0.000000
# 6 0.000000 0.000000 0.000000 0.000000 0.000000 0.114121
#
#
# Mechanical properties :
#
#
# Convention : Reuss Voigt Hill
#
# Bulk Modulus (GPa) = 39.84668 40.75905 40.30287
# Shear Modulus (GPa) = 19.51615 24.87997 22.19806
#
# Velocity S-wave (km/s) = 3.24655 3.66565 3.46245
# Velocity P-wave (km/s) = 5.96436 6.31892 6.14420
#
# Compressibility (1/GPa) = 0.02509619
#
# Stress axis : x y z
#
# Youngs Moduli (GPa) = 76.59645 79.13491 71.77393
#
# Poissons Ratio (x) = 0.28392 0.04514
# Poissons Ratio (y) = 0.27481 0.21874
# Poissons Ratio (z) = 0.04817 0.24117
#
# Static dielectric constant tensor:
#      x y z
#    x 1.640120 0.000000 0.000000 
#    y 0.000000 1.656730 0.000000 
#    z 0.000000 0.000000 1.679600 
# 
# From -- ./inp_files/9555.got.cif
#   From: 2010.05.17/outbox.cif.g08.bks.cpg/sg20_5_cif.got.tgz:9555.got - 2010.06.03 22:52:26.
