data_PCOD9316830
_publ_section_title
;
Structure prediction by ZEFSAII (Michael W. Deem and Ramdas Pophale) SiO2 
 PCOD9316830
Probable space group: C 2 2 21
;
_chemical_formula_sum "Si O2"
_cell_formula_units_Z 56
_cell_length_a 11.338484
_cell_length_b 15.515303
_cell_length_c 15.738669
_cell_angle_alpha 90.000000
_cell_angle_beta 90.000000
_cell_angle_gamma 90.000000
_cell_volume 2768.746884
_symmetry_space_group_name_H-M "C 2 2 21"
_symmetry_group_IT_number 20
_symmetry_cell_setting 'orthorhombic'
loop_
_space_group_symop_operation_xyz
x,y,z
-x,-y,1/2+z
x,-y,-z
-x,y,1/2-z
1/2+x,1/2+y,z
1/2-x,1/2-y,1/2+z
1/2+x,1/2-y,-z
1/2-x,1/2+y,1/2-z
loop_
_atom_site_type_symbol
_atom_site_label
_atom_site_fract_x
_atom_site_fract_y
_atom_site_fract_z
Si Si1 0.406828 0.221191 0.824727
Si Si2 0.405444 0.402041 0.900604
Si Si3 0.884242 0.844270 0.488849
Si Si4 0.037347 0.654239 0.993774
Si Si5 0.825611 0.568308 0.077879
Si Si6 0.000000 0.006037 0.750000
Si Si7 0.287311 0.000000 0.500000
Si Si8 0.724207 0.578379 0.817428
O O1 0.500000 0.235954 0.750000
O O2 0.361961 0.313242 0.858160
O O3 0.309216 0.155454 0.791606
O O4 0.464448 0.176798 0.908269
O O5 0.490504 0.447855 0.833263
O O6 0.489049 0.379104 0.980438
O O7 0.298511 0.462100 0.928094
O O8 0.785201 0.869699 0.558356
O O9 0.840870 0.889819 0.403540
O O10 0.896825 0.741888 0.480210
O O11 0.945986 0.621838 0.066363
O O12 0.128572 0.578482 0.973655
O O13 0.797445 0.508372 0.158892
O O14 0.832328 0.500000 0.000000
O O15 0.880291 0.059435 0.746833
#
# Coordination Sequence:
#
# PCOD9316830 Si02
#       8
#     8   8   8   8   8   4   4   8
#     4  11  23  41  62  87 129 171 199 246 330 390
#     4  11  24  41  62  90 127 164 204 266 314 367
#     4  10  21  40  64  90 118 164 212 252 312 371
#     4  11  22  38  66  96 120 156 213 265 308 370
#     4  10  18  39  62  86 117 158 202 250 306 364
#     4  12  24  40  58  92 122 168 210 250 318 376
#     4  12  24  38  64 100 122 148 222 276 298 348
#     4  11  22  41  66  88 122 166 213 257 305 384
#
# _framework density 20.225756000000001
#
# number of rings (size 3 to 8) (size 9 to 14) (size 15 to 20)
#    0.000    1.143    5.714    1.714    5.000    0.000 
#    0.000    1.429    0.000    0.000    0.000    0.000 
#    0.000    0.000    0.000    0.000    0.000    0.000 
#
# Total GULP energy -156410.640071 kJ/mol
# GULP energy per Si atom -5586.094288 kJ/mol
# Density = 2.017972 g / cm^3
# Si number density = 20.225756 Si / 1000 Ang^3
#
#
#
# Elastic Constant Matrix: (Units=GPa)
#
#
# Indices 1 2 3 4 5 6 
#
# 1 89.1866 61.3424 11.2399 0.0000 0.0000 0.0000
# 2 61.3424 132.7906 17.8475 0.0000 0.0000 0.0000
# 3 11.2399 17.8475 32.0594 0.0000 0.0000 0.0000
# 4 0.0000 0.0000 0.0000 9.7080 0.0000 0.0000
# 5 0.0000 0.0000 0.0000 0.0000 23.5845 0.0000
# 6 0.0000 0.0000 0.0000 0.0000 0.0000 38.8498
#
#
#
# Elastic Compliance Matrix: (Units=1/GPa)
#
#
# Indices 1 2 3 4 5 6 
#
# 1 0.016516 -0.007405 -0.001668 0.000000 0.000000 0.000000
# 2 -0.007405 0.011460 -0.003784 0.000000 0.000000 0.000000
# 3 -0.001668 -0.003784 0.033883 0.000000 0.000000 0.000000
# 4 0.000000 0.000000 0.000000 0.103008 0.000000 0.000000
# 5 0.000000 0.000000 0.000000 0.000000 0.042401 0.000000
# 6 0.000000 0.000000 0.000000 0.000000 0.000000 0.025740
#
#
# Mechanical properties :
#
#
# Convention : Reuss Voigt Hill
#
# Bulk Modulus (GPa) = 27.66583 48.32182 37.99382
# Shear Modulus (GPa) = 18.46586 25.33558 21.90072
#
# Velocity S-wave (km/s) = 3.02485 3.54310 3.29418
# Velocity P-wave (km/s) = 5.08997 6.37818 5.77014
#
# Compressibility (1/GPa) = 0.03614567
#
# Stress axis : x y z
#
# Youngs Moduli (GPa) = 60.54713 87.25936 29.51317
#
# Poissons Ratio (x) = 0.64619 0.04922
# Poissons Ratio (y) = 0.44838 0.11166
# Poissons Ratio (z) = 0.10099 0.33015
#
# Static dielectric constant tensor:
#      x y z
#    x 1.730230 0.000000 0.000000 
#    y 0.000000 1.733370 0.000000 
#    z 0.000000 0.000000 1.721530 
# 
# From -- ./inp_files/20091.got.cif
#   From: 2010.05.17/outbox.cif.g08.bks.cpg/sg20_11_cif.got.tgz:20091.got - 2010.06.03 22:52:26.
