data_PCOD9316298
_publ_section_title
;
Structure prediction by ZEFSAII (Michael W. Deem and Ramdas Pophale) SiO2 
 PCOD9316298
Probable space group: C 2 2 21
;
_chemical_formula_sum "Si O2"
_cell_formula_units_Z 56
_cell_length_a 17.667781
_cell_length_b 14.055884
_cell_length_c 9.600944
_cell_angle_alpha 90.000000
_cell_angle_beta 90.000000
_cell_angle_gamma 90.000000
_cell_volume 2384.262720
_symmetry_space_group_name_H-M "C 2 2 21"
_symmetry_group_IT_number 20
_symmetry_cell_setting 'orthorhombic'
loop_
_space_group_symop_operation_xyz
x,y,z
-x,-y,1/2+z
x,-y,-z
-x,y,1/2-z
1/2+x,1/2+y,z
1/2-x,1/2-y,1/2+z
1/2+x,1/2-y,-z
1/2-x,1/2+y,1/2-z
loop_
_atom_site_type_symbol
_atom_site_label
_atom_site_fract_x
_atom_site_fract_y
_atom_site_fract_z
Si Si1 0.529074 0.885718 0.403159
Si Si2 0.221138 0.000000 0.000000
Si Si3 0.069178 0.813803 0.635270
Si Si4 0.789736 0.737827 0.714607
Si Si5 0.661316 0.702038 0.912727
Si Si6 0.483338 0.410314 0.412101
Si Si7 0.895371 0.500000 0.500000
Si Si8 0.664701 0.980388 0.285554
O O1 0.500000 0.859528 0.250000
O O2 0.567170 0.788242 0.445291
O O3 0.585109 0.972206 0.366254
O O4 0.453905 0.913726 0.482312
O O5 0.183555 0.090789 0.931821
O O6 0.276506 0.036683 0.122007
O O7 0.148900 0.810046 0.716085
O O8 0.000000 0.828651 0.750000
O O9 0.055446 0.886460 0.509774
O O10 0.804753 0.747298 0.549998
O O11 0.814012 0.630473 0.759892
O O12 0.705328 0.744255 0.779066
O O13 0.570974 0.683993 0.912074
O O14 0.450020 0.500000 0.500000
O O15 0.500000 0.433130 0.250000
O O16 0.846898 0.479269 0.634054
#
# Coordination Sequence:
#
# PCOD9316298 Si02
#       8
#     8   4   8   8   8   8   4   8
#     4   8  16  30  52  83 118 161 199 249 315 381
#     4  10  21  40  58  84 123 166 206 262 330 396
#     4  10  19  41  68  92 129 177 218 278 350 406
#     4  10  23  41  68  92 132 178 224 278 352 412
#     4  11  24  44  68  96 134 177 230 285 349 424
#     4  12  27  45  72 103 138 178 237 294 353 423
#     4  10  17  28  54  86 117 158 206 252 302 380
#     4   9  19  35  55  83 119 166 207 250 316 391
#
# _framework density 23.487345000000001
#
# number of rings (size 3 to 8) (size 9 to 14) (size 15 to 20)
#    0.000    2.000    2.143    1.714    2.000    1.143 
#    0.000    2.143    6.286    0.000    0.000    0.000 
#    0.000    0.000    0.000    0.000    0.000    0.000 
#
# Total GULP energy -155994.116943 kJ/mol
# GULP energy per Si atom -5571.218462 kJ/mol
# Density = 2.343389 g / cm^3
# Si number density = 23.487345 Si / 1000 Ang^3
#
#
#
# Elastic Constant Matrix: (Units=GPa)
#
#
# Indices 1 2 3 4 5 6 
#
# 1 41.2069 0.1247 10.4936 0.0000 0.0000 0.0000
# 2 0.1247 31.1149 11.7134 0.0000 0.0000 0.0000
# 3 10.4936 11.7134 127.5704 0.0000 0.0000 0.0000
# 4 0.0000 0.0000 0.0000 164.1273 0.0000 0.0000
# 5 0.0000 0.0000 0.0000 0.0000 20.6021 0.0000
# 6 0.0000 0.0000 0.0000 0.0000 0.0000 9.8606
#
#
#
# Elastic Compliance Matrix: (Units=1/GPa)
#
#
# Indices 1 2 3 4 5 6 
#
# 1 0.024801 0.000693 -0.002104 0.000000 0.000000 0.000000
# 2 0.000693 0.033309 -0.003115 0.000000 0.000000 0.000000
# 3 -0.002104 -0.003115 0.008298 0.000000 0.000000 0.000000
# 4 0.000000 0.000000 0.000000 0.006093 0.000000 0.000000
# 5 0.000000 0.000000 0.000000 0.000000 0.048539 0.000000
# 6 0.000000 0.000000 0.000000 0.000000 0.000000 0.101413
#
#
# Mechanical properties :
#
#
# Convention : Reuss Voigt Hill
#
# Bulk Modulus (GPa) = 17.43520 27.17287 22.30404
# Shear Modulus (GPa) = 19.95014 50.75536 35.35275
#
# Velocity S-wave (km/s) = 2.91761 4.65366 3.88388
# Velocity P-wave (km/s) = 4.33466 6.36158 5.44330
#
# Compressibility (1/GPa) = 0.05735523
#
# Stress axis : x y z
#
# Youngs Moduli (GPa) = 40.32030 30.02190 120.51234
#
# Poissons Ratio (x) = -0.02079 0.25352
# Poissons Ratio (y) = -0.02792 0.37544
# Poissons Ratio (z) = 0.08482 0.09353
#
# Static dielectric constant tensor:
#      x y z
#    x 1.781940 0.000000 0.000000 
#    y 0.000000 2.293300 0.000000 
#    z 0.000000 0.000000 1.863490 
# 
# From -- ./inp_files/10322.got.cif
#   From: 2010.05.17/outbox.cif.g08.bks.cpg/sg20_6_cif.got.tgz:10322.got - 2010.06.03 22:52:26.
