data_PCOD9316395
_publ_section_title
;
Structure prediction by ZEFSAII (Michael W. Deem and Ramdas Pophale) SiO2 
 PCOD9316395
Probable space group: C 2 2 21
;
_chemical_formula_sum "Si O2"
_cell_formula_units_Z 36
_cell_length_a 14.088304
_cell_length_b 6.986930
_cell_length_c 17.024992
_cell_angle_alpha 90.000000
_cell_angle_beta 90.000000
_cell_angle_gamma 90.000000
_cell_volume 1675.837958
_symmetry_space_group_name_H-M "C 2 2 21"
_symmetry_group_IT_number 20
_symmetry_cell_setting 'orthorhombic'
loop_
_space_group_symop_operation_xyz
x,y,z
-x,-y,1/2+z
x,-y,-z
-x,y,1/2-z
1/2+x,1/2+y,z
1/2-x,1/2-y,1/2+z
1/2+x,1/2-y,-z
1/2-x,1/2+y,1/2-z
loop_
_atom_site_type_symbol
_atom_site_label
_atom_site_fract_x
_atom_site_fract_y
_atom_site_fract_z
Si Si1 0.797646 0.769402 0.996558
Si Si2 0.583364 0.225732 0.022427
Si Si3 0.960704 0.204895 0.118906
Si Si4 0.500000 0.002101 0.250000
Si Si5 0.416332 0.718648 0.855017
O O1 0.692594 0.715445 0.970981
O O2 0.833464 0.722545 0.084315
O O3 0.874257 0.706827 0.931889
O O4 0.803600 0.000000 0.000000
O O5 0.537254 0.335704 0.948687
O O6 0.514765 0.244908 0.097118
O O7 0.582916 0.000000 0.000000
O O8 0.006715 0.355318 0.177863
O O9 0.921386 0.010391 0.158569
O O10 0.581770 0.149475 0.278113
#
# Coordination Sequence:
#
# PCOD9316395 Si02
#       5
#     8   8   8   4   8
#     4   8  18  36  64  85 111 147 202 244 276 331
#     4  10  17  37  65  87 110 146 204 245 275 331
#     4  10  21  39  59  87 115 156 190 239 290 333
#     4  12  22  38  60  82 128 152 190 224 296 368
#     4  10  21  39  59  87 115 156 190 239 290 333
#
# _framework density 21.481791000000001
#
# number of rings (size 3 to 8) (size 9 to 14) (size 15 to 20)
#    0.000    2.222    2.222    2.667    0.000    0.000 
#    8.000    2.222    0.000    0.000    0.000    0.000 
#    0.000    0.000    0.000    0.000    0.000    0.000 
#
# Total GULP energy -100356.311456 kJ/mol
# GULP energy per Si atom -5575.350636 kJ/mol
# Density = 2.143290 g / cm^3
# Si number density = 21.481791 Si / 1000 Ang^3
#
#
#
# Elastic Constant Matrix: (Units=GPa)
#
#
# Indices 1 2 3 4 5 6 
#
# 1 96.7591 -33.9372 -1.5356 0.0000 0.0000 0.0000
# 2 -33.9372 100.1602 7.0557 0.0000 0.0000 0.0000
# 3 -1.5356 7.0557 40.5811 0.0000 0.0000 0.0000
# 4 0.0000 0.0000 0.0000 51.3762 0.0000 0.0000
# 5 0.0000 0.0000 0.0000 0.0000 2.2119 0.0000
# 6 0.0000 0.0000 0.0000 0.0000 0.0000 10.9450
#
#
#
# Elastic Compliance Matrix: (Units=1/GPa)
#
#
# Indices 1 2 3 4 5 6 
#
# 1 0.011731 0.003993 -0.000250 0.000000 0.000000 0.000000
# 2 0.003993 0.011467 -0.001843 0.000000 0.000000 0.000000
# 3 -0.000250 -0.001843 0.024953 0.000000 0.000000 0.000000
# 4 0.000000 0.000000 0.000000 0.019464 0.000000 0.000000
# 5 0.000000 0.000000 0.000000 0.000000 0.452095 0.000000
# 6 0.000000 0.000000 0.000000 0.000000 0.000000 0.091366
#
#
# Mechanical properties :
#
#
# Convention : Reuss Voigt Hill
#
# Bulk Modulus (GPa) = 19.24918 20.07401 19.66159
# Shear Modulus (GPa) = 8.00521 30.63448 19.31985
#
# Velocity S-wave (km/s) = 1.93251 3.78043 3.00219
# Velocity P-wave (km/s) = 3.73626 5.33108 4.60326
#
# Compressibility (1/GPa) = 0.05195026
#
# Stress axis : x y z
#
# Youngs Moduli (GPa) = 85.24196 87.20981 40.07552
#
# Poissons Ratio (x) = -0.34819 0.01003
# Poissons Ratio (y) = -0.34033 0.07384
# Poissons Ratio (z) = 0.02133 0.16069
#
# Static dielectric constant tensor:
#      x y z
#    x 1.762980 0.000000 0.000000 
#    y 0.000000 1.896520 0.000000 
#    z 0.000000 0.000000 1.785370 
# 
# From -- ./inp_files/24686.got.cif
#   From: 2010.05.17/outbox.cif.g08.bks.cpg/sg20_13_cif.got.tgz:24686.got - 2010.06.03 22:52:26.
