data_PCOD9316327
_publ_section_title
;
Structure prediction by ZEFSAII (Michael W. Deem and Ramdas Pophale) SiO2 
 PCOD9316327
Probable space group: C 2 2 21
;
_chemical_formula_sum "Si O2"
_cell_formula_units_Z 40
_cell_length_a 8.938005
_cell_length_b 22.005078
_cell_length_c 8.391920
_cell_angle_alpha 90.000000
_cell_angle_beta 90.000000
_cell_angle_gamma 90.000000
_cell_volume 1650.535390
_symmetry_space_group_name_H-M "C 2 2 21"
_symmetry_group_IT_number 20
_symmetry_cell_setting 'orthorhombic'
loop_
_space_group_symop_operation_xyz
x,y,z
-x,-y,1/2+z
x,-y,-z
-x,y,1/2-z
1/2+x,1/2+y,z
1/2-x,1/2-y,1/2+z
1/2+x,1/2-y,-z
1/2-x,1/2+y,1/2-z
loop_
_atom_site_type_symbol
_atom_site_label
_atom_site_fract_x
_atom_site_fract_y
_atom_site_fract_z
Si Si1 0.548935 0.615960 0.081936
Si Si2 0.947433 0.304440 0.016497
Si Si3 0.803490 0.245350 0.334609
Si Si4 0.642929 0.550866 0.635893
Si Si5 0.659109 0.937741 0.429484
O O1 0.500000 0.590764 0.250000
O O2 0.611757 0.682402 0.120412
O O3 0.412905 0.611490 0.957575
O O4 0.683420 0.575077 0.018204
O O5 0.854888 0.274585 0.167144
O O6 0.929249 0.376569 0.031012
O O7 0.120728 0.290175 0.037789
O O8 0.866577 0.272729 0.867256
O O9 0.659881 0.500000 0.500000
O O10 0.500000 0.538400 0.750000
O O11 0.789686 0.557282 0.745213
O O12 0.594741 0.000000 0.500000
#
# Coordination Sequence:
#
# PCOD9316327 Si02
#       5
#     8   8   8   8   8
#     4  10  17  31  54  84 122 152 198 260 311 360
#     4  10  22  40  63  89 125 163 203 262 307 373
#     4  10  22  39  61  93 121 162 204 251 316 369
#     4  10  18  29  49  80 119 158 198 250 309 357
#     4  10  21  34  54  86 121 162 205 248 305 365
#
# _framework density 24.234562
#
# number of rings (size 3 to 8) (size 9 to 14) (size 15 to 20)
#    0.000    2.000    2.000    4.200    2.800    0.800 
#    0.000    0.000    0.000   14.400    0.000    0.000 
#    0.000    0.000    0.000    0.000    0.000    0.000 
#
# Total GULP energy -111716.504610 kJ/mol
# GULP energy per Si atom -5585.825230 kJ/mol
# Density = 2.417940 g / cm^3
# Si number density = 24.234562 Si / 1000 Ang^3
#
#
#
# Elastic Constant Matrix: (Units=GPa)
#
#
# Indices 1 2 3 4 5 6 
#
# 1 61.3375 30.8907 14.8697 0.0000 0.0000 0.0000
# 2 30.8907 152.4391 32.0675 0.0000 0.0000 0.0000
# 3 14.8697 32.0675 87.8767 0.0000 0.0000 0.0000
# 4 0.0000 0.0000 0.0000 14.5531 0.0000 0.0000
# 5 0.0000 0.0000 0.0000 0.0000 26.1548 0.0000
# 6 0.0000 0.0000 0.0000 0.0000 0.0000 19.4864
#
#
#
# Elastic Compliance Matrix: (Units=1/GPa)
#
#
# Indices 1 2 3 4 5 6 
#
# 1 0.018445 -0.003337 -0.001903 0.000000 0.000000 0.000000
# 2 -0.003337 0.007709 -0.002249 0.000000 0.000000 0.000000
# 3 -0.001903 -0.002249 0.012522 0.000000 0.000000 0.000000
# 4 0.000000 0.000000 0.000000 0.068714 0.000000 0.000000
# 5 0.000000 0.000000 0.000000 0.000000 0.038234 0.000000
# 6 0.000000 0.000000 0.000000 0.000000 0.000000 0.051318
#
#
# Mechanical properties :
#
#
# Convention : Reuss Voigt Hill
#
# Bulk Modulus (GPa) = 42.19693 50.81212 46.50453
# Shear Modulus (GPa) = 22.74585 26.96056 24.85320
#
# Velocity S-wave (km/s) = 3.06693 3.33901 3.20586
# Velocity P-wave (km/s) = 5.47642 5.98979 5.73885
#
# Compressibility (1/GPa) = 0.02369841
#
# Stress axis : x y z
#
# Youngs Moduli (GPa) = 54.21393 129.71327 79.85850
#
# Poissons Ratio (x) = 0.43291 0.15199
# Poissons Ratio (y) = 0.18094 0.17956
# Poissons Ratio (z) = 0.10318 0.29166
#
# Static dielectric constant tensor:
#      x y z
#    x 1.940990 0.000000 0.000000 
#    y 0.000000 2.005110 0.000000 
#    z 0.000000 0.000000 1.765590 
# 
# From -- ./inp_files/7227.got.cif
#   From: 2010.05.17/outbox.cif.g08.bks.cpg/sg20_4_cif.got.tgz:7227.got - 2010.06.03 22:52:26.
