data_PCOD9316546
_publ_section_title
;
Structure prediction by ZEFSAII (Michael W. Deem and Ramdas Pophale) SiO2 
 PCOD9316546
Probable space group: C 2 2 21
;
_chemical_formula_sum "Si O2"
_cell_formula_units_Z 56
_cell_length_a 18.299284
_cell_length_b 16.347220
_cell_length_c 8.434701
_cell_angle_alpha 90.000000
_cell_angle_beta 90.000000
_cell_angle_gamma 90.000000
_cell_volume 2523.176881
_symmetry_space_group_name_H-M "C 2 2 21"
_symmetry_group_IT_number 20
_symmetry_cell_setting 'orthorhombic'
loop_
_space_group_symop_operation_xyz
x,y,z
-x,-y,1/2+z
x,-y,-z
-x,y,1/2-z
1/2+x,1/2+y,z
1/2-x,1/2-y,1/2+z
1/2+x,1/2-y,-z
1/2-x,1/2+y,1/2-z
loop_
_atom_site_type_symbol
_atom_site_label
_atom_site_fract_x
_atom_site_fract_y
_atom_site_fract_z
Si Si1 0.021905 0.912598 0.563280
Si Si2 0.810045 0.559995 0.647446
Si Si3 0.771580 0.295119 0.570348
Si Si4 0.906962 0.581870 0.936844
Si Si5 0.609716 0.257977 0.619089
Si Si6 0.240347 0.423148 0.648527
Si Si7 0.877563 0.831546 0.530391
O O1 0.949498 0.878228 0.478392
O O2 0.000000 0.919870 0.750000
O O3 0.081399 0.841941 0.543790
O O4 0.045391 0.000000 0.500000
O O5 0.824424 0.500000 0.500000
O O6 0.781064 0.646010 0.582345
O O7 0.881693 0.570573 0.755010
O O8 0.755355 0.509877 0.761438
O O9 0.694616 0.248367 0.572317
O O10 0.769914 0.354955 0.718005
O O11 0.838825 0.233600 0.581680
O O12 0.933154 0.676360 0.936017
O O13 0.948258 0.500000 0.000000
O O14 0.832758 0.580045 0.043501
O O15 0.605121 0.279885 0.807100
O O16 0.315301 0.398370 0.566872
#
# Coordination Sequence:
#
# PCOD9316546 Si02
#       7
#     8   8   8   8   8   8   8
#     4  10  24  44  61  85 123 167 211 246 305 372
#     4   9  18  31  51  81 118 148 183 248 307 359
#     4  10  18  32  55  83 115 150 205 249 304 351
#     4  10  18  32  54  85 118 147 187 242 304 352
#     4  10  20  36  59  85 118 161 204 249 305 365
#     4   9  19  31  50  88 116 147 194 250 305 360
#     4  10  19  36  57  85 116 158 206 246 306 368
#
# _framework density 22.194244000000001
#
# number of rings (size 3 to 8) (size 9 to 14) (size 15 to 20)
#    0.000    2.286    2.857    0.000    0.000    5.714 
#    2.571    0.000    0.000    2.571    0.000    0.000 
#    0.000    0.000    0.000    0.000    0.000    0.000 
#
# Total GULP energy -156239.799110 kJ/mol
# GULP energy per Si atom -5579.992825 kJ/mol
# Density = 2.214373 g / cm^3
# Si number density = 22.194244 Si / 1000 Ang^3
#
#
#
# Elastic Constant Matrix: (Units=GPa)
#
#
# Indices 1 2 3 4 5 6 
#
# 1 25.1026 6.1646 -4.6580 0.0000 0.0000 0.0000
# 2 6.1646 149.6038 18.8708 0.0000 0.0000 0.0000
# 3 -4.6580 18.8708 39.9002 0.0000 0.0000 0.0000
# 4 0.0000 0.0000 0.0000 31.2229 0.0000 0.0000
# 5 0.0000 0.0000 0.0000 0.0000 11.3937 0.0000
# 6 0.0000 0.0000 0.0000 0.0000 0.0000 31.1832
#
#
#
# Elastic Compliance Matrix: (Units=1/GPa)
#
#
# Indices 1 2 3 4 5 6 
#
# 1 0.041561 -0.002472 0.006021 0.000000 0.000000 0.000000
# 2 -0.002472 0.007255 -0.003720 0.000000 0.000000 0.000000
# 3 0.006021 -0.003720 0.027525 0.000000 0.000000 0.000000
# 4 0.000000 0.000000 0.000000 0.032028 0.000000 0.000000
# 5 0.000000 0.000000 0.000000 0.000000 0.087768 0.000000
# 6 0.000000 0.000000 0.000000 0.000000 0.000000 0.032069
#
#
# Mechanical properties :
#
#
# Convention : Reuss Voigt Hill
#
# Bulk Modulus (GPa) = 13.15806 28.37349 20.76577
# Shear Modulus (GPa) = 19.69433 27.70858 23.70145
#
# Velocity S-wave (km/s) = 2.98209 3.53719 3.27143
# Velocity P-wave (km/s) = 4.21884 5.43085 4.86276
#
# Compressibility (1/GPa) = 0.07599904
#
# Stress axis : x y z
#
# Youngs Moduli (GPa) = 24.06107 137.82790 36.33083
#
# Poissons Ratio (x) = 0.34072 -0.21875
# Poissons Ratio (y) = 0.05948 0.13515
# Poissons Ratio (z) = -0.14487 0.51273
#
# Static dielectric constant tensor:
#      x y z
#    x 1.806280 0.000000 0.000000 
#    y 0.000000 1.880290 0.000000 
#    z 0.000000 0.000000 1.855910 
# 
# From -- ./inp_files/10203.got.cif
#   From: 2010.05.17/outbox.cif.g08.bks.cpg/sg20_6_cif.got.tgz:10203.got - 2010.06.03 22:52:26.
