data_PCOD9316414
_publ_section_title
;
Structure prediction by ZEFSAII (Michael W. Deem and Ramdas Pophale) SiO2 
 PCOD9316414
Probable space group: C 2 2 21
;
_chemical_formula_sum "Si O2"
_cell_formula_units_Z 40
_cell_length_a 12.323837
_cell_length_b 26.405087
_cell_length_c 5.088471
_cell_angle_alpha 90.000000
_cell_angle_beta 90.000000
_cell_angle_gamma 90.000000
_cell_volume 1655.849465
_symmetry_space_group_name_H-M "C 2 2 21"
_symmetry_group_IT_number 20
_symmetry_cell_setting 'orthorhombic'
loop_
_space_group_symop_operation_xyz
x,y,z
-x,-y,1/2+z
x,-y,-z
-x,y,1/2-z
1/2+x,1/2+y,z
1/2-x,1/2-y,1/2+z
1/2+x,1/2-y,-z
1/2-x,1/2+y,1/2-z
loop_
_atom_site_type_symbol
_atom_site_label
_atom_site_fract_x
_atom_site_fract_y
_atom_site_fract_z
Si Si1 0.674394 0.643646 0.737370
Si Si2 0.321297 0.143009 0.236444
Si Si3 0.409824 0.944334 0.434483
Si Si4 0.824134 0.749776 0.370360
Si Si5 0.335879 0.533366 0.754894
O O1 0.718652 0.644183 0.439497
O O2 0.619247 0.696785 0.811011
O O3 0.618068 0.589756 0.775120
O O4 0.776379 0.642815 0.942289
O O5 0.383134 0.092455 0.322538
O O6 0.378619 0.196249 0.303400
O O7 0.500000 0.919228 0.250000
O O8 0.293140 0.956369 0.302513
O O9 0.453416 0.000000 0.500000
O O10 0.778291 0.749178 0.665904
O O11 0.349909 0.500000 0.500000
O O12 0.375260 0.500000 0.000000
#
# Coordination Sequence:
#
# PCOD9316414 Si02
#       5
#     8   8   8   8   8
#     4   9  15  26  40  54  70  89 113 149 195 235
#     4   9  17  27  39  53  69  88 119 159 194 226
#     4  10  19  28  38  51  70  99 132 163 193 219
#     4   8  14  24  39  55  68  84 109 148 195 233
#     4  10  18  27  37  51  71  94 121 153 185 219
#
# _framework density 24.156784999999999
#
# number of rings (size 3 to 8) (size 9 to 14) (size 15 to 20)
#    0.000    2.800    0.000    4.200    0.000    1.600 
#    0.000    0.000    0.000    0.000    0.000    0.000 
#    0.000    0.000    0.000    0.000    0.000    0.000 
#
# Total GULP energy -111636.990078 kJ/mol
# GULP energy per Si atom -5581.849504 kJ/mol
# Density = 2.410180 g / cm^3
# Si number density = 24.156785 Si / 1000 Ang^3
#
#
#
# Elastic Constant Matrix: (Units=GPa)
#
#
# Indices 1 2 3 4 5 6 
#
# 1 75.7705 4.5889 13.3409 0.0000 0.0000 0.0000
# 2 4.5889 250.1272 34.7327 0.0000 0.0000 0.0000
# 3 13.3409 34.7327 113.4922 0.0000 0.0000 0.0000
# 4 0.0000 0.0000 0.0000 49.8149 0.0000 0.0000
# 5 0.0000 0.0000 0.0000 0.0000 -8.2591 0.0000
# 6 0.0000 0.0000 0.0000 0.0000 0.0000 -32.5582
#
#
#
# Elastic Compliance Matrix: (Units=1/GPa)
#
#
# Indices 1 2 3 4 5 6 
#
# 1 0.013477 -0.000028 -0.001575 0.000000 0.000000 0.000000
# 2 -0.000028 0.004175 -0.001274 0.000000 0.000000 0.000000
# 3 -0.001575 -0.001274 0.009386 0.000000 0.000000 0.000000
# 4 0.000000 0.000000 0.000000 0.020074 0.000000 0.000000
# 5 0.000000 0.000000 0.000000 0.000000 -0.121079 0.000000
# 6 0.000000 0.000000 0.000000 0.000000 0.000000 -0.030714
#
#
# Mechanical properties :
#
#
# Convention : Reuss Voigt Hill
#
# Bulk Modulus (GPa) = 46.98842 60.52388 53.75615
# Shear Modulus (GPa) = -54.44900 27.58135 -13.43383
#
# Velocity S-wave (km/s) = -4.75276 3.38267 -2.36076
# Velocity P-wave (km/s) = 3.25955 6.35339 3.85622
#
# Compressibility (1/GPa) = 0.02128184
#
# Stress axis : x y z
#
# Youngs Moduli (GPa) = 74.20124 239.49429 106.53695
#
# Poissons Ratio (x) = 0.00682 0.16785
# Poissons Ratio (y) = 0.00211 0.13578
# Poissons Ratio (z) = 0.11690 0.30523
#
# Static dielectric constant tensor:
#      x y z
#    x 1.884230 0.000000 0.000000 
#    y 0.000000 2.031590 0.000000 
#    z 0.000000 0.000000 1.907780 
# 
# From -- ./inp_files/1909.got.cif
#   From: 2010.05.17/outbox.cif.g08.bks.cpg/sg20_1_cif.got.tgz:1909.got - 2010.06.03 22:52:26.
