data_PCOD9316601
_publ_section_title
;
Structure prediction by ZEFSAII (Michael W. Deem and Ramdas Pophale) SiO2 
 PCOD9316601
Probable space group: C 2 2 21
;
_chemical_formula_sum "Si O2"
_cell_formula_units_Z 40
_cell_length_a 12.106215
_cell_length_b 7.168695
_cell_length_c 17.703655
_cell_angle_alpha 90.000000
_cell_angle_beta 90.000000
_cell_angle_gamma 90.000000
_cell_volume 1536.425206
_symmetry_space_group_name_H-M "C 2 2 21"
_symmetry_group_IT_number 20
_symmetry_cell_setting 'orthorhombic'
loop_
_space_group_symop_operation_xyz
x,y,z
-x,-y,1/2+z
x,-y,-z
-x,y,1/2-z
1/2+x,1/2+y,z
1/2-x,1/2-y,1/2+z
1/2+x,1/2-y,-z
1/2-x,1/2+y,1/2-z
loop_
_atom_site_type_symbol
_atom_site_label
_atom_site_fract_x
_atom_site_fract_y
_atom_site_fract_z
Si Si1 0.150627 0.468290 0.238856
Si Si2 0.364032 0.980934 0.578936
Si Si3 0.401310 0.380326 0.203488
Si Si4 0.653573 0.257481 0.446859
Si Si5 0.810740 0.331868 0.103469
O O1 0.089004 0.443878 0.158465
O O2 0.280844 0.466229 0.217541
O O3 0.116097 0.671428 0.265779
O O4 0.144439 0.333328 0.311280
O O5 0.306888 0.778785 0.596703
O O6 0.431178 0.000000 0.500000
O O7 0.263999 0.121815 0.561411
O O8 0.500000 0.470247 0.250000
O O9 0.426824 0.347378 0.115084
O O10 0.621266 0.260135 0.534488
O O11 0.688769 0.050027 0.419807
#
# Coordination Sequence:
#
# PCOD9316601 Si02
#       5
#     8   8   8   8   8
#     4  10  18  33  57  83 115 156 193 248 305 350
#     4   9  16  28  49  79 106 152 199 234 300 365
#     4  10  20  35  58  86 115 152 201 245 300 366
#     4   8  17  29  51  78 107 151 188 240 304 349
#     4   9  15  29  51  78 107 150 195 232 302 366
#
# _framework density 26.034459999999999
#
# number of rings (size 3 to 8) (size 9 to 14) (size 15 to 20)
#    0.000    2.800    2.000    0.000    0.000    0.000 
#    0.000    1.000    8.800    0.000   72.800    0.000 
#    0.000    0.000    0.000    0.000    0.000    0.000 
#
# Total GULP energy -111549.281505 kJ/mol
# GULP energy per Si atom -5577.464075 kJ/mol
# Density = 2.597520 g / cm^3
# Si number density = 26.034460 Si / 1000 Ang^3
#
#
#
# Elastic Constant Matrix: (Units=GPa)
#
#
# Indices 1 2 3 4 5 6 
#
# 1 99.7776 25.7129 21.9783 0.0000 0.0000 0.0000
# 2 25.7129 95.3893 33.3476 0.0000 0.0000 0.0000
# 3 21.9783 33.3476 278.6232 0.0000 0.0000 0.0000
# 4 0.0000 0.0000 0.0000 36.5458 0.0000 0.0000
# 5 0.0000 0.0000 0.0000 0.0000 6.9223 0.0000
# 6 0.0000 0.0000 0.0000 0.0000 0.0000 10.6259
#
#
#
# Elastic Compliance Matrix: (Units=1/GPa)
#
#
# Indices 1 2 3 4 5 6 
#
# 1 0.010844 -0.002739 -0.000528 0.000000 0.000000 0.000000
# 2 -0.002739 0.011633 -0.001176 0.000000 0.000000 0.000000
# 3 -0.000528 -0.001176 0.003771 0.000000 0.000000 0.000000
# 4 0.000000 0.000000 0.000000 0.027363 0.000000 0.000000
# 5 0.000000 0.000000 0.000000 0.000000 0.144461 0.000000
# 6 0.000000 0.000000 0.000000 0.000000 0.000000 0.094109
#
#
# Mechanical properties :
#
#
# Convention : Reuss Voigt Hill
#
# Bulk Modulus (GPa) = 57.59247 70.65197 64.12222
# Shear Modulus (GPa) = 16.29435 37.00222 26.64828
#
# Velocity S-wave (km/s) = 2.50447 3.77407 3.20281
# Velocity P-wave (km/s) = 5.52565 6.79620 6.19359
#
# Compressibility (1/GPa) = 0.01736338
#
# Stress axis : x y z
#
# Youngs Moduli (GPa) = 92.21445 85.96374 265.14789
#
# Poissons Ratio (x) = 0.23543 0.13990
# Poissons Ratio (y) = 0.25255 0.31188
# Poissons Ratio (z) = 0.04865 0.10112
#
# Static dielectric constant tensor:
#      x y z
#    x 2.066550 0.000000 0.000000 
#    y 0.000000 2.021040 0.000000 
#    z 0.000000 0.000000 2.292890 
# 
# From -- ./inp_files/23290.got.cif
#   From: 2010.05.17/outbox.cif.g08.bks.cpg/sg20_12_cif.got.tgz:23290.got - 2010.06.03 22:52:26.
