data_PCOD9316951
_publ_section_title
;
Structure prediction by ZEFSAII (Michael W. Deem and Ramdas Pophale) SiO2 
 PCOD9316951
Probable space group: C 2 2 21
;
_chemical_formula_sum "Si O2"
_cell_formula_units_Z 40
_cell_length_a 24.522786
_cell_length_b 7.056690
_cell_length_c 8.082366
_cell_angle_alpha 90.000000
_cell_angle_beta 90.000000
_cell_angle_gamma 90.000000
_cell_volume 1398.651001
_symmetry_space_group_name_H-M "C 2 2 21"
_symmetry_group_IT_number 20
_symmetry_cell_setting 'orthorhombic'
loop_
_space_group_symop_operation_xyz
x,y,z
-x,-y,1/2+z
x,-y,-z
-x,y,1/2-z
1/2+x,1/2+y,z
1/2-x,1/2-y,1/2+z
1/2+x,1/2-y,-z
1/2-x,1/2+y,1/2-z
loop_
_atom_site_type_symbol
_atom_site_label
_atom_site_fract_x
_atom_site_fract_y
_atom_site_fract_z
Si Si1 0.335735 0.691030 0.288586
Si Si2 0.133712 0.774131 0.348337
Si Si3 0.075586 0.767230 0.017606
Si Si4 0.465444 0.712897 0.072426
Si Si5 0.742066 0.728874 0.497963
O O1 0.355382 0.500399 0.805624
O O2 0.390425 0.789803 0.355023
O O3 0.289849 0.778836 0.170231
O O4 0.299589 0.682429 0.456416
O O5 0.093943 0.720942 0.503001
O O6 0.194927 0.706648 0.374666
O O7 0.105314 0.708117 0.183057
O O8 0.014161 0.698332 0.033887
O O9 0.076476 0.000000 0.000000
O O10 0.500000 0.295541 0.750000
O O11 0.461921 0.500000 0.000000
O O12 0.748737 0.500000 0.500000
#
# Coordination Sequence:
#
# PCOD9316951 Si02
#       5
#     8   8   8   8   8
#     4  10  19  32  49  72 107 151 193 234 286 340
#     4  10  19  32  49  73 106 144 186 234 282 340
#     4   9  17  28  46  71 102 138 173 219 280 345
#     4  11  18  27  44  71 107 142 173 219 287 349
#     4  10  20  33  50  73 106 147 193 238 277 336
#
# _framework density 28.598984999999999
#
# number of rings (size 3 to 8) (size 9 to 14) (size 15 to 20)
#    0.000    2.000    0.000    8.400    0.000    1.600 
#    0.000    0.000    0.000    0.000    0.000    0.000 
#    0.000   91.200    0.000   17.800    0.000    0.000 
#
# Total GULP energy -111532.395965 kJ/mol
# GULP energy per Si atom -5576.619798 kJ/mol
# Density = 2.853389 g / cm^3
# Si number density = 28.598985 Si / 1000 Ang^3
#
#
#
# Elastic Constant Matrix: (Units=GPa)
#
#
# Indices 1 2 3 4 5 6 
#
# 1 227.3553 26.5477 31.7885 0.0000 0.0000 0.0000
# 2 26.5477 158.0152 16.9455 0.0000 0.0000 0.0000
# 3 31.7885 16.9455 115.3931 0.0000 0.0000 0.0000
# 4 0.0000 0.0000 0.0000 -8.1041 0.0000 0.0000
# 5 0.0000 0.0000 0.0000 0.0000 47.2149 0.0000
# 6 0.0000 0.0000 0.0000 0.0000 0.0000 -12.2334
#
#
#
# Elastic Compliance Matrix: (Units=1/GPa)
#
#
# Indices 1 2 3 4 5 6 
#
# 1 0.004640 -0.000653 -0.001182 0.000000 0.000000 0.000000
# 2 -0.000653 0.006522 -0.000778 0.000000 0.000000 0.000000
# 3 -0.001182 -0.000778 0.009106 0.000000 0.000000 0.000000
# 4 0.000000 0.000000 0.000000 -0.123394 0.000000 0.000000
# 5 0.000000 0.000000 0.000000 0.000000 0.021180 0.000000
# 6 0.000000 0.000000 0.000000 0.000000 0.000000 -0.081744
#
#
# Mechanical properties :
#
#
# Convention : Reuss Voigt Hill
#
# Bulk Modulus (GPa) = 66.48254 72.36967 69.42611
# Shear Modulus (GPa) = -32.58390 33.74093 0.57851
#
# Velocity S-wave (km/s) = -3.37907 3.43854 0.45025
# Velocity P-wave (km/s) = 2.84127 6.41285 4.95971
#
# Compressibility (1/GPa) = 0.01504154
#
# Stress axis : x y z
#
# Youngs Moduli (GPa) = 215.52020 153.33678 109.81795
#
# Poissons Ratio (x) = 0.10009 0.12984
# Poissons Ratio (y) = 0.14068 0.08543
# Poissons Ratio (z) = 0.25482 0.11928
#
# Static dielectric constant tensor:
#      x y z
#    x 2.162780 0.000000 0.000000 
#    y 0.000000 2.552350 0.000000 
#    z 0.000000 0.000000 2.498890 
# 
# From -- ./inp_files/10966.got.cif
#   From: 2010.05.17/outbox.cif.g08.bks.cpg/sg20_6_cif.got.tgz:10966.got - 2010.06.03 22:52:26.
