data_PCOD9316679
_publ_section_title
;
Structure prediction by ZEFSAII (Michael W. Deem and Ramdas Pophale) SiO2 
 PCOD9316679
Probable space group: C 2 2 21
;
_chemical_formula_sum "Si O2"
_cell_formula_units_Z 52
_cell_length_a 14.619821
_cell_length_b 17.783126
_cell_length_c 8.337633
_cell_angle_alpha 90.000000
_cell_angle_beta 90.000000
_cell_angle_gamma 90.000000
_cell_volume 2167.668845
_symmetry_space_group_name_H-M "C 2 2 21"
_symmetry_group_IT_number 20
_symmetry_cell_setting 'orthorhombic'
loop_
_space_group_symop_operation_xyz
x,y,z
-x,-y,1/2+z
x,-y,-z
-x,y,1/2-z
1/2+x,1/2+y,z
1/2-x,1/2-y,1/2+z
1/2+x,1/2-y,-z
1/2-x,1/2+y,1/2-z
loop_
_atom_site_type_symbol
_atom_site_label
_atom_site_fract_x
_atom_site_fract_y
_atom_site_fract_z
Si Si1 0.151658 0.319103 0.752636
Si Si2 0.669907 0.484302 0.315218
Si Si3 0.833288 0.834537 0.355030
Si Si4 0.868571 0.515457 0.188065
Si Si5 0.128954 0.285727 0.392764
Si Si6 0.500000 0.100349 0.750000
Si Si7 0.356757 0.638075 0.272296
O O1 0.119920 0.248368 0.856194
O O2 0.105366 0.399806 0.735193
O O3 0.152974 0.279577 0.578564
O O4 0.254141 0.345410 0.797807
O O5 0.693283 0.500000 0.500000
O O6 0.636660 0.401001 0.266054
O O7 0.761389 0.498609 0.210528
O O8 0.607587 0.556372 0.274894
O O9 0.724896 0.817936 0.319879
O O10 0.845553 0.861653 0.536716
O O11 0.920796 0.456663 0.300971
O O12 0.889743 0.500000 0.000000
O O13 0.096787 0.210218 0.306250
O O14 0.048799 0.346082 0.375672
#
# Coordination Sequence:
#
# PCOD9316679 Si02
#       7
#     8   8   8   8   8   4   8
#     4   9  18  34  53  73 111 147 189 243 280 331
#     4  11  20  33  57  88 114 145 190 244 294 342
#     4  10  18  35  56  81 112 145 188 247 295 336
#     4  11  21  39  52  79 115 164 193 229 280 338
#     4  10  19  35  52  80 108 154 194 226 285 339
#     4  12  22  36  58  78 122 160 190 226 272 358
#     4   9  19  33  56  79 110 144 190 240 296 336
#
# _framework density 23.988904000000002
#
# number of rings (size 3 to 8) (size 9 to 14) (size 15 to 20)
#    0.000    1.846    3.077    3.231    0.000    4.308 
#    2.769    0.000    0.000    0.000    0.000    7.538 
#    0.000    0.000    0.000    0.000    0.000    0.000 
#
# Total GULP energy -144980.158183 kJ/mol
# GULP energy per Si atom -5576.159930 kJ/mol
# Density = 2.393430 g / cm^3
# Si number density = 23.988904 Si / 1000 Ang^3
#
#
#
# Elastic Constant Matrix: (Units=GPa)
#
#
# Indices 1 2 3 4 5 6 
#
# 1 45.7137 12.0403 2.3826 0.0000 0.0000 0.0000
# 2 12.0403 185.4337 16.4750 0.0000 0.0000 0.0000
# 3 2.3826 16.4750 38.1976 0.0000 0.0000 0.0000
# 4 0.0000 0.0000 0.0000 34.7863 0.0000 0.0000
# 5 0.0000 0.0000 0.0000 0.0000 -5.3824 0.0000
# 6 0.0000 0.0000 0.0000 0.0000 0.0000 1.8393
#
#
#
# Elastic Compliance Matrix: (Units=1/GPa)
#
#
# Indices 1 2 3 4 5 6 
#
# 1 0.022279 -0.001376 -0.000796 0.000000 0.000000 0.000000
# 2 -0.001376 0.005693 -0.002369 0.000000 0.000000 0.000000
# 3 -0.000796 -0.002369 0.027251 0.000000 0.000000 0.000000
# 4 0.000000 0.000000 0.000000 0.028747 0.000000 0.000000
# 5 0.000000 0.000000 0.000000 0.000000 -0.185791 0.000000
# 6 0.000000 0.000000 0.000000 0.000000 0.000000 0.543681
#
#
# Mechanical properties :
#
#
# Convention : Reuss Voigt Hill
#
# Bulk Modulus (GPa) = 21.67321 36.79342 29.23331
# Shear Modulus (GPa) = 10.72216 22.14510 16.43363
#
# Velocity S-wave (km/s) = 2.11644 3.04162 2.62019
# Velocity P-wave (km/s) = 3.87643 5.26367 4.62239
#
# Compressibility (1/GPa) = 0.04613992
#
# Stress axis : x y z
#
# Youngs Moduli (GPa) = 44.88496 175.66616 36.69546
#
# Poissons Ratio (x) = 0.24169 0.02922
# Poissons Ratio (y) = 0.06175 0.08695
# Poissons Ratio (z) = 0.03574 0.41624
#
# Static dielectric constant tensor:
#      x y z
#    x 2.004090 0.000000 0.000000 
#    y 0.000000 2.037810 0.000000 
#    z 0.000000 0.000000 1.860810 
# 
# From -- ./inp_files/9540.got.cif
#   From: 2010.05.17/outbox.cif.g08.bks.cpg/sg20_5_cif.got.tgz:9540.got - 2010.06.03 22:52:26.
