data_PCOD9316281
_publ_section_title
;
Structure prediction by ZEFSAII (Michael W. Deem and Ramdas Pophale) SiO2 
 PCOD9316281
Probable space group: C 2 2 21
;
_chemical_formula_sum "Si O2"
_cell_formula_units_Z 40
_cell_length_a 15.412638
_cell_length_b 6.805624
_cell_length_c 16.874269
_cell_angle_alpha 90.000000
_cell_angle_beta 90.000000
_cell_angle_gamma 90.000000
_cell_volume 1769.986270
_symmetry_space_group_name_H-M "C 2 2 21"
_symmetry_group_IT_number 20
_symmetry_cell_setting 'orthorhombic'
loop_
_space_group_symop_operation_xyz
x,y,z
-x,-y,1/2+z
x,-y,-z
-x,y,1/2-z
1/2+x,1/2+y,z
1/2-x,1/2-y,1/2+z
1/2+x,1/2-y,-z
1/2-x,1/2+y,1/2-z
loop_
_atom_site_type_symbol
_atom_site_label
_atom_site_fract_x
_atom_site_fract_y
_atom_site_fract_z
Si Si1 0.951079 0.500000 0.000000
Si Si2 0.198865 0.054425 0.093345
Si Si3 0.500000 0.986260 0.750000
Si Si4 0.425818 0.244864 0.397849
Si Si5 0.751307 0.001637 0.910960
Si Si6 0.646627 0.824510 0.347439
O O1 0.011195 0.675842 0.032497
O O2 0.896203 0.408093 0.071471
O O3 0.102016 0.971729 0.106712
O O4 0.263725 0.945852 0.153952
O O5 0.217863 0.281740 0.106388
O O6 0.217089 0.000000 0.000000
O O7 0.532464 0.845951 0.819895
O O8 0.420295 0.119760 0.779546
O O9 0.334121 0.134537 0.411998
O O10 0.823232 0.900769 0.855665
O O11 0.788261 0.000000 0.000000
#
# Coordination Sequence:
#
# PCOD9316281 Si02
#       6
#     4   8   4   8   8   8
#     4  10  16  38  66 102 130 176 220 296 336 386
#     4  11  19  39  69 103 128 173 228 285 334 399
#     4  10  24  46  62 102 144 190 216 268 352 410
#     4  10  21  39  67  95 144 173 224 280 336 414
#     4  11  19  39  69 103 128 173 228 285 334 399
#     4  10  21  39  67  95 144 173 224 280 336 414
#
# _framework density 22.599043999999999
#
# number of rings (size 3 to 8) (size 9 to 14) (size 15 to 20)
#    0.000    1.600    6.000    0.000    0.000    0.000 
#    7.200   21.000    0.000    0.000    0.000    0.000 
#    0.000    0.000    0.000    0.000    0.000    0.000 
#
# Total GULP energy -111749.423404 kJ/mol
# GULP energy per Si atom -5587.471170 kJ/mol
# Density = 2.254761 g / cm^3
# Si number density = 22.599044 Si / 1000 Ang^3
#
#
#
# Elastic Constant Matrix: (Units=GPa)
#
#
# Indices 1 2 3 4 5 6 
#
# 1 52.4990 19.6336 4.5528 0.0000 0.0000 0.0000
# 2 19.6336 146.8955 4.9348 0.0000 0.0000 0.0000
# 3 4.5528 4.9348 41.0144 0.0000 0.0000 0.0000
# 4 0.0000 0.0000 0.0000 14.2800 0.0000 0.0000
# 5 0.0000 0.0000 0.0000 0.0000 21.3071 0.0000
# 6 0.0000 0.0000 0.0000 0.0000 0.0000 33.3030
#
#
#
# Elastic Compliance Matrix: (Units=1/GPa)
#
#
# Indices 1 2 3 4 5 6 
#
# 1 0.020200 -0.002635 -0.001925 0.000000 0.000000 0.000000
# 2 -0.002635 0.007179 -0.000571 0.000000 0.000000 0.000000
# 3 -0.001925 -0.000571 0.024664 0.000000 0.000000 0.000000
# 4 0.000000 0.000000 0.000000 0.070028 0.000000 0.000000
# 5 0.000000 0.000000 0.000000 0.000000 0.046933 0.000000
# 6 0.000000 0.000000 0.000000 0.000000 0.000000 0.030027
#
#
# Mechanical properties :
#
#
# Convention : Reuss Voigt Hill
#
# Bulk Modulus (GPa) = 23.93486 33.18347 28.55917
# Shear Modulus (GPa) = 22.39923 27.86386 25.13154
#
# Velocity S-wave (km/s) = 3.15168 3.51517 3.33838
# Velocity P-wave (km/s) = 4.88449 5.58486 5.24638
#
# Compressibility (1/GPa) = 0.04178006
#
# Stress axis : x y z
#
# Youngs Moduli (GPa) = 49.50373 139.29567 40.54472
#
# Poissons Ratio (x) = 0.36708 0.07806
# Poissons Ratio (y) = 0.13046 0.02316
# Poissons Ratio (z) = 0.09531 0.07957
#
# Static dielectric constant tensor:
#      x y z
#    x 1.827690 0.000000 0.000000 
#    y 0.000000 1.900120 0.000000 
#    z 0.000000 0.000000 1.863460 
# 
# From -- ./inp_files/24708.got.cif
#   From: 2010.05.17/outbox.cif.g08.bks.cpg/sg20_13_cif.got.tgz:24708.got - 2010.06.03 22:52:26.
