data_PCOD9316741
_publ_section_title
;
Structure prediction by ZEFSAII (Michael W. Deem and Ramdas Pophale) SiO2 
 PCOD9316741
Probable space group: C 2 2 21
;
_chemical_formula_sum "Si O2"
_cell_formula_units_Z 48
_cell_length_a 14.727513
_cell_length_b 18.452248
_cell_length_c 9.302755
_cell_angle_alpha 90.000000
_cell_angle_beta 90.000000
_cell_angle_gamma 90.000000
_cell_volume 2528.076904
_symmetry_space_group_name_H-M "C 2 2 21"
_symmetry_group_IT_number 20
_symmetry_cell_setting 'orthorhombic'
loop_
_space_group_symop_operation_xyz
x,y,z
-x,-y,1/2+z
x,-y,-z
-x,y,1/2-z
1/2+x,1/2+y,z
1/2-x,1/2-y,1/2+z
1/2+x,1/2-y,-z
1/2-x,1/2+y,1/2-z
loop_
_atom_site_type_symbol
_atom_site_label
_atom_site_fract_x
_atom_site_fract_y
_atom_site_fract_z
Si Si1 0.000000 0.404543 0.250000
Si Si2 0.603155 0.889755 0.790520
Si Si3 0.140276 0.701553 0.616228
Si Si4 0.402686 0.666887 0.318707
Si Si5 0.923497 0.500000 0.500000
Si Si6 0.979260 0.247003 0.594294
Si Si7 0.753901 0.584639 0.046691
O O1 0.083804 0.352462 0.281690
O O2 0.017392 0.451790 0.108633
O O3 0.500000 0.909977 0.750000
O O4 0.588643 0.811570 0.859311
O O5 0.663039 0.902112 0.653708
O O6 0.636242 0.945226 0.909577
O O7 0.147805 0.775394 0.711287
O O8 0.225309 0.651417 0.566230
O O9 0.071906 0.722456 0.482545
O O10 0.500000 0.646797 0.250000
O O11 0.430783 0.703506 0.469307
O O12 0.336211 0.602627 0.363126
O O13 0.000000 0.211040 0.750000
O O14 0.755016 0.500000 0.000000
#
# Coordination Sequence:
#
# PCOD9316741 Si02
#       7
#     4   8   8   8   4   8   8
#     4  12  20  32  52  90 130 176 202 236 324 400
#     4  11  20  33  56  92 136 168 196 250 329 414
#     4  11  20  38  62  94 130 170 219 269 332 405
#     4  10  24  46  68  91 129 178 234 286 324 378
#     4  12  20  28  52  82 132 174 192 232 316 412
#     4  10  18  36  63  96 122 170 213 256 323 400
#     4  12  26  40  65 101 135 173 224 276 342 406
#
# _framework density 18.986764000000001
#
# number of rings (size 3 to 8) (size 9 to 14) (size 15 to 20)
#    0.000    1.000    8.333    1.000    4.667    0.000 
#    0.000    0.833    9.167    0.000    0.000    0.000 
#    0.000    0.000    0.000    0.000    0.000    0.000 
#
# Total GULP energy -133636.958220 kJ/mol
# GULP energy per Si atom -5568.206593 kJ/mol
# Density = 1.894355 g / cm^3
# Si number density = 18.986764 Si / 1000 Ang^3
#
#
#
# Elastic Constant Matrix: (Units=GPa)
#
#
# Indices 1 2 3 4 5 6 
#
# 1 70.4105 35.2328 25.5220 0.0000 0.0000 0.0000
# 2 35.2328 55.4338 35.4785 0.0000 0.0000 0.0000
# 3 25.5220 35.4785 105.5482 0.0000 0.0000 0.0000
# 4 0.0000 0.0000 0.0000 9.4091 0.0000 0.0000
# 5 0.0000 0.0000 0.0000 0.0000 21.3030 0.0000
# 6 0.0000 0.0000 0.0000 0.0000 0.0000 0.5748
#
#
#
# Elastic Compliance Matrix: (Units=1/GPa)
#
#
# Indices 1 2 3 4 5 6 
#
# 1 0.020872 -0.012787 -0.000749 0.000000 0.000000 0.000000
# 2 -0.012787 0.030818 -0.007267 0.000000 0.000000 0.000000
# 3 -0.000749 -0.007267 0.012098 0.000000 0.000000 0.000000
# 4 0.000000 0.000000 0.000000 0.106281 0.000000 0.000000
# 5 0.000000 0.000000 0.000000 0.000000 0.046942 0.000000
# 6 0.000000 0.000000 0.000000 0.000000 0.000000 1.739648
#
#
# Mechanical properties :
#
#
# Convention : Reuss Voigt Hill
#
# Bulk Modulus (GPa) = 45.08025 47.09544 46.08785
# Shear Modulus (GPa) = 2.49295 15.26798 8.88046
#
# Velocity S-wave (km/s) = 1.14710 2.83881 2.16503
# Velocity P-wave (km/s) = 5.05460 5.96685 5.52957
#
# Compressibility (1/GPa) = 0.02218266
#
# Stress axis : x y z
#
# Youngs Moduli (GPa) = 47.91047 32.44901 82.65735
#
# Poissons Ratio (x) = 0.41492 0.06190
# Poissons Ratio (y) = 0.61262 0.60067
# Poissons Ratio (z) = 0.03588 0.23581
#
# Static dielectric constant tensor:
#      x y z
#    x 1.687320 0.000000 0.000000 
#    y 0.000000 1.709740 0.000000 
#    z 0.000000 0.000000 2.179830 
# 
# From -- ./inp_files/8615.got.cif
#   From: 2010.05.17/outbox.cif.g08.bks.cpg/sg20_5_cif.got.tgz:8615.got - 2010.06.03 22:52:26.
