data_PCOD9316875
_publ_section_title
;
Structure prediction by ZEFSAII (Michael W. Deem and Ramdas Pophale) SiO2 
 PCOD9316875
Probable space group: C 2 2 21
;
_chemical_formula_sum "Si O2"
_cell_formula_units_Z 56
_cell_length_a 9.959567
_cell_length_b 11.329589
_cell_length_c 20.925130
_cell_angle_alpha 90.000000
_cell_angle_beta 90.000000
_cell_angle_gamma 90.000000
_cell_volume 2361.145649
_symmetry_space_group_name_H-M "C 2 2 21"
_symmetry_group_IT_number 20
_symmetry_cell_setting 'orthorhombic'
loop_
_space_group_symop_operation_xyz
x,y,z
-x,-y,1/2+z
x,-y,-z
-x,y,1/2-z
1/2+x,1/2+y,z
1/2-x,1/2-y,1/2+z
1/2+x,1/2-y,-z
1/2-x,1/2+y,1/2-z
loop_
_atom_site_type_symbol
_atom_site_label
_atom_site_fract_x
_atom_site_fract_y
_atom_site_fract_z
Si Si1 0.279290 0.368104 0.026292
Si Si2 0.538518 0.218189 0.049238
Si Si3 0.453901 0.099908 0.317686
Si Si4 0.357601 0.000000 0.000000
Si Si5 0.220829 0.481181 0.636742
Si Si6 0.222915 0.706971 0.840581
Si Si7 0.822467 0.989457 0.227833
Si Si8 0.500000 0.696638 0.250000
O O1 0.432299 0.323197 0.036622
O O2 0.203887 0.363192 0.094239
O O3 0.279342 0.500000 0.000000
O O4 0.185469 0.284161 0.982705
O O5 0.561085 0.189741 0.123925
O O6 0.455565 0.107487 0.019054
O O7 0.500000 0.152443 0.250000
O O8 0.567246 0.006402 0.340242
O O9 0.319850 0.032167 0.299190
O O10 0.270178 0.976541 0.064091
O O11 0.240325 0.339336 0.638081
O O12 0.312104 0.525297 0.695298
O O13 0.340368 0.636502 0.804243
O O14 0.100173 0.727210 0.792323
O O15 0.915130 0.100235 0.209868
#
# Coordination Sequence:
#
# PCOD9316875 Si02
#       8
#     8   8   8   4   8   8   8   4
#     4  12  26  47  73 108 152 199 247 311 374 451
#     4  11  24  45  74 106 146 196 249 309 371 448
#     4   9  18  39  73  98 132 182 234 292 370 437
#     4  10  18  42  74 100 136 190 248 292 366 448
#     4   9  20  40  68 103 135 183 244 294 361 449
#     4  11  23  44  72  97 149 191 236 306 374 433
#     4  10  22  41  69 104 142 181 238 306 373 437
#     4  10  26  46  66 114 142 186 248 310 360 456
#
# _framework density 23.717300000000002
#
# number of rings (size 3 to 8) (size 9 to 14) (size 15 to 20)
#    0.000    1.714    3.571    0.857    5.000    2.286 
#    7.714    7.143    0.000    0.000    0.000    0.000 
#    0.000    0.000    0.000    0.000    0.000    0.000 
#
# Total GULP energy -156353.923065 kJ/mol
# GULP energy per Si atom -5584.068681 kJ/mol
# Density = 2.366332 g / cm^3
# Si number density = 23.717300 Si / 1000 Ang^3
#
#
#
# Elastic Constant Matrix: (Units=GPa)
#
#
# Indices 1 2 3 4 5 6 
#
# 1 83.4129 26.4492 23.4535 0.0000 0.0000 0.0000
# 2 26.4492 115.0387 52.8811 0.0000 0.0000 0.0000
# 3 23.4535 52.8811 175.1751 0.0000 0.0000 0.0000
# 4 0.0000 0.0000 0.0000 23.1916 0.0000 0.0000
# 5 0.0000 0.0000 0.0000 0.0000 0.5962 0.0000
# 6 0.0000 0.0000 0.0000 0.0000 0.0000 88.6776
#
#
#
# Elastic Compliance Matrix: (Units=1/GPa)
#
#
# Indices 1 2 3 4 5 6 
#
# 1 0.013074 -0.002556 -0.000979 0.000000 0.000000 0.000000
# 2 -0.002556 0.010593 -0.002856 0.000000 0.000000 0.000000
# 3 -0.000979 -0.002856 0.006702 0.000000 0.000000 0.000000
# 4 0.000000 0.000000 0.000000 0.043119 0.000000 0.000000
# 5 0.000000 0.000000 0.000000 0.000000 1.677170 0.000000
# 6 0.000000 0.000000 0.000000 0.000000 0.000000 0.011277
#
#
# Mechanical properties :
#
#
# Convention : Reuss Voigt Hill
#
# Bulk Modulus (GPa) = 56.85674 64.35495 60.60584
# Shear Modulus (GPa) = 2.80808 40.54928 21.67868
#
# Velocity S-wave (km/s) = 1.08929 4.13933 3.02660
# Velocity P-wave (km/s) = 5.06032 7.07379 6.15001
#
# Compressibility (1/GPa) = 0.01758807
#
# Stress axis : x y z
#
# Youngs Moduli (GPa) = 76.48617 94.40150 149.21682
#
# Poissons Ratio (x) = 0.24129 0.14606
# Poissons Ratio (y) = 0.19550 0.42610
# Poissons Ratio (z) = 0.07487 0.26957
#
# Static dielectric constant tensor:
#      x y z
#    x 1.972680 0.000000 0.000000 
#    y 0.000000 1.931850 0.000000 
#    z 0.000000 0.000000 1.912300 
# 
# From -- ./inp_files/27231.got.cif
#   From: 2010.05.17/outbox.cif.g08.bks.cpg/sg20_14_cif.got.tgz:27231.got - 2010.06.03 22:52:26.
