data_PCOD9316216
_publ_section_title
;
Structure prediction by ZEFSAII (Michael W. Deem and Ramdas Pophale) SiO2 
 PCOD9316216
Probable space group: C 2 2 21
;
_chemical_formula_sum "Si O2"
_cell_formula_units_Z 56
_cell_length_a 5.420257
_cell_length_b 18.340612
_cell_length_c 28.719952
_cell_angle_alpha 90.000000
_cell_angle_beta 90.000000
_cell_angle_gamma 90.000000
_cell_volume 2855.074282
_symmetry_space_group_name_H-M "C 2 2 21"
_symmetry_group_IT_number 20
_symmetry_cell_setting 'orthorhombic'
loop_
_space_group_symop_operation_xyz
x,y,z
-x,-y,1/2+z
x,-y,-z
-x,y,1/2-z
1/2+x,1/2+y,z
1/2-x,1/2-y,1/2+z
1/2+x,1/2-y,-z
1/2-x,1/2+y,1/2-z
loop_
_atom_site_type_symbol
_atom_site_label
_atom_site_fract_x
_atom_site_fract_y
_atom_site_fract_z
Si Si1 0.250299 0.285062 0.273019
Si Si2 0.746992 0.909170 0.125842
Si Si3 0.753678 0.185430 0.621473
Si Si4 0.749614 0.451218 0.265888
Si Si5 0.302894 0.223857 0.977201
Si Si6 0.693669 0.578136 0.024699
Si Si7 0.806547 0.462949 0.551410
O O1 0.500000 0.256130 0.250000
O O2 0.252798 0.277018 0.328223
O O3 0.250310 0.372787 0.261539
O O4 0.000000 0.256411 0.250000
O O5 0.493338 0.864208 0.119610
O O6 0.752289 0.935775 0.179310
O O7 0.992667 0.860871 0.118277
O O8 0.743889 0.975272 0.089384
O O9 0.736474 0.237640 0.577104
O O10 0.500000 0.489527 0.250000
O O11 0.000000 0.489141 0.250000
O O12 0.251501 0.138431 0.986416
O O13 0.582012 0.238753 0.993683
O O14 0.428876 0.590052 0.048326
O O15 0.928674 0.574501 0.058611
O O16 0.670382 0.500000 0.000000
O O17 0.828915 0.500000 0.500000
#
# Coordination Sequence:
#
# PCOD9316216 Si02
#       7
#     8   8   8   8   8   8   8
#     4  10  16  29  44  73 108 146 175 228 287 362
#     4  12  19  29  53  80 112 155 189 226 298 349
#     4  12  20  32  53  74 113 161 182 224 303 359
#     4  10  16  28  41  72 115 147 167 230 294 360
#     4  12  26  42  58  85 119 159 196 249 297 348
#     4  10  20  39  58  77 111 147 195 239 270 328
#     4  10  19  31  48  77 105 139 196 228 257 326
#
# _framework density 19.6142
#
# number of rings (size 3 to 8) (size 9 to 14) (size 15 to 20)
#    0.000    1.143    5.714    6.000    0.000    0.000 
#    0.000    0.000    0.000    0.000    0.000    0.000 
#    0.000   22.857    0.000    0.000    0.000    0.000 
#
# Total GULP energy -156237.872880 kJ/mol
# GULP energy per Si atom -5579.924031 kJ/mol
# Density = 1.956956 g / cm^3
# Si number density = 19.614200 Si / 1000 Ang^3
#
#
#
# Elastic Constant Matrix: (Units=GPa)
#
#
# Indices 1 2 3 4 5 6 
#
# 1 182.3390 -8.6395 24.6490 0.0000 0.0000 0.0000
# 2 -8.6395 20.2999 1.7348 0.0000 0.0000 0.0000
# 3 24.6490 1.7348 135.2347 0.0000 0.0000 0.0000
# 4 0.0000 0.0000 0.0000 11.2363 0.0000 0.0000
# 5 0.0000 0.0000 0.0000 0.0000 29.5979 0.0000
# 6 0.0000 0.0000 0.0000 0.0000 0.0000 13.5889
#
#
#
# Elastic Compliance Matrix: (Units=1/GPa)
#
#
# Indices 1 2 3 4 5 6 
#
# 1 0.005751 0.002540 -0.001081 0.000000 0.000000 0.000000
# 2 0.002540 0.050437 -0.001110 0.000000 0.000000 0.000000
# 3 -0.001081 -0.001110 0.007606 0.000000 0.000000 0.000000
# 4 0.000000 0.000000 0.000000 0.088997 0.000000 0.000000
# 5 0.000000 0.000000 0.000000 0.000000 0.033786 0.000000
# 6 0.000000 0.000000 0.000000 0.000000 0.000000 0.073589
#
#
# Mechanical properties :
#
#
# Convention : Reuss Voigt Hill
#
# Bulk Modulus (GPa) = 15.50584 41.48468 28.49526
# Shear Modulus (GPa) = 17.79580 32.22659 25.01119
#
# Velocity S-wave (km/s) = 3.01540 4.05782 3.57481
# Velocity P-wave (km/s) = 4.47728 6.56893 5.62125
#
# Compressibility (1/GPa) = 0.06449184
#
# Stress axis : x y z
#
# Youngs Moduli (GPa) = 173.89091 19.82670 131.47903
#
# Poissons Ratio (x) = -0.05036 0.14210
# Poissons Ratio (y) = -0.44165 0.14593
# Poissons Ratio (z) = 0.18793 0.02201
#
# Static dielectric constant tensor:
#      x y z
#    x 1.800600 0.000000 0.000000 
#    y 0.000000 1.669370 0.000000 
#    z 0.000000 0.000000 1.680450 
# 
# From -- ./inp_files/28410.got.cif
#   From: 2010.05.17/outbox.cif.g08.bks.cpg/sg20_15_cif.got.tgz:28410.got - 2010.06.03 22:52:26.
