data_PCOD9316007
_publ_section_title
;
Structure prediction by ZEFSAII (Michael W. Deem and Ramdas Pophale) SiO2 
 PCOD9316007
Probable space group: P 21 21 21
;
_chemical_formula_sum "Si O2"
_cell_formula_units_Z 20
_cell_length_a 7.019027
_cell_length_b 13.165065
_cell_length_c 9.205957
_cell_angle_alpha 90.000000
_cell_angle_beta 90.000000
_cell_angle_gamma 90.000000
_cell_volume 850.685172
_symmetry_space_group_name_H-M "P 21 21 21"
_symmetry_group_IT_number 19
_symmetry_cell_setting 'orthorhombic'
loop_
_space_group_symop_operation_xyz
x,y,z
1/2-x,-y,1/2+z
1/2+x,1/2-y,-z
-x,1/2+y,1/2-z
loop_
_atom_site_type_symbol
_atom_site_label
_atom_site_fract_x
_atom_site_fract_y
_atom_site_fract_z
Si Si1 0.428969 0.488025 0.243485
Si Si2 0.241275 0.837693 0.308527
Si Si3 0.976206 0.290297 0.687092
Si Si4 0.077299 0.468078 0.070794
Si Si5 0.959325 0.696409 0.125903
O O1 0.459337 0.594627 0.163576
O O2 0.630949 0.431327 0.249083
O O3 0.260360 0.430585 0.160318
O O4 0.365774 0.510483 0.406351
O O5 0.411668 0.755397 0.326101
O O6 0.100867 0.891086 0.422613
O O7 0.101104 0.774869 0.203593
O O8 0.250261 0.789753 0.808337
O O9 0.035788 0.226516 0.544236
O O10 0.017949 0.578122 0.137684
#
# Coordination Sequence:
#
# PCOD9316007 Si02
#       5
#     4   4   4   4   4
#     4  12  27  49  76 112 149 192 250 315 367 444
#     4  12  26  45  74 108 145 193 248 314 357 439
#     4  12  23  45  76 106 145 197 251 302 370 448
#     4  12  27  48  76 111 151 198 250 306 374 445
#     4  12  23  47  78 107 144 208 255 289 380 466
#
# _framework density 23.510462
#
# number of rings (size 3 to 8) (size 9 to 14) (size 15 to 20)
#    0.000    0.000    8.000    1.200    2.800    0.000 
#    7.200    0.000    0.000    0.000    0.000    0.000 
#    0.000    0.000    0.000    0.000    0.000    0.000 
#
# Total GULP energy -111747.029410 kJ/mol
# GULP energy per Si atom -5587.351471 kJ/mol
# Density = 2.345695 g / cm^3
# Si number density = 23.510462 Si / 1000 Ang^3
#
#
#
# Elastic Constant Matrix: (Units=GPa)
#
#
# Indices 1 2 3 4 5 6 
#
# 1 180.3460 20.8226 34.3958 0.0000 0.0000 0.0000
# 2 20.8226 87.2565 -22.1039 0.0000 0.0000 0.0000
# 3 34.3958 -22.1039 48.3323 0.0000 0.0000 0.0000
# 4 0.0000 0.0000 0.0000 32.6394 0.0000 0.0000
# 5 0.0000 0.0000 0.0000 0.0000 24.6415 0.0000
# 6 0.0000 0.0000 0.0000 0.0000 0.0000 24.0482
#
#
#
# Elastic Compliance Matrix: (Units=1/GPa)
#
#
# Indices 1 2 3 4 5 6 
#
# 1 0.007218 -0.003420 -0.006700 0.000000 0.000000 0.000000
# 2 -0.003420 0.014582 0.009103 0.000000 0.000000 0.000000
# 3 -0.006700 0.009103 0.029621 0.000000 0.000000 0.000000
# 4 0.000000 0.000000 0.000000 0.030638 0.000000 0.000000
# 5 0.000000 0.000000 0.000000 0.000000 0.040582 0.000000
# 6 0.000000 0.000000 0.000000 0.000000 0.000000 0.041583
#
#
# Mechanical properties :
#
#
# Convention : Reuss Voigt Hill
#
# Bulk Modulus (GPa) = 20.24843 42.46265 31.35554
# Shear Modulus (GPa) = 27.36402 35.12050 31.24226
#
# Velocity S-wave (km/s) = 3.41531 3.86920 3.64932
# Velocity P-wave (km/s) = 4.91769 6.16938 5.57875
#
# Compressibility (1/GPa) = 0.04938655
#
# Stress axis : x y z
#
# Youngs Moduli (GPa) = 138.54921 68.57562 33.75934
#
# Poissons Ratio (x) = 0.23451 0.22620
# Poissons Ratio (y) = 0.47380 -0.30730
# Poissons Ratio (z) = 0.92834 -0.62422
#
# Static dielectric constant tensor:
#      x y z
#    x 1.902410 0.000000 0.000000 
#    y 0.000000 1.924320 0.000000 
#    z 0.000000 0.000000 1.849820 
# 
# From -- ./inp_files/2606.got.cif
#   From: 2010.05.17/outbox.cif.g08.bks.cpg/sg19_2_cif.got.tgz:2606.got - 2010.06.03 22:46:19.
