data_PCOD9316318
_publ_section_title
;
Structure prediction by ZEFSAII (Michael W. Deem and Ramdas Pophale) SiO2 
 PCOD9316318
Probable space group: C 2 2 21
;
_chemical_formula_sum "Si O2"
_cell_formula_units_Z 56
_cell_length_a 7.510131
_cell_length_b 18.252407
_cell_length_c 15.637971
_cell_angle_alpha 90.000000
_cell_angle_beta 90.000000
_cell_angle_gamma 90.000000
_cell_volume 2143.621283
_symmetry_space_group_name_H-M "C 2 2 21"
_symmetry_group_IT_number 20
_symmetry_cell_setting 'orthorhombic'
loop_
_space_group_symop_operation_xyz
x,y,z
-x,-y,1/2+z
x,-y,-z
-x,y,1/2-z
1/2+x,1/2+y,z
1/2-x,1/2-y,1/2+z
1/2+x,1/2-y,-z
1/2-x,1/2+y,1/2-z
loop_
_atom_site_type_symbol
_atom_site_label
_atom_site_fract_x
_atom_site_fract_y
_atom_site_fract_z
Si Si1 0.024361 0.716801 0.121884
Si Si2 0.888348 0.964876 0.094381
Si Si3 0.852512 0.276743 0.185095
Si Si4 0.643076 0.071687 0.380502
Si Si5 0.777260 0.824058 0.035090
Si Si6 0.698896 0.918461 0.414611
Si Si7 0.039691 0.882574 0.628963
O O1 0.140338 0.763769 0.188134
O O2 0.990452 0.633842 0.149574
O O3 0.846604 0.759421 0.095093
O O4 0.133073 0.706181 0.031771
O O5 0.753518 0.896512 0.093738
O O6 0.090789 0.934566 0.106240
O O7 0.860000 0.040187 0.147284
O O8 0.879917 0.000000 0.000000
O O9 0.858261 0.337677 0.111475
O O10 0.000000 0.304775 0.250000
O O11 0.905457 0.192287 0.172144
O O12 0.660492 0.076158 0.484426
O O13 0.837765 0.096943 0.351516
O O14 0.605528 0.986508 0.366119
O O15 0.928908 0.855648 0.969708
#
# Coordination Sequence:
#
# PCOD9316318 Si02
#       7
#     8   8   8   8   8   8   8
#     4  11  21  32  57  86 118 142 192 239 294 352
#     4   9  14  30  55  83 109 143 176 215 303 357
#     4  11  23  38  55  80 116 164 204 235 279 348
#     4  10  18  35  60  93 109 141 185 252 306 348
#     4  10  17  30  53  86 116 143 181 230 302 341
#     4  10  17  34  59  86 119 138 186 242 296 354
#     4   9  17  33  57  75 111 148 187 226 287 340
#
# _framework density 26.124015
#
# number of rings (size 3 to 8) (size 9 to 14) (size 15 to 20)
#    0.000    2.000    5.714    2.571    0.000    0.000 
#   12.857    3.571    0.000    0.000    0.000    0.000 
#    0.000    0.000    0.000    0.000    0.000    0.000 
#
# Total GULP energy -156193.145097 kJ/mol
# GULP energy per Si atom -5578.326611 kJ/mol
# Density = 2.606456 g / cm^3
# Si number density = 26.124015 Si / 1000 Ang^3
#
#
#
# Elastic Constant Matrix: (Units=GPa)
#
#
# Indices 1 2 3 4 5 6 
#
# 1 58.3522 29.2994 16.5652 0.0000 0.0000 0.0000
# 2 29.2994 162.7369 37.6063 0.0000 0.0000 0.0000
# 3 16.5652 37.6063 37.5880 0.0000 0.0000 0.0000
# 4 0.0000 0.0000 0.0000 -2.7951 0.0000 0.0000
# 5 0.0000 0.0000 0.0000 0.0000 20.6790 0.0000
# 6 0.0000 0.0000 0.0000 0.0000 0.0000 57.2928
#
#
#
# Elastic Compliance Matrix: (Units=1/GPa)
#
#
# Indices 1 2 3 4 5 6 
#
# 1 0.020098 -0.002044 -0.006812 0.000000 0.000000 0.000000
# 2 -0.002044 0.008201 -0.007304 0.000000 0.000000 0.000000
# 3 -0.006812 -0.007304 0.036914 0.000000 0.000000 0.000000
# 4 0.000000 0.000000 0.000000 -0.357766 0.000000 0.000000
# 5 0.000000 0.000000 0.000000 0.000000 0.048358 0.000000
# 6 0.000000 0.000000 0.000000 0.000000 0.000000 0.017454
#
#
# Mechanical properties :
#
#
# Convention : Reuss Voigt Hill
#
# Bulk Modulus (GPa) = 30.40243 47.29098 38.84671
# Shear Modulus (GPa) = -27.25419 26.71575 -0.26922
#
# Velocity S-wave (km/s) = -3.23346 3.20136 -0.32137
# Velocity P-wave (km/s) = 1.50909 5.63975 3.84248
#
# Compressibility (1/GPa) = 0.03289210
#
# Stress axis : x y z
#
# Youngs Moduli (GPa) = 49.75732 121.93992 27.09024
#
# Poissons Ratio (x) = 0.24928 0.18453
# Poissons Ratio (y) = 0.10172 0.19786
# Poissons Ratio (z) = 0.33894 0.89063
#
# Static dielectric constant tensor:
#      x y z
#    x 2.164200 0.000000 0.000000 
#    y 0.000000 2.057600 0.000000 
#    z 0.000000 0.000000 2.143430 
# 
# From -- ./inp_files/26836.got.cif
#   From: 2010.05.17/outbox.cif.g08.bks.cpg/sg20_14_cif.got.tgz:26836.got - 2010.06.03 22:52:26.
