data_PCOD9317459
_publ_section_title
;
Structure prediction by ZEFSAII (Michael W. Deem and Ramdas Pophale) SiO2 
 PCOD9317459
Probable space group: C 2 2 21
;
_chemical_formula_sum "Si O2"
_cell_formula_units_Z 52
_cell_length_a 17.728037
_cell_length_b 10.923058
_cell_length_c 15.598648
_cell_angle_alpha 90.000000
_cell_angle_beta 90.000000
_cell_angle_gamma 90.000000
_cell_volume 3020.590464
_symmetry_space_group_name_H-M "C 2 2 21"
_symmetry_group_IT_number 20
_symmetry_cell_setting 'orthorhombic'
loop_
_space_group_symop_operation_xyz
x,y,z
-x,-y,1/2+z
x,-y,-z
-x,y,1/2-z
1/2+x,1/2+y,z
1/2-x,1/2-y,1/2+z
1/2+x,1/2-y,-z
1/2-x,1/2+y,1/2-z
loop_
_atom_site_type_symbol
_atom_site_label
_atom_site_fract_x
_atom_site_fract_y
_atom_site_fract_z
Si Si1 0.500000 0.580338 0.750000
Si Si2 0.485846 0.208421 0.589786
Si Si3 0.424501 0.983939 0.693812
Si Si4 0.616934 0.611976 0.202737
Si Si5 0.209574 0.934451 0.086730
Si Si6 0.933469 0.237266 0.598357
Si Si7 0.853141 0.665655 0.821820
O O1 0.428399 0.490254 0.756350
O O2 0.484757 0.662488 0.666197
O O3 0.443565 0.086111 0.622325
O O4 0.444363 0.319439 0.641044
O O5 0.476934 0.227881 0.488646
O O6 0.571664 0.190300 0.621592
O O7 0.500000 0.962904 0.750000
O O8 0.367933 0.048358 0.760302
O O9 0.404536 0.858016 0.647756
O O10 0.679438 0.540483 0.149380
O O11 0.652158 0.716211 0.261488
O O12 0.137264 0.847262 0.073063
O O13 0.278775 0.859473 0.124857
O O14 0.233281 0.000000 0.000000
#
# Coordination Sequence:
#
# PCOD9317459 Si02
#       7
#     4   8   8   8   8   8   8
#     4  10  20  34  62  84 116 148 208 246 280 366
#     4  10  19  38  66  83 116 161 204 247 289 365
#     4   9  19  36  58  89 112 150 203 240 296 350
#     4  10  19  41  60  85 117 161 208 234 305 368
#     4  11  24  38  57  90 124 158 196 254 316 355
#     4  11  21  36  60  89 118 157 198 256 299 358
#     4  10  22  38  63  85 119 162 198 257 296 369
#
# _framework density 17.215176
#
# number of rings (size 3 to 8) (size 9 to 14) (size 15 to 20)
#    0.000    1.846    3.846    1.385    2.154    2.462 
#    0.000    0.000    0.000    0.000    0.000    0.000 
#    0.000    0.000    0.000    0.000    0.000    0.000 
#
# Total GULP energy -145014.740082 kJ/mol
# GULP energy per Si atom -5577.490003 kJ/mol
# Density = 1.717599 g / cm^3
# Si number density = 17.215176 Si / 1000 Ang^3
#
#
#
# Elastic Constant Matrix: (Units=GPa)
#
#
# Indices 1 2 3 4 5 6 
#
# 1 66.6786 21.5657 41.0699 0.0000 0.0000 0.0000
# 2 21.5657 87.3523 43.4760 0.0000 0.0000 0.0000
# 3 41.0699 43.4760 102.0650 0.0000 0.0000 0.0000
# 4 0.0000 0.0000 0.0000 20.2659 0.0000 0.0000
# 5 0.0000 0.0000 0.0000 0.0000 21.8002 0.0000
# 6 0.0000 0.0000 0.0000 0.0000 0.0000 20.1584
#
#
#
# Elastic Compliance Matrix: (Units=1/GPa)
#
#
# Indices 1 2 3 4 5 6 
#
# 1 0.020035 -0.001185 -0.007557 0.000000 0.000000 0.000000
# 2 -0.001185 0.014598 -0.005741 0.000000 0.000000 0.000000
# 3 -0.007557 -0.005741 0.015284 0.000000 0.000000 0.000000
# 4 0.000000 0.000000 0.000000 0.049344 0.000000 0.000000
# 5 0.000000 0.000000 0.000000 0.000000 0.045871 0.000000
# 6 0.000000 0.000000 0.000000 0.000000 0.000000 0.049607
#
#
# Mechanical properties :
#
#
# Convention : Reuss Voigt Hill
#
# Bulk Modulus (GPa) = 47.73201 52.03544 49.88373
# Shear Modulus (GPa) = 21.67404 22.44385 22.05894
#
# Velocity S-wave (km/s) = 3.55210 3.61463 3.58350
# Velocity P-wave (km/s) = 6.67908 6.90745 6.79422
#
# Compressibility (1/GPa) = 0.02095030
#
# Stress axis : x y z
#
# Youngs Moduli (GPa) = 49.91171 68.50251 65.42679
#
# Poissons Ratio (x) = 0.08118 0.49445
# Poissons Ratio (y) = 0.05915 0.37564
# Poissons Ratio (z) = 0.37719 0.39330
#
# Static dielectric constant tensor:
#      x y z
#    x 1.553700 0.000000 0.000000 
#    y 0.000000 1.590630 0.000000 
#    z 0.000000 0.000000 1.579750 
# 
# From -- ./inp_files/21402.got.cif
#   From: 2010.05.17/outbox.cif.g08.bks.cpg/sg20_11_cif.got.tgz:21402.got - 2010.06.03 22:52:26.
