data_PCOD9317304
_publ_section_title
;
Structure prediction by ZEFSAII (Michael W. Deem and Ramdas Pophale) SiO2 
 PCOD9317304
Probable space group: C 2 2 21
;
_chemical_formula_sum "Si O2"
_cell_formula_units_Z 56
_cell_length_a 5.244949
_cell_length_b 34.973656
_cell_length_c 14.324662
_cell_angle_alpha 90.000000
_cell_angle_beta 90.000000
_cell_angle_gamma 90.000000
_cell_volume 2627.644977
_symmetry_space_group_name_H-M "C 2 2 21"
_symmetry_group_IT_number 20
_symmetry_cell_setting 'orthorhombic'
loop_
_space_group_symop_operation_xyz
x,y,z
-x,-y,1/2+z
x,-y,-z
-x,y,1/2-z
1/2+x,1/2+y,z
1/2-x,1/2-y,1/2+z
1/2+x,1/2-y,-z
1/2-x,1/2+y,1/2-z
loop_
_atom_site_type_symbol
_atom_site_label
_atom_site_fract_x
_atom_site_fract_y
_atom_site_fract_z
Si Si1 0.790855 0.036997 0.938394
Si Si2 0.500000 0.192930 0.750000
Si Si3 0.758600 0.631483 0.849011
Si Si4 0.773076 0.124579 0.972147
Si Si5 0.796939 0.455992 0.173281
Si Si6 0.687068 0.304603 0.591355
Si Si7 0.324276 0.757989 0.407431
Si Si8 0.000000 0.730509 0.250000
O O1 0.826078 0.079200 0.983512
O O2 0.489407 0.038456 0.913522
O O3 0.007000 0.032875 0.855789
O O4 0.835835 0.000000 0.000000
O O5 0.279146 0.162380 0.768111
O O6 0.482730 0.218730 0.841848
O O7 0.511387 0.638165 0.910598
O O8 0.762012 0.589030 0.806096
O O9 0.008986 0.631740 0.916529
O O10 0.779007 0.151705 0.062429
O O11 0.000000 0.472144 0.250000
O O12 0.404719 0.286334 0.586198
O O13 0.807098 0.278899 0.506034
O O14 0.798744 0.295441 0.693325
O O15 0.095625 0.757201 0.334005
#
# Coordination Sequence:
#
# PCOD9317304 Si02
#       8
#     8   4   8   8   8   8   8   4
#     4  10  21  39  63  93 128 164 208 259 321 389
#     4  12  22  38  56  96 129 162 213 262 340 386
#     4  10  22  37  59  96 131 160 200 258 326 393
#     4  10  24  39  65  92 125 173 210 260 323 387
#     4  10  19  36  60  95 128 161 197 253 322 392
#     4  12  25  43  63  89 128 169 223 270 329 383
#     4  12  26  39  62  90 124 169 213 276 322 388
#     4  12  26  44  64  88 121 174 223 272 328 374
#
# _framework density 21.311861
#
# number of rings (size 3 to 8) (size 9 to 14) (size 15 to 20)
#    0.000    1.143    5.000    0.857    6.000    0.571 
#    0.000    0.000    1.571    1.714    0.000    0.000 
#    0.000    0.000    0.000    0.000    0.000    0.000 
#
# Total GULP energy -155929.487993 kJ/mol
# GULP energy per Si atom -5568.910285 kJ/mol
# Density = 2.126335 g / cm^3
# Si number density = 21.311861 Si / 1000 Ang^3
#
#
#
# Elastic Constant Matrix: (Units=GPa)
#
#
# Indices 1 2 3 4 5 6 
#
# 1 118.4809 10.3424 18.4090 0.0000 0.0000 0.0000
# 2 10.3424 95.1437 34.5518 0.0000 0.0000 0.0000
# 3 18.4090 34.5518 84.8404 0.0000 0.0000 0.0000
# 4 0.0000 0.0000 0.0000 16.9595 0.0000 0.0000
# 5 0.0000 0.0000 0.0000 0.0000 32.5666 0.0000
# 6 0.0000 0.0000 0.0000 0.0000 0.0000 9.2372
#
#
#
# Elastic Compliance Matrix: (Units=1/GPa)
#
#
# Indices 1 2 3 4 5 6 
#
# 1 0.008742 -0.000307 -0.001772 0.000000 0.000000 0.000000
# 2 -0.000307 0.012345 -0.004961 0.000000 0.000000 0.000000
# 3 -0.001772 -0.004961 0.014192 0.000000 0.000000 0.000000
# 4 0.000000 0.000000 0.000000 0.058964 0.000000 0.000000
# 5 0.000000 0.000000 0.000000 0.000000 0.030706 0.000000
# 6 0.000000 0.000000 0.000000 0.000000 0.000000 0.108258
#
#
# Mechanical properties :
#
#
# Convention : Reuss Voigt Hill
#
# Bulk Modulus (GPa) = 47.17077 47.23016 47.20046
# Shear Modulus (GPa) = 19.65762 27.43012 23.54387
#
# Velocity S-wave (km/s) = 3.04036 3.59149 3.32735
# Velocity P-wave (km/s) = 5.87424 6.27757 6.07925
#
# Compressibility (1/GPa) = 0.02119957
#
# Stress axis : x y z
#
# Youngs Moduli (GPa) = 114.38663 81.00148 70.46317
#
# Poissons Ratio (x) = 0.02485 0.12486
# Poissons Ratio (y) = 0.03510 0.34958
# Poissons Ratio (z) = 0.20269 0.40186
#
# Static dielectric constant tensor:
#      x y z
#    x 1.930970 0.000000 0.000000 
#    y 0.000000 1.786060 0.000000 
#    z 0.000000 0.000000 1.840040 
# 
# From -- ./inp_files/18018.got.cif
#   From: 2010.05.17/outbox.cif.g08.bks.cpg/sg20_10_cif.got.tgz:18018.got - 2010.06.03 22:52:26.
