data_PCOD9317353
_publ_section_title
;
Structure prediction by ZEFSAII (Michael W. Deem and Ramdas Pophale) SiO2 
 PCOD9317353
Probable space group: C 2 2 21
;
_chemical_formula_sum "Si O2"
_cell_formula_units_Z 64
_cell_length_a 17.967450
_cell_length_b 13.370692
_cell_length_c 11.375101
_cell_angle_alpha 90.000000
_cell_angle_beta 90.000000
_cell_angle_gamma 90.000000
_cell_volume 2732.722869
_symmetry_space_group_name_H-M "C 2 2 21"
_symmetry_group_IT_number 20
_symmetry_cell_setting 'orthorhombic'
loop_
_space_group_symop_operation_xyz
x,y,z
-x,-y,1/2+z
x,-y,-z
-x,y,1/2-z
1/2+x,1/2+y,z
1/2-x,1/2-y,1/2+z
1/2+x,1/2-y,-z
1/2-x,1/2+y,1/2-z
loop_
_atom_site_type_symbol
_atom_site_label
_atom_site_fract_x
_atom_site_fract_y
_atom_site_fract_z
Si Si1 0.272734 0.244581 0.336948
Si Si2 0.470717 0.925568 0.858374
Si Si3 0.477893 0.147895 0.601775
Si Si4 0.189399 0.612123 0.376640
Si Si5 0.153886 0.077489 0.608296
Si Si6 0.678621 0.891441 0.051290
Si Si7 0.119603 0.251253 0.434201
Si Si8 0.667956 0.531674 0.871124
O O1 0.300667 0.203891 0.212525
O O2 0.304951 0.173992 0.437803
O O3 0.184661 0.222862 0.344281
O O4 0.301379 0.354528 0.371551
O O5 0.500000 0.864385 0.750000
O O6 0.384142 0.947537 0.840445
O O7 0.507734 0.033466 0.863328
O O8 0.498219 0.860534 0.965787
O O9 0.390373 0.160629 0.616288
O O10 0.544152 0.222822 0.636317
O O11 0.160338 0.654118 0.501424
O O12 0.262094 0.544765 0.370626
O O13 0.243632 0.097868 0.620236
O O14 0.114000 0.172212 0.543126
O O15 0.130352 0.035046 0.738005
O O16 0.149432 0.000000 0.500000
O O17 0.656804 0.000000 0.000000
O O18 0.631089 0.500000 0.000000
#
# Coordination Sequence:
#
# PCOD9317353 Si02
#       8
#     8   8   8   8   8   8   8   8
#     4  11  22  38  59  88 127 170 222 263 329 396
#     4  10  20  31  53  84 122 167 195 247 329 399
#     4  10  20  35  55  86 128 159 209 262 328 398
#     4  11  21  34  57  85 125 164 211 272 322 393
#     4  10  22  40  65  92 128 170 221 271 334 402
#     4  10  19  37  59  89 127 165 203 263 328 404
#     4  10  20  38  56  89 120 168 216 267 324 400
#     4  12  23  37  61  92 127 168 218 281 326 388
#
# _framework density 23.419865000000001
#
# number of rings (size 3 to 8) (size 9 to 14) (size 15 to 20)
#    0.000    1.500    3.750    3.750    3.500    0.000 
#    0.000    0.000    0.000    0.750    0.000    1.750 
#    0.000    0.000    0.000    0.000    0.000    0.000 
#
# Total GULP energy -178214.302675 kJ/mol
# GULP energy per Si atom -5569.196959 kJ/mol
# Density = 2.336656 g / cm^3
# Si number density = 23.419865 Si / 1000 Ang^3
#
#
#
# Elastic Constant Matrix: (Units=GPa)
#
#
# Indices 1 2 3 4 5 6 
#
# 1 49.7611 12.7225 1.5318 0.0000 0.0000 0.0000
# 2 12.7225 90.9431 17.7213 0.0000 0.0000 0.0000
# 3 1.5318 17.7213 113.5566 0.0000 0.0000 0.0000
# 4 0.0000 0.0000 0.0000 40.3006 0.0000 0.0000
# 5 0.0000 0.0000 0.0000 0.0000 -13.9905 0.0000
# 6 0.0000 0.0000 0.0000 0.0000 0.0000 13.1863
#
#
#
# Elastic Compliance Matrix: (Units=1/GPa)
#
#
# Indices 1 2 3 4 5 6 
#
# 1 0.020845 -0.002951 0.000179 0.000000 0.000000 0.000000
# 2 -0.002951 0.011759 -0.001795 0.000000 0.000000 0.000000
# 3 0.000179 -0.001795 0.009084 0.000000 0.000000 0.000000
# 4 0.000000 0.000000 0.000000 0.024814 0.000000 0.000000
# 5 0.000000 0.000000 0.000000 0.000000 -0.071477 0.000000
# 6 0.000000 0.000000 0.000000 0.000000 0.000000 0.075836
#
#
# Mechanical properties :
#
#
# Convention : Reuss Voigt Hill
#
# Bulk Modulus (GPa) = 30.71853 35.35690 33.03771
# Shear Modulus (GPa) = 55.03886 22.71830 38.87858
#
# Velocity S-wave (km/s) = 4.85303 3.11793 4.07881
# Velocity P-wave (km/s) = 6.67439 5.30016 6.02658
#
# Compressibility (1/GPa) = 0.03255364
#
# Stress axis : x y z
#
# Youngs Moduli (GPa) = 47.97311 85.04463 110.08474
#
# Poissons Ratio (x) = 0.25097 -0.01974
# Poissons Ratio (y) = 0.14157 0.19762
# Poissons Ratio (z) = -0.00860 0.15267
#
# Static dielectric constant tensor:
#      x y z
#    x 2.002250 0.000000 0.000000 
#    y 0.000000 1.959790 0.000000 
#    z 0.000000 0.000000 1.223930 
# 
# From -- ./inp_files/15891.got.cif
#   From: 2010.05.17/outbox.cif.g08.bks.cpg/sg20_8_cif.got.tgz:15891.got - 2010.06.03 22:52:26.
