data_PCOD9317360
_publ_section_title
;
Structure prediction by ZEFSAII (Michael W. Deem and Ramdas Pophale) SiO2 
 PCOD9317360
Probable space group: C 2 2 21
;
_chemical_formula_sum "Si O2"
_cell_formula_units_Z 56
_cell_length_a 14.436818
_cell_length_b 20.799560
_cell_length_c 9.606819
_cell_angle_alpha 90.000000
_cell_angle_beta 90.000000
_cell_angle_gamma 90.000000
_cell_volume 2884.730443
_symmetry_space_group_name_H-M "C 2 2 21"
_symmetry_group_IT_number 20
_symmetry_cell_setting 'orthorhombic'
loop_
_space_group_symop_operation_xyz
x,y,z
-x,-y,1/2+z
x,-y,-z
-x,y,1/2-z
1/2+x,1/2+y,z
1/2-x,1/2-y,1/2+z
1/2+x,1/2-y,-z
1/2-x,1/2+y,1/2-z
loop_
_atom_site_type_symbol
_atom_site_label
_atom_site_fract_x
_atom_site_fract_y
_atom_site_fract_z
Si Si1 0.756752 0.395621 0.226839
Si Si2 0.041019 0.446389 0.900570
Si Si3 0.935865 0.766638 0.049244
Si Si4 0.243936 0.024880 0.352501
Si Si5 0.269644 0.654424 0.034242
Si Si6 0.054013 0.359207 0.393133
Si Si7 0.641535 0.730499 0.851476
O O1 0.721740 0.469313 0.241719
O O2 0.774047 0.374568 0.390044
O O3 0.850132 0.396010 0.135831
O O4 0.691563 0.338759 0.167727
O O5 0.145045 0.469703 0.872498
O O6 0.000000 0.440876 0.750000
O O7 0.996651 0.500000 0.000000
O O8 0.015137 0.382884 0.985457
O O9 0.891551 0.746252 0.197921
O O10 0.045059 0.777815 0.066460
O O11 0.873665 0.826501 0.005582
O O12 0.919838 0.712531 0.934744
O O13 0.221915 0.100340 0.346066
O O14 0.203632 0.000000 0.500000
O O15 0.209150 0.715837 0.082094
O O16 0.000000 0.363082 0.250000
#
# Coordination Sequence:
#
# PCOD9317360 Si02
#       7
#     8   8   8   8   8   8   8
#     4  10  20  36  58  88 121 165 203 264 320 381
#     4  11  22  35  55  85 122 162 203 249 307 394
#     4  10  22  35  58  89 116 165 208 262 322 380
#     4   9  18  33  55  83 113 156 201 245 308 373
#     4  10  19  37  60  87 119 162 208 261 321 391
#     4  12  22  36  55  88 126 163 205 256 324 385
#     4  10  20  37  57  89 124 156 217 265 319 382
#
# _framework density 19.412559000000002
#
# number of rings (size 3 to 8) (size 9 to 14) (size 15 to 20)
#    0.000    1.714    1.429    5.571    4.000    0.000 
#    0.000    0.000    0.000    0.000   18.571    0.000 
#    0.000    0.000    0.000    0.000    0.000    0.000 
#
# Total GULP energy -155957.273075 kJ/mol
# GULP energy per Si atom -5569.902610 kJ/mol
# Density = 1.936838 g / cm^3
# Si number density = 19.412559 Si / 1000 Ang^3
#
#
#
# Elastic Constant Matrix: (Units=GPa)
#
#
# Indices 1 2 3 4 5 6 
#
# 1 68.8657 37.7392 16.0404 0.0000 0.0000 0.0000
# 2 37.7392 93.7248 20.2548 0.0000 0.0000 0.0000
# 3 16.0404 20.2548 58.3696 0.0000 0.0000 0.0000
# 4 0.0000 0.0000 0.0000 29.9987 0.0000 0.0000
# 5 0.0000 0.0000 0.0000 0.0000 10.9658 0.0000
# 6 0.0000 0.0000 0.0000 0.0000 0.0000 16.8664
#
#
#
# Elastic Compliance Matrix: (Units=1/GPa)
#
#
# Indices 1 2 3 4 5 6 
#
# 1 0.019041 -0.007066 -0.002781 0.000000 0.000000 0.000000
# 2 -0.007066 0.014157 -0.002971 0.000000 0.000000 0.000000
# 3 -0.002781 -0.002971 0.018927 0.000000 0.000000 0.000000
# 4 0.000000 0.000000 0.000000 0.033335 0.000000 0.000000
# 5 0.000000 0.000000 0.000000 0.000000 0.091193 0.000000
# 6 0.000000 0.000000 0.000000 0.000000 0.000000 0.059289
#
#
# Mechanical properties :
#
#
# Convention : Reuss Voigt Hill
#
# Bulk Modulus (GPa) = 37.74992 41.00319 39.37656
# Shear Modulus (GPa) = 18.49065 21.36123 19.92594
#
# Velocity S-wave (km/s) = 3.08962 3.32080 3.20729
# Velocity P-wave (km/s) = 5.67592 5.98928 5.83470
#
# Compressibility (1/GPa) = 0.02649012
#
# Stress axis : x y z
#
# Youngs Moduli (GPa) = 52.51828 70.63756 52.83403
#
# Poissons Ratio (x) = 0.49913 0.14691
# Poissons Ratio (y) = 0.37110 0.15696
# Poissons Ratio (z) = 0.14603 0.20984
#
# Static dielectric constant tensor:
#      x y z
#    x 1.681330 0.000000 0.000000 
#    y 0.000000 1.815690 0.000000 
#    z 0.000000 0.000000 1.725900 
# 
# From -- ./inp_files/8763.got.cif
#   From: 2010.05.17/outbox.cif.g08.bks.cpg/sg20_5_cif.got.tgz:8763.got - 2010.06.03 22:52:26.
