data_PCOD9317561
_publ_section_title
;
Structure prediction by ZEFSAII (Michael W. Deem and Ramdas Pophale) SiO2 
 PCOD9317561
Probable space group: C 2 2 21
;
_chemical_formula_sum "Si O2"
_cell_formula_units_Z 40
_cell_length_a 9.870600
_cell_length_b 10.939914
_cell_length_c 14.976689
_cell_angle_alpha 90.000000
_cell_angle_beta 90.000000
_cell_angle_gamma 90.000000
_cell_volume 1617.235523
_symmetry_space_group_name_H-M "C 2 2 21"
_symmetry_group_IT_number 20
_symmetry_cell_setting 'orthorhombic'
loop_
_space_group_symop_operation_xyz
x,y,z
-x,-y,1/2+z
x,-y,-z
-x,y,1/2-z
1/2+x,1/2+y,z
1/2-x,1/2-y,1/2+z
1/2+x,1/2-y,-z
1/2-x,1/2+y,1/2-z
loop_
_atom_site_type_symbol
_atom_site_label
_atom_site_fract_x
_atom_site_fract_y
_atom_site_fract_z
Si Si1 0.857666 0.632442 0.857098
Si Si2 0.131407 0.854644 0.288542
Si Si3 0.366180 0.249769 0.035500
Si Si4 0.922597 0.436745 0.594270
Si Si5 0.376374 0.602250 0.128248
O O1 0.736694 0.613929 0.788602
O O2 0.920799 0.765855 0.834913
O O3 0.968062 0.525506 0.859561
O O4 0.807486 0.656526 0.960467
O O5 0.203141 0.783702 0.371110
O O6 0.000000 0.785291 0.250000
O O7 0.068663 0.977357 0.333415
O O8 0.505078 0.187514 0.065407
O O9 0.390131 0.369948 0.976867
O O10 0.885863 0.500000 0.500000
O O11 0.785333 0.410895 0.645961
#
# Coordination Sequence:
#
# PCOD9317561 Si02
#       5
#     8   8   8   8   8
#     4   9  24  42  68 108 134 194 247 295 379 440
#     4  12  24  44  68 102 150 193 243 317 381 447
#     4   9  22  43  71 103 139 190 242 304 376 436
#     4  10  19  42  70  97 137 185 242 298 363 447
#     4  10  23  45  67 101 144 184 247 303 372 444
#
# _framework density 24.733564999999999
#
# number of rings (size 3 to 8) (size 9 to 14) (size 15 to 20)
#    1.200    0.800    0.000    3.000    2.800    0.800 
#    7.200    2.000    0.000    0.000    0.000    0.000 
#    0.000    0.000    0.000    0.000    0.000    0.000 
#
# Total GULP energy -111542.631025 kJ/mol
# GULP energy per Si atom -5577.131551 kJ/mol
# Density = 2.467727 g / cm^3
# Si number density = 24.733565 Si / 1000 Ang^3
#
#
#
# Elastic Constant Matrix: (Units=GPa)
#
#
# Indices 1 2 3 4 5 6 
#
# 1 63.5088 23.2477 59.8639 0.0000 0.0000 0.0000
# 2 23.2477 81.1899 25.5193 0.0000 0.0000 0.0000
# 3 59.8639 25.5193 164.1586 0.0000 0.0000 0.0000
# 4 0.0000 0.0000 0.0000 29.5031 0.0000 0.0000
# 5 0.0000 0.0000 0.0000 0.0000 39.6350 0.0000
# 6 0.0000 0.0000 0.0000 0.0000 0.0000 21.3450
#
#
#
# Elastic Compliance Matrix: (Units=1/GPa)
#
#
# Indices 1 2 3 4 5 6 
#
# 1 0.025535 -0.004610 -0.008595 0.000000 0.000000 0.000000
# 2 -0.004610 0.013782 -0.000461 0.000000 0.000000 0.000000
# 3 -0.008595 -0.000461 0.009298 0.000000 0.000000 0.000000
# 4 0.000000 0.000000 0.000000 0.033895 0.000000 0.000000
# 5 0.000000 0.000000 0.000000 0.000000 0.025230 0.000000
# 6 0.000000 0.000000 0.000000 0.000000 0.000000 0.046849
#
#
# Mechanical properties :
#
#
# Convention : Reuss Voigt Hill
#
# Bulk Modulus (GPa) = 46.98887 58.45770 52.72328
# Shear Modulus (GPa) = 26.45265 31.44505 28.94885
#
# Velocity S-wave (km/s) = 3.27388 3.56947 3.42486
# Velocity P-wave (km/s) = 5.77324 6.37765 6.08296
#
# Compressibility (1/GPa) = 0.02128164
#
# Stress axis : x y z
#
# Youngs Moduli (GPa) = 39.16119 72.55932 107.55149
#
# Poissons Ratio (x) = 0.33451 0.92445
# Poissons Ratio (y) = 0.18054 0.04961
# Poissons Ratio (z) = 0.33661 0.03347
#
# Static dielectric constant tensor:
#      x y z
#    x 1.912580 0.000000 0.000000 
#    y 0.000000 2.033880 0.000000 
#    z 0.000000 0.000000 2.075830 
# 
# From -- ./inp_files/19659.got.cif
#   From: 2010.05.17/outbox.cif.g08.bks.cpg/sg20_10_cif.got.tgz:19659.got - 2010.06.03 22:52:26.
