data_PCOD9317102
_publ_section_title
;
Structure prediction by ZEFSAII (Michael W. Deem and Ramdas Pophale) SiO2 
 PCOD9317102
Probable space group: C 2 2 21
;
_chemical_formula_sum "Si O2"
_cell_formula_units_Z 44
_cell_length_a 7.946283
_cell_length_b 24.913974
_cell_length_c 11.114653
_cell_angle_alpha 90.000000
_cell_angle_beta 90.000000
_cell_angle_gamma 90.000000
_cell_volume 2200.406623
_symmetry_space_group_name_H-M "C 2 2 21"
_symmetry_group_IT_number 20
_symmetry_cell_setting 'orthorhombic'
loop_
_space_group_symop_operation_xyz
x,y,z
-x,-y,1/2+z
x,-y,-z
-x,y,1/2-z
1/2+x,1/2+y,z
1/2-x,1/2-y,1/2+z
1/2+x,1/2-y,-z
1/2-x,1/2+y,1/2-z
loop_
_atom_site_type_symbol
_atom_site_label
_atom_site_fract_x
_atom_site_fract_y
_atom_site_fract_z
Si Si1 0.222972 0.184976 0.518441
Si Si2 0.365985 0.000000 0.000000
Si Si3 0.596635 0.711744 0.122815
Si Si4 0.886154 0.420213 0.368427
Si Si5 0.793175 0.478877 0.744925
Si Si6 0.306176 0.863040 0.726753
O O1 0.298593 0.236563 0.583837
O O2 0.286093 0.131421 0.585917
O O3 0.294616 0.177131 0.384154
O O4 0.027697 0.194790 0.485454
O O5 0.254050 0.986056 0.884873
O O6 0.487237 0.050747 0.964496
O O7 0.500000 0.723116 0.250000
O O8 0.714912 0.662181 0.158913
O O9 0.758591 0.468075 0.330736
O O10 0.000000 0.406705 0.250000
O O11 0.732139 0.421885 0.697109
O O12 0.000000 0.479002 0.750000
O O13 0.500000 0.870827 0.750000
#
# Coordination Sequence:
#
# PCOD9317102 Si02
#       6
#     8   4   8   8   8   8
#     4  11  20  35  54  77 113 149 190 243 286 329
#     4   8  14  26  46  78 110 140 184 236 290 344
#     4  10  23  37  55  83 111 152 196 232 285 343
#     4   9  16  27  50  83 111 144 188 237 288 342
#     4   8  15  27  49  81 108 136 183 230 284 349
#     4  10  19  34  57  82 109 143 185 233 285 352
#
# _framework density 19.996303000000001
#
# number of rings (size 3 to 8) (size 9 to 14) (size 15 to 20)
#    0.000    2.909    0.000    4.909    0.000    0.000 
#    0.000    1.818    0.000    7.636    0.000    5.091 
#    0.000    0.000    0.000    0.000    0.000    0.000 
#
# Total GULP energy -122494.980807 kJ/mol
# GULP energy per Si atom -5567.953673 kJ/mol
# Density = 1.995079 g / cm^3
# Si number density = 19.996303 Si / 1000 Ang^3
#
#
#
# Elastic Constant Matrix: (Units=GPa)
#
#
# Indices 1 2 3 4 5 6 
#
# 1 56.1583 53.4039 27.6675 0.0000 0.0000 0.0000
# 2 53.4039 147.9869 31.9609 0.0000 0.0000 0.0000
# 3 27.6675 31.9609 54.4584 0.0000 0.0000 0.0000
# 4 0.0000 0.0000 0.0000 30.2730 0.0000 0.0000
# 5 0.0000 0.0000 0.0000 0.0000 14.8813 0.0000
# 6 0.0000 0.0000 0.0000 0.0000 0.0000 7.6630
#
#
#
# Elastic Compliance Matrix: (Units=1/GPa)
#
#
# Indices 1 2 3 4 5 6 
#
# 1 0.031834 -0.009155 -0.010800 0.000000 0.000000 0.000000
# 2 -0.009155 0.010371 -0.001435 0.000000 0.000000 0.000000
# 3 -0.010800 -0.001435 0.024692 0.000000 0.000000 0.000000
# 4 0.000000 0.000000 0.000000 0.033033 0.000000 0.000000
# 5 0.000000 0.000000 0.000000 0.000000 0.067198 0.000000
# 6 0.000000 0.000000 0.000000 0.000000 0.000000 0.130497
#
#
# Mechanical properties :
#
#
# Convention : Reuss Voigt Hill
#
# Bulk Modulus (GPa) = 41.46685 53.85202 47.65943
# Shear Modulus (GPa) = 14.34942 20.26820 17.30881
#
# Velocity S-wave (km/s) = 2.68172 3.18716 2.94530
# Velocity P-wave (km/s) = 5.51100 6.36659 5.95418
#
# Compressibility (1/GPa) = 0.02411565
#
# Stress axis : x y z
#
# Youngs Moduli (GPa) = 31.41291 96.42040 40.49893
#
# Poissons Ratio (x) = 0.88277 0.43739
# Poissons Ratio (y) = 0.28760 0.05813
# Poissons Ratio (z) = 0.33926 0.13840
#
# Static dielectric constant tensor:
#      x y z
#    x 1.788730 0.000000 0.000000 
#    y 0.000000 1.740220 0.000000 
#    z 0.000000 0.000000 1.795510 
# 
# From -- ./inp_files/13023.got.cif
#   From: 2010.05.17/outbox.cif.g08.bks.cpg/sg20_7_cif.got.tgz:13023.got - 2010.06.03 22:52:26.
