data_PCOD9317226
_publ_section_title
;
Structure prediction by ZEFSAII (Michael W. Deem and Ramdas Pophale) SiO2 
 PCOD9317226
Probable space group: C 2 2 21
;
_chemical_formula_sum "Si O2"
_cell_formula_units_Z 52
_cell_length_a 14.185515
_cell_length_b 13.514013
_cell_length_c 9.537413
_cell_angle_alpha 90.000000
_cell_angle_beta 90.000000
_cell_angle_gamma 90.000000
_cell_volume 1828.352917
_symmetry_space_group_name_H-M "C 2 2 21"
_symmetry_group_IT_number 20
_symmetry_cell_setting 'orthorhombic'
loop_
_space_group_symop_operation_xyz
x,y,z
-x,-y,1/2+z
x,-y,-z
-x,y,1/2-z
1/2+x,1/2+y,z
1/2-x,1/2-y,1/2+z
1/2+x,1/2-y,-z
1/2-x,1/2+y,1/2-z
loop_
_atom_site_type_symbol
_atom_site_label
_atom_site_fract_x
_atom_site_fract_y
_atom_site_fract_z
Si Si1 0.380579 0.138773 0.011709
Si Si2 0.420291 0.372724 0.967021
Si Si3 0.372359 0.630316 0.741745
Si Si4 0.917885 0.342764 0.591228
Si Si5 0.665927 0.832161 0.209435
Si Si6 0.919739 0.000000 0.500000
Si Si7 0.262380 0.608464 0.244106
O O1 0.476727 0.113924 0.094864
O O2 0.289170 0.106187 0.100440
O O3 0.394353 0.258223 0.994320
O O4 0.372771 0.112420 0.847592
O O5 0.343337 0.424418 0.868935
O O6 0.439172 0.399757 0.131577
O O7 0.522962 0.411160 0.920547
O O8 0.399956 0.736639 0.671482
O O9 0.270741 0.629239 0.817153
O O10 0.360657 0.551266 0.620357
O O11 0.898992 0.331883 0.425469
O O12 0.832524 0.405917 0.652130
O O13 0.692538 0.718790 0.242308
#
# Coordination Sequence:
#
# PCOD9317226 Si02
#       7
#     8   8   8   8   8   4   8
#     4  11  20  35  62  97 129 168 226 289 349 411
#     4  11  22  42  56  91 135 182 239 280 337 418
#     4  11  22  41  59  88 135 187 237 278 341 420
#     4  11  19  35  65  93 126 175 219 292 354 399
#     4  10  20  36  58  91 132 174 220 289 347 401
#     4  12  26  40  60  92 144 208 226 266 338 438
#     4  10  19  35  63  86 123 179 220 285 353 396
#
# _framework density 28.440899000000002
#
# number of rings (size 3 to 8) (size 9 to 14) (size 15 to 20)
#    0.000    1.231    6.154    3.231    0.000    0.000 
#   16.615    0.000    0.000    0.000    0.000    1.077 
#    0.000    0.000    5.846    0.000    0.000    0.000 
#
# Total GULP energy -145040.339024 kJ/mol
# GULP energy per Si atom -5578.474578 kJ/mol
# Density = 2.837617 g / cm^3
# Si number density = 28.440899 Si / 1000 Ang^3
#
#
#
# Elastic Constant Matrix: (Units=GPa)
#
#
# Indices 1 2 3 4 5 6 
#
# 1 95.4543 -3.1601 36.5573 0.0000 0.0000 0.0000
# 2 -3.1601 84.4834 9.2721 0.0000 0.0000 0.0000
# 3 36.5573 9.2721 138.4430 0.0000 0.0000 0.0000
# 4 0.0000 0.0000 0.0000 18.0399 0.0000 0.0000
# 5 0.0000 0.0000 0.0000 0.0000 59.2596 0.0000
# 6 0.0000 0.0000 0.0000 0.0000 0.0000 13.6126
#
#
#
# Elastic Compliance Matrix: (Units=1/GPa)
#
#
# Indices 1 2 3 4 5 6 
#
# 1 0.011706 0.000783 -0.003144 0.000000 0.000000 0.000000
# 2 0.000783 0.011977 -0.001009 0.000000 0.000000 0.000000
# 3 -0.003144 -0.001009 0.008121 0.000000 0.000000 0.000000
# 4 0.000000 0.000000 0.000000 0.055433 0.000000 0.000000
# 5 0.000000 0.000000 0.000000 0.000000 0.016875 0.000000
# 6 0.000000 0.000000 0.000000 0.000000 0.000000 0.073461
#
#
# Mechanical properties :
#
#
# Convention : Reuss Voigt Hill
#
# Bulk Modulus (GPa) = 39.89707 44.85771 42.37739
# Shear Modulus (GPa) = 25.95163 36.56319 31.25741
#
# Velocity S-wave (km/s) = 3.02400 3.58940 3.31876
# Velocity P-wave (km/s) = 5.12360 5.74324 5.44225
#
# Compressibility (1/GPa) = 0.02506449
#
# Stress axis : x y z
#
# Youngs Moduli (GPa) = 85.42591 83.49584 123.13996
#
# Poissons Ratio (x) = -0.06537 0.38709
# Poissons Ratio (y) = -0.06688 0.12423
# Poissons Ratio (z) = 0.26854 0.08424
#
# Static dielectric constant tensor:
#      x y z
#    x 2.333910 0.000000 0.000000 
#    y 0.000000 2.425520 0.000000 
#    z 0.000000 0.000000 2.377650 
# 
# From -- ./inp_files/8643.got.cif
#   From: 2010.05.17/outbox.cif.g08.bks.cpg/sg20_5_cif.got.tgz:8643.got - 2010.06.03 22:52:26.
