data_PCOD9317720
_publ_section_title
;
Structure prediction by ZEFSAII (Michael W. Deem and Ramdas Pophale) SiO2 
 PCOD9317720
Probable space group: C 2 2 21
;
_chemical_formula_sum "Si O2"
_cell_formula_units_Z 60
_cell_length_a 22.906156
_cell_length_b 8.789690
_cell_length_c 14.860150
_cell_angle_alpha 90.000000
_cell_angle_beta 90.000000
_cell_angle_gamma 90.000000
_cell_volume 2991.913034
_symmetry_space_group_name_H-M "C 2 2 21"
_symmetry_group_IT_number 20
_symmetry_cell_setting 'orthorhombic'
loop_
_space_group_symop_operation_xyz
x,y,z
-x,-y,1/2+z
x,-y,-z
-x,y,1/2-z
1/2+x,1/2+y,z
1/2-x,1/2-y,1/2+z
1/2+x,1/2-y,-z
1/2-x,1/2+y,1/2-z
loop_
_atom_site_type_symbol
_atom_site_label
_atom_site_fract_x
_atom_site_fract_y
_atom_site_fract_z
Si Si1 0.093438 0.309596 0.315291
Si Si2 0.939208 0.052219 0.301434
Si Si3 0.464368 0.171940 0.994793
Si Si4 0.522701 0.500000 0.000000
Si Si5 0.742776 0.404645 0.075202
Si Si6 0.855219 0.397741 0.872465
Si Si7 0.678264 0.396804 0.264339
Si Si8 0.808122 0.111100 0.081637
O O1 0.077561 0.224135 0.225417
O O2 0.042294 0.308935 0.387808
O O3 0.113486 0.481898 0.306839
O O4 0.141485 0.211657 0.371208
O O5 0.000000 0.016256 0.250000
O O6 0.943488 0.029821 0.407416
O O7 0.886753 0.955682 0.258334
O O8 0.403081 0.149734 0.051329
O O9 0.489060 0.338837 0.021418
O O10 0.492198 0.000000 0.000000
O O11 0.800237 0.508794 0.090220
O O12 0.711710 0.388158 0.170690
O O13 0.762147 0.235232 0.046538
O O14 0.707994 0.500000 0.000000
O O15 0.830620 0.257739 0.817920
O O16 0.711366 0.508056 0.334266
O O17 0.826877 0.000000 0.000000
#
# Coordination Sequence:
#
# PCOD9317720 Si02
#       8
#     8   8   8   4   8   8   8   8
#     4   9  19  36  59  90 126 153 202 271 329 364
#     4  11  23  41  62  93 120 174 212 265 322 383
#     4  10  20  37  65  99 126 157 210 285 333 377
#     4  12  24  40  68  90 136 168 226 264 338 398
#     4  11  22  38  59  89 131 167 199 253 321 386
#     4  10  20  39  64  98 124 157 213 274 321 383
#     4  11  23  38  62  89 126 166 213 252 319 394
#     4  10  20  34  61  91 116 157 208 259 307 370
#
# _framework density 20.054058999999999
#
# number of rings (size 3 to 8) (size 9 to 14) (size 15 to 20)
#    0.000    1.600    1.333    5.200    3.733    0.000 
#    2.400    2.000    0.000    0.000    0.000    0.000 
#    0.000    0.000    0.000    0.000    0.000    0.000 
#
# Total GULP energy -167111.211185 kJ/mol
# GULP energy per Si atom -5570.373706 kJ/mol
# Density = 2.000842 g / cm^3
# Si number density = 20.054059 Si / 1000 Ang^3
#
#
#
# Elastic Constant Matrix: (Units=GPa)
#
#
# Indices 1 2 3 4 5 6 
#
# 1 36.3695 24.3650 13.2896 0.0000 0.0000 0.0000
# 2 24.3650 159.0893 58.7573 0.0000 0.0000 0.0000
# 3 13.2896 58.7573 114.4734 0.0000 0.0000 0.0000
# 4 0.0000 0.0000 0.0000 30.6762 0.0000 0.0000
# 5 0.0000 0.0000 0.0000 0.0000 26.3592 0.0000
# 6 0.0000 0.0000 0.0000 0.0000 0.0000 2.0055
#
#
#
# Elastic Compliance Matrix: (Units=1/GPa)
#
#
# Indices 1 2 3 4 5 6 
#
# 1 0.030827 -0.004195 -0.001426 0.000000 0.000000 0.000000
# 2 -0.004195 0.008327 -0.003787 0.000000 0.000000 0.000000
# 3 -0.001426 -0.003787 0.010845 0.000000 0.000000 0.000000
# 4 0.000000 0.000000 0.000000 0.032599 0.000000 0.000000
# 5 0.000000 0.000000 0.000000 0.000000 0.037937 0.000000
# 6 0.000000 0.000000 0.000000 0.000000 0.000000 0.498633
#
#
# Mechanical properties :
#
#
# Convention : Reuss Voigt Hill
#
# Bulk Modulus (GPa) = 32.06808 55.86177 43.96492
# Shear Modulus (GPa) = 7.71157 26.04288 16.87722
#
# Velocity S-wave (km/s) = 1.96309 3.60757 2.90416
# Velocity P-wave (km/s) = 4.60042 6.72821 5.76336
#
# Compressibility (1/GPa) = 0.03118366
#
# Stress axis : x y z
#
# Youngs Moduli (GPa) = 32.43947 120.09276 92.20823
#
# Poissons Ratio (x) = 0.50374 0.13147
# Poissons Ratio (y) = 0.13607 0.34920
# Poissons Ratio (z) = 0.04625 0.45480
#
# Static dielectric constant tensor:
#      x y z
#    x 1.759930 0.000000 0.000000 
#    y 0.000000 1.768500 0.000000 
#    z 0.000000 0.000000 1.721820 
# 
# From -- ./inp_files/22021.got.cif
#   From: 2010.05.17/outbox.cif.g08.bks.cpg/sg20_12_cif.got.tgz:22021.got - 2010.06.03 22:52:26.
