data_PCOD9317280
_publ_section_title
;
Structure prediction by ZEFSAII (Michael W. Deem and Ramdas Pophale) SiO2 
 PCOD9317280
Probable space group: C 2 2 21
;
_chemical_formula_sum "Si O2"
_cell_formula_units_Z 56
_cell_length_a 8.970005
_cell_length_b 12.407217
_cell_length_c 21.686782
_cell_angle_alpha 90.000000
_cell_angle_beta 90.000000
_cell_angle_gamma 90.000000
_cell_volume 2413.582660
_symmetry_space_group_name_H-M "C 2 2 21"
_symmetry_group_IT_number 20
_symmetry_cell_setting 'orthorhombic'
loop_
_space_group_symop_operation_xyz
x,y,z
-x,-y,1/2+z
x,-y,-z
-x,y,1/2-z
1/2+x,1/2+y,z
1/2-x,1/2-y,1/2+z
1/2+x,1/2-y,-z
1/2-x,1/2+y,1/2-z
loop_
_atom_site_type_symbol
_atom_site_label
_atom_site_fract_x
_atom_site_fract_y
_atom_site_fract_z
Si Si1 0.184801 0.791793 0.073181
Si Si2 0.219465 0.033831 0.657045
Si Si3 0.193421 0.215127 0.059482
Si Si4 0.509478 0.868497 0.375596
Si Si5 0.942638 0.736211 0.150643
Si Si6 0.312437 0.021917 0.207094
Si Si7 0.933865 0.012419 0.398801
O O1 0.348236 0.844401 0.081577
O O2 0.118379 0.733769 0.134054
O O3 0.179153 0.732505 0.007596
O O4 0.073319 0.893423 0.074205
O O5 0.367975 0.051680 0.616125
O O6 0.130003 0.148515 0.671268
O O7 0.266038 0.988529 0.722738
O O8 0.101713 0.962833 0.620207
O O9 0.359040 0.216798 0.085377
O O10 0.086507 0.260140 0.114054
O O11 0.141354 0.093400 0.054574
O O12 0.585902 0.920261 0.315035
O O13 0.893173 0.635360 0.192241
O O14 0.168267 0.015915 0.162668
#
# Coordination Sequence:
#
# PCOD9317280 Si02
#       7
#     8   8   8   8   8   8   8
#     4  10  19  37  59  83 117 154 193 245 299 353
#     4  10  20  38  58  85 122 153 197 253 298 358
#     4  10  19  36  59  85 116 151 192 247 300 352
#     4  10  22  35  56  87 116 151 198 243 296 362
#     4   9  21  37  58  85 114 156 204 238 292 373
#     4  10  20  38  58  84 121 160 197 250 307 357
#     4   9  20  35  59  87 113 153 202 240 297 375
#
# _framework density 23.202024000000002
#
# number of rings (size 3 to 8) (size 9 to 14) (size 15 to 20)
#    0.000    2.286    0.000    2.143    0.000    2.286 
#    0.000   13.571    0.000   12.000    0.000    0.000 
#    0.000    0.000    0.000    0.000    0.000    0.000 
#
# Total GULP energy -155873.528173 kJ/mol
# GULP energy per Si atom -5566.911720 kJ/mol
# Density = 2.314921 g / cm^3
# Si number density = 23.202024 Si / 1000 Ang^3
#
#
#
# Elastic Constant Matrix: (Units=GPa)
#
#
# Indices 1 2 3 4 5 6 
#
# 1 138.8614 2.2188 35.0437 0.0000 0.0000 0.0000
# 2 2.2188 50.7730 18.1696 0.0000 0.0000 0.0000
# 3 35.0437 18.1696 76.7971 0.0000 0.0000 0.0000
# 4 0.0000 0.0000 0.0000 15.9378 0.0000 0.0000
# 5 0.0000 0.0000 0.0000 0.0000 13.2114 0.0000
# 6 0.0000 0.0000 0.0000 0.0000 0.0000 30.0272
#
#
#
# Elastic Compliance Matrix: (Units=1/GPa)
#
#
# Indices 1 2 3 4 5 6 
#
# 1 0.008192 0.001070 -0.003991 0.000000 0.000000 0.000000
# 2 0.001070 0.021657 -0.005612 0.000000 0.000000 0.000000
# 3 -0.003991 -0.005612 0.016170 0.000000 0.000000 0.000000
# 4 0.000000 0.000000 0.000000 0.062744 0.000000 0.000000
# 5 0.000000 0.000000 0.000000 0.000000 0.075692 0.000000
# 6 0.000000 0.000000 0.000000 0.000000 0.000000 0.033303
#
#
# Mechanical properties :
#
#
# Convention : Reuss Voigt Hill
#
# Bulk Modulus (GPa) = 34.53906 41.92175 38.23040
# Shear Modulus (GPa) = 20.45196 25.90192 23.17694
#
# Velocity S-wave (km/s) = 2.97218 3.34483 3.16400
# Velocity P-wave (km/s) = 5.16692 5.74670 5.46450
#
# Compressibility (1/GPa) = 0.02895273
#
# Stress axis : x y z
#
# Youngs Moduli (GPa) = 122.07711 46.17416 61.84147
#
# Poissons Ratio (x) = -0.04942 0.24682
# Poissons Ratio (y) = -0.13066 0.34707
# Poissons Ratio (z) = 0.48723 0.25914
#
# Static dielectric constant tensor:
#      x y z
#    x 1.935620 0.000000 0.000000 
#    y 0.000000 1.972800 0.000000 
#    z 0.000000 0.000000 1.871390 
# 
# From -- ./inp_files/26714.got.cif
#   From: 2010.05.17/outbox.cif.g08.bks.cpg/sg20_14_cif.got.tgz:26714.got - 2010.06.03 22:52:26.
