data_PCOD9317236
_publ_section_title
;
Structure prediction by ZEFSAII (Michael W. Deem and Ramdas Pophale) SiO2 
 PCOD9317236
Probable space group: C 2 2 21
;
_chemical_formula_sum "Si O2"
_cell_formula_units_Z 48
_cell_length_a 17.305014
_cell_length_b 7.149019
_cell_length_c 17.294304
_cell_angle_alpha 90.000000
_cell_angle_beta 90.000000
_cell_angle_gamma 90.000000
_cell_volume 2139.545344
_symmetry_space_group_name_H-M "C 2 2 21"
_symmetry_group_IT_number 20
_symmetry_cell_setting 'orthorhombic'
loop_
_space_group_symop_operation_xyz
x,y,z
-x,-y,1/2+z
x,-y,-z
-x,y,1/2-z
1/2+x,1/2+y,z
1/2-x,1/2-y,1/2+z
1/2+x,1/2-y,-z
1/2-x,1/2+y,1/2-z
loop_
_atom_site_type_symbol
_atom_site_label
_atom_site_fract_x
_atom_site_fract_y
_atom_site_fract_z
Si Si1 0.262931 0.472960 0.188251
Si Si2 0.622371 0.022105 0.910159
Si Si3 0.798540 0.544729 0.145516
Si Si4 0.361895 0.462848 0.587026
Si Si5 0.031889 0.412006 0.669288
Si Si6 0.080047 0.982770 0.253564
O O1 0.196664 0.558571 0.134974
O O2 0.223872 0.458089 0.271865
O O3 0.284453 0.268154 0.156498
O O4 0.345602 0.568952 0.204168
O O5 0.622194 0.244486 0.894447
O O6 0.540837 0.932477 0.886904
O O7 0.636227 0.000000 0.000000
O O8 0.729791 0.490939 0.087818
O O9 0.888999 0.507871 0.132838
O O10 0.392143 0.500000 0.500000
O O11 0.395690 0.559170 0.664704
O O12 0.057735 0.203658 0.697545
O O13 0.000000 0.496100 0.750000
O O14 0.000000 0.093080 0.250000
#
# Coordination Sequence:
#
# PCOD9317236 Si02
#       6
#     8   8   8   8   8   8
#     4   9  18  36  56  89 115 157 209 254 303 386
#     4  11  24  37  62  95 131 166 214 275 330 378
#     4   9  18  35  60  85 117 156 205 255 310 382
#     4  10  23  40  61  90 130 167 212 268 334 383
#     4  10  19  35  65  93 123 165 216 261 317 384
#     4   9  20  38  67  89 120 171 219 256 317 392
#
# _framework density 22.434674000000001
#
# number of rings (size 3 to 8) (size 9 to 14) (size 15 to 20)
#    0.000    2.333    1.667    0.000    4.667    2.667 
#    3.000    0.833    3.667    0.000    0.000    0.000 
#    0.000    0.000    0.000    0.000    0.000    0.000 
#
# Total GULP energy -133750.317043 kJ/mol
# GULP energy per Si atom -5572.929877 kJ/mol
# Density = 2.238361 g / cm^3
# Si number density = 22.434674 Si / 1000 Ang^3
#
#
#
# Elastic Constant Matrix: (Units=GPa)
#
#
# Indices 1 2 3 4 5 6 
#
# 1 230.5938 25.1328 63.0753 0.0000 0.0000 0.0000
# 2 25.1328 83.7097 -1.6517 0.0000 0.0000 0.0000
# 3 63.0753 -1.6517 119.0668 0.0000 0.0000 0.0000
# 4 0.0000 0.0000 0.0000 23.8737 0.0000 0.0000
# 5 0.0000 0.0000 0.0000 0.0000 47.0955 0.0000
# 6 0.0000 0.0000 0.0000 0.0000 0.0000 -2.1569
#
#
#
# Elastic Compliance Matrix: (Units=1/GPa)
#
#
# Indices 1 2 3 4 5 6 
#
# 1 0.005288 -0.001643 -0.002824 0.000000 0.000000 0.000000
# 2 -0.001643 0.012460 0.001043 0.000000 0.000000 0.000000
# 3 -0.002824 0.001043 0.009909 0.000000 0.000000 0.000000
# 4 0.000000 0.000000 0.000000 0.041887 0.000000 0.000000
# 5 0.000000 0.000000 0.000000 0.000000 0.021233 0.000000
# 6 0.000000 0.000000 0.000000 0.000000 0.000000 -0.463634
#
#
# Mechanical properties :
#
#
# Convention : Reuss Voigt Hill
#
# Bulk Modulus (GPa) = 48.05589 67.38700 57.72144
# Shear Modulus (GPa) = -13.92483 36.88338 11.47927
#
# Velocity S-wave (km/s) = -2.49405 4.05907 2.26448
# Velocity P-wave (km/s) = 3.62948 7.21597 5.71154
#
# Compressibility (1/GPa) = 0.02080910
#
# Stress axis : x y z
#
# Youngs Moduli (GPa) = 189.09731 80.25645 100.91568
#
# Poissons Ratio (x) = 0.13190 0.28501
# Poissons Ratio (y) = 0.31077 -0.10530
# Poissons Ratio (z) = 0.53406 -0.08374
#
# Static dielectric constant tensor:
#      x y z
#    x 1.909160 0.000000 0.000000 
#    y 0.000000 1.932640 0.000000 
#    z 0.000000 0.000000 1.777300 
# 
# From -- ./inp_files/21301.got.cif
#   From: 2010.05.17/outbox.cif.g08.bks.cpg/sg20_11_cif.got.tgz:21301.got - 2010.06.03 22:52:26.
