data_PCOD9317590
_publ_section_title
;
Structure prediction by ZEFSAII (Michael W. Deem and Ramdas Pophale) SiO2 
 PCOD9317590
Probable space group: C 2 2 21
;
_chemical_formula_sum "Si O2"
_cell_formula_units_Z 44
_cell_length_a 18.939638
_cell_length_b 31.288371
_cell_length_c 5.031854
_cell_angle_alpha 90.000000
_cell_angle_beta 90.000000
_cell_angle_gamma 90.000000
_cell_volume 2981.828477
_symmetry_space_group_name_H-M "C 2 2 21"
_symmetry_group_IT_number 20
_symmetry_cell_setting 'orthorhombic'
loop_
_space_group_symop_operation_xyz
x,y,z
-x,-y,1/2+z
x,-y,-z
-x,y,1/2-z
1/2+x,1/2+y,z
1/2-x,1/2-y,1/2+z
1/2+x,1/2-y,-z
1/2-x,1/2+y,1/2-z
loop_
_atom_site_type_symbol
_atom_site_label
_atom_site_fract_x
_atom_site_fract_y
_atom_site_fract_z
Si Si1 0.079876 0.906315 0.372114
Si Si2 0.333445 0.777294 0.249435
Si Si3 0.136426 0.139554 0.103948
Si Si4 0.050310 0.000000 0.500000
Si Si5 0.265538 0.807570 0.744219
Si Si6 0.951525 0.221957 0.493389
O O1 0.095997 0.877089 0.630802
O O2 0.089769 0.955691 0.450662
O O3 0.000000 0.900875 0.250000
O O4 0.130425 0.894743 0.128279
O O5 0.296996 0.809843 0.451886
O O6 0.286065 0.734043 0.242914
O O7 0.406395 0.761668 0.379199
O O8 0.326839 0.796685 0.956403
O O9 0.215257 0.153518 0.179747
O O10 0.100512 0.181760 0.970259
O O11 0.000000 0.008102 0.250000
O O12 0.000000 0.208383 0.250000
O O13 0.000000 0.230113 0.750000
#
# Coordination Sequence:
#
# PCOD9317590 Si02
#       6
#     8   8   8   4   8   8
#     4  11  20  31  43  59  80 104 132 169 211 247
#     4   9  17  29  41  53  76 102 128 161 197 242
#     4  11  20  29  44  61  79 100 133 178 211 237
#     4  10  20  32  44  56  76 108 136 158 198 254
#     4   9  17  29  42  56  72 100 132 162 202 235
#     4  11  20  28  40  60  81 103 131 168 211 243
#
# _framework density 14.756046
#
# number of rings (size 3 to 8) (size 9 to 14) (size 15 to 20)
#    0.000    1.818    0.000    7.636    0.000    5.818 
#    0.000    0.000    0.000    0.000    0.000    0.000 
#    0.000    0.000    0.000    0.000    0.000    0.000 
#
# Total GULP energy -122613.052044 kJ/mol
# GULP energy per Si atom -5573.320547 kJ/mol
# Density = 1.472246 g / cm^3
# Si number density = 14.756046 Si / 1000 Ang^3
#
#
#
# Elastic Constant Matrix: (Units=GPa)
#
#
# Indices 1 2 3 4 5 6 
#
# 1 12.7917 10.1149 -9.7145 0.0000 0.0000 0.0000
# 2 10.1149 49.3903 5.0671 0.0000 0.0000 0.0000
# 3 -9.7145 5.0671 62.7537 0.0000 0.0000 0.0000
# 4 0.0000 0.0000 0.0000 25.3991 0.0000 0.0000
# 5 0.0000 0.0000 0.0000 0.0000 14.0523 0.0000
# 6 0.0000 0.0000 0.0000 0.0000 0.0000 19.5608
#
#
#
# Elastic Compliance Matrix: (Units=1/GPa)
#
#
# Indices 1 2 3 4 5 6 
#
# 1 0.112834 -0.025108 0.019494 0.000000 0.000000 0.000000
# 2 -0.025108 0.026003 -0.005986 0.000000 0.000000 0.000000
# 3 0.019494 -0.005986 0.019436 0.000000 0.000000 0.000000
# 4 0.000000 0.000000 0.000000 0.039372 0.000000 0.000000
# 5 0.000000 0.000000 0.000000 0.000000 0.071163 0.000000
# 6 0.000000 0.000000 0.000000 0.000000 0.000000 0.051123
#
#
# Mechanical properties :
#
#
# Convention : Reuss Voigt Hill
#
# Bulk Modulus (GPa) = 7.40334 15.09674 11.25004
# Shear Modulus (GPa) = 12.88144 19.76697 16.32421
#
# Velocity S-wave (km/s) = 2.95780 3.66400 3.32968
# Velocity P-wave (km/s) = 4.08568 5.30594 4.73528
#
# Compressibility (1/GPa) = 0.13507419
#
# Stress axis : x y z
#
# Youngs Moduli (GPa) = 8.86255 38.45710 51.44962
#
# Poissons Ratio (x) = 0.96558 -1.00298
# Poissons Ratio (y) = 0.22252 0.30800
# Poissons Ratio (z) = -0.17277 0.23022
#
# Static dielectric constant tensor:
#      x y z
#    x 1.493190 0.000000 0.000000 
#    y 0.000000 1.494050 0.000000 
#    z 0.000000 0.000000 1.511360 
# 
# From -- ./inp_files/2151.got.cif
#   From: 2010.05.17/outbox.cif.g08.bks.cpg/sg20_2_cif.got.tgz:2151.got - 2010.06.03 22:52:26.
