data_PCOD9317570
_publ_section_title
;
Structure prediction by ZEFSAII (Michael W. Deem and Ramdas Pophale) SiO2 
 PCOD9317570
Probable space group: C 2 2 21
;
_chemical_formula_sum "Si O2"
_cell_formula_units_Z 60
_cell_length_a 8.562137
_cell_length_b 12.502814
_cell_length_c 24.602061
_cell_angle_alpha 90.000000
_cell_angle_beta 90.000000
_cell_angle_gamma 90.000000
_cell_volume 2633.670468
_symmetry_space_group_name_H-M "C 2 2 21"
_symmetry_group_IT_number 20
_symmetry_cell_setting 'orthorhombic'
loop_
_space_group_symop_operation_xyz
x,y,z
-x,-y,1/2+z
x,-y,-z
-x,y,1/2-z
1/2+x,1/2+y,z
1/2-x,1/2-y,1/2+z
1/2+x,1/2-y,-z
1/2-x,1/2+y,1/2-z
loop_
_atom_site_type_symbol
_atom_site_label
_atom_site_fract_x
_atom_site_fract_y
_atom_site_fract_z
Si Si1 0.429194 0.500000 0.500000
Si Si2 0.125494 0.889247 0.820816
Si Si3 0.179060 0.600161 0.426755
Si Si4 0.347498 0.334789 0.048414
Si Si5 0.672453 0.759218 0.750171
Si Si6 0.104632 0.922896 0.338318
Si Si7 0.097028 0.534359 0.895699
Si Si8 0.429672 0.817447 0.188622
O O1 0.309732 0.521497 0.451134
O O2 0.545404 0.600501 0.506780
O O3 0.259310 0.880955 0.865951
O O4 0.209207 0.853750 0.765464
O O5 0.007867 0.791895 0.831947
O O6 0.033262 0.999597 0.820171
O O7 0.176194 0.710158 0.460143
O O8 0.005527 0.554518 0.424095
O O9 0.431093 0.355349 0.107087
O O10 0.179090 0.389364 0.059601
O O11 0.500000 0.804268 0.750000
O O12 0.661483 0.662994 0.705902
O O13 0.746581 0.703524 0.802753
O O14 0.252992 0.994417 0.358378
O O15 0.979975 0.594827 0.854567
O O16 0.500000 0.839349 0.250000
#
# Coordination Sequence:
#
# PCOD9317570 Si02
#       8
#     4   8   8   8   8   8   8   8
#     4  12  28  44  74 108 136 180 234 294 358 442
#     4  11  21  44  71  96 141 186 230 292 353 411
#     4  12  24  46  71 107 133 176 238 290 362 430
#     4  10  23  49  71  97 141 177 226 288 357 425
#     4  11  24  40  68 104 145 188 243 290 342 420
#     4  10  21  46  69  96 138 190 228 286 356 415
#     4  10  22  43  73  98 138 182 229 286 356 415
#     4  10  19  43  68  97 142 181 235 292 330 415
#
# _framework density 22.781894999999999
#
# number of rings (size 3 to 8) (size 9 to 14) (size 15 to 20)
#    0.800    0.533    6.667    0.000    1.867    5.333 
#    2.400    0.667    0.000    0.000    0.000    0.000 
#    0.000    0.000    0.000    0.000    0.000    0.000 
#
# Total GULP energy -167470.415146 kJ/mol
# GULP energy per Si atom -5582.347172 kJ/mol
# Density = 2.273004 g / cm^3
# Si number density = 22.781895 Si / 1000 Ang^3
#
#
#
# Elastic Constant Matrix: (Units=GPa)
#
#
# Indices 1 2 3 4 5 6 
#
# 1 87.3854 25.7823 -1.7331 0.0000 0.0000 0.0000
# 2 25.7823 56.7202 -6.0023 0.0000 0.0000 0.0000
# 3 -1.7331 -6.0023 16.5592 0.0000 0.0000 0.0000
# 4 0.0000 0.0000 0.0000 15.1370 0.0000 0.0000
# 5 0.0000 0.0000 0.0000 0.0000 22.3008 0.0000
# 6 0.0000 0.0000 0.0000 0.0000 0.0000 39.9894
#
#
#
# Elastic Compliance Matrix: (Units=1/GPa)
#
#
# Indices 1 2 3 4 5 6 
#
# 1 0.013227 -0.006100 -0.000827 0.000000 0.000000 0.000000
# 2 -0.006100 0.021147 0.007027 0.000000 0.000000 0.000000
# 3 -0.000827 0.007027 0.062850 0.000000 0.000000 0.000000
# 4 0.000000 0.000000 0.000000 0.066063 0.000000 0.000000
# 5 0.000000 0.000000 0.000000 0.000000 0.044841 0.000000
# 6 0.000000 0.000000 0.000000 0.000000 0.000000 0.025007
#
#
# Mechanical properties :
#
#
# Convention : Reuss Voigt Hill
#
# Bulk Modulus (GPa) = 10.26444 21.86207 16.06325
# Shear Modulus (GPa) = 18.83888 24.99331 21.91610
#
# Velocity S-wave (km/s) = 2.87875 3.31580 3.10497
# Velocity P-wave (km/s) = 3.94524 4.92711 4.46326
#
# Compressibility (1/GPa) = 0.09742377
#
# Stress axis : x y z
#
# Youngs Moduli (GPa) = 75.60372 47.28880 15.91096
#
# Poissons Ratio (x) = 0.28845 0.01315
# Poissons Ratio (y) = 0.46117 -0.11180
# Poissons Ratio (z) = 0.06250 -0.33228
#
# Static dielectric constant tensor:
#      x y z
#    x 1.865920 0.000000 0.000000 
#    y 0.000000 1.854870 0.000000 
#    z 0.000000 0.000000 1.929760 
# 
# From -- ./inp_files/31033.got.cif
#   From: 2010.05.17/outbox.cif.g08.bks.cpg/sg20_16_cif.got.tgz:31033.got - 2010.06.03 22:52:26.
