data_PCOD9317384
_publ_section_title
;
Structure prediction by ZEFSAII (Michael W. Deem and Ramdas Pophale) SiO2 
 PCOD9317384
Probable space group: C 2 2 21
;
_chemical_formula_sum "Si O2"
_cell_formula_units_Z 48
_cell_length_a 8.486662
_cell_length_b 16.559163
_cell_length_c 18.607702
_cell_angle_alpha 90.000000
_cell_angle_beta 90.000000
_cell_angle_gamma 90.000000
_cell_volume 2614.977938
_symmetry_space_group_name_H-M "C 2 2 21"
_symmetry_group_IT_number 20
_symmetry_cell_setting 'orthorhombic'
loop_
_space_group_symop_operation_xyz
x,y,z
-x,-y,1/2+z
x,-y,-z
-x,y,1/2-z
1/2+x,1/2+y,z
1/2-x,1/2-y,1/2+z
1/2+x,1/2-y,-z
1/2-x,1/2+y,1/2-z
loop_
_atom_site_type_symbol
_atom_site_label
_atom_site_fract_x
_atom_site_fract_y
_atom_site_fract_z
Si Si1 0.230264 0.514528 0.914154
Si Si2 0.322978 0.695818 0.908525
Si Si3 0.705968 0.341465 0.825438
Si Si4 0.339975 0.357910 0.840498
Si Si5 0.107433 0.714911 0.044315
Si Si6 0.401893 0.055275 0.065637
O O1 0.281903 0.603763 0.893603
O O2 0.328707 0.447433 0.872817
O O3 0.045387 0.496448 0.900126
O O4 0.250683 0.500000 0.000000
O O5 0.295671 0.758668 0.844547
O O6 0.498771 0.709223 0.937819
O O7 0.205646 0.723422 0.972130
O O8 0.520757 0.330520 0.841388
O O9 0.720058 0.359361 0.741198
O O10 0.779003 0.411294 0.876228
O O11 0.227810 0.304634 0.891274
O O12 0.992007 0.636536 0.037499
O O13 0.339351 0.000000 0.000000
#
# Coordination Sequence:
#
# PCOD9317384 Si02
#       6
#     8   8   8   8   8   8
#     4  10  19  37  63  85 121 154 194 249 305 351
#     4  11  20  36  60  93 111 165 194 250 295 369
#     4  10  23  37  61  83 123 160 203 242 304 358
#     4  10  21  43  55  84 123 163 195 252 300 352
#     4  10  20  35  62  85 121 148 200 247 299 351
#     4   9  17  36  58  88 115 152 197 244 294 358
#
# _framework density 18.355795000000001
#
# number of rings (size 3 to 8) (size 9 to 14) (size 15 to 20)
#    0.000    2.000    5.000    1.000    0.000    6.667 
#    3.000    6.667    0.000    0.000    0.000    0.000 
#    0.000    0.000    0.000    0.000    0.000    0.000 
#
# Total GULP energy -133897.866936 kJ/mol
# GULP energy per Si atom -5579.077789 kJ/mol
# Density = 1.831402 g / cm^3
# Si number density = 18.355795 Si / 1000 Ang^3
#
#
#
# Elastic Constant Matrix: (Units=GPa)
#
#
# Indices 1 2 3 4 5 6 
#
# 1 25.7843 8.4501 1.9514 0.0000 0.0000 0.0000
# 2 8.4501 70.1502 2.5312 0.0000 0.0000 0.0000
# 3 1.9514 2.5312 68.6122 0.0000 0.0000 0.0000
# 4 0.0000 0.0000 0.0000 21.5047 0.0000 0.0000
# 5 0.0000 0.0000 0.0000 0.0000 29.2999 0.0000
# 6 0.0000 0.0000 0.0000 0.0000 0.0000 28.8073
#
#
#
# Elastic Compliance Matrix: (Units=1/GPa)
#
#
# Indices 1 2 3 4 5 6 
#
# 1 0.040442 -0.004836 -0.000972 0.000000 0.000000 0.000000
# 2 -0.004836 0.014853 -0.000410 0.000000 0.000000 0.000000
# 3 -0.000972 -0.000410 0.014617 0.000000 0.000000 0.000000
# 4 0.000000 0.000000 0.000000 0.046502 0.000000 0.000000
# 5 0.000000 0.000000 0.000000 0.000000 0.034130 0.000000
# 6 0.000000 0.000000 0.000000 0.000000 0.000000 0.034713
#
#
# Mechanical properties :
#
#
# Convention : Reuss Voigt Hill
#
# Bulk Modulus (GPa) = 17.39897 21.15688 19.27793
# Shear Modulus (GPa) = 23.05721 26.02998 24.54360
#
# Velocity S-wave (km/s) = 3.54803 3.76983 3.66061
# Velocity P-wave (km/s) = 5.12680 5.52266 5.32841
#
# Compressibility (1/GPa) = 0.05747467
#
# Stress axis : x y z
#
# Youngs Moduli (GPa) = 24.72685 67.32868 68.41140
#
# Poissons Ratio (x) = 0.32563 0.06648
# Poissons Ratio (y) = 0.11959 0.02807
# Poissons Ratio (z) = 0.02403 0.02763
#
# Static dielectric constant tensor:
#      x y z
#    x 1.647540 0.000000 0.000000 
#    y 0.000000 1.639870 0.000000 
#    z 0.000000 0.000000 1.625020 
# 
# From -- ./inp_files/23613.got.cif
#   From: 2010.05.17/outbox.cif.g08.bks.cpg/sg20_12_cif.got.tgz:23613.got - 2010.06.03 22:52:26.
