data_PCOD9317143
_publ_section_title
;
Structure prediction by ZEFSAII (Michael W. Deem and Ramdas Pophale) SiO2 
 PCOD9317143
Probable space group: C 2 2 21
;
_chemical_formula_sum "Si O2"
_cell_formula_units_Z 40
_cell_length_a 8.737782
_cell_length_b 23.410013
_cell_length_c 9.814274
_cell_angle_alpha 90.000000
_cell_angle_beta 90.000000
_cell_angle_gamma 90.000000
_cell_volume 2007.525353
_symmetry_space_group_name_H-M "C 2 2 21"
_symmetry_group_IT_number 20
_symmetry_cell_setting 'orthorhombic'
loop_
_space_group_symop_operation_xyz
x,y,z
-x,-y,1/2+z
x,-y,-z
-x,y,1/2-z
1/2+x,1/2+y,z
1/2-x,1/2-y,1/2+z
1/2+x,1/2-y,-z
1/2-x,1/2+y,1/2-z
loop_
_atom_site_type_symbol
_atom_site_label
_atom_site_fract_x
_atom_site_fract_y
_atom_site_fract_z
Si Si1 0.299495 0.416247 0.518028
Si Si2 0.107477 0.072209 0.614818
Si Si3 0.678384 0.998449 0.280266
Si Si4 0.664942 0.289573 0.075112
Si Si5 0.698018 0.696083 0.615952
O O1 0.479393 0.432167 0.501317
O O2 0.214006 0.450528 0.396367
O O3 0.234770 0.442019 0.656518
O O4 0.285207 0.348772 0.496899
O O5 0.216187 0.020162 0.653899
O O6 0.211309 0.128132 0.594851
O O7 0.000000 0.083499 0.750000
O O8 0.500000 0.999478 0.250000
O O9 0.482130 0.292165 0.092043
O O10 0.734000 0.289310 0.227160
O O11 0.710241 0.235200 0.987253
#
# Coordination Sequence:
#
# PCOD9317143 Si02
#       5
#     8   8   8   8   8
#     4   9  19  39  61  82 120 161 198 250 300 382
#     4   9  16  38  65  80 116 163 203 236 303 382
#     4  10  19  34  62  92 119 151 202 258 310 356
#     4  10  20  38  62  89 125 154 206 247 305 365
#     4  10  19  37  62  91 116 162 201 249 297 369
#
# _framework density 19.925028000000001
#
# number of rings (size 3 to 8) (size 9 to 14) (size 15 to 20)
#    0.000    2.400    6.000    0.000    0.000    2.400 
#    3.600   12.000   48.400    0.000    0.000    0.000 
#    0.000    0.000    0.000    0.000    0.000    0.000 
#
# Total GULP energy -111638.712125 kJ/mol
# GULP energy per Si atom -5581.935606 kJ/mol
# Density = 1.987968 g / cm^3
# Si number density = 19.925028 Si / 1000 Ang^3
#
#
#
# Elastic Constant Matrix: (Units=GPa)
#
#
# Indices 1 2 3 4 5 6 
#
# 1 71.6325 44.2216 46.3119 0.0000 0.0000 0.0000
# 2 44.2216 102.6349 57.7212 0.0000 0.0000 0.0000
# 3 46.3119 57.7212 70.9743 0.0000 0.0000 0.0000
# 4 0.0000 0.0000 0.0000 30.5521 0.0000 0.0000
# 5 0.0000 0.0000 0.0000 0.0000 28.3249 0.0000
# 6 0.0000 0.0000 0.0000 0.0000 0.0000 31.8744
#
#
#
# Elastic Compliance Matrix: (Units=1/GPa)
#
#
# Indices 1 2 3 4 5 6 
#
# 1 0.024606 -0.002897 -0.013699 0.000000 0.000000 0.000000
# 2 -0.002897 0.018297 -0.012990 0.000000 0.000000 0.000000
# 3 -0.013699 -0.012990 0.033593 0.000000 0.000000 0.000000
# 4 0.000000 0.000000 0.000000 0.032731 0.000000 0.000000
# 5 0.000000 0.000000 0.000000 0.000000 0.035305 0.000000
# 6 0.000000 0.000000 0.000000 0.000000 0.000000 0.031373
#
#
# Mechanical properties :
#
#
# Convention : Reuss Voigt Hill
#
# Bulk Modulus (GPa) = 57.72800 60.19458 58.96129
# Shear Modulus (GPa) = 20.75969 24.61608 22.68789
#
# Velocity S-wave (km/s) = 3.23133 3.51869 3.37807
# Velocity P-wave (km/s) = 6.55420 6.83991 6.69858
#
# Compressibility (1/GPa) = 0.01732262
#
# Stress axis : x y z
#
# Youngs Moduli (GPa) = 40.64117 54.65371 29.76823
#
# Poissons Ratio (x) = 0.15835 0.40780
# Poissons Ratio (y) = 0.11775 0.38669
# Poissons Ratio (z) = 0.55675 0.70995
#
# Static dielectric constant tensor:
#      x y z
#    x 1.682960 0.000000 0.000000 
#    y 0.000000 1.705330 0.000000 
#    z 0.000000 0.000000 1.760050 
# 
# From -- ./inp_files/10964.got.cif
#   From: 2010.05.17/outbox.cif.g08.bks.cpg/sg20_6_cif.got.tgz:10964.got - 2010.06.03 22:52:26.
