data_PCOD9317913
_publ_section_title
;
Structure prediction by ZEFSAII (Michael W. Deem and Ramdas Pophale) SiO2 
 PCOD9317913
Probable space group: C 2 2 21
;
_chemical_formula_sum "Si O2"
_cell_formula_units_Z 24
_cell_length_a 20.337509
_cell_length_b 4.945113
_cell_length_c 9.629611
_cell_angle_alpha 90.000000
_cell_angle_beta 90.000000
_cell_angle_gamma 90.000000
_cell_volume 968.462306
_symmetry_space_group_name_H-M "C 2 2 21"
_symmetry_group_IT_number 20
_symmetry_cell_setting 'orthorhombic'
loop_
_space_group_symop_operation_xyz
x,y,z
-x,-y,1/2+z
x,-y,-z
-x,y,1/2-z
1/2+x,1/2+y,z
1/2-x,1/2-y,1/2+z
1/2+x,1/2-y,-z
1/2-x,1/2+y,1/2-z
loop_
_atom_site_type_symbol
_atom_site_label
_atom_site_fract_x
_atom_site_fract_y
_atom_site_fract_z
Si Si1 0.165225 0.194076 0.702877
Si Si2 0.974628 0.767662 0.092571
Si Si3 0.814652 0.684454 0.626303
O O1 0.099897 0.138084 0.620443
O O2 0.161614 0.509123 0.742823
O O3 0.235216 0.163240 0.627805
O O4 0.168626 0.993567 0.837247
O O5 0.000000 0.727945 0.250000
O O6 0.977396 0.500000 0.000000
O O7 0.009142 0.000000 0.000000
O O8 0.839993 0.500000 0.500000
#
# Coordination Sequence:
#
# PCOD9317913 Si02
#       3
#     8   8   8
#     4  10  22  38  61  94 129 172 218 267 333 398
#     4  12  27  48  72  98 134 180 230 282 336 396
#     4  10  20  36  61  94 131 170 215 269 329 398
#
# _framework density 24.781554
#
# number of rings (size 3 to 8) (size 9 to 14) (size 15 to 20)
#    0.000    1.333    0.000    5.000    0.000    9.333 
#    0.000    0.000    0.000    0.000    0.000    0.000 
#    0.000    0.000    0.000    0.000    0.000    0.000 
#
# Total GULP energy -67039.276072 kJ/mol
# GULP energy per Si atom -5586.606339 kJ/mol
# Density = 2.472515 g / cm^3
# Si number density = 24.781554 Si / 1000 Ang^3
#
#
#
# Elastic Constant Matrix: (Units=GPa)
#
#
# Indices 1 2 3 4 5 6 
#
# 1 78.5807 14.3047 42.8170 0.0000 0.0000 0.0000
# 2 14.3047 147.0493 58.7801 0.0000 0.0000 0.0000
# 3 42.8170 58.7801 139.3740 0.0000 0.0000 0.0000
# 4 0.0000 0.0000 0.0000 32.2581 0.0000 0.0000
# 5 0.0000 0.0000 0.0000 0.0000 11.3221 0.0000
# 6 0.0000 0.0000 0.0000 0.0000 0.0000 6.9663
#
#
#
# Elastic Compliance Matrix: (Units=1/GPa)
#
#
# Indices 1 2 3 4 5 6 
#
# 1 0.015311 0.000470 -0.004902 0.000000 0.000000 0.000000
# 2 0.000470 0.008194 -0.003600 0.000000 0.000000 0.000000
# 3 -0.004902 -0.003600 0.010199 0.000000 0.000000 0.000000
# 4 0.000000 0.000000 0.000000 0.031000 0.000000 0.000000
# 5 0.000000 0.000000 0.000000 0.000000 0.088323 0.000000
# 6 0.000000 0.000000 0.000000 0.000000 0.000000 0.143549
#
#
# Mechanical properties :
#
#
# Convention : Reuss Voigt Hill
#
# Bulk Modulus (GPa) = 56.68901 66.31197 61.50049
# Shear Modulus (GPa) = 15.69763 26.71611 21.20687
#
# Velocity S-wave (km/s) = 2.51955 3.28695 2.92850
# Velocity P-wave (km/s) = 5.60262 6.42044 6.02542
#
# Compressibility (1/GPa) = 0.01764010
#
# Stress axis : x y z
#
# Youngs Moduli (GPa) = 65.31172 122.04389 98.04715
#
# Poissons Ratio (x) = -0.05736 0.48062
# Poissons Ratio (y) = -0.03070 0.35298
# Poissons Ratio (z) = 0.32016 0.43937
#
# Static dielectric constant tensor:
#      x y z
#    x 1.971400 0.000000 0.000000 
#    y 0.000000 1.878640 0.000000 
#    z 0.000000 0.000000 2.111830 
# 
# From -- ./inp_files/4971.got.cif
#   From: 2010.05.17/outbox.cif.g08.bks.cpg/sg20_3_cif.got.tgz:4971.got - 2010.06.03 22:52:26.
