data_PCOD9317154
_publ_section_title
;
Structure prediction by ZEFSAII (Michael W. Deem and Ramdas Pophale) SiO2 
 PCOD9317154
Probable space group: C 2 2 21
;
_chemical_formula_sum "Si O2"
_cell_formula_units_Z 48
_cell_length_a 18.469802
_cell_length_b 7.643416
_cell_length_c 19.847896
_cell_angle_alpha 90.000000
_cell_angle_beta 90.000000
_cell_angle_gamma 90.000000
_cell_volume 2801.974719
_symmetry_space_group_name_H-M "C 2 2 21"
_symmetry_group_IT_number 20
_symmetry_cell_setting 'orthorhombic'
loop_
_space_group_symop_operation_xyz
x,y,z
-x,-y,1/2+z
x,-y,-z
-x,y,1/2-z
1/2+x,1/2+y,z
1/2-x,1/2-y,1/2+z
1/2+x,1/2-y,-z
1/2-x,1/2+y,1/2-z
loop_
_atom_site_type_symbol
_atom_site_label
_atom_site_fract_x
_atom_site_fract_y
_atom_site_fract_z
Si Si1 0.967194 0.988584 0.174901
Si Si2 0.642334 0.185418 0.305873
Si Si3 0.348620 0.777302 0.190935
Si Si4 0.303366 0.224051 0.653674
Si Si5 0.605041 0.486448 0.079042
Si Si6 0.187779 0.315447 0.849456
O O1 0.909975 0.145596 0.166690
O O2 0.000000 0.001669 0.250000
O O3 0.922609 0.807926 0.170779
O O4 0.031099 0.997326 0.121225
O O5 0.717665 0.239917 0.340987
O O6 0.655194 0.214482 0.225715
O O7 0.630387 0.979786 0.316977
O O8 0.334077 0.744688 0.270619
O O9 0.271822 0.740408 0.155433
O O10 0.342935 0.357465 0.604556
O O11 0.316373 0.021605 0.636293
O O12 0.644839 0.306383 0.099468
O O13 0.592507 0.500000 0.000000
#
# Coordination Sequence:
#
# PCOD9317154 Si02
#       6
#     8   8   8   8   8   8
#     4  12  22  38  60  94 127 161 199 253 307 358
#     4  10  19  34  65  95 119 148 204 260 301 346
#     4  10  19  34  65  95 119 148 204 260 301 346
#     4  10  19  36  64  94 116 152 204 257 299 355
#     4  12  26  42  58  88 130 164 197 250 313 367
#     4  10  19  36  64  94 116 152 204 257 299 355
#
# _framework density 17.130775
#
# number of rings (size 3 to 8) (size 9 to 14) (size 15 to 20)
#    0.000    1.333    6.667    0.000    0.000    2.667 
#    0.000    1.667    0.000    0.000    0.000    0.000 
#    0.000    0.000    0.000    0.000    0.000    0.000 
#
# Total GULP energy -134072.403696 kJ/mol
# GULP energy per Si atom -5586.350154 kJ/mol
# Density = 1.709179 g / cm^3
# Si number density = 17.130775 Si / 1000 Ang^3
#
#
#
# Elastic Constant Matrix: (Units=GPa)
#
#
# Indices 1 2 3 4 5 6 
#
# 1 42.4872 -11.5553 18.5572 0.0000 0.0000 0.0000
# 2 -11.5553 37.2743 5.9891 0.0000 0.0000 0.0000
# 3 18.5572 5.9891 66.6949 0.0000 0.0000 0.0000
# 4 0.0000 0.0000 0.0000 15.1361 0.0000 0.0000
# 5 0.0000 0.0000 0.0000 0.0000 16.9313 0.0000
# 6 0.0000 0.0000 0.0000 0.0000 0.0000 32.3842
#
#
#
# Elastic Compliance Matrix: (Units=1/GPa)
#
#
# Indices 1 2 3 4 5 6 
#
# 1 0.030708 0.011052 -0.009537 0.000000 0.000000 0.000000
# 2 0.011052 0.031198 -0.005877 0.000000 0.000000 0.000000
# 3 -0.009537 -0.005877 0.018175 0.000000 0.000000 0.000000
# 4 0.000000 0.000000 0.000000 0.066067 0.000000 0.000000
# 5 0.000000 0.000000 0.000000 0.000000 0.059062 0.000000
# 6 0.000000 0.000000 0.000000 0.000000 0.000000 0.030879
#
#
# Mechanical properties :
#
#
# Convention : Reuss Voigt Hill
#
# Bulk Modulus (GPa) = 14.01380 19.15984 16.58682
# Shear Modulus (GPa) = 18.61515 21.78801 20.20158
#
# Velocity S-wave (km/s) = 3.30001 3.57019 3.43776
# Velocity P-wave (km/s) = 4.76638 5.31072 5.04589
#
# Compressibility (1/GPa) = 0.07135822
#
# Stress axis : x y z
#
# Youngs Moduli (GPa) = 32.56522 32.05283 55.02120
#
# Poissons Ratio (x) = -0.35424 0.52471
# Poissons Ratio (y) = -0.35991 0.32334
# Poissons Ratio (z) = 0.31056 0.18836
#
# Static dielectric constant tensor:
#      x y z
#    x 1.565730 0.000000 0.000000 
#    y 0.000000 1.578380 0.000000 
#    z 0.000000 0.000000 1.549730 
# 
# From -- ./inp_files/24789.got.cif
#   From: 2010.05.17/outbox.cif.g08.bks.cpg/sg20_13_cif.got.tgz:24789.got - 2010.06.03 22:52:26.
