data_PCOD9317958
_publ_section_title
;
Structure prediction by ZEFSAII (Michael W. Deem and Ramdas Pophale) SiO2 
 PCOD9317958
Probable space group: C 2 2 21
;
_chemical_formula_sum "Si O2"
_cell_formula_units_Z 52
_cell_length_a 18.354230
_cell_length_b 8.364379
_cell_length_c 16.107403
_cell_angle_alpha 90.000000
_cell_angle_beta 90.000000
_cell_angle_gamma 90.000000
_cell_volume 2472.836471
_symmetry_space_group_name_H-M "C 2 2 21"
_symmetry_group_IT_number 20
_symmetry_cell_setting 'orthorhombic'
loop_
_space_group_symop_operation_xyz
x,y,z
-x,-y,1/2+z
x,-y,-z
-x,y,1/2-z
1/2+x,1/2+y,z
1/2-x,1/2-y,1/2+z
1/2+x,1/2-y,-z
1/2-x,1/2+y,1/2-z
loop_
_atom_site_type_symbol
_atom_site_label
_atom_site_fract_x
_atom_site_fract_y
_atom_site_fract_z
Si Si1 0.692589 0.445117 0.319500
Si Si2 0.442585 0.987130 0.324002
Si Si3 0.028341 0.500000 0.500000
Si Si4 0.919446 0.832615 0.051258
Si Si5 0.584251 0.350269 0.774613
Si Si6 0.916186 0.102189 0.582058
Si Si7 0.186947 0.705520 0.168493
O O1 0.649095 0.338552 0.386503
O O2 0.633831 0.584868 0.298523
O O3 0.760432 0.555440 0.345577
O O4 0.711530 0.331923 0.239640
O O5 0.500000 0.987341 0.250000
O O6 0.398781 0.822014 0.311964
O O7 0.478968 0.989061 0.415795
O O8 0.390069 0.132729 0.303014
O O9 0.075923 0.336598 0.502716
O O10 0.000933 0.832914 0.092032
O O11 0.915119 0.000000 0.000000
O O12 0.500000 0.350249 0.750000
O O13 0.595315 0.481882 0.843590
O O14 0.844188 0.212720 0.584735
O O15 0.917912 0.000000 0.500000
#
# Coordination Sequence:
#
# PCOD9317958 Si02
#       7
#     8   8   4   8   8   8   8
#     4  11  24  45  66 102 142 188 243 293 379 440
#     4  11  23  39  68 107 141 186 244 307 362 431
#     4  12  24  42  72 114 142 182 256 314 352 452
#     4  11  23  43  71 105 145 184 239 312 362 434
#     4  10  20  36  67  98 133 180 238 292 358 427
#     4  10  20  39  67 101 134 178 239 293 356 431
#     4  11  24  42  68  96 143 187 234 298 370 442
#
# _framework density 21.028482
#
# number of rings (size 3 to 8) (size 9 to 14) (size 15 to 20)
#    0.000    1.231    3.077    3.692    2.154    0.000 
#    4.154    3.077    0.000    0.000    0.000    0.000 
#    0.000    0.000    0.000    0.000    0.000    0.000 
#
# Total GULP energy -144798.229812 kJ/mol
# GULP energy per Si atom -5569.162685 kJ/mol
# Density = 2.098062 g / cm^3
# Si number density = 21.028482 Si / 1000 Ang^3
#
#
#
# Elastic Constant Matrix: (Units=GPa)
#
#
# Indices 1 2 3 4 5 6 
#
# 1 81.8074 14.5436 21.4252 0.0000 0.0000 0.0000
# 2 14.5436 93.9950 0.6347 0.0000 0.0000 0.0000
# 3 21.4252 0.6347 39.8383 0.0000 0.0000 0.0000
# 4 0.0000 0.0000 0.0000 25.6365 0.0000 0.0000
# 5 0.0000 0.0000 0.0000 0.0000 26.4135 0.0000
# 6 0.0000 0.0000 0.0000 0.0000 0.0000 55.2033
#
#
#
# Elastic Compliance Matrix: (Units=1/GPa)
#
#
# Indices 1 2 3 4 5 6 
#
# 1 0.014676 -0.002218 -0.007857 0.000000 0.000000 0.000000
# 2 -0.002218 0.010975 0.001018 0.000000 0.000000 0.000000
# 3 -0.007857 0.001018 0.029311 0.000000 0.000000 0.000000
# 4 0.000000 0.000000 0.000000 0.039007 0.000000 0.000000
# 5 0.000000 0.000000 0.000000 0.000000 0.037859 0.000000
# 6 0.000000 0.000000 0.000000 0.000000 0.000000 0.018115
#
#
# Mechanical properties :
#
#
# Convention : Reuss Voigt Hill
#
# Bulk Modulus (GPa) = 27.13890 32.09418 29.61654
# Shear Modulus (GPa) = 27.72532 33.38647 30.55590
#
# Velocity S-wave (km/s) = 3.63501 3.98889 3.81605
# Velocity P-wave (km/s) = 5.52734 6.04238 5.79059
#
# Compressibility (1/GPa) = 0.03684748
#
# Stress axis : x y z
#
# Youngs Moduli (GPa) = 68.13867 91.11513 34.11680
#
# Poissons Ratio (x) = 0.20207 0.26807
# Poissons Ratio (y) = 0.15111 -0.03473
# Poissons Ratio (z) = 0.53540 -0.09274
#
# Static dielectric constant tensor:
#      x y z
#    x 1.763340 0.000000 0.000000 
#    y 0.000000 1.352040 0.000000 
#    z 0.000000 0.000000 1.757820 
# 
# From -- ./inp_files/25228.got.cif
#   From: 2010.05.17/outbox.cif.g08.bks.cpg/sg20_13_cif.got.tgz:25228.got - 2010.06.03 22:52:26.
