data_PCOD9317350
_publ_section_title
;
Structure prediction by ZEFSAII (Michael W. Deem and Ramdas Pophale) SiO2 
 PCOD9317350
Probable space group: C 2 2 21
;
_chemical_formula_sum "Si O2"
_cell_formula_units_Z 52
_cell_length_a 17.242186
_cell_length_b 19.331017
_cell_length_c 8.360545
_cell_angle_alpha 90.000000
_cell_angle_beta 90.000000
_cell_angle_gamma 90.000000
_cell_volume 2786.644816
_symmetry_space_group_name_H-M "C 2 2 21"
_symmetry_group_IT_number 20
_symmetry_cell_setting 'orthorhombic'
loop_
_space_group_symop_operation_xyz
x,y,z
-x,-y,1/2+z
x,-y,-z
-x,y,1/2-z
1/2+x,1/2+y,z
1/2-x,1/2-y,1/2+z
1/2+x,1/2-y,-z
1/2-x,1/2+y,1/2-z
loop_
_atom_site_type_symbol
_atom_site_label
_atom_site_fract_x
_atom_site_fract_y
_atom_site_fract_z
Si Si1 0.000000 0.785939 0.250000
Si Si2 0.428343 0.921105 0.544368
Si Si3 0.468836 0.799195 0.078217
Si Si4 0.267719 0.058964 0.615006
Si Si5 0.146341 0.456103 0.646704
Si Si6 0.702179 0.814240 0.523582
Si Si7 0.674515 0.314591 0.242618
O O1 0.917762 0.823666 0.271316
O O2 0.011026 0.743681 0.416826
O O3 0.488292 0.871292 0.459426
O O4 0.341437 0.906968 0.475811
O O5 0.583586 0.921348 0.764588
O O6 0.443381 0.000000 0.500000
O O7 0.500000 0.772954 0.250000
O O8 0.375951 0.808102 0.084431
O O9 0.211444 0.118516 0.672667
O O10 0.232199 0.000000 0.500000
O O11 0.304883 0.013327 0.756604
O O12 0.113575 0.500000 0.500000
O O13 0.198364 0.391727 0.592402
O O14 0.692110 0.754712 0.655498
O O15 0.779987 0.805225 0.423171
#
# Coordination Sequence:
#
# PCOD9317350 Si02
#       7
#     4   8   8   8   8   8   8
#     4  10  26  44  62  90 130 156 214 280 318 368
#     4   9  20  36  57  89 129 167 202 249 300 382
#     4  11  23  41  59  90 131 166 205 256 311 382
#     4   9  20  37  65  88 123 165 211 258 308 379
#     4  10  19  37  58  92 126 162 211 256 307 375
#     4  11  25  36  65  90 122 163 211 249 313 381
#     4  11  23  42  63  94 120 169 208 267 319 377
#
# _framework density 18.660433999999999
#
# number of rings (size 3 to 8) (size 9 to 14) (size 15 to 20)
#    0.000    2.154    1.538    2.769   10.769    0.615 
#    1.385    0.000    3.385    0.000    0.000    0.000 
#    0.000    0.000    0.000    0.000    0.000    0.000 
#
# Total GULP energy -145086.475687 kJ/mol
# GULP energy per Si atom -5580.249065 kJ/mol
# Density = 1.861796 g / cm^3
# Si number density = 18.660434 Si / 1000 Ang^3
#
#
#
# Elastic Constant Matrix: (Units=GPa)
#
#
# Indices 1 2 3 4 5 6 
#
# 1 134.1428 37.6939 37.2224 0.0000 0.0000 0.0000
# 2 37.6939 53.6659 18.4419 0.0000 0.0000 0.0000
# 3 37.2224 18.4419 101.3939 0.0000 0.0000 0.0000
# 4 0.0000 0.0000 0.0000 23.6854 0.0000 0.0000
# 5 0.0000 0.0000 0.0000 0.0000 16.0329 0.0000
# 6 0.0000 0.0000 0.0000 0.0000 0.0000 2.3677
#
#
#
# Elastic Compliance Matrix: (Units=1/GPa)
#
#
# Indices 1 2 3 4 5 6 
#
# 1 0.009855 -0.006057 -0.002516 0.000000 0.000000 0.000000
# 2 -0.006057 0.023599 -0.002069 0.000000 0.000000 0.000000
# 3 -0.002516 -0.002069 0.011162 0.000000 0.000000 0.000000
# 4 0.000000 0.000000 0.000000 0.042220 0.000000 0.000000
# 5 0.000000 0.000000 0.000000 0.000000 0.062372 0.000000
# 6 0.000000 0.000000 0.000000 0.000000 0.000000 0.422345
#
#
# Mechanical properties :
#
#
# Convention : Reuss Voigt Hill
#
# Bulk Modulus (GPa) = 42.85858 52.87989 47.86924
# Shear Modulus (GPa) = 8.32479 21.47350 14.89915
#
# Velocity S-wave (km/s) = 2.11445 3.39595 2.82872
# Velocity P-wave (km/s) = 5.38318 6.61635 6.03137
#
# Compressibility (1/GPa) = 0.02333255
#
# Stress axis : x y z
#
# Youngs Moduli (GPa) = 101.47113 42.37428 89.58598
#
# Poissons Ratio (x) = 0.25667 0.22541
# Poissons Ratio (y) = 0.61464 0.18532
# Poissons Ratio (z) = 0.25531 0.08766
#
# Static dielectric constant tensor:
#      x y z
#    x 1.652360 0.000000 0.000000 
#    y 0.000000 1.619490 0.000000 
#    z 0.000000 0.000000 1.730170 
# 
# From -- ./inp_files/8669.got.cif
#   From: 2010.05.17/outbox.cif.g08.bks.cpg/sg20_5_cif.got.tgz:8669.got - 2010.06.03 22:52:26.
