data_PCOD9318585
_publ_section_title
;
Structure prediction by ZEFSAII (Michael W. Deem and Ramdas Pophale) SiO2 
 PCOD9318585
Probable space group: C 2 2 21
;
_chemical_formula_sum "Si O2"
_cell_formula_units_Z 48
_cell_length_a 8.969633
_cell_length_b 24.427813
_cell_length_c 9.575910
_cell_angle_alpha 90.000000
_cell_angle_beta 90.000000
_cell_angle_gamma 90.000000
_cell_volume 2098.163445
_symmetry_space_group_name_H-M "C 2 2 21"
_symmetry_group_IT_number 20
_symmetry_cell_setting 'orthorhombic'
loop_
_space_group_symop_operation_xyz
x,y,z
-x,-y,1/2+z
x,-y,-z
-x,y,1/2-z
1/2+x,1/2+y,z
1/2-x,1/2-y,1/2+z
1/2+x,1/2-y,-z
1/2-x,1/2+y,1/2-z
loop_
_atom_site_type_symbol
_atom_site_label
_atom_site_fract_x
_atom_site_fract_y
_atom_site_fract_z
Si Si1 0.668238 0.882181 0.724054
Si Si2 0.901853 0.126432 0.888789
Si Si3 0.622669 0.188092 0.556231
Si Si4 0.128384 0.943699 0.963082
Si Si5 0.291883 0.205608 0.468197
Si Si6 0.660721 0.921945 0.280452
O O1 0.500000 0.903558 0.750000
O O2 0.663057 0.841731 0.589972
O O3 0.785376 0.929272 0.679803
O O4 0.705634 0.843213 0.854161
O O5 0.767547 0.084304 0.853002
O O6 0.000000 0.128588 0.750000
O O7 0.011982 0.104583 0.007229
O O8 0.831152 0.184474 0.923350
O O9 0.454227 0.209148 0.536984
O O10 0.735653 0.236790 0.588490
O O11 0.633082 0.140375 0.668889
O O12 0.252332 0.946185 0.087341
O O13 0.044868 0.000000 0.000000
O O14 0.500000 0.947165 0.250000
#
# Coordination Sequence:
#
# PCOD9318585 Si02
#       6
#     8   8   8   8   8   8
#     4   9  22  43  63  96 133 164 218 276 319 397
#     4  10  23  41  63  89 128 165 212 266 319 387
#     4  10  23  37  63  94 132 169 213 255 324 380
#     4  10  23  45  67  92 128 167 213 283 341 381
#     4  11  23  39  63  95 127 178 209 265 318 389
#     4  10  20  42  65  91 125 168 217 263 311 405
#
# _framework density 22.87715
#
# number of rings (size 3 to 8) (size 9 to 14) (size 15 to 20)
#    0.000    2.000    1.667    0.000    9.333    2.000 
#    9.000    0.833    0.000    0.000    0.000    0.000 
#    0.000    0.000    0.000    0.000    0.000    0.000 
#
# Total GULP energy -134070.987594 kJ/mol
# GULP energy per Si atom -5586.291150 kJ/mol
# Density = 2.282508 g / cm^3
# Si number density = 22.877150 Si / 1000 Ang^3
#
#
#
# Elastic Constant Matrix: (Units=GPa)
#
#
# Indices 1 2 3 4 5 6 
#
# 1 99.1604 7.8937 14.6740 0.0000 0.0000 0.0000
# 2 7.8937 56.9700 -6.2499 0.0000 0.0000 0.0000
# 3 14.6740 -6.2499 40.7449 0.0000 0.0000 0.0000
# 4 0.0000 0.0000 0.0000 21.4550 0.0000 0.0000
# 5 0.0000 0.0000 0.0000 0.0000 29.1225 0.0000
# 6 0.0000 0.0000 0.0000 0.0000 0.0000 16.0938
#
#
#
# Elastic Compliance Matrix: (Units=1/GPa)
#
#
# Indices 1 2 3 4 5 6 
#
# 1 0.010865 -0.001968 -0.004215 0.000000 0.000000 0.000000
# 2 -0.001968 0.018210 0.003502 0.000000 0.000000 0.000000
# 3 -0.004215 0.003502 0.026598 0.000000 0.000000 0.000000
# 4 0.000000 0.000000 0.000000 0.046609 0.000000 0.000000
# 5 0.000000 0.000000 0.000000 0.000000 0.034338 0.000000
# 6 0.000000 0.000000 0.000000 0.000000 0.000000 0.062136
#
#
# Mechanical properties :
#
#
# Convention : Reuss Voigt Hill
#
# Bulk Modulus (GPa) = 19.87614 25.50121 22.68868
# Shear Modulus (GPa) = 22.63595 25.37144 24.00369
#
# Velocity S-wave (km/s) = 3.14898 3.33382 3.24272
# Velocity P-wave (km/s) = 4.68278 5.09808 4.89484
#
# Compressibility (1/GPa) = 0.05031157
#
# Stress axis : x y z
#
# Youngs Moduli (GPa) = 92.03831 54.91510 37.59678
#
# Poissons Ratio (x) = 0.10806 0.15846
# Poissons Ratio (y) = 0.18112 -0.13166
# Poissons Ratio (z) = 0.38792 -0.19231
#
# Static dielectric constant tensor:
#      x y z
#    x 1.883510 0.000000 0.000000 
#    y 0.000000 1.847170 0.000000 
#    z 0.000000 0.000000 1.872390 
# 
# From -- ./inp_files/13081.got.cif
#   From: 2010.05.17/outbox.cif.g08.bks.cpg/sg20_7_cif.got.tgz:13081.got - 2010.06.03 22:52:26.
