data_PCOD9318901
_publ_section_title
;
Structure prediction by ZEFSAII (Michael W. Deem and Ramdas Pophale) SiO2 
 PCOD9318901
Probable space group: C 2 2 21
;
_chemical_formula_sum "Si O2"
_cell_formula_units_Z 32
_cell_length_a 14.615807
_cell_length_b 9.843601
_cell_length_c 9.044430
_cell_angle_alpha 90.000000
_cell_angle_beta 90.000000
_cell_angle_gamma 90.000000
_cell_volume 1301.241792
_symmetry_space_group_name_H-M "C 2 2 21"
_symmetry_group_IT_number 20
_symmetry_cell_setting 'orthorhombic'
loop_
_space_group_symop_operation_xyz
x,y,z
-x,-y,1/2+z
x,-y,-z
-x,y,1/2-z
1/2+x,1/2+y,z
1/2-x,1/2-y,1/2+z
1/2+x,1/2-y,-z
1/2-x,1/2+y,1/2-z
loop_
_atom_site_type_symbol
_atom_site_label
_atom_site_fract_x
_atom_site_fract_y
_atom_site_fract_z
Si Si1 0.374360 0.788596 0.048437
Si Si2 0.424043 0.227072 0.477674
Si Si3 0.790451 0.864923 0.667116
Si Si4 0.365379 0.994693 0.278115
O O1 0.331350 0.704925 0.185468
O O2 0.405062 0.929378 0.129925
O O3 0.469966 0.735242 0.986546
O O4 0.296585 0.804442 0.924927
O O5 0.366361 0.354360 0.538984
O O6 0.390823 0.113054 0.596814
O O7 0.398593 0.143183 0.330255
O O8 0.742521 0.997846 0.737382
#
# Coordination Sequence:
#
# PCOD9318901 Si02
#       4
#     8   8   8   8
#     4  11  24  39  65  95 131 165 213 270 317 386
#     4  10  23  40  63  98 127 163 212 269 320 379
#     4  11  21  40  59  97 127 169 204 264 330 380
#     4  10  21  37  63  93 126 153 211 266 316 372
#
# _framework density 24.591892000000001
#
# number of rings (size 3 to 8) (size 9 to 14) (size 15 to 20)
#    0.000    1.500    2.500    3.750   10.500    0.000 
#    0.000    0.000    0.000   24.000    0.000    0.000 
#    0.000    0.000    0.000    0.000    0.000    0.000 
#
# Total GULP energy -89112.929020 kJ/mol
# GULP energy per Si atom -5569.558064 kJ/mol
# Density = 2.453592 g / cm^3
# Si number density = 24.591892 Si / 1000 Ang^3
#
#
#
# Elastic Constant Matrix: (Units=GPa)
#
#
# Indices 1 2 3 4 5 6 
#
# 1 175.9984 28.3173 44.2183 0.0000 0.0000 0.0000
# 2 28.3173 59.3573 18.1516 0.0000 0.0000 0.0000
# 3 44.2183 18.1516 56.1840 0.0000 0.0000 0.0000
# 4 0.0000 0.0000 0.0000 28.5455 0.0000 0.0000
# 5 0.0000 0.0000 0.0000 0.0000 29.1543 0.0000
# 6 0.0000 0.0000 0.0000 0.0000 0.0000 30.3678
#
#
#
# Elastic Compliance Matrix: (Units=1/GPa)
#
#
# Indices 1 2 3 4 5 6 
#
# 1 0.007272 -0.001907 -0.005107 0.000000 0.000000 0.000000
# 2 -0.001907 0.019194 -0.004700 0.000000 0.000000 0.000000
# 3 -0.005107 -0.004700 0.023336 0.000000 0.000000 0.000000
# 4 0.000000 0.000000 0.000000 0.035032 0.000000 0.000000
# 5 0.000000 0.000000 0.000000 0.000000 0.034300 0.000000
# 6 0.000000 0.000000 0.000000 0.000000 0.000000 0.032930
#
#
# Mechanical properties :
#
#
# Convention : Reuss Voigt Hill
#
# Bulk Modulus (GPa) = 37.91626 52.54601 45.23113
# Shear Modulus (GPa) = 27.13201 31.00369 29.06785
#
# Velocity S-wave (km/s) = 3.32519 3.55453 3.44177
# Velocity P-wave (km/s) = 5.49492 6.18545 5.85038
#
# Compressibility (1/GPa) = 0.02637391
#
# Stress axis : x y z
#
# Youngs Moduli (GPa) = 137.51692 52.09862 42.85155
#
# Poissons Ratio (x) = 0.09937 0.21884
# Poissons Ratio (y) = 0.26230 0.20140
# Poissons Ratio (z) = 0.70228 0.24486
#
# Static dielectric constant tensor:
#      x y z
#    x 2.010300 0.000000 0.000000 
#    y 0.000000 2.117090 0.000000 
#    z 0.000000 0.000000 1.987080 
# 
# From -- ./inp_files/7878.got.cif
#   From: 2010.05.17/outbox.cif.g08.bks.cpg/sg20_4_cif.got.tgz:7878.got - 2010.06.03 22:52:26.
