data_PCOD9318917
_publ_section_title
;
Structure prediction by ZEFSAII (Michael W. Deem and Ramdas Pophale) SiO2 
 PCOD9318917
Probable space group: C 2 2 21
;
_chemical_formula_sum "Si O2"
_cell_formula_units_Z 60
_cell_length_a 5.922784
_cell_length_b 15.731651
_cell_length_c 29.149279
_cell_angle_alpha 90.000000
_cell_angle_beta 90.000000
_cell_angle_gamma 90.000000
_cell_volume 2715.989051
_symmetry_space_group_name_H-M "C 2 2 21"
_symmetry_group_IT_number 20
_symmetry_cell_setting 'orthorhombic'
loop_
_space_group_symop_operation_xyz
x,y,z
-x,-y,1/2+z
x,-y,-z
-x,y,1/2-z
1/2+x,1/2+y,z
1/2-x,1/2-y,1/2+z
1/2+x,1/2-y,-z
1/2-x,1/2+y,1/2-z
loop_
_atom_site_type_symbol
_atom_site_label
_atom_site_fract_x
_atom_site_fract_y
_atom_site_fract_z
Si Si1 0.769243 0.166079 0.337559
Si Si2 0.131220 0.446732 0.953913
Si Si3 0.032884 0.155775 0.501286
Si Si4 0.500000 0.329662 0.750000
Si Si5 0.664738 0.220447 0.925625
Si Si6 0.218956 0.426897 0.429552
Si Si7 0.877711 0.449142 0.705365
Si Si8 0.060985 0.995776 0.631075
O O1 0.876291 0.212716 0.292987
O O2 0.772307 0.232440 0.378827
O O3 0.541395 0.115542 0.322870
O O4 0.931303 0.088260 0.352287
O O5 0.309357 0.472486 0.915415
O O6 0.164372 0.500000 0.000000
O O7 0.225532 0.360064 0.974779
O O8 0.896021 0.520961 0.066199
O O9 0.108275 0.188768 0.550703
O O10 0.916527 0.211990 0.463269
O O11 0.847109 0.089879 0.521943
O O12 0.691939 0.389600 0.728894
O O13 0.478454 0.144176 0.922921
O O14 0.381097 0.434169 0.385178
O O15 0.749065 0.511724 0.670216
O O16 0.000000 0.489370 0.750000
#
# Coordination Sequence:
#
# PCOD9318917 Si02
#       8
#     8   8   8   4   8   8   8   8
#     4  10  21  37  68 100 131 167 217 280 332 399
#     4  12  24  39  62  90 128 181 225 264 317 380
#     4  12  26  41  62  91 135 180 230 268 323 387
#     4   8  18  38  62 102 130 160 218 274 336 394
#     4  12  25  42  62  95 136 180 222 274 329 389
#     4  12  26  41  62  92 137 175 225 277 325 390
#     4   9  19  38  64 100 137 160 210 279 336 399
#     4  11  22  38  64  99 129 170 219 269 335 394
#
# _framework density 22.091398000000002
#
# number of rings (size 3 to 8) (size 9 to 14) (size 15 to 20)
#    0.000    1.067    5.333    0.800    1.867    5.333 
#    0.000    0.000    0.000    0.000   60.667    0.000 
#    0.000    0.000    0.000    0.000    0.000    0.000 
#
# Total GULP energy -167068.412003 kJ/mol
# GULP energy per Si atom -5568.947067 kJ/mol
# Density = 2.204112 g / cm^3
# Si number density = 22.091398 Si / 1000 Ang^3
#
#
#
# Elastic Constant Matrix: (Units=GPa)
#
#
# Indices 1 2 3 4 5 6 
#
# 1 90.5704 19.9561 50.7852 0.0000 0.0000 0.0000
# 2 19.9561 34.2084 23.1721 0.0000 0.0000 0.0000
# 3 50.7852 23.1721 118.4910 0.0000 0.0000 0.0000
# 4 0.0000 0.0000 0.0000 28.7612 0.0000 0.0000
# 5 0.0000 0.0000 0.0000 0.0000 52.3299 0.0000
# 6 0.0000 0.0000 0.0000 0.0000 0.0000 21.6665
#
#
#
# Elastic Compliance Matrix: (Units=1/GPa)
#
#
# Indices 1 2 3 4 5 6 
#
# 1 0.015286 -0.005164 -0.005542 0.000000 0.000000 0.000000
# 2 -0.005164 0.035440 -0.004718 0.000000 0.000000 0.000000
# 3 -0.005542 -0.004718 0.011737 0.000000 0.000000 0.000000
# 4 0.000000 0.000000 0.000000 0.034769 0.000000 0.000000
# 5 0.000000 0.000000 0.000000 0.000000 0.019110 0.000000
# 6 0.000000 0.000000 0.000000 0.000000 0.000000 0.046154
#
#
# Mechanical properties :
#
#
# Convention : Reuss Voigt Hill
#
# Bulk Modulus (GPa) = 31.62772 47.89964 39.76368
# Shear Modulus (GPa) = 24.52393 30.50861 27.51627
#
# Velocity S-wave (km/s) = 3.33545 3.72024 3.53308
# Velocity P-wave (km/s) = 5.40199 6.33901 5.88917
#
# Compressibility (1/GPa) = 0.03161783
#
# Stress axis : x y z
#
# Youngs Moduli (GPa) = 65.41766 28.21635 85.19828
#
# Poissons Ratio (x) = 0.14570 0.47217
# Poissons Ratio (y) = 0.33779 0.40194
# Poissons Ratio (z) = 0.36254 0.13311
#
# Static dielectric constant tensor:
#      x y z
#    x 1.948750 0.000000 0.000000 
#    y 0.000000 1.660140 0.000000 
#    z 0.000000 0.000000 1.808840 
# 
# From -- ./inp_files/28480.got.cif
#   From: 2010.05.17/outbox.cif.g08.bks.cpg/sg20_15_cif.got.tgz:28480.got - 2010.06.03 22:52:26.
