data_PCOD9318840
_publ_section_title
;
Structure prediction by ZEFSAII (Michael W. Deem and Ramdas Pophale) SiO2 
 PCOD9318840
Probable space group: C 2 2 21
;
_chemical_formula_sum "Si O2"
_cell_formula_units_Z 40
_cell_length_a 23.867628
_cell_length_b 5.484638
_cell_length_c 14.141854
_cell_angle_alpha 90.000000
_cell_angle_beta 90.000000
_cell_angle_gamma 90.000000
_cell_volume 1851.243633
_symmetry_space_group_name_H-M "C 2 2 21"
_symmetry_group_IT_number 20
_symmetry_cell_setting 'orthorhombic'
loop_
_space_group_symop_operation_xyz
x,y,z
-x,-y,1/2+z
x,-y,-z
-x,y,1/2-z
1/2+x,1/2+y,z
1/2-x,1/2-y,1/2+z
1/2+x,1/2-y,-z
1/2-x,1/2+y,1/2-z
loop_
_atom_site_type_symbol
_atom_site_label
_atom_site_fract_x
_atom_site_fract_y
_atom_site_fract_z
Si Si1 0.463585 0.838376 0.087407
Si Si2 0.600758 0.576224 0.262935
Si Si3 0.687735 0.500000 0.000000
Si Si4 0.777032 0.092734 0.710165
Si Si5 0.000000 0.290303 0.750000
Si Si6 0.916982 0.293400 0.423641
O O1 0.415502 0.677137 0.134764
O O2 0.520134 0.678988 0.072735
O O3 0.485633 0.037303 0.162578
O O4 0.444228 0.000000 0.000000
O O5 0.660058 0.451982 0.247826
O O6 0.553377 0.382271 0.234619
O O7 0.595665 0.800169 0.188221
O O8 0.721036 0.415515 0.094282
O O9 0.642051 0.691426 0.038707
O O10 0.744207 0.853914 0.750514
O O11 0.927269 0.500000 0.500000
#
# Coordination Sequence:
#
# PCOD9318840 Si02
#       6
#     8   8   4   8   4   8
#     4  11  24  38  62 103 148 182 231 289 384 456
#     4  11  24  44  68 102 145 191 234 301 378 442
#     4  10  26  42  80 104 140 190 262 316 378 438
#     4  11  29  51  78 109 148 204 263 316 371 441
#     4  12  22  42  66  98 148 186 228 306 378 462
#     4  10  21  36  67 105 138 173 234 301 367 439
#
# _framework density 21.607097
#
# number of rings (size 3 to 8) (size 9 to 14) (size 15 to 20)
#    0.000    1.200    4.000    0.000   19.600    0.800 
#    1.800    2.000    0.000    0.000    0.000    0.000 
#    0.000    0.000    0.000    0.000    0.000    0.000 
#
# Total GULP energy -111375.666288 kJ/mol
# GULP energy per Si atom -5568.783314 kJ/mol
# Density = 2.155792 g / cm^3
# Si number density = 21.607097 Si / 1000 Ang^3
#
#
#
# Elastic Constant Matrix: (Units=GPa)
#
#
# Indices 1 2 3 4 5 6 
#
# 1 93.8351 19.5770 21.9004 0.0000 0.0000 0.0000
# 2 19.5770 62.9095 40.1242 0.0000 0.0000 0.0000
# 3 21.9004 40.1242 136.3843 0.0000 0.0000 0.0000
# 4 0.0000 0.0000 0.0000 42.7431 0.0000 0.0000
# 5 0.0000 0.0000 0.0000 0.0000 39.2408 0.0000
# 6 0.0000 0.0000 0.0000 0.0000 0.0000 19.8273
#
#
#
# Elastic Compliance Matrix: (Units=1/GPa)
#
#
# Indices 1 2 3 4 5 6 
#
# 1 0.011502 -0.002956 -0.000977 0.000000 0.000000 0.000000
# 2 -0.002956 0.020327 -0.005506 0.000000 0.000000 0.000000
# 3 -0.000977 -0.005506 0.009109 0.000000 0.000000 0.000000
# 4 0.000000 0.000000 0.000000 0.023396 0.000000 0.000000
# 5 0.000000 0.000000 0.000000 0.000000 0.025484 0.000000
# 6 0.000000 0.000000 0.000000 0.000000 0.000000 0.050436
#
#
# Mechanical properties :
#
#
# Convention : Reuss Voigt Hill
#
# Bulk Modulus (GPa) = 45.33042 50.70356 48.01699
# Shear Modulus (GPa) = 30.03293 34.46405 32.24849
#
# Velocity S-wave (km/s) = 3.73226 3.99812 3.86747
# Velocity P-wave (km/s) = 6.29269 6.69555 6.49724
#
# Compressibility (1/GPa) = 0.02206024
#
# Stress axis : x y z
#
# Youngs Moduli (GPa) = 86.94298 49.19505 109.78271
#
# Poissons Ratio (x) = 0.14542 0.10729
# Poissons Ratio (y) = 0.25700 0.60442
# Poissons Ratio (z) = 0.08497 0.27085
#
# Static dielectric constant tensor:
#      x y z
#    x 1.786030 0.000000 0.000000 
#    y 0.000000 1.884340 0.000000 
#    z 0.000000 0.000000 1.920340 
# 
# From -- ./inp_files/21929.got.cif
#   From: 2010.05.17/outbox.cif.g08.bks.cpg/sg20_11_cif.got.tgz:21929.got - 2010.06.03 22:52:26.
