data_PCOD9318050
_publ_section_title
;
Structure prediction by ZEFSAII (Michael W. Deem and Ramdas Pophale) SiO2 
 PCOD9318050
Probable space group: C 2 2 21
;
_chemical_formula_sum "Si O2"
_cell_formula_units_Z 44
_cell_length_a 17.815078
_cell_length_b 7.806546
_cell_length_c 13.444426
_cell_angle_alpha 90.000000
_cell_angle_beta 90.000000
_cell_angle_gamma 90.000000
_cell_volume 1869.773139
_symmetry_space_group_name_H-M "C 2 2 21"
_symmetry_group_IT_number 20
_symmetry_cell_setting 'orthorhombic'
loop_
_space_group_symop_operation_xyz
x,y,z
-x,-y,1/2+z
x,-y,-z
-x,y,1/2-z
1/2+x,1/2+y,z
1/2-x,1/2-y,1/2+z
1/2+x,1/2-y,-z
1/2-x,1/2+y,1/2-z
loop_
_atom_site_type_symbol
_atom_site_label
_atom_site_fract_x
_atom_site_fract_y
_atom_site_fract_z
Si Si1 0.947325 0.897569 0.656412
Si Si2 0.220145 0.994794 0.788686
Si Si3 0.698999 0.867981 0.886744
Si Si4 0.272926 0.169180 0.034411
Si Si5 0.461968 0.771803 0.562298
Si Si6 0.086641 0.500000 0.500000
O O1 0.861264 0.908125 0.695224
O O2 0.954519 0.782552 0.555525
O O3 0.000000 0.847553 0.750000
O O4 0.968166 0.091976 0.620862
O O5 0.252566 0.995853 0.678470
O O6 0.279581 0.879726 0.851723
O O7 0.215421 0.185542 0.831277
O O8 0.610154 0.875117 0.898131
O O9 0.729359 0.829337 0.996865
O O10 0.351892 0.148422 0.976891
O O11 0.225077 0.000000 0.000000
O O12 0.531991 0.899512 0.573438
#
# Coordination Sequence:
#
# PCOD9318050 Si02
#       6
#     8   8   8   8   8   4
#     4  10  22  39  65  88 129 175 220 256 338 396
#     4  10  20  37  64  89 117 173 210 262 320 393
#     4  10  20  39  63  88 127 161 212 260 327 379
#     4   8  18  38  59  82 120 164 198 253 314 379
#     4  10  22  42  61  93 130 166 207 284 325 381
#     4  10  22  36  68  86 126 164 212 262 332 370
#
# _framework density 23.532264999999999
#
# number of rings (size 3 to 8) (size 9 to 14) (size 15 to 20)
#    0.545    1.818    1.818    0.000    2.545    4.364 
#    0.000    0.909    0.000    0.000    0.000    0.000 
#    0.000    0.000    0.000    0.000    0.000    0.000 
#
# Total GULP energy -122508.573608 kJ/mol
# GULP energy per Si atom -5568.571528 kJ/mol
# Density = 2.347870 g / cm^3
# Si number density = 23.532265 Si / 1000 Ang^3
#
#
#
# Elastic Constant Matrix: (Units=GPa)
#
#
# Indices 1 2 3 4 5 6 
#
# 1 129.8888 10.3059 15.0199 0.0000 0.0000 0.0000
# 2 10.3059 55.6220 -4.2682 0.0000 0.0000 0.0000
# 3 15.0199 -4.2682 119.4133 0.0000 0.0000 0.0000
# 4 0.0000 0.0000 0.0000 36.3203 0.0000 0.0000
# 5 0.0000 0.0000 0.0000 0.0000 37.0536 0.0000
# 6 0.0000 0.0000 0.0000 0.0000 0.0000 4.4110
#
#
#
# Elastic Compliance Matrix: (Units=1/GPa)
#
#
# Indices 1 2 3 4 5 6 
#
# 1 0.007944 -0.001553 -0.001055 0.000000 0.000000 0.000000
# 2 -0.001553 0.018331 0.000851 0.000000 0.000000 0.000000
# 3 -0.001055 0.000851 0.008537 0.000000 0.000000 0.000000
# 4 0.000000 0.000000 0.000000 0.027533 0.000000 0.000000
# 5 0.000000 0.000000 0.000000 0.000000 0.026988 0.000000
# 6 0.000000 0.000000 0.000000 0.000000 0.000000 0.226705
#
#
# Mechanical properties :
#
#
# Convention : Reuss Voigt Hill
#
# Bulk Modulus (GPa) = 31.95007 38.55993 35.25500
# Shear Modulus (GPa) = 15.15217 34.48141 24.81679
#
# Velocity S-wave (km/s) = 2.54025 3.83205 3.25096
# Velocity P-wave (km/s) = 4.71279 6.00009 5.39497
#
# Compressibility (1/GPa) = 0.03129883
#
# Stress axis : x y z
#
# Youngs Moduli (GPa) = 125.88016 54.55100 117.13246
#
# Poissons Ratio (x) = 0.08471 0.12354
# Poissons Ratio (y) = 0.19547 -0.09963
# Poissons Ratio (z) = 0.13277 -0.04640
#
# Static dielectric constant tensor:
#      x y z
#    x 1.869570 0.000000 0.000000 
#    y 0.000000 1.955680 0.000000 
#    z 0.000000 0.000000 2.027990 
# 
# From -- ./inp_files/21223.got.cif
#   From: 2010.05.17/outbox.cif.g08.bks.cpg/sg20_11_cif.got.tgz:21223.got - 2010.06.03 22:52:26.
