data_PCOD9318407
_publ_section_title
;
Structure prediction by ZEFSAII (Michael W. Deem and Ramdas Pophale) SiO2 
 PCOD9318407
Probable space group: C 2 2 21
;
_chemical_formula_sum "Si O2"
_cell_formula_units_Z 52
_cell_length_a 12.261528
_cell_length_b 9.050583
_cell_length_c 18.917909
_cell_angle_alpha 90.000000
_cell_angle_beta 90.000000
_cell_angle_gamma 90.000000
_cell_volume 2099.395596
_symmetry_space_group_name_H-M "C 2 2 21"
_symmetry_group_IT_number 20
_symmetry_cell_setting 'orthorhombic'
loop_
_space_group_symop_operation_xyz
x,y,z
-x,-y,1/2+z
x,-y,-z
-x,y,1/2-z
1/2+x,1/2+y,z
1/2-x,1/2-y,1/2+z
1/2+x,1/2-y,-z
1/2-x,1/2+y,1/2-z
loop_
_atom_site_type_symbol
_atom_site_label
_atom_site_fract_x
_atom_site_fract_y
_atom_site_fract_z
Si Si1 0.883829 0.477381 0.350321
Si Si2 0.268281 0.047161 0.209480
Si Si3 0.436126 0.532886 0.074860
Si Si4 0.167436 0.500000 0.500000
Si Si5 0.894747 0.672596 0.867368
Si Si6 0.161151 0.186708 0.088827
Si Si7 0.525591 0.251873 0.329730
O O1 0.794747 0.504072 0.289317
O O2 0.835553 0.364264 0.407821
O O3 0.935372 0.639373 0.361573
O O4 0.994011 0.381955 0.329632
O O5 0.168190 0.126164 0.170709
O O6 0.367065 0.153570 0.184020
O O7 0.288748 0.892935 0.169797
O O8 0.379323 0.655234 0.122850
O O9 0.549773 0.619440 0.058912
O O10 0.455781 0.384975 0.117828
O O11 0.382227 0.500000 0.000000
O O12 0.099354 0.406128 0.443997
O O13 0.242832 0.386504 0.543720
O O14 0.500000 0.305417 0.250000
#
# Coordination Sequence:
#
# PCOD9318407 Si02
#       7
#     8   8   8   4   8   8   8
#     4   9  19  38  63  91 114 164 204 253 319 382
#     4   9  19  38  64  89 120 153 210 253 317 377
#     4  11  23  36  57  90 125 160 210 258 315 380
#     4  10  20  40  64  86 124 176 212 260 314 358
#     4   9  20  35  62  83 117 166 204 256 299 377
#     4  10  21  38  60  86 127 160 203 261 314 384
#     4   9  20  39  62  89 122 161 212 260 308 384
#
# _framework density 24.769034999999999
#
# number of rings (size 3 to 8) (size 9 to 14) (size 15 to 20)
#    0.000    2.462    0.769    1.385    6.462    4.923 
#    0.000    3.077    3.385    0.000    0.000    0.000 
#    0.000    0.000    0.000    0.000    0.000    0.000 
#
# Total GULP energy -145240.492608 kJ/mol
# GULP energy per Si atom -5586.172793 kJ/mol
# Density = 2.471266 g / cm^3
# Si number density = 24.769035 Si / 1000 Ang^3
#
#
#
# Elastic Constant Matrix: (Units=GPa)
#
#
# Indices 1 2 3 4 5 6 
#
# 1 45.4107 16.7262 24.2920 0.0000 0.0000 0.0000
# 2 16.7262 182.4430 79.5461 0.0000 0.0000 0.0000
# 3 24.2920 79.5461 86.6867 0.0000 0.0000 0.0000
# 4 0.0000 0.0000 0.0000 29.3044 0.0000 0.0000
# 5 0.0000 0.0000 0.0000 0.0000 15.2567 0.0000
# 6 0.0000 0.0000 0.0000 0.0000 0.0000 25.1720
#
#
#
# Elastic Compliance Matrix: (Units=1/GPa)
#
#
# Indices 1 2 3 4 5 6 
#
# 1 0.026096 0.001327 -0.008530 0.000000 0.000000 0.000000
# 2 0.001327 0.009204 -0.008818 0.000000 0.000000 0.000000
# 3 -0.008530 -0.008818 0.022018 0.000000 0.000000 0.000000
# 4 0.000000 0.000000 0.000000 0.034125 0.000000 0.000000
# 5 0.000000 0.000000 0.000000 0.000000 0.065545 0.000000
# 6 0.000000 0.000000 0.000000 0.000000 0.000000 0.039727
#
#
# Mechanical properties :
#
#
# Convention : Reuss Voigt Hill
#
# Bulk Modulus (GPa) = 39.56473 61.74099 50.65286
# Shear Modulus (GPa) = 21.08094 26.87837 23.97965
#
# Velocity S-wave (km/s) = 2.92053 3.29775 3.11485
# Velocity P-wave (km/s) = 5.23266 6.28339 5.78195
#
# Compressibility (1/GPa) = 0.02527504
#
# Stress axis : x y z
#
# Youngs Moduli (GPa) = 38.32049 108.64713 45.41819
#
# Poissons Ratio (x) = -0.14415 0.38743
# Poissons Ratio (y) = -0.05084 0.40049
# Poissons Ratio (z) = 0.32688 0.95802
#
# Static dielectric constant tensor:
#      x y z
#    x 2.015760 0.000000 0.000000 
#    y 0.000000 1.967360 0.000000 
#    z 0.000000 0.000000 2.033120 
# 
# From -- ./inp_files/27498.got.cif
#   From: 2010.05.17/outbox.cif.g08.bks.cpg/sg20_14_cif.got.tgz:27498.got - 2010.06.03 22:52:26.
