data_PCOD9318662
_publ_section_title
;
Structure prediction by ZEFSAII (Michael W. Deem and Ramdas Pophale) SiO2 
 PCOD9318662
Probable space group: C 2 2 21
;
_chemical_formula_sum "Si O2"
_cell_formula_units_Z 64
_cell_length_a 12.986691
_cell_length_b 14.330003
_cell_length_c 17.552224
_cell_angle_alpha 90.000000
_cell_angle_beta 90.000000
_cell_angle_gamma 90.000000
_cell_volume 3266.456968
_symmetry_space_group_name_H-M "C 2 2 21"
_symmetry_group_IT_number 20
_symmetry_cell_setting 'orthorhombic'
loop_
_space_group_symop_operation_xyz
x,y,z
-x,-y,1/2+z
x,-y,-z
-x,y,1/2-z
1/2+x,1/2+y,z
1/2-x,1/2-y,1/2+z
1/2+x,1/2-y,-z
1/2-x,1/2+y,1/2-z
loop_
_atom_site_type_symbol
_atom_site_label
_atom_site_fract_x
_atom_site_fract_y
_atom_site_fract_z
Si Si1 0.398952 0.667292 0.908065
Si Si2 0.119610 0.496714 0.765853
Si Si3 0.076998 0.868813 0.822526
Si Si4 0.894657 0.050105 0.582472
Si Si5 0.228958 0.653391 0.664872
Si Si6 0.197637 0.294714 0.716105
Si Si7 0.249968 0.492458 0.910632
Si Si8 0.892305 0.809560 0.916311
O O1 0.511470 0.621365 0.905764
O O2 0.369487 0.747507 0.849708
O O3 0.322347 0.580680 0.893406
O O4 0.382819 0.702601 0.993852
O O5 0.182850 0.575647 0.720669
O O6 0.152161 0.394783 0.736667
O O7 0.153987 0.497215 0.854099
O O8 0.000000 0.512372 0.750000
O O9 0.182226 0.813012 0.806707
O O10 0.000000 0.868324 0.750000
O O11 0.008844 0.829456 0.891724
O O12 0.102285 0.973101 0.850342
O O13 0.789986 0.105787 0.595860
O O14 0.902959 0.000000 0.500000
O O15 0.301401 0.722192 0.713947
O O16 0.143320 0.720433 0.630129
O O17 0.319393 0.399349 0.897040
O O18 0.223193 0.500000 0.000000
#
# Coordination Sequence:
#
# PCOD9318662 Si02
#       8
#     8   8   8   8   8   8   8   8
#     4  11  24  42  71 103 135 177 235 286 348 407
#     4  12  27  47  64 100 145 178 228 288 342 416
#     4  12  23  43  71  98 138 178 231 289 344 401
#     4  12  26  46  72 104 137 180 234 300 348 395
#     4  12  27  43  71 100 139 185 231 280 354 411
#     4  12  27  44  67 104 139 185 228 286 341 415
#     4  10  20  43  70  99 134 177 230 288 340 404
#     4  11  23  42  71 103 135 178 231 284 341 421
#
# _framework density 19.593095000000002
#
# number of rings (size 3 to 8) (size 9 to 14) (size 15 to 20)
#    0.000    0.500    7.500    0.375    7.000    0.000 
#    0.000    4.375    0.000    0.000    0.000    0.000 
#    0.000    0.000    0.000    0.000    0.000    0.000 
#
# Total GULP energy -178877.123582 kJ/mol
# GULP energy per Si atom -5589.910112 kJ/mol
# Density = 1.954850 g / cm^3
# Si number density = 19.593095 Si / 1000 Ang^3
#
#
#
# Elastic Constant Matrix: (Units=GPa)
#
#
# Indices 1 2 3 4 5 6 
#
# 1 61.2675 7.9485 31.6927 0.0000 0.0000 0.0000
# 2 7.9485 105.1914 41.6746 0.0000 0.0000 0.0000
# 3 31.6927 41.6746 65.3576 0.0000 0.0000 0.0000
# 4 0.0000 0.0000 0.0000 26.9476 0.0000 0.0000
# 5 0.0000 0.0000 0.0000 0.0000 26.8192 0.0000
# 6 0.0000 0.0000 0.0000 0.0000 0.0000 27.0884
#
#
#
# Elastic Compliance Matrix: (Units=1/GPa)
#
#
# Indices 1 2 3 4 5 6 
#
# 1 0.022734 0.003545 -0.013284 0.000000 0.000000 0.000000
# 2 0.003545 0.013273 -0.010182 0.000000 0.000000 0.000000
# 3 -0.013284 -0.010182 0.028235 0.000000 0.000000 0.000000
# 4 0.000000 0.000000 0.000000 0.037109 0.000000 0.000000
# 5 0.000000 0.000000 0.000000 0.000000 0.037287 0.000000
# 6 0.000000 0.000000 0.000000 0.000000 0.000000 0.036916
#
#
# Mechanical properties :
#
#
# Convention : Reuss Voigt Hill
#
# Bulk Modulus (GPa) = 40.98662 43.82757 42.40710
# Shear Modulus (GPa) = 22.36848 26.20443 24.28646
#
# Velocity S-wave (km/s) = 3.38250 3.66106 3.52453
# Velocity P-wave (km/s) = 6.01825 6.34733 6.18498
#
# Compressibility (1/GPa) = 0.02439821
#
# Stress axis : x y z
#
# Youngs Moduli (GPa) = 43.98744 75.34332 35.41722
#
# Poissons Ratio (x) = -0.26711 0.47050
# Poissons Ratio (y) = -0.15594 0.36063
# Poissons Ratio (z) = 0.58435 0.76716
#
# Static dielectric constant tensor:
#      x y z
#    x 1.673840 0.000000 0.000000 
#    y 0.000000 1.673740 0.000000 
#    z 0.000000 0.000000 1.701120 
# 
# From -- ./inp_files/24447.got.cif
#   From: 2010.05.17/outbox.cif.g08.bks.cpg/sg20_13_cif.got.tgz:24447.got - 2010.06.03 22:52:26.
