data_PCOD9318624
_publ_section_title
;
Structure prediction by ZEFSAII (Michael W. Deem and Ramdas Pophale) SiO2 
 PCOD9318624
Probable space group: C 2 2 21
;
_chemical_formula_sum "Si O2"
_cell_formula_units_Z 32
_cell_length_a 4.888991
_cell_length_b 13.590252
_cell_length_c 23.515651
_cell_angle_alpha 90.000000
_cell_angle_beta 90.000000
_cell_angle_gamma 90.000000
_cell_volume 1562.441457
_symmetry_space_group_name_H-M "C 2 2 21"
_symmetry_group_IT_number 20
_symmetry_cell_setting 'orthorhombic'
loop_
_space_group_symop_operation_xyz
x,y,z
-x,-y,1/2+z
x,-y,-z
-x,y,1/2-z
1/2+x,1/2+y,z
1/2-x,1/2-y,1/2+z
1/2+x,1/2-y,-z
1/2-x,1/2+y,1/2-z
loop_
_atom_site_type_symbol
_atom_site_label
_atom_site_fract_x
_atom_site_fract_y
_atom_site_fract_z
Si Si1 0.210352 0.896743 0.622686
Si Si2 0.438003 0.092067 0.657976
Si Si3 0.087169 0.788760 0.188764
Si Si4 0.319747 0.021358 0.063716
O O1 0.261564 0.793053 0.651492
O O2 0.412260 0.910363 0.568691
O O3 0.911703 0.926219 0.601482
O O4 0.315556 0.982688 0.665617
O O5 0.686719 0.125930 0.697420
O O6 0.184484 0.166315 0.660327
O O7 0.582873 0.077967 0.596144
O O8 0.000000 0.748595 0.250000
O O9 0.232465 0.000000 0.000000
#
# Coordination Sequence:
#
# PCOD9318624 Si02
#       4
#     8   8   8   8
#     4  10  22  41  63  94 129 156 219 256 305 384
#     4  10  22  43  61  92 131 158 214 259 306 383
#     4  12  24  40  66  93 128 168 210 258 315 372
#     4  10  20  42  70  86 128 170 201 262 324 363
#
# _framework density 20.480765999999999
#
# number of rings (size 3 to 8) (size 9 to 14) (size 15 to 20)
#    1.500    0.000    2.500    3.000    0.000    2.000 
#    0.000    5.000    0.000    0.000    0.000    0.000 
#    0.000    0.000    0.000    0.000    0.000    0.000 
#
# Total GULP energy -89092.725048 kJ/mol
# GULP energy per Si atom -5568.295316 kJ/mol
# Density = 2.043415 g / cm^3
# Si number density = 20.480766 Si / 1000 Ang^3
#
#
#
# Elastic Constant Matrix: (Units=GPa)
#
#
# Indices 1 2 3 4 5 6 
#
# 1 138.2356 35.5881 27.2446 0.0000 0.0000 0.0000
# 2 35.5881 60.7605 22.9150 0.0000 0.0000 0.0000
# 3 27.2446 22.9150 68.6213 0.0000 0.0000 0.0000
# 4 0.0000 0.0000 0.0000 21.1282 0.0000 0.0000
# 5 0.0000 0.0000 0.0000 0.0000 23.9945 0.0000
# 6 0.0000 0.0000 0.0000 0.0000 0.0000 17.5351
#
#
#
# Elastic Compliance Matrix: (Units=1/GPa)
#
#
# Indices 1 2 3 4 5 6 
#
# 1 0.008756 -0.004368 -0.002018 0.000000 0.000000 0.000000
# 2 -0.004368 0.021008 -0.005281 0.000000 0.000000 0.000000
# 3 -0.002018 -0.005281 0.017137 0.000000 0.000000 0.000000
# 4 0.000000 0.000000 0.000000 0.047330 0.000000 0.000000
# 5 0.000000 0.000000 0.000000 0.000000 0.041676 0.000000
# 6 0.000000 0.000000 0.000000 0.000000 0.000000 0.057028
#
#
# Mechanical properties :
#
#
# Convention : Reuss Voigt Hill
#
# Bulk Modulus (GPa) = 42.43019 48.79031 45.61025
# Shear Modulus (GPa) = 22.30891 24.65622 23.48256
#
# Velocity S-wave (km/s) = 3.30398 3.47345 3.38977
# Velocity P-wave (km/s) = 5.94282 6.32145 6.13505
#
# Compressibility (1/GPa) = 0.02356812
#
# Stress axis : x y z
#
# Youngs Moduli (GPa) = 114.20556 47.60113 58.35161
#
# Poissons Ratio (x) = 0.20790 0.11775
# Poissons Ratio (y) = 0.49880 0.30817
# Poissons Ratio (z) = 0.23046 0.25139
#
# Static dielectric constant tensor:
#      x y z
#    x 1.735530 0.000000 0.000000 
#    y 0.000000 1.755870 0.000000 
#    z 0.000000 0.000000 1.750720 
# 
# From -- ./inp_files/28164.got.cif
#   From: 2010.05.17/outbox.cif.g08.bks.cpg/sg20_15_cif.got.tgz:28164.got - 2010.06.03 22:52:26.
