data_PCOD9318402
_publ_section_title
;
Structure prediction by ZEFSAII (Michael W. Deem and Ramdas Pophale) SiO2 
 PCOD9318402
Probable space group: C 2 2 21
;
_chemical_formula_sum "Si O2"
_cell_formula_units_Z 48
_cell_length_a 18.657163
_cell_length_b 14.481258
_cell_length_c 8.893657
_cell_angle_alpha 90.000000
_cell_angle_beta 90.000000
_cell_angle_gamma 90.000000
_cell_volume 2402.881053
_symmetry_space_group_name_H-M "C 2 2 21"
_symmetry_group_IT_number 20
_symmetry_cell_setting 'orthorhombic'
loop_
_space_group_symop_operation_xyz
x,y,z
-x,-y,1/2+z
x,-y,-z
-x,y,1/2-z
1/2+x,1/2+y,z
1/2-x,1/2-y,1/2+z
1/2+x,1/2-y,-z
1/2-x,1/2+y,1/2-z
loop_
_atom_site_type_symbol
_atom_site_label
_atom_site_fract_x
_atom_site_fract_y
_atom_site_fract_z
Si Si1 0.914923 0.222782 0.922312
Si Si2 0.912901 0.774515 0.417768
Si Si3 0.826930 0.081159 0.119419
Si Si4 0.067280 0.929793 0.864841
Si Si5 0.664620 0.081826 0.119244
Si Si6 0.063753 0.428939 0.628167
O O1 0.890301 0.198551 0.752147
O O2 0.909325 0.332801 0.941925
O O3 0.000839 0.212746 0.922885
O O4 0.874483 0.162671 0.045430
O O5 0.895845 0.841099 0.555537
O O6 0.882515 0.670646 0.433221
O O7 0.868998 0.036694 0.258520
O O8 0.745965 0.113032 0.149469
O O9 0.821853 0.000000 0.000000
O O10 0.000000 0.914266 0.750000
O O11 0.046849 0.000000 0.000000
O O12 0.629656 0.039922 0.269446
O O13 0.662790 0.000000 0.000000
O O14 0.041613 0.500000 0.500000
O O15 0.000000 0.412665 0.750000
#
# Coordination Sequence:
#
# PCOD9318402 Si02
#       6
#     8   8   8   8   8   8
#     4  10  20  40  63  93 128 165 209 267 323 377
#     4  10  21  38  64  92 127 164 212 267 321 378
#     4  11  24  43  65  92 134 174 214 266 332 390
#     4  12  25  39  64  95 128 170 223 267 321 391
#     4  10  23  44  65  95 133 174 214 268 328 392
#     4  11  22  40  67  97 133 172 219 272 325 386
#
# _framework density 19.976019000000001
#
# number of rings (size 3 to 8) (size 9 to 14) (size 15 to 20)
#    0.000    1.333    5.000    2.000    2.333    4.667 
#    0.000    3.333    0.000    0.000    0.000    0.000 
#    0.000    0.000    0.000    0.000    0.000    0.000 
#
# Total GULP energy -133720.735992 kJ/mol
# GULP energy per Si atom -5571.697333 kJ/mol
# Density = 1.993055 g / cm^3
# Si number density = 19.976019 Si / 1000 Ang^3
#
#
#
# Elastic Constant Matrix: (Units=GPa)
#
#
# Indices 1 2 3 4 5 6 
#
# 1 98.2905 25.0211 27.7671 0.0000 0.0000 0.0000
# 2 25.0211 77.3272 33.0503 0.0000 0.0000 0.0000
# 3 27.7671 33.0503 70.4527 0.0000 0.0000 0.0000
# 4 0.0000 0.0000 0.0000 40.8647 0.0000 0.0000
# 5 0.0000 0.0000 0.0000 0.0000 16.2836 0.0000
# 6 0.0000 0.0000 0.0000 0.0000 0.0000 25.6615
#
#
#
# Elastic Compliance Matrix: (Units=1/GPa)
#
#
# Indices 1 2 3 4 5 6 
#
# 1 0.011762 -0.002282 -0.003565 0.000000 0.000000 0.000000
# 2 -0.002282 0.016618 -0.006896 0.000000 0.000000 0.000000
# 3 -0.003565 -0.006896 0.018834 0.000000 0.000000 0.000000
# 4 0.000000 0.000000 0.000000 0.024471 0.000000 0.000000
# 5 0.000000 0.000000 0.000000 0.000000 0.061411 0.000000
# 6 0.000000 0.000000 0.000000 0.000000 0.000000 0.038969
#
#
# Mechanical properties :
#
#
# Convention : Reuss Voigt Hill
#
# Bulk Modulus (GPa) = 46.02542 46.41639 46.22090
# Shear Modulus (GPa) = 24.41467 27.24409 25.82938
#
# Velocity S-wave (km/s) = 3.49979 3.69703 3.59976
# Velocity P-wave (km/s) = 6.27867 6.44286 6.36130
#
# Compressibility (1/GPa) = 0.02172712
#
# Stress axis : x y z
#
# Youngs Moduli (GPa) = 85.01946 60.17556 53.09498
#
# Poissons Ratio (x) = 0.13733 0.18929
# Poissons Ratio (y) = 0.19403 0.36616
# Poissons Ratio (z) = 0.30310 0.41499
#
# Static dielectric constant tensor:
#      x y z
#    x 1.758460 0.000000 0.000000 
#    y 0.000000 1.753120 0.000000 
#    z 0.000000 0.000000 1.725750 
# 
# From -- ./inp_files/10071.got.cif
#   From: 2010.05.17/outbox.cif.g08.bks.cpg/sg20_6_cif.got.tgz:10071.got - 2010.06.03 22:52:26.
