data_PCOD9318796
_publ_section_title
;
Structure prediction by ZEFSAII (Michael W. Deem and Ramdas Pophale) SiO2 
 PCOD9318796
Probable space group: C 2 2 21
;
_chemical_formula_sum "Si O2"
_cell_formula_units_Z 32
_cell_length_a 18.998815
_cell_length_b 16.633905
_cell_length_c 5.130353
_cell_angle_alpha 90.000000
_cell_angle_beta 90.000000
_cell_angle_gamma 90.000000
_cell_volume 1621.317159
_symmetry_space_group_name_H-M "C 2 2 21"
_symmetry_group_IT_number 20
_symmetry_cell_setting 'orthorhombic'
loop_
_space_group_symop_operation_xyz
x,y,z
-x,-y,1/2+z
x,-y,-z
-x,y,1/2-z
1/2+x,1/2+y,z
1/2-x,1/2-y,1/2+z
1/2+x,1/2-y,-z
1/2-x,1/2+y,1/2-z
loop_
_atom_site_type_symbol
_atom_site_label
_atom_site_fract_x
_atom_site_fract_y
_atom_site_fract_z
Si Si1 0.179834 0.174964 0.928486
Si Si2 0.343162 0.771077 0.074710
Si Si3 0.919639 0.582013 0.166650
Si Si4 0.685980 0.000000 0.000000
Si Si5 0.213625 0.000000 0.000000
O O1 0.264086 0.192162 0.939050
O O2 0.146130 0.232940 0.143564
O O3 0.154934 0.201162 0.643421
O O4 0.170307 0.082405 0.006336
O O5 0.395402 0.841797 0.997378
O O6 0.866607 0.571270 0.412117
O O7 0.000000 0.588537 0.250000
O O8 0.912153 0.500000 0.000000
O O9 0.736563 0.010159 0.752871
#
# Coordination Sequence:
#
# PCOD9318796 Si02
#       5
#     8   8   8   4   4
#     4  10  21  36  57  81 114 151 189 243 299 349
#     4  10  22  36  54  82 117 153 190 240 292 342
#     4  12  25  38  59  85 123 168 206 233 283 361
#     4  12  22  35  58  84 118 157 202 234 282 350
#     4  12  22  37  64  88 114 157 196 246 306 362
#
# _framework density 19.737037999999998
#
# number of rings (size 3 to 8) (size 9 to 14) (size 15 to 20)
#    0.000    1.000    5.000    1.500   10.500    0.000 
#    0.000    0.000    0.000    0.000    0.000    3.500 
#    0.000    0.000    0.000    0.000    0.000    0.000 
#
# Total GULP energy -89471.205682 kJ/mol
# GULP energy per Si atom -5591.950355 kJ/mol
# Density = 1.969212 g / cm^3
# Si number density = 19.737038 Si / 1000 Ang^3
#
#
#
# Elastic Constant Matrix: (Units=GPa)
#
#
# Indices 1 2 3 4 5 6 
#
# 1 34.4428 13.6172 5.8350 0.0000 0.0000 0.0000
# 2 13.6172 96.1740 -5.6396 0.0000 0.0000 0.0000
# 3 5.8350 -5.6396 82.1247 0.0000 0.0000 0.0000
# 4 0.0000 0.0000 0.0000 25.5635 0.0000 0.0000
# 5 0.0000 0.0000 0.0000 0.0000 -4.3598 0.0000
# 6 0.0000 0.0000 0.0000 0.0000 0.0000 13.0552
#
#
#
# Elastic Compliance Matrix: (Units=1/GPa)
#
#
# Indices 1 2 3 4 5 6 
#
# 1 0.031273 -0.004577 -0.002536 0.000000 0.000000 0.000000
# 2 -0.004577 0.011110 0.001088 0.000000 0.000000 0.000000
# 3 -0.002536 0.001088 0.012432 0.000000 0.000000 0.000000
# 4 0.000000 0.000000 0.000000 0.039118 0.000000 0.000000
# 5 0.000000 0.000000 0.000000 0.000000 -0.229367 0.000000
# 6 0.000000 0.000000 0.000000 0.000000 0.000000 0.076598
#
#
# Mechanical properties :
#
#
# Convention : Reuss Voigt Hill
#
# Bulk Modulus (GPa) = 23.38395 26.70739 25.04567
# Shear Modulus (GPa) = -153.68873 20.11372 -66.78751
#
# Velocity S-wave (km/s) = -8.83387 3.19577 -5.82341
# Velocity P-wave (km/s) = 9.60084 5.21328 5.70078
#
# Compressibility (1/GPa) = 0.04276438
#
# Stress axis : x y z
#
# Youngs Moduli (GPa) = 31.97681 90.01205 80.44066
#
# Poissons Ratio (x) = 0.41195 0.20401
# Poissons Ratio (y) = 0.14634 -0.08753
# Poissons Ratio (z) = 0.08110 -0.09794
#
# Static dielectric constant tensor:
#      x y z
#    x 1.646880 0.000000 0.000000 
#    y 0.000000 1.717610 0.000000 
#    z 0.000000 0.000000 1.740730 
# 
# From -- ./inp_files/1582.got.cif
#   From: 2010.05.17/outbox.cif.g08.bks.cpg/sg20_1_cif.got.tgz:1582.got - 2010.06.03 22:52:26.
