data_PCOD9318492
_publ_section_title
;
Structure prediction by ZEFSAII (Michael W. Deem and Ramdas Pophale) SiO2 
 PCOD9318492
Probable space group: C 2 2 21
;
_chemical_formula_sum "Si O2"
_cell_formula_units_Z 48
_cell_length_a 7.791559
_cell_length_b 21.110826
_cell_length_c 11.999363
_cell_angle_alpha 90.000000
_cell_angle_beta 90.000000
_cell_angle_gamma 90.000000
_cell_volume 1973.730178
_symmetry_space_group_name_H-M "C 2 2 21"
_symmetry_group_IT_number 20
_symmetry_cell_setting 'orthorhombic'
loop_
_space_group_symop_operation_xyz
x,y,z
-x,-y,1/2+z
x,-y,-z
-x,y,1/2-z
1/2+x,1/2+y,z
1/2-x,1/2-y,1/2+z
1/2+x,1/2-y,-z
1/2-x,1/2+y,1/2-z
loop_
_atom_site_type_symbol
_atom_site_label
_atom_site_fract_x
_atom_site_fract_y
_atom_site_fract_z
Si Si1 0.000000 0.861245 0.750000
Si Si2 0.670626 0.923354 0.129644
Si Si3 0.805132 0.168617 0.035716
Si Si4 0.952620 0.238879 0.621809
Si Si5 0.673047 0.947720 0.730980
Si Si6 0.261263 0.500000 0.500000
Si Si7 0.732142 0.882889 0.369739
O O1 0.060496 0.826678 0.638148
O O2 0.160504 0.906265 0.770458
O O3 0.756679 0.889615 0.236881
O O4 0.472439 0.898615 0.116906
O O5 0.678735 0.995536 0.177233
O O6 0.769047 0.900386 0.019093
O O7 0.625099 0.196585 0.075547
O O8 0.881762 0.213388 0.941315
O O9 0.804445 0.185594 0.601707
O O10 0.000000 0.244638 0.750000
O O11 0.500000 0.909887 0.750000
O O12 0.660668 0.974582 0.606341
O O13 0.336317 0.436306 0.441420
#
# Coordination Sequence:
#
# PCOD9318492 Si02
#       7
#     4   8   8   8   8   4   8
#     4  12  32  46  74 116 162 194 262 328 392 470
#     4  10  21  44  75 107 153 202 252 314 392 486
#     4  12  29  50  73 111 152 204 264 332 390 473
#     4  12  27  49  80 106 146 207 268 330 401 468
#     4  11  24  46  71 111 153 207 251 319 399 470
#     4  10  20  40  72 108 150 196 256 310 380 476
#     4  10  20  41  75 111 143 197 262 308 388 475
#
# _framework density 24.319431999999999
#
# number of rings (size 3 to 8) (size 9 to 14) (size 15 to 20)
#    0.000    1.000    5.000    2.000    4.667    6.667 
#    0.000    0.000    0.000    0.000    0.000    0.000 
#    0.000    0.000    0.000    0.000    0.000    0.000 
#
# Total GULP energy -133991.067434 kJ/mol
# GULP energy per Si atom -5582.961143 kJ/mol
# Density = 2.426408 g / cm^3
# Si number density = 24.319432 Si / 1000 Ang^3
#
#
#
# Elastic Constant Matrix: (Units=GPa)
#
#
# Indices 1 2 3 4 5 6 
#
# 1 76.6685 9.6327 36.5388 0.0000 0.0000 0.0000
# 2 9.6327 65.9311 58.2847 0.0000 0.0000 0.0000
# 3 36.5388 58.2847 157.2690 0.0000 0.0000 0.0000
# 4 0.0000 0.0000 0.0000 35.5255 0.0000 0.0000
# 5 0.0000 0.0000 0.0000 0.0000 -15.4296 0.0000
# 6 0.0000 0.0000 0.0000 0.0000 0.0000 43.0459
#
#
#
# Elastic Compliance Matrix: (Units=1/GPa)
#
#
# Indices 1 2 3 4 5 6 
#
# 1 0.014742 0.001300 -0.003907 0.000000 0.000000 0.000000
# 2 0.001300 0.022672 -0.008705 0.000000 0.000000 0.000000
# 3 -0.003907 -0.008705 0.010492 0.000000 0.000000 0.000000
# 4 0.000000 0.000000 0.000000 0.028149 0.000000 0.000000
# 5 0.000000 0.000000 0.000000 0.000000 -0.064811 0.000000
# 6 0.000000 0.000000 0.000000 0.000000 0.000000 0.023231
#
#
# Mechanical properties :
#
#
# Convention : Reuss Voigt Hill
#
# Bulk Modulus (GPa) = 39.55152 56.53124 48.04138
# Shear Modulus (GPa) = 76.30551 25.65586 50.98069
#
# Velocity S-wave (km/s) = 5.60754 3.25153 4.58350
# Velocity P-wave (km/s) = 7.63050 6.11493 6.91437
#
# Compressibility (1/GPa) = 0.02528348
#
# Stress axis : x y z
#
# Youngs Moduli (GPa) = 67.83465 44.10645 95.30959
#
# Poissons Ratio (x) = -0.05733 0.37235
# Poissons Ratio (y) = -0.08817 0.82962
# Poissons Ratio (z) = 0.26501 0.38392
#
# Static dielectric constant tensor:
#      x y z
#    x 1.920850 0.000000 0.000000 
#    y 0.000000 2.004930 0.000000 
#    z 0.000000 0.000000 1.939070 
# 
# From -- ./inp_files/13148.got.cif
#   From: 2010.05.17/outbox.cif.g08.bks.cpg/sg20_7_cif.got.tgz:13148.got - 2010.06.03 22:52:26.
