data_PCOD9318305
_publ_section_title
;
Structure prediction by ZEFSAII (Michael W. Deem and Ramdas Pophale) SiO2 
 PCOD9318305
Probable space group: C 2 2 21
;
_chemical_formula_sum "Si O2"
_cell_formula_units_Z 36
_cell_length_a 12.999507
_cell_length_b 14.985814
_cell_length_c 8.518574
_cell_angle_alpha 90.000000
_cell_angle_beta 90.000000
_cell_angle_gamma 90.000000
_cell_volume 1659.488016
_symmetry_space_group_name_H-M "C 2 2 21"
_symmetry_group_IT_number 20
_symmetry_cell_setting 'orthorhombic'
loop_
_space_group_symop_operation_xyz
x,y,z
-x,-y,1/2+z
x,-y,-z
-x,y,1/2-z
1/2+x,1/2+y,z
1/2-x,1/2-y,1/2+z
1/2+x,1/2-y,-z
1/2-x,1/2+y,1/2-z
loop_
_atom_site_type_symbol
_atom_site_label
_atom_site_fract_x
_atom_site_fract_y
_atom_site_fract_z
Si Si1 0.264050 0.327975 0.585821
Si Si2 0.116079 0.568690 0.227798
Si Si3 0.779607 0.000000 0.000000
Si Si4 0.562481 0.265157 0.094975
Si Si5 0.130511 0.815793 0.574889
O O1 0.176092 0.401029 0.615312
O O2 0.346299 0.333088 0.446508
O O3 0.202866 0.239924 0.540650
O O4 0.325567 0.314636 0.748527
O O5 0.197147 0.504939 0.142343
O O6 0.100931 0.663121 0.129308
O O7 0.000000 0.534383 0.250000
O O8 0.854069 0.083695 0.017894
O O9 0.500000 0.290713 0.250000
O O10 0.481419 0.274365 0.953072
#
# Coordination Sequence:
#
# PCOD9318305 Si02
#       5
#     8   8   4   8   8
#     4  11  19  37  66  89 125 172 222 261 317 403
#     4  10  20  39  63  91 130 169 221 269 330 390
#     4  10  22  40  58  92 134 164 202 288 336 368
#     4  11  20  39  64  93 123 171 224 264 314 405
#     4  11  21  38  63  92 124 170 219 267 328 384
#
# _framework density 21.693436999999999
#
# number of rings (size 3 to 8) (size 9 to 14) (size 15 to 20)
#    0.000    1.333    8.889    0.667    0.000    0.000 
#    4.000    4.444    0.000   12.000    0.000    0.000 
#    0.000    0.000    0.000    0.000    0.000    0.000 
#
# Total GULP energy -100307.454132 kJ/mol
# GULP energy per Si atom -5572.636341 kJ/mol
# Density = 2.164406 g / cm^3
# Si number density = 21.693437 Si / 1000 Ang^3
#
#
#
# Elastic Constant Matrix: (Units=GPa)
#
#
# Indices 1 2 3 4 5 6 
#
# 1 86.9130 -2.9266 10.6346 0.0000 0.0000 0.0000
# 2 -2.9266 29.9371 19.3621 0.0000 0.0000 0.0000
# 3 10.6346 19.3621 55.4459 0.0000 0.0000 0.0000
# 4 0.0000 0.0000 0.0000 22.5724 0.0000 0.0000
# 5 0.0000 0.0000 0.0000 0.0000 47.6587 0.0000
# 6 0.0000 0.0000 0.0000 0.0000 0.0000 -2.5933
#
#
#
# Elastic Compliance Matrix: (Units=1/GPa)
#
#
# Indices 1 2 3 4 5 6 
#
# 1 0.012052 0.003453 -0.003518 0.000000 0.000000 0.000000
# 2 0.003453 0.044138 -0.016076 0.000000 0.000000 0.000000
# 3 -0.003518 -0.016076 0.024324 0.000000 0.000000 0.000000
# 4 0.000000 0.000000 0.000000 0.044302 0.000000 0.000000
# 5 0.000000 0.000000 0.000000 0.000000 0.020983 0.000000
# 6 0.000000 0.000000 0.000000 0.000000 0.000000 -0.385604
#
#
# Mechanical properties :
#
#
# Convention : Reuss Voigt Hill
#
# Bulk Modulus (GPa) = 20.73205 25.15958 22.94581
# Shear Modulus (GPa) = -26.11694 23.20928 -1.45383
#
# Velocity S-wave (km/s) = -3.47350 3.27444 -0.81953
# Velocity P-wave (km/s) = 2.55135 5.09106 3.11525
#
# Compressibility (1/GPa) = 0.04823451
#
# Stress axis : x y z
#
# Youngs Moduli (GPa) = 82.97074 22.65620 41.11161
#
# Poissons Ratio (x) = -0.07824 0.14461
# Poissons Ratio (y) = -0.28652 0.66090
# Poissons Ratio (z) = 0.29185 0.36421
#
# Static dielectric constant tensor:
#      x y z
#    x 1.891750 0.000000 0.000000 
#    y 0.000000 1.773070 0.000000 
#    z 0.000000 0.000000 1.850360 
# 
# From -- ./inp_files/8006.got.cif
#   From: 2010.05.17/outbox.cif.g08.bks.cpg/sg20_5_cif.got.tgz:8006.got - 2010.06.03 22:52:26.
