data_PCOD9318248
_publ_section_title
;
Structure prediction by ZEFSAII (Michael W. Deem and Ramdas Pophale) SiO2 
 PCOD9318248
Probable space group: C 2 2 21
;
_chemical_formula_sum "Si O2"
_cell_formula_units_Z 52
_cell_length_a 17.543419
_cell_length_b 5.688498
_cell_length_c 24.024914
_cell_angle_alpha 90.000000
_cell_angle_beta 90.000000
_cell_angle_gamma 90.000000
_cell_volume 2397.583204
_symmetry_space_group_name_H-M "C 2 2 21"
_symmetry_group_IT_number 20
_symmetry_cell_setting 'orthorhombic'
loop_
_space_group_symop_operation_xyz
x,y,z
-x,-y,1/2+z
x,-y,-z
-x,y,1/2-z
1/2+x,1/2+y,z
1/2-x,1/2-y,1/2+z
1/2+x,1/2-y,-z
1/2-x,1/2+y,1/2-z
loop_
_atom_site_type_symbol
_atom_site_label
_atom_site_fract_x
_atom_site_fract_y
_atom_site_fract_z
Si Si1 0.794289 0.485062 0.239946
Si Si2 0.696709 0.230087 0.623179
Si Si3 0.473821 0.871673 0.560910
Si Si4 0.651909 0.046226 0.853316
Si Si5 0.388734 0.417172 0.061045
Si Si6 0.733399 0.328799 0.933395
Si Si7 0.609477 0.500000 0.000000
O O1 0.758300 0.750734 0.244598
O O2 0.818974 0.431019 0.176988
O O3 0.859402 0.467380 0.287438
O O4 0.773814 0.378180 0.636894
O O5 0.621823 0.378096 0.606423
O O6 0.723959 0.075695 0.570969
O O7 0.559377 0.803128 0.578264
O O8 0.437608 0.614806 0.548757
O O9 0.475671 0.000000 0.500000
O O10 0.419938 0.986132 0.607553
O O11 0.687772 0.289677 0.875759
O O12 0.301003 0.346018 0.055531
O O13 0.414719 0.500000 0.000000
O O14 0.667294 0.305226 0.977897
#
# Coordination Sequence:
#
# PCOD9318248 Si02
#       7
#     8   8   8   8   8   8   4
#     4  10  20  38  68 107 134 168 229 296 353 401
#     4  10  21  39  64  97 129 169 222 282 338 412
#     4  12  25  40  58  96 136 178 220 275 346 418
#     4  10  21  38  63 100 127 167 224 282 340 400
#     4  11  26  39  59  96 133 178 220 271 347 416
#     4  11  21  37  61  93 124 165 215 277 326 404
#     4  12  22  36  62  90 128 166 220 272 334 398
#
# _framework density 21.688507000000001
#
# number of rings (size 3 to 8) (size 9 to 14) (size 15 to 20)
#    0.000    1.231    5.385    0.923    5.385    0.000 
#    0.000    0.000    0.000    0.923   12.000    0.000 
#    0.000    0.000    0.000    0.000    0.000    0.000 
#
# Total GULP energy -144761.694727 kJ/mol
# GULP energy per Si atom -5567.757490 kJ/mol
# Density = 2.163914 g / cm^3
# Si number density = 21.688507 Si / 1000 Ang^3
#
#
#
# Elastic Constant Matrix: (Units=GPa)
#
#
# Indices 1 2 3 4 5 6 
#
# 1 74.4469 13.9148 20.8212 0.0000 0.0000 0.0000
# 2 13.9148 63.1944 2.3849 0.0000 0.0000 0.0000
# 3 20.8212 2.3849 71.9203 0.0000 0.0000 0.0000
# 4 0.0000 0.0000 0.0000 31.8810 0.0000 0.0000
# 5 0.0000 0.0000 0.0000 0.0000 14.0282 0.0000
# 6 0.0000 0.0000 0.0000 0.0000 0.0000 28.3336
#
#
#
# Elastic Compliance Matrix: (Units=1/GPa)
#
#
# Indices 1 2 3 4 5 6 
#
# 1 0.015233 -0.003192 -0.004304 0.000000 0.000000 0.000000
# 2 -0.003192 0.016513 0.000376 0.000000 0.000000 0.000000
# 3 -0.004304 0.000376 0.015138 0.000000 0.000000 0.000000
# 4 0.000000 0.000000 0.000000 0.031367 0.000000 0.000000
# 5 0.000000 0.000000 0.000000 0.000000 0.071285 0.000000
# 6 0.000000 0.000000 0.000000 0.000000 0.000000 0.035294
#
#
# Mechanical properties :
#
#
# Convention : Reuss Voigt Hill
#
# Bulk Modulus (GPa) = 30.63289 31.53372 31.08330
# Shear Modulus (GPa) = 23.81529 26.34458 25.07994
#
# Velocity S-wave (km/s) = 3.31729 3.48901 3.40423
# Velocity P-wave (km/s) = 5.36910 5.54994 5.46027
#
# Compressibility (1/GPa) = 0.03264465
#
# Stress axis : x y z
#
# Youngs Moduli (GPa) = 65.64818 60.55926 66.05953
#
# Poissons Ratio (x) = 0.19328 0.28433
# Poissons Ratio (y) = 0.20953 -0.02487
# Poissons Ratio (z) = 0.28256 -0.02280
#
# Static dielectric constant tensor:
#      x y z
#    x 1.778140 0.000000 0.000000 
#    y 0.000000 1.905860 0.000000 
#    z 0.000000 0.000000 1.856870 
# 
# From -- ./inp_files/30480.got.cif
#   From: 2010.05.17/outbox.cif.g08.bks.cpg/sg20_16_cif.got.tgz:30480.got - 2010.06.03 22:52:26.
