data_PCOD9318936
_publ_section_title
;
Structure prediction by ZEFSAII (Michael W. Deem and Ramdas Pophale) SiO2 
 PCOD9318936
Probable space group: C 2 2 21
;
_chemical_formula_sum "Si O2"
_cell_formula_units_Z 40
_cell_length_a 29.706741
_cell_length_b 5.070212
_cell_length_c 11.783380
_cell_angle_alpha 90.000000
_cell_angle_beta 90.000000
_cell_angle_gamma 90.000000
_cell_volume 1774.806506
_symmetry_space_group_name_H-M "C 2 2 21"
_symmetry_group_IT_number 20
_symmetry_cell_setting 'orthorhombic'
loop_
_space_group_symop_operation_xyz
x,y,z
-x,-y,1/2+z
x,-y,-z
-x,y,1/2-z
1/2+x,1/2+y,z
1/2-x,1/2-y,1/2+z
1/2+x,1/2-y,-z
1/2-x,1/2+y,1/2-z
loop_
_atom_site_type_symbol
_atom_site_label
_atom_site_fract_x
_atom_site_fract_y
_atom_site_fract_z
Si Si1 0.840078 0.819233 0.102540
Si Si2 0.223939 0.805860 0.218485
Si Si3 0.500229 0.000000 0.500000
Si Si4 0.927581 0.596589 0.200809
Si Si5 0.955736 0.109383 0.328141
Si Si6 0.742431 0.000000 0.500000
O O1 0.820899 0.918130 0.222766
O O2 0.881567 0.637662 0.133329
O O3 0.793363 0.696386 0.057340
O O4 0.855862 0.000000 0.000000
O O5 0.235867 0.500325 0.239265
O O6 0.226121 0.847873 0.085638
O O7 0.532271 0.095704 0.394703
O O8 0.471184 0.242309 0.554578
O O9 0.924474 0.321016 0.265052
O O10 0.935992 0.820399 0.297703
O O11 0.000000 0.111963 0.250000
#
# Coordination Sequence:
#
# PCOD9318936 Si02
#       6
#     8   8   4   8   8   4
#     4  11  23  38  63  96 126 161 207 275 318 370
#     4  10  21  38  59  89 125 161 206 250 307 387
#     4  10  23  46  68  90 134 182 214 276 328 396
#     4  11  25  38  64  97 126 159 221 270 323 379
#     4  10  23  41  61  93 126 169 215 261 323 397
#     4  10  21  40  64  90 126 172 208 250 322 384
#
# _framework density 22.537666000000002
#
# number of rings (size 3 to 8) (size 9 to 14) (size 15 to 20)
#    0.000    1.600    2.000    2.400    8.400    4.000 
#    0.000    2.000    0.000    0.000    0.000    0.000 
#    0.000    0.000    0.000    0.000    0.000    0.000 
#
# Total GULP energy -111396.906658 kJ/mol
# GULP energy per Si atom -5569.845333 kJ/mol
# Density = 2.248637 g / cm^3
# Si number density = 22.537666 Si / 1000 Ang^3
#
#
#
# Elastic Constant Matrix: (Units=GPa)
#
#
# Indices 1 2 3 4 5 6 
#
# 1 48.0239 13.1407 37.4073 0.0000 0.0000 0.0000
# 2 13.1407 91.2264 16.2542 0.0000 0.0000 0.0000
# 3 37.4073 16.2542 77.7063 0.0000 0.0000 0.0000
# 4 0.0000 0.0000 0.0000 28.9397 0.0000 0.0000
# 5 0.0000 0.0000 0.0000 0.0000 -17.3740 0.0000
# 6 0.0000 0.0000 0.0000 0.0000 0.0000 31.7218
#
#
#
# Elastic Compliance Matrix: (Units=1/GPa)
#
#
# Indices 1 2 3 4 5 6 
#
# 1 0.033676 -0.002038 -0.015785 0.000000 0.000000 0.000000
# 2 -0.002038 0.011509 -0.001426 0.000000 0.000000 0.000000
# 3 -0.015785 -0.001426 0.020766 0.000000 0.000000 0.000000
# 4 0.000000 0.000000 0.000000 0.034555 0.000000 0.000000
# 5 0.000000 0.000000 0.000000 0.000000 -0.057557 0.000000
# 6 0.000000 0.000000 0.000000 0.000000 0.000000 0.031524
#
#
# Mechanical properties :
#
#
# Convention : Reuss Voigt Hill
#
# Bulk Modulus (GPa) = 36.42671 38.95122 37.68896
# Shear Modulus (GPa) = 40.94210 18.66779 29.80495
#
# Velocity S-wave (km/s) = 4.26679 2.88113 3.64050
# Velocity P-wave (km/s) = 6.36174 5.32805 5.86770
#
# Compressibility (1/GPa) = 0.02745238
#
# Stress axis : x y z
#
# Youngs Moduli (GPa) = 29.69451 86.88488 48.15523
#
# Poissons Ratio (x) = 0.17710 0.76014
# Poissons Ratio (y) = 0.06053 0.06868
# Poissons Ratio (z) = 0.46873 0.12392
#
# Static dielectric constant tensor:
#      x y z
#    x 1.811620 0.000000 0.000000 
#    y 0.000000 1.897290 0.000000 
#    z 0.000000 0.000000 2.097540 
# 
# From -- ./inp_files/12197.got.cif
#   From: 2010.05.17/outbox.cif.g08.bks.cpg/sg20_7_cif.got.tgz:12197.got - 2010.06.03 22:52:26.
