data_PCOD9318681
_publ_section_title
;
Structure prediction by ZEFSAII (Michael W. Deem and Ramdas Pophale) SiO2 
 PCOD9318681
Probable space group: C 2 2 21
;
_chemical_formula_sum "Si O2"
_cell_formula_units_Z 60
_cell_length_a 27.999474
_cell_length_b 12.507217
_cell_length_c 9.342345
_cell_angle_alpha 90.000000
_cell_angle_beta 90.000000
_cell_angle_gamma 90.000000
_cell_volume 3271.647152
_symmetry_space_group_name_H-M "C 2 2 21"
_symmetry_group_IT_number 20
_symmetry_cell_setting 'orthorhombic'
loop_
_space_group_symop_operation_xyz
x,y,z
-x,-y,1/2+z
x,-y,-z
-x,y,1/2-z
1/2+x,1/2+y,z
1/2-x,1/2-y,1/2+z
1/2+x,1/2-y,-z
1/2-x,1/2+y,1/2-z
loop_
_atom_site_type_symbol
_atom_site_label
_atom_site_fract_x
_atom_site_fract_y
_atom_site_fract_z
Si Si1 0.825242 0.901001 0.655347
Si Si2 0.532236 0.074229 0.113087
Si Si3 0.354035 0.777069 0.823607
Si Si4 0.911687 0.000000 0.500000
Si Si5 0.950413 0.800170 0.334421
Si Si6 0.325781 0.804484 0.149334
Si Si7 0.715967 0.627964 0.846893
Si Si8 0.861891 0.498411 0.664266
O O1 0.827061 0.809730 0.772198
O O2 0.808464 0.854558 0.502007
O O3 0.876793 0.951663 0.621609
O O4 0.790955 0.002015 0.687549
O O5 0.500000 0.086941 0.250000
O O6 0.544860 0.194308 0.066389
O O7 0.580937 0.014040 0.152527
O O8 0.506169 0.000000 0.000000
O O9 0.405186 0.729444 0.768980
O O10 0.312904 0.697050 0.768549
O O11 0.345880 0.891195 0.746168
O O12 0.349780 0.795005 0.993294
O O13 0.939994 0.095986 0.572314
O O14 0.000000 0.814941 0.250000
O O15 0.270537 0.839184 0.137945
O O16 0.349234 0.895687 0.248535
O O17 0.843524 0.500000 0.500000
#
# Coordination Sequence:
#
# PCOD9318681 Si02
#       8
#     8   8   8   4   8   8   8   8
#     4  10  22  41  65  84 126 172 203 252 320 381
#     4   9  20  37  63  87 122 155 201 248 318 373
#     4  11  22  41  62  91 130 157 205 271 310 365
#     4  10  20  44  68  82 128 172 216 246 324 384
#     4  10  21  42  66  92 122 172 209 266 318 372
#     4  12  25  36  63  96 124 159 216 260 308 371
#     4  10  22  41  62  84 122 168 204 252 313 378
#     4  10  23  38  60  87 121 162 203 247 308 381
#
# _framework density 18.339383999999999
#
# number of rings (size 3 to 8) (size 9 to 14) (size 15 to 20)
#    0.000    1.867    2.667    2.000    9.333    3.733 
#    2.400    0.667    0.000    0.000    0.000    0.000 
#    0.000    0.000    0.000    0.000    0.000    0.000 
#
# Total GULP energy -167370.997827 kJ/mol
# GULP energy per Si atom -5579.033261 kJ/mol
# Density = 1.829764 g / cm^3
# Si number density = 18.339384 Si / 1000 Ang^3
#
#
#
# Elastic Constant Matrix: (Units=GPa)
#
#
# Indices 1 2 3 4 5 6 
#
# 1 63.1469 41.5655 16.1786 0.0000 0.0000 0.0000
# 2 41.5655 140.5479 88.6137 0.0000 0.0000 0.0000
# 3 16.1786 88.6137 119.8113 0.0000 0.0000 0.0000
# 4 0.0000 0.0000 0.0000 31.2099 0.0000 0.0000
# 5 0.0000 0.0000 0.0000 0.0000 12.6686 0.0000
# 6 0.0000 0.0000 0.0000 0.0000 0.0000 29.1895
#
#
#
# Elastic Compliance Matrix: (Units=1/GPa)
#
#
# Indices 1 2 3 4 5 6 
#
# 1 0.020292 -0.008007 0.003182 0.000000 0.000000 0.000000
# 2 -0.008007 0.016492 -0.011116 0.000000 0.000000 0.000000
# 3 0.003182 -0.011116 0.016138 0.000000 0.000000 0.000000
# 4 0.000000 0.000000 0.000000 0.032041 0.000000 0.000000
# 5 0.000000 0.000000 0.000000 0.000000 0.078935 0.000000
# 6 0.000000 0.000000 0.000000 0.000000 0.000000 0.034259
#
#
# Mechanical properties :
#
#
# Convention : Reuss Voigt Hill
#
# Bulk Modulus (GPa) = 47.53060 68.46910 57.99985
# Shear Modulus (GPa) = 21.09236 26.42347 23.75792
#
# Velocity S-wave (km/s) = 3.39501 3.79991 3.60315
# Velocity P-wave (km/s) = 6.42974 7.52781 7.00034
#
# Compressibility (1/GPa) = 0.02103908
#
# Stress axis : x y z
#
# Youngs Moduli (GPa) = 49.28165 60.63648 61.96414
#
# Poissons Ratio (x) = 0.48554 -0.19719
# Poissons Ratio (y) = 0.39462 0.68880
# Poissons Ratio (z) = -0.15683 0.67405
#
# Static dielectric constant tensor:
#      x y z
#    x 1.637630 0.000000 0.000000 
#    y 0.000000 1.663230 0.000000 
#    z 0.000000 0.000000 1.638800 
# 
# From -- ./inp_files/11592.got.cif
#   From: 2010.05.17/outbox.cif.g08.bks.cpg/sg20_6_cif.got.tgz:11592.got - 2010.06.03 22:52:26.
