data_PCOD9318073
_publ_section_title
;
Structure prediction by ZEFSAII (Michael W. Deem and Ramdas Pophale) SiO2 
 PCOD9318073
Probable space group: C 2 2 21
;
_chemical_formula_sum "Si O2"
_cell_formula_units_Z 36
_cell_length_a 21.374571
_cell_length_b 7.204772
_cell_length_c 12.015046
_cell_angle_alpha 90.000000
_cell_angle_beta 90.000000
_cell_angle_gamma 90.000000
_cell_volume 1850.303995
_symmetry_space_group_name_H-M "C 2 2 21"
_symmetry_group_IT_number 20
_symmetry_cell_setting 'orthorhombic'
loop_
_space_group_symop_operation_xyz
x,y,z
-x,-y,1/2+z
x,-y,-z
-x,y,1/2-z
1/2+x,1/2+y,z
1/2-x,1/2-y,1/2+z
1/2+x,1/2-y,-z
1/2-x,1/2+y,1/2-z
loop_
_atom_site_type_symbol
_atom_site_label
_atom_site_fract_x
_atom_site_fract_y
_atom_site_fract_z
Si Si1 0.109640 0.485759 0.130897
Si Si2 0.693719 0.069631 0.326351
Si Si3 0.825794 0.182323 0.252168
Si Si4 0.607998 0.376712 0.390953
Si Si5 0.000000 0.699093 0.250000
O O1 0.164192 0.591222 0.200911
O O2 0.120560 0.275088 0.171934
O O3 0.045362 0.570855 0.175697
O O4 0.115818 0.500000 0.000000
O O5 0.764054 0.141434 0.323667
O O6 0.648126 0.187442 0.404665
O O7 0.690503 0.847010 0.335716
O O8 0.849939 0.002134 0.190770
O O9 0.597660 0.500000 0.500000
O O10 0.544025 0.320380 0.330030
#
# Coordination Sequence:
#
# PCOD9318073 Si02
#       5
#     8   8   8   8   4
#     4   9  21  40  62  86 124 161 204 250 303 355
#     4   9  20  38  62  94 123 154 199 252 297 375
#     4  10  20  37  67  88 126 158 191 256 306 357
#     4  11  23  41  62  90 122 163 209 247 305 361
#     4  10  24  42  58  88 126 156 220 256 282 368
#
# _framework density 19.456261999999999
#
# number of rings (size 3 to 8) (size 9 to 14) (size 15 to 20)
#    1.333    0.889    2.222    0.000    0.000    8.889 
#    0.000    3.333    0.000    0.000    0.000    0.000 
#    0.000    0.000    0.000    0.000    0.000    0.000 
#
# Total GULP energy -100242.657597 kJ/mol
# GULP energy per Si atom -5569.036533 kJ/mol
# Density = 1.941198 g / cm^3
# Si number density = 19.456262 Si / 1000 Ang^3
#
#
#
# Elastic Constant Matrix: (Units=GPa)
#
#
# Indices 1 2 3 4 5 6 
#
# 1 97.4900 15.8153 11.4899 0.0000 0.0000 0.0000
# 2 15.8153 57.7894 -11.2755 0.0000 0.0000 0.0000
# 3 11.4899 -11.2755 70.7561 0.0000 0.0000 0.0000
# 4 0.0000 0.0000 0.0000 25.2217 0.0000 0.0000
# 5 0.0000 0.0000 0.0000 0.0000 5.5080 0.0000
# 6 0.0000 0.0000 0.0000 0.0000 0.0000 36.9968
#
#
#
# Elastic Compliance Matrix: (Units=1/GPa)
#
#
# Indices 1 2 3 4 5 6 
#
# 1 0.011103 -0.003499 -0.002361 0.000000 0.000000 0.000000
# 2 -0.003499 0.018962 0.003590 0.000000 0.000000 0.000000
# 3 -0.002361 0.003590 0.015088 0.000000 0.000000 0.000000
# 4 0.000000 0.000000 0.000000 0.039648 0.000000 0.000000
# 5 0.000000 0.000000 0.000000 0.000000 0.181555 0.000000
# 6 0.000000 0.000000 0.000000 0.000000 0.000000 0.027029
#
#
# Mechanical properties :
#
#
# Convention : Reuss Voigt Hill
#
# Bulk Modulus (GPa) = 24.62186 28.67722 26.64954
# Shear Modulus (GPa) = 16.05317 27.54568 21.79943
#
# Velocity S-wave (km/s) = 2.87555 3.76676 3.35092
# Velocity P-wave (km/s) = 4.86904 5.80425 5.35709
#
# Compressibility (1/GPa) = 0.04061432
#
# Stress axis : x y z
#
# Youngs Moduli (GPa) = 90.06281 52.73610 66.27567
#
# Poissons Ratio (x) = 0.18454 0.15646
# Poissons Ratio (y) = 0.31516 -0.23793
# Poissons Ratio (z) = 0.21261 -0.18932
#
# Static dielectric constant tensor:
#      x y z
#    x 1.673520 0.000000 0.000000 
#    y 0.000000 1.709370 0.000000 
#    z 0.000000 0.000000 1.676760 
# 
# From -- ./inp_files/16132.got.cif
#   From: 2010.05.17/outbox.cif.g08.bks.cpg/sg20_9_cif.got.tgz:16132.got - 2010.06.03 22:52:26.
