data_PCOD9318838
_publ_section_title
;
Structure prediction by ZEFSAII (Michael W. Deem and Ramdas Pophale) SiO2 
 PCOD9318838
Probable space group: C 2 2 21
;
_chemical_formula_sum "Si O2"
_cell_formula_units_Z 64
_cell_length_a 21.009015
_cell_length_b 11.812158
_cell_length_c 11.581943
_cell_angle_alpha 90.000000
_cell_angle_beta 90.000000
_cell_angle_gamma 90.000000
_cell_volume 2874.195876
_symmetry_space_group_name_H-M "C 2 2 21"
_symmetry_group_IT_number 20
_symmetry_cell_setting 'orthorhombic'
loop_
_space_group_symop_operation_xyz
x,y,z
-x,-y,1/2+z
x,-y,-z
-x,y,1/2-z
1/2+x,1/2+y,z
1/2-x,1/2-y,1/2+z
1/2+x,1/2-y,-z
1/2-x,1/2+y,1/2-z
loop_
_atom_site_type_symbol
_atom_site_label
_atom_site_fract_x
_atom_site_fract_y
_atom_site_fract_z
Si Si1 0.749688 0.764659 0.913958
Si Si2 0.466517 0.381104 0.433980
Si Si3 0.901363 0.155616 0.802616
Si Si4 0.361077 0.080909 0.887265
Si Si5 0.831394 0.625478 0.214489
Si Si6 0.353935 0.424206 0.838367
Si Si7 0.469075 0.733425 0.125539
Si Si8 0.800640 0.896872 0.588912
O O1 0.797451 0.659775 0.881834
O O2 0.699641 0.807594 0.819980
O O3 0.800020 0.867215 0.916565
O O4 0.708180 0.720173 0.020311
O O5 0.456665 0.500000 0.500000
O O6 0.533383 0.375860 0.365998
O O7 0.415183 0.356039 0.334544
O O8 0.476107 0.286068 0.531378
O O9 0.877309 0.279158 0.838322
O O10 0.851921 0.058951 0.837454
O O11 0.421496 0.162860 0.893171
O O12 0.365739 0.995112 0.778196
O O13 0.362624 0.000000 0.000000
O O14 0.769972 0.589271 0.140596
O O15 0.422017 0.375973 0.876741
O O16 0.344036 0.390585 0.702880
O O17 0.500000 0.739984 0.250000
O O18 0.814395 0.000000 0.500000
#
# Coordination Sequence:
#
# PCOD9318838 Si02
#       8
#     8   8   8   8   8   8   8   8
#     4  10  21  36  64  92 124 165 211 250 317 390
#     4  11  23  41  65  95 130 164 220 275 331 392
#     4  11  24  39  63 101 126 163 216 278 330 382
#     4  11  21  43  67  87 122 173 218 258 316 388
#     4  11  22  36  64  92 127 158 212 261 313 383
#     4  10  23  38  64  97 128 165 214 269 329 387
#     4  11  24  44  68  92 128 174 217 268 332 391
#     4  11  20  38  64  92 125 173 214 251 323 394
#
# _framework density 22.267098000000001
#
# number of rings (size 3 to 8) (size 9 to 14) (size 15 to 20)
#    0.000    1.250    3.750    2.250    3.500    3.500 
#    4.500    0.000    0.000    1.500    0.000    0.000 
#    0.000    0.000    0.000    0.000    0.000    0.000 
#
# Total GULP energy -178695.928721 kJ/mol
# GULP energy per Si atom -5584.247773 kJ/mol
# Density = 2.221642 g / cm^3
# Si number density = 22.267098 Si / 1000 Ang^3
#
#
#
# Elastic Constant Matrix: (Units=GPa)
#
#
# Indices 1 2 3 4 5 6 
#
# 1 56.0741 30.2773 18.3689 0.0000 0.0000 0.0000
# 2 30.2773 128.0746 30.8123 0.0000 0.0000 0.0000
# 3 18.3689 30.8123 107.5482 0.0000 0.0000 0.0000
# 4 0.0000 0.0000 0.0000 33.8733 0.0000 0.0000
# 5 0.0000 0.0000 0.0000 0.0000 35.2553 0.0000
# 6 0.0000 0.0000 0.0000 0.0000 0.0000 9.6991
#
#
#
# Elastic Compliance Matrix: (Units=1/GPa)
#
#
# Indices 1 2 3 4 5 6 
#
# 1 0.020969 -0.004399 -0.002321 0.000000 0.000000 0.000000
# 2 -0.004399 0.009309 -0.001916 0.000000 0.000000 0.000000
# 3 -0.002321 -0.001916 0.010243 0.000000 0.000000 0.000000
# 4 0.000000 0.000000 0.000000 0.029522 0.000000 0.000000
# 5 0.000000 0.000000 0.000000 0.000000 0.028365 0.000000
# 6 0.000000 0.000000 0.000000 0.000000 0.000000 0.103103
#
#
# Mechanical properties :
#
#
# Convention : Reuss Voigt Hill
#
# Bulk Modulus (GPa) = 43.01072 50.06822 46.53947
# Shear Modulus (GPa) = 22.07201 29.91476 25.99338
#
# Velocity S-wave (km/s) = 3.15181 3.66929 3.42035
# Velocity P-wave (km/s) = 5.70990 6.36284 6.04519
#
# Compressibility (1/GPa) = 0.02325002
#
# Stress axis : x y z
#
# Youngs Moduli (GPa) = 47.68936 107.42656 97.62349
#
# Poissons Ratio (x) = 0.47254 0.22661
# Poissons Ratio (y) = 0.20977 0.18701
# Poissons Ratio (z) = 0.11070 0.20579
#
# Static dielectric constant tensor:
#      x y z
#    x 1.849510 0.000000 0.000000 
#    y 0.000000 1.850770 0.000000 
#    z 0.000000 0.000000 1.931180 
# 
# From -- ./inp_files/16787.got.cif
#   From: 2010.05.17/outbox.cif.g08.bks.cpg/sg20_9_cif.got.tgz:16787.got - 2010.06.03 22:52:26.
