data_PCOD9318419
_publ_section_title
;
Structure prediction by ZEFSAII (Michael W. Deem and Ramdas Pophale) SiO2 
 PCOD9318419
Probable space group: C 2 2 21
;
_chemical_formula_sum "Si O2"
_cell_formula_units_Z 28
_cell_length_a 12.293750
_cell_length_b 7.374086
_cell_length_c 13.915387
_cell_angle_alpha 90.000000
_cell_angle_beta 90.000000
_cell_angle_gamma 90.000000
_cell_volume 1261.501771
_symmetry_space_group_name_H-M "C 2 2 21"
_symmetry_group_IT_number 20
_symmetry_cell_setting 'orthorhombic'
loop_
_space_group_symop_operation_xyz
x,y,z
-x,-y,1/2+z
x,-y,-z
-x,y,1/2-z
1/2+x,1/2+y,z
1/2-x,1/2-y,1/2+z
1/2+x,1/2-y,-z
1/2-x,1/2+y,1/2-z
loop_
_atom_site_type_symbol
_atom_site_label
_atom_site_fract_x
_atom_site_fract_y
_atom_site_fract_z
Si Si1 0.329106 0.441293 0.107824
Si Si2 0.425365 0.489099 0.389002
Si Si3 0.500000 0.809545 0.250000
Si Si4 0.272586 0.193507 0.776713
O O1 0.456394 0.391250 0.110758
O O2 0.301981 0.618461 0.171821
O O3 0.261994 0.290681 0.164870
O O4 0.300383 0.500000 0.000000
O O5 0.392478 0.500000 0.500000
O O6 0.459552 0.677048 0.336344
O O7 0.330893 0.388472 0.331369
O O8 0.610654 0.910755 0.279357
#
# Coordination Sequence:
#
# PCOD9318419 Si02
#       4
#     8   8   4   8
#     4  10  23  40  65  94 124 166 216 260 314 379
#     4  10  20  40  65  86 120 171 206 255 320 372
#     4  10  22  40  56  92 130 154 208 266 306 380
#     4  11  20  41  62  87 129 162 204 263 315 368
#
# _framework density 22.195768999999999
#
# number of rings (size 3 to 8) (size 9 to 14) (size 15 to 20)
#    0.000    1.714    5.714    0.000    4.000    0.000 
#    5.143    1.429    0.000    0.000    0.000    0.000 
#    0.000    0.000    0.000    0.000    0.000    0.000 
#
# Total GULP energy -78018.779281 kJ/mol
# GULP energy per Si atom -5572.769949 kJ/mol
# Density = 2.214525 g / cm^3
# Si number density = 22.195769 Si / 1000 Ang^3
#
#
#
# Elastic Constant Matrix: (Units=GPa)
#
#
# Indices 1 2 3 4 5 6 
#
# 1 103.9293 18.7940 60.8222 0.0000 0.0000 0.0000
# 2 18.7940 30.1838 23.5119 0.0000 0.0000 0.0000
# 3 60.8222 23.5119 180.4093 0.0000 0.0000 0.0000
# 4 0.0000 0.0000 0.0000 25.7364 0.0000 0.0000
# 5 0.0000 0.0000 0.0000 0.0000 30.7424 0.0000
# 6 0.0000 0.0000 0.0000 0.0000 0.0000 33.7332
#
#
#
# Elastic Compliance Matrix: (Units=1/GPa)
#
#
# Indices 1 2 3 4 5 6 
#
# 1 0.012647 -0.005068 -0.003603 0.000000 0.000000 0.000000
# 2 -0.005068 0.038905 -0.003362 0.000000 0.000000 0.000000
# 3 -0.003603 -0.003362 0.007196 0.000000 0.000000 0.000000
# 4 0.000000 0.000000 0.000000 0.038855 0.000000 0.000000
# 5 0.000000 0.000000 0.000000 0.000000 0.032528 0.000000
# 6 0.000000 0.000000 0.000000 0.000000 0.000000 0.029644
#
#
# Mechanical properties :
#
#
# Convention : Reuss Voigt Hill
#
# Bulk Modulus (GPa) = 28.83364 57.86429 43.34897
# Shear Modulus (GPa) = 25.58825 32.13535 28.86180
#
# Velocity S-wave (km/s) = 3.39904 3.80914 3.60992
# Velocity P-wave (km/s) = 5.33136 6.74334 6.07849
#
# Compressibility (1/GPa) = 0.03468171
#
# Stress axis : x y z
#
# Youngs Moduli (GPa) = 79.06929 25.70395 138.96879
#
# Poissons Ratio (x) = 0.13027 0.50075
# Poissons Ratio (y) = 0.40072 0.46717
# Poissons Ratio (z) = 0.28491 0.08641
#
# Static dielectric constant tensor:
#      x y z
#    x 1.887180 0.000000 0.000000 
#    y 0.000000 1.927390 0.000000 
#    z 0.000000 0.000000 1.840260 
# 
# From -- ./inp_files/18101.got.cif
#   From: 2010.05.17/outbox.cif.g08.bks.cpg/sg20_10_cif.got.tgz:18101.got - 2010.06.03 22:52:26.
