data_PCOD9318818
_publ_section_title
;
Structure prediction by ZEFSAII (Michael W. Deem and Ramdas Pophale) SiO2 
 PCOD9318818
Probable space group: C 2 2 21
;
_chemical_formula_sum "Si O2"
_cell_formula_units_Z 40
_cell_length_a 32.588399
_cell_length_b 12.404440
_cell_length_c 5.028654
_cell_angle_alpha 90.000000
_cell_angle_beta 90.000000
_cell_angle_gamma 90.000000
_cell_volume 2032.787317
_symmetry_space_group_name_H-M "C 2 2 21"
_symmetry_group_IT_number 20
_symmetry_cell_setting 'orthorhombic'
loop_
_space_group_symop_operation_xyz
x,y,z
-x,-y,1/2+z
x,-y,-z
-x,y,1/2-z
1/2+x,1/2+y,z
1/2-x,1/2-y,1/2+z
1/2+x,1/2-y,-z
1/2-x,1/2+y,1/2-z
loop_
_atom_site_type_symbol
_atom_site_label
_atom_site_fract_x
_atom_site_fract_y
_atom_site_fract_z
Si Si1 0.859271 0.375813 0.581573
Si Si2 0.970233 0.877429 0.000599
Si Si3 0.331499 0.568502 0.257189
Si Si4 0.608398 0.238477 0.595395
Si Si5 0.276583 0.261953 0.472483
O O1 0.856388 0.500000 0.500000
O O2 0.873807 0.343746 0.876391
O O3 0.814955 0.319331 0.541814
O O4 0.891206 0.320926 0.377780
O O5 0.934442 0.790076 0.990249
O O6 0.000000 0.865820 0.250000
O O7 0.000000 0.867793 0.750000
O O8 0.952574 0.000000 0.000000
O O9 0.351654 0.500000 0.500000
O O10 0.294080 0.627903 0.403777
O O11 0.319441 0.500000 0.000000
O O12 0.361069 0.660773 0.141216
O O13 0.257347 0.277433 0.182637
#
# Coordination Sequence:
#
# PCOD9318818 Si02
#       5
#     8   8   8   8   8
#     4  11  24  42  63  85 113 161 210 247 292 344
#     4  10  21  36  60  94 126 155 185 229 299 365
#     4  11  22  37  58  86 116 152 192 235 298 360
#     4  11  22  40  63  87 120 154 197 246 285 354
#     4  11  23  39  57  84 116 148 194 247 298 351
#
# _framework density 19.677416000000001
#
# number of rings (size 3 to 8) (size 9 to 14) (size 15 to 20)
#    0.000    1.200    0.000    8.400    0.000    4.800 
#    0.000    2.000    0.000   12.000    0.000    0.000 
#    0.000    0.000    0.000    0.000    0.000    0.000 
#
# Total GULP energy -111775.765036 kJ/mol
# GULP energy per Si atom -5588.788252 kJ/mol
# Density = 1.963263 g / cm^3
# Si number density = 19.677416 Si / 1000 Ang^3
#
#
#
# Elastic Constant Matrix: (Units=GPa)
#
#
# Indices 1 2 3 4 5 6 
#
# 1 51.9514 8.3799 1.4796 0.0000 0.0000 0.0000
# 2 8.3799 54.2597 -1.9194 0.0000 0.0000 0.0000
# 3 1.4796 -1.9194 101.8871 0.0000 0.0000 0.0000
# 4 0.0000 0.0000 0.0000 41.2985 0.0000 0.0000
# 5 0.0000 0.0000 0.0000 0.0000 15.7860 0.0000
# 6 0.0000 0.0000 0.0000 0.0000 0.0000 14.1882
#
#
#
# Elastic Compliance Matrix: (Units=1/GPa)
#
#
# Indices 1 2 3 4 5 6 
#
# 1 0.019753 -0.003063 -0.000345 0.000000 0.000000 0.000000
# 2 -0.003063 0.018917 0.000401 0.000000 0.000000 0.000000
# 3 -0.000345 0.000401 0.009827 0.000000 0.000000 0.000000
# 4 0.000000 0.000000 0.000000 0.024214 0.000000 0.000000
# 5 0.000000 0.000000 0.000000 0.000000 0.063347 0.000000
# 6 0.000000 0.000000 0.000000 0.000000 0.000000 0.070481
#
#
# Mechanical properties :
#
#
# Convention : Reuss Voigt Hill
#
# Bulk Modulus (GPa) = 23.53824 24.88648 24.21236
# Shear Modulus (GPa) = 22.05425 27.59841 24.82633
#
# Velocity S-wave (km/s) = 3.35145 3.74912 3.55585
# Velocity P-wave (km/s) = 5.19272 5.60498 5.40279
#
# Compressibility (1/GPa) = 0.04248406
#
# Stress axis : x y z
#
# Youngs Moduli (GPa) = 50.62621 52.86232 101.75692
#
# Poissons Ratio (x) = 0.16191 0.03506
# Poissons Ratio (y) = 0.15506 -0.04079
# Poissons Ratio (z) = 0.01744 -0.02119
#
# Static dielectric constant tensor:
#      x y z
#    x 1.667530 0.000000 0.000000 
#    y 0.000000 1.719120 0.000000 
#    z 0.000000 0.000000 1.672540 
# 
# From -- ./inp_files/4579.got.cif
#   From: 2010.05.17/outbox.cif.g08.bks.cpg/sg20_3_cif.got.tgz:4579.got - 2010.06.03 22:52:26.
