data_PCOD9318194
_publ_section_title
;
Structure prediction by ZEFSAII (Michael W. Deem and Ramdas Pophale) SiO2 
 PCOD9318194
Probable space group: C 2 2 21
;
_chemical_formula_sum "Si O2"
_cell_formula_units_Z 60
_cell_length_a 23.570243
_cell_length_b 13.739811
_cell_length_c 8.456332
_cell_angle_alpha 90.000000
_cell_angle_beta 90.000000
_cell_angle_gamma 90.000000
_cell_volume 2738.588903
_symmetry_space_group_name_H-M "C 2 2 21"
_symmetry_group_IT_number 20
_symmetry_cell_setting 'orthorhombic'
loop_
_space_group_symop_operation_xyz
x,y,z
-x,-y,1/2+z
x,-y,-z
-x,y,1/2-z
1/2+x,1/2+y,z
1/2-x,1/2-y,1/2+z
1/2+x,1/2-y,-z
1/2-x,1/2+y,1/2-z
loop_
_atom_site_type_symbol
_atom_site_label
_atom_site_fract_x
_atom_site_fract_y
_atom_site_fract_z
Si Si1 0.332941 0.753667 0.345210
Si Si2 0.898706 0.927528 0.263909
Si Si3 0.808783 0.000000 0.000000
Si Si4 0.488810 0.206424 0.925823
Si Si5 0.226176 0.220942 0.468796
Si Si6 0.428382 0.381818 0.614944
Si Si7 0.386993 0.222582 0.133305
Si Si8 0.591844 0.891060 0.942934
O O1 0.286027 0.735009 0.479817
O O2 0.294109 0.769411 0.193684
O O3 0.379893 0.675754 0.290469
O O4 0.371793 0.834328 0.425428
O O5 0.894039 0.899296 0.450077
O O6 0.915769 0.824419 0.190218
O O7 0.939541 0.019918 0.289905
O O8 0.848312 0.969202 0.151322
O O9 0.774595 0.898861 0.961725
O O10 0.500000 0.167482 0.750000
O O11 0.517094 0.315043 0.919705
O O12 0.424796 0.195914 0.982187
O O13 0.527761 0.147442 0.045904
O O14 0.177081 0.250930 0.591214
O O15 0.387786 0.141954 0.270075
O O16 0.594602 0.000000 0.000000
#
# Coordination Sequence:
#
# PCOD9318194 Si02
#       8
#     8   8   4   8   8   8   8   8
#     4  11  22  43  66  95 133 170 219 276 328 390
#     4  10  20  38  63  93 129 172 209 258 322 396
#     4  10  22  36  64  98 130 170 218 262 322 394
#     4  11  24  42  64  95 134 172 215 275 327 394
#     4  11  24  41  68  95 135 176 215 270 336 392
#     4  10  21  41  60  93 133 170 215 258 331 391
#     4  11  22  44  66  94 133 172 219 269 335 394
#     4  11  25  45  70  96 123 172 230 283 332 385
#
# _framework density 21.909094
#
# number of rings (size 3 to 8) (size 9 to 14) (size 15 to 20)
#    0.000    1.333    4.000    2.800    4.667    1.067 
#    4.800    2.000    0.000    0.000    0.000    0.000 
#    0.000    0.000    0.000    0.000    0.000    0.000 
#
# Total GULP energy -167166.165053 kJ/mol
# GULP energy per Si atom -5572.205502 kJ/mol
# Density = 2.185923 g / cm^3
# Si number density = 21.909094 Si / 1000 Ang^3
#
#
#
# Elastic Constant Matrix: (Units=GPa)
#
#
# Indices 1 2 3 4 5 6 
#
# 1 69.3642 31.2136 -6.8503 0.0000 0.0000 0.0000
# 2 31.2136 68.7142 12.2892 0.0000 0.0000 0.0000
# 3 -6.8503 12.2892 54.3626 0.0000 0.0000 0.0000
# 4 0.0000 0.0000 0.0000 15.3749 0.0000 0.0000
# 5 0.0000 0.0000 0.0000 0.0000 33.6843 0.0000
# 6 0.0000 0.0000 0.0000 0.0000 0.0000 -7.4113
#
#
#
# Elastic Compliance Matrix: (Units=1/GPa)
#
#
# Indices 1 2 3 4 5 6 
#
# 1 0.019149 -0.009515 0.004564 0.000000 0.000000 0.000000
# 2 -0.009515 0.019894 -0.005696 0.000000 0.000000 0.000000
# 3 0.004564 -0.005696 0.020258 0.000000 0.000000 0.000000
# 4 0.000000 0.000000 0.000000 0.065041 0.000000 0.000000
# 5 0.000000 0.000000 0.000000 0.000000 0.029687 0.000000
# 6 0.000000 0.000000 0.000000 0.000000 0.000000 -0.134929
#
#
# Mechanical properties :
#
#
# Convention : Reuss Voigt Hill
#
# Bulk Modulus (GPa) = 26.31119 29.52733 27.91926
# Shear Modulus (GPa) = 94.22782 18.71548 56.47165
#
# Velocity S-wave (km/s) = 6.56520 2.92590 5.08246
# Velocity P-wave (km/s) = 8.33694 4.99209 6.87115
#
# Compressibility (1/GPa) = 0.03800664
#
# Stress axis : x y z
#
# Youngs Moduli (GPa) = 52.22212 50.26678 49.36375
#
# Poissons Ratio (x) = 0.47827 -0.22529
# Poissons Ratio (y) = 0.49688 0.28118
# Poissons Ratio (z) = -0.23834 0.28633
#
# Static dielectric constant tensor:
#      x y z
#    x 1.784050 0.000000 0.000000 
#    y 0.000000 1.886400 0.000000 
#    z 0.000000 0.000000 1.864250 
# 
# From -- ./inp_files/10785.got.cif
#   From: 2010.05.17/outbox.cif.g08.bks.cpg/sg20_6_cif.got.tgz:10785.got - 2010.06.03 22:52:26.
