data_PCOD9318122
_publ_section_title
;
Structure prediction by ZEFSAII (Michael W. Deem and Ramdas Pophale) SiO2 
 PCOD9318122
Probable space group: C 2 2 21
;
_chemical_formula_sum "Si O2"
_cell_formula_units_Z 24
_cell_length_a 17.928350
_cell_length_b 5.191439
_cell_length_c 11.384687
_cell_angle_alpha 90.000000
_cell_angle_beta 90.000000
_cell_angle_gamma 90.000000
_cell_volume 1059.617622
_symmetry_space_group_name_H-M "C 2 2 21"
_symmetry_group_IT_number 20
_symmetry_cell_setting 'orthorhombic'
loop_
_space_group_symop_operation_xyz
x,y,z
-x,-y,1/2+z
x,-y,-z
-x,y,1/2-z
1/2+x,1/2+y,z
1/2-x,1/2-y,1/2+z
1/2+x,1/2-y,-z
1/2-x,1/2+y,1/2-z
loop_
_atom_site_type_symbol
_atom_site_label
_atom_site_fract_x
_atom_site_fract_y
_atom_site_fract_z
Si Si1 0.915093 0.388218 0.784687
Si Si2 0.690536 0.347076 0.110678
Si Si3 0.838906 0.105978 0.153057
O O1 0.866781 0.356162 0.665205
O O2 0.899070 0.668267 0.835320
O O3 0.000000 0.342888 0.750000
O O4 0.881179 0.163479 0.868728
O O5 0.769418 0.217553 0.081589
O O6 0.698765 0.548922 0.218507
O O7 0.660751 0.500000 0.000000
#
# Coordination Sequence:
#
# PCOD9318122 Si02
#       3
#     8   8   8
#     4  10  20  38  60  82 122 156 189 248 301 344
#     4  10  21  39  63  90 117 163 201 246 298 353
#     4  10  20  39  58  88 115 155 199 248 285 351
#
# _framework density 22.649678000000002
#
# number of rings (size 3 to 8) (size 9 to 14) (size 15 to 20)
#    2.000    0.000    3.333    1.000    0.000    1.333 
#    0.000    3.333    0.000    0.000    0.000    0.000 
#    0.000    0.000    0.000    0.000    0.000    0.000 
#
# Total GULP energy -66940.746937 kJ/mol
# GULP energy per Si atom -5578.395578 kJ/mol
# Density = 2.259813 g / cm^3
# Si number density = 22.649678 Si / 1000 Ang^3
#
#
#
# Elastic Constant Matrix: (Units=GPa)
#
#
# Indices 1 2 3 4 5 6 
#
# 1 131.8885 24.5390 -12.2683 0.0000 0.0000 0.0000
# 2 24.5390 141.9530 11.6564 0.0000 0.0000 0.0000
# 3 -12.2683 11.6564 27.6303 0.0000 0.0000 0.0000
# 4 0.0000 0.0000 0.0000 20.7202 0.0000 0.0000
# 5 0.0000 0.0000 0.0000 0.0000 7.2184 0.0000
# 6 0.0000 0.0000 0.0000 0.0000 0.0000 27.5203
#
#
#
# Elastic Compliance Matrix: (Units=1/GPa)
#
#
# Indices 1 2 3 4 5 6 
#
# 1 0.008333 -0.001807 0.004463 0.000000 0.000000 0.000000
# 2 -0.001807 0.007689 -0.004046 0.000000 0.000000 0.000000
# 3 0.004463 -0.004046 0.039881 0.000000 0.000000 0.000000
# 4 0.000000 0.000000 0.000000 0.048262 0.000000 0.000000
# 5 0.000000 0.000000 0.000000 0.000000 0.138534 0.000000
# 6 0.000000 0.000000 0.000000 0.000000 0.000000 0.036337
#
#
# Mechanical properties :
#
#
# Convention : Reuss Voigt Hill
#
# Bulk Modulus (GPa) = 18.82463 38.81400 28.81932
# Shear Modulus (GPa) = 16.69310 29.59476 23.14393
#
# Velocity S-wave (km/s) = 2.71774 3.61866 3.20006
# Velocity P-wave (km/s) = 4.26350 5.88502 5.13862
#
# Compressibility (1/GPa) = 0.05312190
#
# Stress axis : x y z
#
# Youngs Moduli (GPa) = 119.99787 130.05238 25.07485
#
# Poissons Ratio (x) = 0.23501 -0.11190
# Poissons Ratio (y) = 0.21684 0.10146
# Poissons Ratio (z) = -0.53549 0.52622
#
# Static dielectric constant tensor:
#      x y z
#    x 1.767410 0.000000 0.000000 
#    y 0.000000 1.864710 0.000000 
#    z 0.000000 0.000000 1.965740 
# 
# From -- ./inp_files/11763.got.cif
#   From: 2010.05.17/outbox.cif.g08.bks.cpg/sg20_6_cif.got.tgz:11763.got - 2010.06.03 22:52:26.
