data_PCOD9319957
_publ_section_title
;
Structure prediction by ZEFSAII (Michael W. Deem and Ramdas Pophale) SiO2 
 PCOD9319957
Probable space group: C 2 2 21
;
_chemical_formula_sum "Si O2"
_cell_formula_units_Z 32
_cell_length_a 22.172148
_cell_length_b 12.103327
_cell_length_c 4.993754
_cell_angle_alpha 90.000000
_cell_angle_beta 90.000000
_cell_angle_gamma 90.000000
_cell_volume 1340.107631
_symmetry_space_group_name_H-M "C 2 2 21"
_symmetry_group_IT_number 20
_symmetry_cell_setting 'orthorhombic'
loop_
_space_group_symop_operation_xyz
x,y,z
-x,-y,1/2+z
x,-y,-z
-x,y,1/2-z
1/2+x,1/2+y,z
1/2-x,1/2-y,1/2+z
1/2+x,1/2-y,-z
1/2-x,1/2+y,1/2-z
loop_
_atom_site_type_symbol
_atom_site_label
_atom_site_fract_x
_atom_site_fract_y
_atom_site_fract_z
Si Si1 0.765560 0.578359 0.243611
Si Si2 0.138333 0.115349 0.325551
Si Si3 0.565580 0.685432 0.808244
Si Si4 0.597766 0.078699 0.252128
O O1 0.769807 0.500000 0.500000
O O2 0.707364 0.655185 0.286268
O O3 0.832909 0.618951 0.188906
O O4 0.746226 0.500000 0.000000
O O5 0.099713 0.186735 0.526687
O O6 0.140122 0.000000 0.500000
O O7 0.103371 0.124676 0.041908
O O8 0.500000 0.634610 0.750000
O O9 0.561080 0.816163 0.857279
O O10 0.577874 0.000000 0.500000
O O11 0.601555 0.000000 0.000000
#
# Coordination Sequence:
#
# PCOD9319957 Si02
#       4
#     8   8   8   8
#     4   9  18  36  62  91 120 154 200 250 313 378
#     4  11  23  42  64  89 125 164 204 262 313 359
#     4  12  26  41  62  93 124 166 219 249 297 381
#     4  10  22  41  65  93 126 160 199 259 318 368
#
# _framework density 23.878679000000002
#
# number of rings (size 3 to 8) (size 9 to 14) (size 15 to 20)
#    0.000    1.500    0.000    6.000    0.000    5.000 
#    0.000    1.250    0.000    0.000    0.000    0.000 
#    0.000    0.000    0.000    0.000    0.000    0.000 
#
# Total GULP energy -89218.559672 kJ/mol
# GULP energy per Si atom -5576.159980 kJ/mol
# Density = 2.382433 g / cm^3
# Si number density = 23.878679 Si / 1000 Ang^3
#
#
#
# Elastic Constant Matrix: (Units=GPa)
#
#
# Indices 1 2 3 4 5 6 
#
# 1 73.5804 15.7942 -1.2749 0.0000 0.0000 0.0000
# 2 15.7942 38.8302 1.6850 0.0000 0.0000 0.0000
# 3 -1.2749 1.6850 135.8396 0.0000 0.0000 0.0000
# 4 0.0000 0.0000 0.0000 31.3959 0.0000 0.0000
# 5 0.0000 0.0000 0.0000 0.0000 187.9769 0.0000
# 6 0.0000 0.0000 0.0000 0.0000 0.0000 9.2411
#
#
#
# Elastic Compliance Matrix: (Units=1/GPa)
#
#
# Indices 1 2 3 4 5 6 
#
# 1 0.014897 -0.006069 0.000215 0.000000 0.000000 0.000000
# 2 -0.006069 0.028239 -0.000407 0.000000 0.000000 0.000000
# 3 0.000215 -0.000407 0.007369 0.000000 0.000000 0.000000
# 4 0.000000 0.000000 0.000000 0.031851 0.000000 0.000000
# 5 0.000000 0.000000 0.000000 0.000000 0.005320 0.000000
# 6 0.000000 0.000000 0.000000 0.000000 0.000000 0.108213
#
#
# Mechanical properties :
#
#
# Convention : Reuss Voigt Hill
#
# Bulk Modulus (GPa) = 26.32739 31.18431 28.75585
# Shear Modulus (GPa) = 22.61714 61.19249 41.90482
#
# Velocity S-wave (km/s) = 3.08095 5.06775 4.19370
# Velocity P-wave (km/s) = 4.86886 6.87972 5.95971
#
# Compressibility (1/GPa) = 0.03798325
#
# Stress axis : x y z
#
# Youngs Moduli (GPa) = 67.12787 35.41171 135.70925
#
# Poissons Ratio (x) = 0.21490 -0.02919
# Poissons Ratio (y) = 0.40738 0.05527
# Poissons Ratio (z) = -0.01444 0.01442
#
# Static dielectric constant tensor:
#      x y z
#    x 2.027880 0.000000 0.000000 
#    y 0.000000 1.115600 0.000000 
#    z 0.000000 0.000000 1.824980 
# 
# From -- ./inp_files/2982.got.cif
#   From: 2010.05.17/outbox.cif.g08.bks.cpg/sg20_2_cif.got.tgz:2982.got - 2010.06.03 22:52:26.
