data_PCOD9319917
_publ_section_title
;
Structure prediction by ZEFSAII (Michael W. Deem and Ramdas Pophale) SiO2 
 PCOD9319917
Probable space group: C 2 2 21
;
_chemical_formula_sum "Si O2"
_cell_formula_units_Z 32
_cell_length_a 29.687625
_cell_length_b 9.254928
_cell_length_c 4.961733
_cell_angle_alpha 90.000000
_cell_angle_beta 90.000000
_cell_angle_gamma 90.000000
_cell_volume 1363.270040
_symmetry_space_group_name_H-M "C 2 2 21"
_symmetry_group_IT_number 20
_symmetry_cell_setting 'orthorhombic'
loop_
_space_group_symop_operation_xyz
x,y,z
-x,-y,1/2+z
x,-y,-z
-x,y,1/2-z
1/2+x,1/2+y,z
1/2-x,1/2-y,1/2+z
1/2+x,1/2-y,-z
1/2-x,1/2+y,1/2-z
loop_
_atom_site_type_symbol
_atom_site_label
_atom_site_fract_x
_atom_site_fract_y
_atom_site_fract_z
Si Si1 0.720967 0.730382 0.248347
Si Si2 0.000000 0.108009 0.750000
Si Si3 0.864724 0.598401 0.759246
Si Si4 0.838168 0.000000 0.000000
Si Si5 0.905247 0.840468 0.384389
O O1 0.763369 0.740835 0.446268
O O2 0.684724 0.848545 0.341416
O O3 0.694598 0.580618 0.291153
O O4 0.045470 0.201243 0.777582
O O5 0.007859 0.000000 0.500000
O O6 0.859374 0.500000 0.500000
O O7 0.890280 0.264649 0.375269
O O8 0.884626 0.500000 0.000000
O O9 0.868289 0.878346 0.154245
O O10 0.912552 0.000000 0.500000
#
# Coordination Sequence:
#
# PCOD9319917 Si02
#       5
#     8   4   8   4   8
#     4  12  28  45  67  98 142 194 257 316 367 438
#     4  10  22  40  76 116 148 180 244 324 374 452
#     4  12  27  47  70 104 151 204 245 306 385 461
#     4  12  24  46  72 104 144 200 262 320 370 450
#     4  11  23  46  76 112 150 192 254 311 388 451
#
# _framework density 23.472974000000001
#
# number of rings (size 3 to 8) (size 9 to 14) (size 15 to 20)
#    0.000    0.500    3.750    4.500    5.250    0.000 
#    0.000    0.000    0.000   10.500    0.000    3.500 
#    0.000    0.000    0.000    0.000    0.000    0.000 
#
# Total GULP energy -89471.146806 kJ/mol
# GULP energy per Si atom -5591.946675 kJ/mol
# Density = 2.341955 g / cm^3
# Si number density = 23.472974 Si / 1000 Ang^3
#
#
#
# Elastic Constant Matrix: (Units=GPa)
#
#
# Indices 1 2 3 4 5 6 
#
# 1 123.7556 45.0718 40.4020 0.0000 0.0000 0.0000
# 2 45.0718 108.7387 40.1376 0.0000 0.0000 0.0000
# 3 40.4020 40.1376 133.3127 0.0000 0.0000 0.0000
# 4 0.0000 0.0000 0.0000 48.7308 0.0000 0.0000
# 5 0.0000 0.0000 0.0000 0.0000 33.7385 0.0000
# 6 0.0000 0.0000 0.0000 0.0000 0.0000 40.5835
#
#
#
# Elastic Compliance Matrix: (Units=1/GPa)
#
#
# Indices 1 2 3 4 5 6 
#
# 1 0.009969 -0.003394 -0.001999 0.000000 0.000000 0.000000
# 2 -0.003394 0.011502 -0.002434 0.000000 0.000000 0.000000
# 3 -0.001999 -0.002434 0.008840 0.000000 0.000000 0.000000
# 4 0.000000 0.000000 0.000000 0.020521 0.000000 0.000000
# 5 0.000000 0.000000 0.000000 0.000000 0.029640 0.000000
# 6 0.000000 0.000000 0.000000 0.000000 0.000000 0.024641
#
#
# Mechanical properties :
#
#
# Convention : Reuss Voigt Hill
#
# Bulk Modulus (GPa) = 68.23458 68.55887 68.39673
# Shear Modulus (GPa) = 39.79203 40.62361 40.20782
#
# Velocity S-wave (km/s) = 4.12178 4.16463 4.14326
# Velocity P-wave (km/s) = 7.19615 7.23854 7.21738
#
# Compressibility (1/GPa) = 0.01465533
#
# Stress axis : x y z
#
# Youngs Moduli (GPa) = 100.30734 86.94288 113.12200
#
# Poissons Ratio (x) = 0.29511 0.22618
# Poissons Ratio (y) = 0.34047 0.27537
# Poissons Ratio (z) = 0.20055 0.21164
#
# Static dielectric constant tensor:
#      x y z
#    x 1.952750 0.000000 0.000000 
#    y 0.000000 1.814570 0.000000 
#    z 0.000000 0.000000 1.855690 
# 
# From -- ./inp_files/4472.got.cif
#   From: 2010.05.17/outbox.cif.g08.bks.cpg/sg20_3_cif.got.tgz:4472.got - 2010.06.03 22:52:26.
