data_PCOD9319301
_publ_section_title
;
Structure prediction by ZEFSAII (Michael W. Deem and Ramdas Pophale) SiO2 
 PCOD9319301
Probable space group: C 2 2 21
;
_chemical_formula_sum "Si O2"
_cell_formula_units_Z 32
_cell_length_a 16.368433
_cell_length_b 17.133987
_cell_length_c 5.149723
_cell_angle_alpha 90.000000
_cell_angle_beta 90.000000
_cell_angle_gamma 90.000000
_cell_volume 1444.273382
_symmetry_space_group_name_H-M "C 2 2 21"
_symmetry_group_IT_number 20
_symmetry_cell_setting 'orthorhombic'
loop_
_space_group_symop_operation_xyz
x,y,z
-x,-y,1/2+z
x,-y,-z
-x,y,1/2-z
1/2+x,1/2+y,z
1/2-x,1/2-y,1/2+z
1/2+x,1/2-y,-z
1/2-x,1/2+y,1/2-z
loop_
_atom_site_type_symbol
_atom_site_label
_atom_site_fract_x
_atom_site_fract_y
_atom_site_fract_z
Si Si1 0.000000 0.444541 0.250000
Si Si2 0.942950 0.827813 0.996750
Si Si3 0.819020 0.556019 0.750179
Si Si4 0.277957 0.287869 0.208521
Si Si5 0.443612 0.500000 0.000000
O O1 0.910596 0.405559 0.249718
O O2 0.000018 0.500000 0.500000
O O3 0.000000 0.809957 0.750000
O O4 0.865022 0.777139 0.067649
O O5 0.000000 0.826837 0.250000
O O6 0.904740 0.915432 0.958585
O O7 0.811804 0.500000 0.500000
O O8 0.752241 0.623730 0.749000
O O9 0.811313 0.500000 0.000000
O O10 0.281107 0.250240 0.493113
O O11 0.500000 0.490573 0.250000
#
# Coordination Sequence:
#
# PCOD9319301 Si02
#       5
#     4   8   8   8   4
#     4   8  16  34  62  92 122 152 214 274 318 388
#     4  10  21  41  64  91 128 173 218 271 331 404
#     4  10  21  41  68  97 126 173 222 274 336 394
#     4  12  26  44  63 100 140 174 224 284 335 400
#     4   8  16  32  58  90 114 152 212 264 308 368
#
# _framework density 22.156472000000001
#
# number of rings (size 3 to 8) (size 9 to 14) (size 15 to 20)
#    0.000    2.000    0.000    3.000    1.750    0.000 
#   15.750    0.000    0.000    0.000    0.000    0.000 
#    0.000    0.000    0.000    0.000    0.000    0.000 
#
# Total GULP energy -89221.727170 kJ/mol
# GULP energy per Si atom -5576.357948 kJ/mol
# Density = 2.210604 g / cm^3
# Si number density = 22.156472 Si / 1000 Ang^3
#
#
#
# Elastic Constant Matrix: (Units=GPa)
#
#
# Indices 1 2 3 4 5 6 
#
# 1 86.9167 18.0000 22.2743 0.0000 0.0000 0.0000
# 2 18.0000 45.3608 28.8203 0.0000 0.0000 0.0000
# 3 22.2743 28.8203 173.0029 0.0000 0.0000 0.0000
# 4 0.0000 0.0000 0.0000 23.7150 0.0000 0.0000
# 5 0.0000 0.0000 0.0000 0.0000 30.0050 0.0000
# 6 0.0000 0.0000 0.0000 0.0000 0.0000 4.8109
#
#
#
# Elastic Compliance Matrix: (Units=1/GPa)
#
#
# Indices 1 2 3 4 5 6 
#
# 1 0.012656 -0.004459 -0.000887 0.000000 0.000000 0.000000
# 2 -0.004459 0.026226 -0.003795 0.000000 0.000000 0.000000
# 3 -0.000887 -0.003795 0.006527 0.000000 0.000000 0.000000
# 4 0.000000 0.000000 0.000000 0.042167 0.000000 0.000000
# 5 0.000000 0.000000 0.000000 0.000000 0.033328 0.000000
# 6 0.000000 0.000000 0.000000 0.000000 0.000000 0.207861
#
#
# Mechanical properties :
#
#
# Convention : Reuss Voigt Hill
#
# Bulk Modulus (GPa) = 36.86259 49.27443 43.06851
# Shear Modulus (GPa) = 14.04148 27.45189 20.74669
#
# Velocity S-wave (km/s) = 2.52015 3.52376 3.06334
# Velocity P-wave (km/s) = 5.01415 6.23245 5.65620
#
# Compressibility (1/GPa) = 0.02712777
#
# Stress axis : x y z
#
# Youngs Moduli (GPa) = 79.01462 38.13031 153.21931
#
# Poissons Ratio (x) = 0.17001 0.13586
# Poissons Ratio (y) = 0.35230 0.58145
# Poissons Ratio (z) = 0.07006 0.14470
#
# Static dielectric constant tensor:
#      x y z
#    x 1.914720 0.000000 0.000000 
#    y 0.000000 1.920820 0.000000 
#    z 0.000000 0.000000 1.764890 
# 
# From -- ./inp_files/1604.got.cif
#   From: 2010.05.17/outbox.cif.g08.bks.cpg/sg20_1_cif.got.tgz:1604.got - 2010.06.03 22:52:26.
