data_PCOD9319936
_publ_section_title
;
Structure prediction by ZEFSAII (Michael W. Deem and Ramdas Pophale) SiO2 
 PCOD9319936
Probable space group: C 2 2 21
;
_chemical_formula_sum "Si O2"
_cell_formula_units_Z 40
_cell_length_a 28.142892
_cell_length_b 8.637269
_cell_length_c 8.434799
_cell_angle_alpha 90.000000
_cell_angle_beta 90.000000
_cell_angle_gamma 90.000000
_cell_volume 2050.311782
_symmetry_space_group_name_H-M "C 2 2 21"
_symmetry_group_IT_number 20
_symmetry_cell_setting 'orthorhombic'
loop_
_space_group_symop_operation_xyz
x,y,z
-x,-y,1/2+z
x,-y,-z
-x,y,1/2-z
1/2+x,1/2+y,z
1/2-x,1/2-y,1/2+z
1/2+x,1/2-y,-z
1/2-x,1/2+y,1/2-z
loop_
_atom_site_type_symbol
_atom_site_label
_atom_site_fract_x
_atom_site_fract_y
_atom_site_fract_z
Si Si1 0.615425 0.347560 0.936003
Si Si2 0.449451 0.929317 0.328855
Si Si3 0.727378 0.927370 0.336351
Si Si4 0.190006 0.076582 0.340271
Si Si5 0.641687 0.905458 0.834302
O O1 0.578824 0.229437 0.856636
O O2 0.653596 0.394987 0.803546
O O3 0.590472 0.500000 0.000000
O O4 0.639471 0.265096 0.090623
O O5 0.500000 0.911676 0.250000
O O6 0.459603 0.000000 0.500000
O O7 0.409174 0.045885 0.259414
O O8 0.712868 0.748730 0.360583
O O9 0.744873 0.000000 0.500000
O O10 0.768594 0.956888 0.209573
O O11 0.682866 0.032571 0.278223
O O12 0.168706 0.000000 0.500000
O O13 0.647146 0.000000 0.000000
#
# Coordination Sequence:
#
# PCOD9319936 Si02
#       5
#     8   8   8   8   8
#     4  10  22  41  63  90 125 169 207 260 320 381
#     4   9  19  41  67  92 118 157 204 257 312 378
#     4  12  25  39  61  93 127 171 216 266 314 381
#     4  12  26  41  60  92 132 172 216 264 317 376
#     4   9  19  41  64  85 124 165 211 255 310 374
#
# _framework density 19.509226999999999
#
# number of rings (size 3 to 8) (size 9 to 14) (size 15 to 20)
#    0.000    2.000    4.000    2.400    8.400    0.800 
#    0.000    5.000    0.000    0.000    0.000    0.000 
#    0.000    0.000    0.000    0.000    0.000    0.000 
#
# Total GULP energy -111490.608064 kJ/mol
# GULP energy per Si atom -5574.530403 kJ/mol
# Density = 1.946482 g / cm^3
# Si number density = 19.509227 Si / 1000 Ang^3
#
#
#
# Elastic Constant Matrix: (Units=GPa)
#
#
# Indices 1 2 3 4 5 6 
#
# 1 106.8052 33.8411 34.7431 0.0000 0.0000 0.0000
# 2 33.8411 115.3054 38.2729 0.0000 0.0000 0.0000
# 3 34.7431 38.2729 41.8197 0.0000 0.0000 0.0000
# 4 0.0000 0.0000 0.0000 29.9642 0.0000 0.0000
# 5 0.0000 0.0000 0.0000 0.0000 36.3191 0.0000
# 6 0.0000 0.0000 0.0000 0.0000 0.0000 7.5826
#
#
#
# Elastic Compliance Matrix: (Units=1/GPa)
#
#
# Indices 1 2 3 4 5 6 
#
# 1 0.012839 -0.000327 -0.010367 0.000000 0.000000 0.000000
# 2 -0.000327 0.012465 -0.011136 0.000000 0.000000 0.000000
# 3 -0.010367 -0.011136 0.042717 0.000000 0.000000 0.000000
# 4 0.000000 0.000000 0.000000 0.033373 0.000000 0.000000
# 5 0.000000 0.000000 0.000000 0.000000 0.027534 0.000000
# 6 0.000000 0.000000 0.000000 0.000000 0.000000 0.131881
#
#
# Mechanical properties :
#
#
# Convention : Reuss Voigt Hill
#
# Bulk Modulus (GPa) = 41.05075 53.07160 47.06118
# Shear Modulus (GPa) = 15.99549 25.24472 20.62010
#
# Velocity S-wave (km/s) = 2.86648 3.60111 3.25459
# Velocity P-wave (km/s) = 5.66066 6.67481 6.18854
#
# Compressibility (1/GPa) = 0.02436009
#
# Stress axis : x y z
#
# Youngs Moduli (GPa) = 77.88922 80.22477 23.41012
#
# Poissons Ratio (x) = 0.02623 0.24269
# Poissons Ratio (y) = 0.02547 0.26070
# Poissons Ratio (z) = 0.80747 0.89340
#
# Static dielectric constant tensor:
#      x y z
#    x 1.704360 0.000000 0.000000 
#    y 0.000000 1.762920 0.000000 
#    z 0.000000 0.000000 1.719660 
# 
# From -- ./inp_files/10962.got.cif
#   From: 2010.05.17/outbox.cif.g08.bks.cpg/sg20_6_cif.got.tgz:10962.got - 2010.06.03 22:52:26.
