data_PCOD9319412
_publ_section_title
;
Structure prediction by ZEFSAII (Michael W. Deem and Ramdas Pophale) SiO2 
 PCOD9319412
Probable space group: C 2 2 21
;
_chemical_formula_sum "Si O2"
_cell_formula_units_Z 52
_cell_length_a 19.704594
_cell_length_b 14.707030
_cell_length_c 7.287206
_cell_angle_alpha 90.000000
_cell_angle_beta 90.000000
_cell_angle_gamma 90.000000
_cell_volume 2111.803551
_symmetry_space_group_name_H-M "C 2 2 21"
_symmetry_group_IT_number 20
_symmetry_cell_setting 'orthorhombic'
loop_
_space_group_symop_operation_xyz
x,y,z
-x,-y,1/2+z
x,-y,-z
-x,y,1/2-z
1/2+x,1/2+y,z
1/2-x,1/2-y,1/2+z
1/2+x,1/2-y,-z
1/2-x,1/2+y,1/2-z
loop_
_atom_site_type_symbol
_atom_site_label
_atom_site_fract_x
_atom_site_fract_y
_atom_site_fract_z
Si Si1 0.105026 0.152514 0.053197
Si Si2 0.328531 0.117471 0.818819
Si Si3 0.716684 0.500000 0.000000
Si Si4 0.075781 0.473274 0.787541
Si Si5 0.116955 0.000000 0.500000
Si Si6 0.329033 0.180609 0.391162
Si Si7 0.500000 0.447076 0.750000
Si Si8 0.674838 0.691131 0.402429
O O1 0.164759 0.078269 0.058482
O O2 0.030770 0.109015 0.075167
O O3 0.114669 0.196696 0.253464
O O4 0.127281 0.226058 0.902481
O O5 0.321502 0.150344 0.606808
O O6 0.325362 0.202547 0.958969
O O7 0.397923 0.059888 0.826749
O O8 0.266958 0.048136 0.856963
O O9 0.129950 0.393643 0.780111
O O10 0.000000 0.443719 0.750000
O O11 0.076830 0.500000 0.000000
O O12 0.158936 0.905021 0.497577
O O13 0.065946 0.998774 0.674175
O O14 0.251613 0.186535 0.327276
#
# Coordination Sequence:
#
# PCOD9319412 Si02
#       8
#     8   8   4   8   4   8   4   8
#     4  10  22  39  66  91 136 175 216 272 336 407
#     4  10  23  39  66  99 130 172 221 277 338 399
#     4  12  21  38  66  99 134 166 220 290 324 393
#     4  10  23  44  68  94 135 178 219 273 334 401
#     4  10  23  40  72  91 140 174 222 276 330 407
#     4  10  21  43  67  97 128 172 226 277 335 400
#     4  10  22  44  64  96 130 190 218 260 348 398
#     4  10  21  42  66  98 122 173 218 272 340 386
#
# _framework density 24.623501999999998
#
# number of rings (size 3 to 8) (size 9 to 14) (size 15 to 20)
#    0.000    1.846    1.538    1.385    8.615    0.000 
#   22.154    0.000   10.154    0.000    0.000    0.000 
#    0.000    0.000    0.000    0.000    0.000    0.000 
#
# Total GULP energy -145062.920214 kJ/mol
# GULP energy per Si atom -5579.343085 kJ/mol
# Density = 2.456746 g / cm^3
# Si number density = 24.623502 Si / 1000 Ang^3
#
#
#
# Elastic Constant Matrix: (Units=GPa)
#
#
# Indices 1 2 3 4 5 6 
#
# 1 139.3454 72.1590 20.8581 0.0000 0.0000 0.0000
# 2 72.1590 175.7302 34.5736 0.0000 0.0000 0.0000
# 3 20.8581 34.5736 35.8407 0.0000 0.0000 0.0000
# 4 0.0000 0.0000 0.0000 36.1457 0.0000 0.0000
# 5 0.0000 0.0000 0.0000 0.0000 34.2335 0.0000
# 6 0.0000 0.0000 0.0000 0.0000 0.0000 28.8570
#
#
#
# Elastic Compliance Matrix: (Units=1/GPa)
#
#
# Indices 1 2 3 4 5 6 
#
# 1 0.009243 -0.003378 -0.002120 0.000000 0.000000 0.000000
# 2 -0.003378 0.008258 -0.006000 0.000000 0.000000 0.000000
# 3 -0.002120 -0.006000 0.034923 0.000000 0.000000 0.000000
# 4 0.000000 0.000000 0.000000 0.027666 0.000000 0.000000
# 5 0.000000 0.000000 0.000000 0.000000 0.029211 0.000000
# 6 0.000000 0.000000 0.000000 0.000000 0.000000 0.034654
#
#
# Mechanical properties :
#
#
# Convention : Reuss Voigt Hill
#
# Bulk Modulus (GPa) = 33.98241 67.34417 50.66329
# Shear Modulus (GPa) = 28.28658 34.73561 31.51110
#
# Velocity S-wave (km/s) = 3.39302 3.75996 3.58119
# Velocity P-wave (km/s) = 5.40193 6.80137 6.14164
#
# Compressibility (1/GPa) = 0.02942699
#
# Stress axis : x y z
#
# Youngs Moduli (GPa) = 108.18708 121.09082 28.63417
#
# Poissons Ratio (x) = 0.40909 0.06071
# Poissons Ratio (y) = 0.36549 0.17181
# Poissons Ratio (z) = 0.22940 0.72657
#
# Static dielectric constant tensor:
#      x y z
#    x 1.918510 0.000000 0.000000 
#    y 0.000000 2.113250 0.000000 
#    z 0.000000 0.000000 2.127280 
# 
# From -- ./inp_files/10162.got.cif
#   From: 2010.05.17/outbox.cif.g08.bks.cpg/sg20_6_cif.got.tgz:10162.got - 2010.06.03 22:52:26.
