data_PCOD9319097
_publ_section_title
;
Structure prediction by ZEFSAII (Michael W. Deem and Ramdas Pophale) SiO2 
 PCOD9319097
Probable space group: C 2 2 21
;
_chemical_formula_sum "Si O2"
_cell_formula_units_Z 40
_cell_length_a 30.567655
_cell_length_b 12.975792
_cell_length_c 4.982114
_cell_angle_alpha 90.000000
_cell_angle_beta 90.000000
_cell_angle_gamma 90.000000
_cell_volume 1976.103371
_symmetry_space_group_name_H-M "C 2 2 21"
_symmetry_group_IT_number 20
_symmetry_cell_setting 'orthorhombic'
loop_
_space_group_symop_operation_xyz
x,y,z
-x,-y,1/2+z
x,-y,-z
-x,y,1/2-z
1/2+x,1/2+y,z
1/2-x,1/2-y,1/2+z
1/2+x,1/2-y,-z
1/2-x,1/2+y,1/2-z
loop_
_atom_site_type_symbol
_atom_site_label
_atom_site_fract_x
_atom_site_fract_y
_atom_site_fract_z
Si Si1 0.159814 0.384348 0.507453
Si Si2 0.837749 0.069938 0.246707
Si Si3 0.250112 0.680506 0.282171
Si Si4 0.376764 0.772438 0.488333
Si Si5 0.468204 0.118846 0.501529
O O1 0.141255 0.500000 0.500000
O O2 0.209570 0.386768 0.613875
O O3 0.152749 0.342426 0.209543
O O4 0.137082 0.302689 0.709056
O O5 0.791904 0.122237 0.162274
O O6 0.868811 0.158317 0.372078
O O7 0.826363 0.000000 0.500000
O O8 0.854531 0.000000 0.000000
O O9 0.265035 0.742415 0.547656
O O10 0.426949 0.807139 0.472828
O O11 0.500000 0.135591 0.250000
O O12 0.451838 0.000000 0.500000
O O13 0.500000 0.130423 0.750000
#
# Coordination Sequence:
#
# PCOD9319097 Si02
#       5
#     8   8   8   8   8
#     4  12  23  38  62  93 127 170 209 268 330 385
#     4  12  25  42  64  88 125 178 227 271 321 378
#     4  12  22  41  60  86 128 172 219 273 322 378
#     4  12  24  42  64  94 131 163 219 270 321 396
#     4  10  21  39  65  97 130 163 196 248 331 415
#
# _framework density 20.241855000000001
#
# number of rings (size 3 to 8) (size 9 to 14) (size 15 to 20)
#    0.000    0.400    4.000    6.000    0.000    3.200 
#    0.000    0.000    0.000    2.400    0.000    0.000 
#    0.000    0.000    0.000    0.000    0.000    0.000 
#
# Total GULP energy -111766.819030 kJ/mol
# GULP energy per Si atom -5588.340951 kJ/mol
# Density = 2.019578 g / cm^3
# Si number density = 20.241855 Si / 1000 Ang^3
#
#
#
# Elastic Constant Matrix: (Units=GPa)
#
#
# Indices 1 2 3 4 5 6 
#
# 1 100.2408 34.3351 5.6777 0.0000 0.0000 0.0000
# 2 34.3351 85.3359 14.0950 0.0000 0.0000 0.0000
# 3 5.6777 14.0950 105.7693 0.0000 0.0000 0.0000
# 4 0.0000 0.0000 0.0000 35.8329 0.0000 0.0000
# 5 0.0000 0.0000 0.0000 0.0000 41.4784 0.0000
# 6 0.0000 0.0000 0.0000 0.0000 0.0000 17.2535
#
#
#
# Elastic Compliance Matrix: (Units=1/GPa)
#
#
# Indices 1 2 3 4 5 6 
#
# 1 0.011571 -0.004655 -0.000001 0.000000 0.000000 0.000000
# 2 -0.004655 0.013855 -0.001596 0.000000 0.000000 0.000000
# 3 -0.000001 -0.001596 0.009667 0.000000 0.000000 0.000000
# 4 0.000000 0.000000 0.000000 0.027907 0.000000 0.000000
# 5 0.000000 0.000000 0.000000 0.000000 0.024109 0.000000
# 6 0.000000 0.000000 0.000000 0.000000 0.000000 0.057959
#
#
# Mechanical properties :
#
#
# Convention : Reuss Voigt Hill
#
# Bulk Modulus (GPa) = 44.27123 44.39572 44.33347
# Shear Modulus (GPa) = 30.28410 34.72884 32.50647
#
# Velocity S-wave (km/s) = 3.87216 4.14659 4.01172
# Velocity P-wave (km/s) = 6.47380 6.70118 6.58847
#
# Compressibility (1/GPa) = 0.02258803
#
# Stress axis : x y z
#
# Youngs Moduli (GPa) = 86.42602 72.17519 103.44118
#
# Poissons Ratio (x) = 0.33600 0.00008
# Poissons Ratio (y) = 0.40234 0.16514
# Poissons Ratio (z) = 0.00006 0.11523
#
# Static dielectric constant tensor:
#      x y z
#    x 1.699740 0.000000 0.000000 
#    y 0.000000 1.771820 0.000000 
#    z 0.000000 0.000000 1.691010 
# 
# From -- ./inp_files/4580.got.cif
#   From: 2010.05.17/outbox.cif.g08.bks.cpg/sg20_3_cif.got.tgz:4580.got - 2010.06.03 22:52:26.
