data_PCOD9319880
_publ_section_title
;
Structure prediction by ZEFSAII (Michael W. Deem and Ramdas Pophale) SiO2 
 PCOD9319880
Probable space group: C 2 2 21
;
_chemical_formula_sum "Si O2"
_cell_formula_units_Z 40
_cell_length_a 5.162424
_cell_length_b 18.133236
_cell_length_c 17.641701
_cell_angle_alpha 90.000000
_cell_angle_beta 90.000000
_cell_angle_gamma 90.000000
_cell_volume 1651.465259
_symmetry_space_group_name_H-M "C 2 2 21"
_symmetry_group_IT_number 20
_symmetry_cell_setting 'orthorhombic'
loop_
_space_group_symop_operation_xyz
x,y,z
-x,-y,1/2+z
x,-y,-z
-x,y,1/2-z
1/2+x,1/2+y,z
1/2-x,1/2-y,1/2+z
1/2+x,1/2-y,-z
1/2-x,1/2+y,1/2-z
loop_
_atom_site_type_symbol
_atom_site_label
_atom_site_fract_x
_atom_site_fract_y
_atom_site_fract_z
Si Si1 0.500000 0.424832 0.250000
Si Si2 0.566206 0.500000 0.500000
Si Si3 0.454057 0.769172 0.046746
Si Si4 0.642997 0.032331 0.150235
Si Si5 0.761253 0.696539 0.299516
Si Si6 0.775093 0.411839 0.106603
O O1 0.300604 0.477029 0.204632
O O2 0.639124 0.380778 0.182213
O O3 0.730155 0.467323 0.567929
O O4 0.405352 0.566384 0.537043
O O5 0.326637 0.730129 0.119919
O O6 0.481624 0.854271 0.074462
O O7 0.729567 0.738770 0.017661
O O8 0.647096 0.113448 0.181801
O O9 0.374649 0.991133 0.135512
O O10 0.500000 0.695770 0.250000
O O11 0.000000 0.728859 0.250000
#
# Coordination Sequence:
#
# PCOD9319880 Si02
#       6
#     4   4   8   8   8   8
#     4  10  22  40  68 100 138 176 236 302 362 434
#     4  10  24  40  72 104 144 184 246 312 372 442
#     4  12  30  51  75 109 156 204 255 313 382 465
#     4  11  23  43  69 108 141 185 248 305 374 437
#     4  12  27  48  78 110 153 203 252 314 386 459
#     4  11  25  42  73 103 144 190 246 307 376 440
#
# _framework density 24.220914
#
# number of rings (size 3 to 8) (size 9 to 14) (size 15 to 20)
#    0.000    0.800    1.000    4.800   15.400    1.600 
#    0.000    0.000    0.000    0.000    0.000    0.000 
#    0.000    0.000    0.000    0.000    0.000    0.000 
#
# Total GULP energy -111906.860511 kJ/mol
# GULP energy per Si atom -5595.343026 kJ/mol
# Density = 2.416579 g / cm^3
# Si number density = 24.220914 Si / 1000 Ang^3
#
#
#
# Elastic Constant Matrix: (Units=GPa)
#
#
# Indices 1 2 3 4 5 6 
#
# 1 64.8805 14.4866 25.9934 0.0000 0.0000 0.0000
# 2 14.4866 47.5496 16.7435 0.0000 0.0000 0.0000
# 3 25.9934 16.7435 151.1471 0.0000 0.0000 0.0000
# 4 0.0000 0.0000 0.0000 7.3256 0.0000 0.0000
# 5 0.0000 0.0000 0.0000 0.0000 51.6261 0.0000
# 6 0.0000 0.0000 0.0000 0.0000 0.0000 -41.7714
#
#
#
# Elastic Compliance Matrix: (Units=1/GPa)
#
#
# Indices 1 2 3 4 5 6 
#
# 1 0.017403 -0.004421 -0.002503 0.000000 0.000000 0.000000
# 2 -0.004421 0.023007 -0.001788 0.000000 0.000000 0.000000
# 3 -0.002503 -0.001788 0.007245 0.000000 0.000000 0.000000
# 4 0.000000 0.000000 0.000000 0.136508 0.000000 0.000000
# 5 0.000000 0.000000 0.000000 0.000000 0.019370 0.000000
# 6 0.000000 0.000000 0.000000 0.000000 0.000000 -0.023940
#
#
# Mechanical properties :
#
#
# Convention : Reuss Voigt Hill
#
# Bulk Modulus (GPa) = 33.07927 42.00269 37.54098
# Shear Modulus (GPa) = 24.14359 17.19298 20.66828
#
# Velocity S-wave (km/s) = 3.16065 2.66717 2.92434
# Velocity P-wave (km/s) = 5.19679 5.18307 5.18993
#
# Compressibility (1/GPa) = 0.03023042
#
# Stress axis : x y z
#
# Youngs Moduli (GPa) = 57.46193 43.46469 138.03266
#
# Poissons Ratio (x) = 0.19214 0.34552
# Poissons Ratio (y) = 0.25401 0.24686
# Poissons Ratio (z) = 0.14384 0.07773
#
# Static dielectric constant tensor:
#      x y z
#    x 1.970810 0.000000 0.000000 
#    y 0.000000 2.214140 0.000000 
#    z 0.000000 0.000000 1.993120 
# 
# From -- ./inp_files/22658.got.cif
#   From: 2010.05.17/outbox.cif.g08.bks.cpg/sg20_12_cif.got.tgz:22658.got - 2010.06.03 22:52:26.
