data_PCOD9319679
_publ_section_title
;
Structure prediction by ZEFSAII (Michael W. Deem and Ramdas Pophale) SiO2 
 PCOD9319679
Probable space group: C 2 2 21
;
_chemical_formula_sum "Si O2"
_cell_formula_units_Z 36
_cell_length_a 18.256847
_cell_length_b 6.891063
_cell_length_c 11.023906
_cell_angle_alpha 90.000000
_cell_angle_beta 90.000000
_cell_angle_gamma 90.000000
_cell_volume 1386.907503
_symmetry_space_group_name_H-M "C 2 2 21"
_symmetry_group_IT_number 20
_symmetry_cell_setting 'orthorhombic'
loop_
_space_group_symop_operation_xyz
x,y,z
-x,-y,1/2+z
x,-y,-z
-x,y,1/2-z
1/2+x,1/2+y,z
1/2-x,1/2-y,1/2+z
1/2+x,1/2-y,-z
1/2-x,1/2+y,1/2-z
loop_
_atom_site_type_symbol
_atom_site_label
_atom_site_fract_x
_atom_site_fract_y
_atom_site_fract_z
Si Si1 0.148163 0.537622 0.139282
Si Si2 0.723085 0.118833 0.378375
Si Si3 0.882583 0.998221 0.368964
Si Si4 0.589892 0.611350 0.621644
Si Si5 0.000000 0.559839 0.250000
O O1 0.200124 0.505625 0.255660
O O2 0.141336 0.772997 0.140976
O O3 0.066930 0.460231 0.177796
O O4 0.167943 0.500000 0.000000
O O5 0.673313 0.309423 0.387066
O O6 0.705184 0.000000 0.500000
O O7 0.810822 0.132688 0.376444
O O8 0.918690 0.026254 0.238936
O O9 0.920456 0.000000 0.500000
O O10 0.574172 0.500000 0.500000
O O11 0.539925 0.798995 0.651661
#
# Coordination Sequence:
#
# PCOD9319679 Si02
#       5
#     8   8   8   8   4
#     4  10  22  38  61  85 111 152 193 232 282 336
#     4   9  20  37  55  83 120 148 181 230 280 336
#     4   9  20  37  55  83 120 148 181 230 280 336
#     4  10  22  38  61  85 111 152 193 232 282 336
#     4   8  20  40  56  84 120 140 188 250 280 324
#
# _framework density 25.957028999999999
#
# number of rings (size 3 to 8) (size 9 to 14) (size 15 to 20)
#    0.000    3.111    0.000    0.000    0.000   24.000 
#    0.000    0.000    0.000    0.000    0.000    0.000 
#    0.000    0.000    0.000    0.000    0.000    0.000 
#
# Total GULP energy -100549.677415 kJ/mol
# GULP energy per Si atom -5586.093190 kJ/mol
# Density = 2.589795 g / cm^3
# Si number density = 25.957029 Si / 1000 Ang^3
#
#
#
# Elastic Constant Matrix: (Units=GPa)
#
#
# Indices 1 2 3 4 5 6 
#
# 1 166.8823 4.7820 56.2824 0.0000 0.0000 0.0000
# 2 4.7820 39.7335 26.0890 0.0000 0.0000 0.0000
# 3 56.2824 26.0890 302.9975 0.0000 0.0000 0.0000
# 4 0.0000 0.0000 0.0000 38.6590 0.0000 0.0000
# 5 0.0000 0.0000 0.0000 0.0000 -18.7551 0.0000
# 6 0.0000 0.0000 0.0000 0.0000 0.0000 20.8618
#
#
#
# Elastic Compliance Matrix: (Units=1/GPa)
#
#
# Indices 1 2 3 4 5 6 
#
# 1 0.006393 0.000011 -0.001188 0.000000 0.000000 0.000000
# 2 0.000011 0.026676 -0.002299 0.000000 0.000000 0.000000
# 3 -0.001188 -0.002299 0.003719 0.000000 0.000000 0.000000
# 4 0.000000 0.000000 0.000000 0.025867 0.000000 0.000000
# 5 0.000000 0.000000 0.000000 0.000000 -0.053319 0.000000
# 6 0.000000 0.000000 0.000000 0.000000 0.000000 0.047934
#
#
# Mechanical properties :
#
#
# Convention : Reuss Voigt Hill
#
# Bulk Modulus (GPa) = 33.51783 75.99112 54.75447
# Shear Modulus (GPa) = 67.41426 36.31714 51.86570
#
# Velocity S-wave (km/s) = 5.10175 3.74455 4.47490
# Velocity P-wave (km/s) = 6.90251 6.93071 6.91663
#
# Compressibility (1/GPa) = 0.02983487
#
# Stress axis : x y z
#
# Youngs Moduli (GPa) = 156.42763 37.48710 268.88603
#
# Poissons Ratio (x) = -0.00041 0.31954
# Poissons Ratio (y) = -0.00171 0.61814
# Poissons Ratio (z) = 0.18590 0.08618
#
# Static dielectric constant tensor:
#      x y z
#    x 2.087650 0.000000 0.000000 
#    y 0.000000 2.182710 0.000000 
#    z 0.000000 0.000000 2.037130 
# 
# From -- ./inp_files/12834.got.cif
#   From: 2010.05.17/outbox.cif.g08.bks.cpg/sg20_7_cif.got.tgz:12834.got - 2010.06.03 22:52:26.
