data_PCOD9319773
_publ_section_title
;
Structure prediction by ZEFSAII (Michael W. Deem and Ramdas Pophale) SiO2 
 PCOD9319773
Probable space group: C 2 2 21
;
_chemical_formula_sum "Si O2"
_cell_formula_units_Z 56
_cell_length_a 23.811373
_cell_length_b 8.024170
_cell_length_c 14.248353
_cell_angle_alpha 90.000000
_cell_angle_beta 90.000000
_cell_angle_gamma 90.000000
_cell_volume 2722.383008
_symmetry_space_group_name_H-M "C 2 2 21"
_symmetry_group_IT_number 20
_symmetry_cell_setting 'orthorhombic'
loop_
_space_group_symop_operation_xyz
x,y,z
-x,-y,1/2+z
x,-y,-z
-x,y,1/2-z
1/2+x,1/2+y,z
1/2-x,1/2-y,1/2+z
1/2+x,1/2-y,-z
1/2-x,1/2+y,1/2-z
loop_
_atom_site_type_symbol
_atom_site_label
_atom_site_fract_x
_atom_site_fract_y
_atom_site_fract_z
Si Si1 0.960332 0.172604 0.055598
Si Si2 0.287454 0.668875 0.836482
Si Si3 0.107390 0.343371 0.284316
Si Si4 0.200557 0.297906 0.014660
Si Si5 0.116949 0.379229 0.575698
Si Si6 0.730367 0.275463 0.662253
Si Si7 0.919464 0.668620 0.562719
O O1 0.928091 0.204201 0.155715
O O2 0.025441 0.218299 0.063961
O O3 0.932650 0.304608 0.985271
O O4 0.952221 0.000000 0.000000
O O5 0.341177 0.738015 0.889432
O O6 0.285307 0.470163 0.838208
O O7 0.281089 0.740477 0.733362
O O8 0.231514 0.733736 0.888074
O O9 0.094271 0.516462 0.336718
O O10 0.173613 0.316562 0.306563
O O11 0.095505 0.358103 0.173565
O O12 0.242529 0.228808 0.936753
O O13 0.199146 0.500000 0.000000
O O14 0.135985 0.246215 0.017672
O O15 0.147028 0.500000 0.500000
O O16 0.929076 0.500000 0.500000
#
# Coordination Sequence:
#
# PCOD9319773 Si02
#       7
#     8   8   8   8   8   8   8
#     4  11  24  45  66  96 130 167 219 277 334 394
#     4  11  21  37  61  95 129 166 214 260 325 393
#     4  11  22  43  69  97 127 175 220 274 328 393
#     4   9  20  37  60  87 126 172 206 262 324 382
#     4  10  22  39  67  94 121 165 223 268 321 394
#     4  11  22  38  62  95 132 169 212 264 325 394
#     4  11  23  43  67  92 130 175 220 270 329 390
#
# _framework density 20.570212999999999
#
# number of rings (size 3 to 8) (size 9 to 14) (size 15 to 20)
#    0.000    1.429    1.429    5.143    4.000    1.143 
#    2.571    3.571    0.000    0.000    0.000    0.000 
#    0.000    0.000    0.000    0.000    0.000    0.000 
#
# Total GULP energy -156235.408902 kJ/mol
# GULP energy per Si atom -5579.836032 kJ/mol
# Density = 2.052339 g / cm^3
# Si number density = 20.570213 Si / 1000 Ang^3
#
#
#
# Elastic Constant Matrix: (Units=GPa)
#
#
# Indices 1 2 3 4 5 6 
#
# 1 91.7659 7.9142 33.0151 0.0000 0.0000 0.0000
# 2 7.9142 42.5959 37.7769 0.0000 0.0000 0.0000
# 3 33.0151 37.7769 131.9017 0.0000 0.0000 0.0000
# 4 0.0000 0.0000 0.0000 17.8594 0.0000 0.0000
# 5 0.0000 0.0000 0.0000 0.0000 33.1417 0.0000
# 6 0.0000 0.0000 0.0000 0.0000 0.0000 72.1492
#
#
#
# Elastic Compliance Matrix: (Units=1/GPa)
#
#
# Indices 1 2 3 4 5 6 
#
# 1 0.011986 0.000581 -0.003167 0.000000 0.000000 0.000000
# 2 0.000581 0.031498 -0.009167 0.000000 0.000000 0.000000
# 3 -0.003167 -0.009167 0.010999 0.000000 0.000000 0.000000
# 4 0.000000 0.000000 0.000000 0.055993 0.000000 0.000000
# 5 0.000000 0.000000 0.000000 0.000000 0.030173 0.000000
# 6 0.000000 0.000000 0.000000 0.000000 0.000000 0.013860
#
#
# Mechanical properties :
#
#
# Convention : Reuss Voigt Hill
#
# Bulk Modulus (GPa) = 32.27893 47.07510 39.67702
# Shear Modulus (GPa) = 26.54760 37.13388 31.84074
#
# Velocity S-wave (km/s) = 3.59637 4.25340 3.93861
# Velocity P-wave (km/s) = 5.74206 6.85979 6.32566
#
# Compressibility (1/GPa) = 0.03097996
#
# Stress axis : x y z
#
# Youngs Moduli (GPa) = 83.42745 31.74804 90.91420
#
# Poissons Ratio (x) = -0.01846 0.28790
# Poissons Ratio (y) = -0.04851 0.83338
# Poissons Ratio (z) = 0.26419 0.29102
#
# Static dielectric constant tensor:
#      x y z
#    x 1.725130 0.000000 0.000000 
#    y 0.000000 1.771570 0.000000 
#    z 0.000000 0.000000 1.723630 
# 
# From -- ./inp_files/21785.got.cif
#   From: 2010.05.17/outbox.cif.g08.bks.cpg/sg20_11_cif.got.tgz:21785.got - 2010.06.03 22:52:26.
