data_PCOD9319253
_publ_section_title
;
Structure prediction by ZEFSAII (Michael W. Deem and Ramdas Pophale) SiO2 
 PCOD9319253
Probable space group: C 2 2 21
;
_chemical_formula_sum "Si O2"
_cell_formula_units_Z 48
_cell_length_a 8.689069
_cell_length_b 18.301513
_cell_length_c 15.090976
_cell_angle_alpha 90.000000
_cell_angle_beta 90.000000
_cell_angle_gamma 90.000000
_cell_volume 2399.813925
_symmetry_space_group_name_H-M "C 2 2 21"
_symmetry_group_IT_number 20
_symmetry_cell_setting 'orthorhombic'
loop_
_space_group_symop_operation_xyz
x,y,z
-x,-y,1/2+z
x,-y,-z
-x,y,1/2-z
1/2+x,1/2+y,z
1/2-x,1/2-y,1/2+z
1/2+x,1/2-y,-z
1/2-x,1/2+y,1/2-z
loop_
_atom_site_type_symbol
_atom_site_label
_atom_site_fract_x
_atom_site_fract_y
_atom_site_fract_z
Si Si1 0.837146 0.695878 0.595885
Si Si2 0.683812 0.969239 0.736951
Si Si3 0.692367 0.459374 0.407243
Si Si4 0.362878 0.190893 0.181967
Si Si5 0.333360 0.558563 0.579204
Si Si6 0.653919 0.799256 0.482601
O O1 0.801002 0.610977 0.602672
O O2 0.756957 0.742542 0.673681
O O3 0.752636 0.728168 0.507875
O O4 0.016237 0.711866 0.585158
O O5 0.500000 0.976755 0.750000
O O6 0.712690 0.885783 0.708436
O O7 0.768913 0.986411 0.827949
O O8 0.745653 0.024947 0.663221
O O9 0.717017 0.500000 0.500000
O O10 0.514960 0.434114 0.402196
O O11 0.500000 0.206448 0.250000
O O12 0.416933 0.180349 0.079651
O O13 0.315911 0.500000 0.500000
O O14 0.262185 0.635323 0.549308
#
# Coordination Sequence:
#
# PCOD9319253 Si02
#       6
#     8   8   8   8   8   8
#     4  10  22  40  63 100 127 177 226 274 339 399
#     4  11  23  41  67  98 131 177 225 281 343 399
#     4  11  26  40  66  98 139 180 227 277 339 411
#     4   9  22  40  68  96 134 176 224 275 343 409
#     4  11  21  42  64  95 135 176 224 282 333 406
#     4  10  21  40  69  93 134 179 220 281 339 408
#
# _framework density 20.001552
#
# number of rings (size 3 to 8) (size 9 to 14) (size 15 to 20)
#    1.000    0.667    1.667    2.500    4.667    2.667 
#    0.000    0.000    0.000    0.000    0.000    0.000 
#    0.000    0.000    0.000    0.000    0.000    0.000 
#
# Total GULP energy -133978.600123 kJ/mol
# GULP energy per Si atom -5582.441672 kJ/mol
# Density = 1.995603 g / cm^3
# Si number density = 20.001552 Si / 1000 Ang^3
#
#
#
# Elastic Constant Matrix: (Units=GPa)
#
#
# Indices 1 2 3 4 5 6 
#
# 1 45.3306 -9.1563 14.7775 0.0000 0.0000 0.0000
# 2 -9.1563 49.9832 2.3591 0.0000 0.0000 0.0000
# 3 14.7775 2.3591 83.5099 0.0000 0.0000 0.0000
# 4 0.0000 0.0000 0.0000 31.7428 0.0000 0.0000
# 5 0.0000 0.0000 0.0000 0.0000 10.0182 0.0000
# 6 0.0000 0.0000 0.0000 0.0000 0.0000 25.7188
#
#
#
# Elastic Compliance Matrix: (Units=1/GPa)
#
#
# Indices 1 2 3 4 5 6 
#
# 1 0.024462 0.004692 -0.004461 0.000000 0.000000 0.000000
# 2 0.004692 0.020933 -0.001422 0.000000 0.000000 0.000000
# 3 -0.004461 -0.001422 0.012804 0.000000 0.000000 0.000000
# 4 0.000000 0.000000 0.000000 0.031503 0.000000 0.000000
# 5 0.000000 0.000000 0.000000 0.000000 0.099819 0.000000
# 6 0.000000 0.000000 0.000000 0.000000 0.000000 0.038882
#
#
# Mechanical properties :
#
#
# Convention : Reuss Voigt Hill
#
# Bulk Modulus (GPa) = 17.91553 21.64270 19.77911
# Shear Modulus (GPa) = 20.04880 24.88551 22.46716
#
# Velocity S-wave (km/s) = 3.16945 3.53112 3.35516
# Velocity P-wave (km/s) = 4.72973 5.24109 4.99196
#
# Compressibility (1/GPa) = 0.05581751
#
# Stress axis : x y z
#
# Youngs Moduli (GPa) = 40.87947 47.77081 78.09926
#
# Poissons Ratio (x) = -0.22413 0.34842
# Poissons Ratio (y) = -0.19180 0.11102
# Poissons Ratio (z) = 0.18237 0.06791
#
# Static dielectric constant tensor:
#      x y z
#    x 1.695250 0.000000 0.000000 
#    y 0.000000 1.687390 0.000000 
#    z 0.000000 0.000000 1.714950 
# 
# From -- ./inp_files/18898.got.cif
#   From: 2010.05.17/outbox.cif.g08.bks.cpg/sg20_10_cif.got.tgz:18898.got - 2010.06.03 22:52:26.
