data_PCOD9319029
_publ_section_title
;
Structure prediction by ZEFSAII (Michael W. Deem and Ramdas Pophale) SiO2 
 PCOD9319029
Probable space group: C 2 2 21
;
_chemical_formula_sum "Si O2"
_cell_formula_units_Z 44
_cell_length_a 8.242115
_cell_length_b 11.913276
_cell_length_c 21.399849
_cell_angle_alpha 90.000000
_cell_angle_beta 90.000000
_cell_angle_gamma 90.000000
_cell_volume 2101.263817
_symmetry_space_group_name_H-M "C 2 2 21"
_symmetry_group_IT_number 20
_symmetry_cell_setting 'orthorhombic'
loop_
_space_group_symop_operation_xyz
x,y,z
-x,-y,1/2+z
x,-y,-z
-x,y,1/2-z
1/2+x,1/2+y,z
1/2-x,1/2-y,1/2+z
1/2+x,1/2-y,-z
1/2-x,1/2+y,1/2-z
loop_
_atom_site_type_symbol
_atom_site_label
_atom_site_fract_x
_atom_site_fract_y
_atom_site_fract_z
Si Si1 0.095501 0.629010 0.636772
Si Si2 0.224623 0.646026 0.156915
Si Si3 0.799988 0.114268 0.516088
Si Si4 0.000000 0.469893 0.750000
Si Si5 0.037742 0.272014 0.559858
Si Si6 0.734229 0.057248 0.931337
O O1 0.142919 0.754977 0.658799
O O2 0.237110 0.604138 0.586721
O O3 0.075774 0.548065 0.695876
O O4 0.932021 0.606522 0.597639
O O5 0.288517 0.542157 0.115690
O O6 0.146965 0.603089 0.221243
O O7 0.064766 0.687129 0.118490
O O8 0.649196 0.132611 0.469793
O O9 0.905025 0.226235 0.510894
O O10 0.890210 0.000000 0.500000
O O11 0.140972 0.160036 0.570966
O O12 0.714253 0.000000 0.000000
#
# Coordination Sequence:
#
# PCOD9319029 Si02
#       6
#     8   8   8   4   8   8
#     4  10  21  39  61  84 113 153 197 238 292 347
#     4  10  23  41  60  85 118 156 197 247 295 345
#     4  11  21  36  58  87 118 150 187 234 291 351
#     4  10  22  40  60  82 114 154 202 252 292 334
#     4  11  23  36  59  90 121 154 191 233 292 362
#     4  11  21  37  61  91 124 154 186 237 297 359
#
# _framework density 20.939779000000001
#
# number of rings (size 3 to 8) (size 9 to 14) (size 15 to 20)
#    0.000    1.455    0.000    7.636    0.000    4.364 
#    0.000    5.455    0.000    0.000    0.000    0.000 
#    0.000    0.000    0.000    0.000    0.000    0.000 
#
# Total GULP energy -122846.144206 kJ/mol
# GULP energy per Si atom -5583.915646 kJ/mol
# Density = 2.089212 g / cm^3
# Si number density = 20.939779 Si / 1000 Ang^3
#
#
#
# Elastic Constant Matrix: (Units=GPa)
#
#
# Indices 1 2 3 4 5 6 
#
# 1 46.9887 26.0825 15.2340 0.0000 0.0000 0.0000
# 2 26.0825 116.5040 42.3740 0.0000 0.0000 0.0000
# 3 15.2340 42.3740 63.2388 0.0000 0.0000 0.0000
# 4 0.0000 0.0000 0.0000 30.3946 0.0000 0.0000
# 5 0.0000 0.0000 0.0000 0.0000 7.1917 0.0000
# 6 0.0000 0.0000 0.0000 0.0000 0.0000 52.9463
#
#
#
# Elastic Compliance Matrix: (Units=1/GPa)
#
#
# Indices 1 2 3 4 5 6 
#
# 1 0.024717 -0.004453 -0.002970 0.000000 0.000000 0.000000
# 2 -0.004453 0.012152 -0.007070 0.000000 0.000000 0.000000
# 3 -0.002970 -0.007070 0.021266 0.000000 0.000000 0.000000
# 4 0.000000 0.000000 0.000000 0.032901 0.000000 0.000000
# 5 0.000000 0.000000 0.000000 0.000000 0.139050 0.000000
# 6 0.000000 0.000000 0.000000 0.000000 0.000000 0.018887
#
#
# Mechanical properties :
#
#
# Convention : Reuss Voigt Hill
#
# Bulk Modulus (GPa) = 34.30782 43.79028 39.04905
# Shear Modulus (GPa) = 17.38081 27.64258 22.51170
#
# Velocity S-wave (km/s) = 2.88416 3.63726 3.28238
# Velocity P-wave (km/s) = 5.24507 6.21268 5.74927
#
# Compressibility (1/GPa) = 0.02914787
#
# Stress axis : x y z
#
# Youngs Moduli (GPa) = 40.45876 82.29325 47.02408
#
# Poissons Ratio (x) = 0.36646 0.13967
# Poissons Ratio (y) = 0.18017 0.33244
# Poissons Ratio (z) = 0.12017 0.58178
#
# Static dielectric constant tensor:
#      x y z
#    x 1.803860 0.000000 0.000000 
#    y 0.000000 1.761020 0.000000 
#    z 0.000000 0.000000 1.736270 
# 
# From -- ./inp_files/28650.got.cif
#   From: 2010.05.17/outbox.cif.g08.bks.cpg/sg20_15_cif.got.tgz:28650.got - 2010.06.03 22:52:26.
