data_PCOD9319467
_publ_section_title
;
Structure prediction by ZEFSAII (Michael W. Deem and Ramdas Pophale) SiO2 
 PCOD9319467
Probable space group: C 2 2 21
;
_chemical_formula_sum "Si O2"
_cell_formula_units_Z 40
_cell_length_a 13.470235
_cell_length_b 5.073852
_cell_length_c 30.032516
_cell_angle_alpha 90.000000
_cell_angle_beta 90.000000
_cell_angle_gamma 90.000000
_cell_volume 2052.601702
_symmetry_space_group_name_H-M "C 2 2 21"
_symmetry_group_IT_number 20
_symmetry_cell_setting 'orthorhombic'
loop_
_space_group_symop_operation_xyz
x,y,z
-x,-y,1/2+z
x,-y,-z
-x,y,1/2-z
1/2+x,1/2+y,z
1/2-x,1/2-y,1/2+z
1/2+x,1/2-y,-z
1/2-x,1/2+y,1/2-z
loop_
_atom_site_type_symbol
_atom_site_label
_atom_site_fract_x
_atom_site_fract_y
_atom_site_fract_z
Si Si1 0.703215 0.125956 0.409405
Si Si2 0.391150 0.389887 0.950517
Si Si3 0.384500 0.492432 0.239589
Si Si4 0.294300 0.992246 0.193946
Si Si5 0.883984 0.246493 0.468602
O O1 0.624932 0.360578 0.418386
O O2 0.710519 0.049803 0.358082
O O3 0.805104 0.243422 0.429053
O O4 0.673126 0.862073 0.436276
O O5 0.504494 0.293890 0.951306
O O6 0.366662 0.500000 0.000000
O O7 0.500000 0.530712 0.250000
O O8 0.362791 0.209484 0.217981
O O9 0.314286 0.511189 0.283246
O O10 0.341668 0.710947 0.205797
O O11 0.879311 0.500000 0.500000
O O12 0.860997 0.000000 0.500000
#
# Coordination Sequence:
#
# PCOD9319467 Si02
#       5
#     8   8   8   8   8
#     4  12  23  38  61  89 120 151 196 253 293 337
#     4  11  23  40  59  84 121 162 200 240 293 350
#     4  10  21  43  64  83 121 158 186 238 302 356
#     4  10  23  38  61  94 115 148 202 238 289 366
#     4  11  23  39  59  84 116 159 201 235 287 347
#
# _framework density 19.487463999999999
#
# number of rings (size 3 to 8) (size 9 to 14) (size 15 to 20)
#    0.000    1.200    0.000    7.800    0.000    3.200 
#    0.000    0.000    0.000    0.000    0.000    0.000 
#    0.000    0.000    0.000    0.000    0.000    0.000 
#
# Total GULP energy -111841.771375 kJ/mol
# GULP energy per Si atom -5592.088569 kJ/mol
# Density = 1.944311 g / cm^3
# Si number density = 19.487464 Si / 1000 Ang^3
#
#
#
# Elastic Constant Matrix: (Units=GPa)
#
#
# Indices 1 2 3 4 5 6 
#
# 1 115.7151 13.3933 52.8725 0.0000 0.0000 0.0000
# 2 13.3933 96.7264 4.4725 0.0000 0.0000 0.0000
# 3 52.8725 4.4725 86.3792 0.0000 0.0000 0.0000
# 4 0.0000 0.0000 0.0000 19.4115 0.0000 0.0000
# 5 0.0000 0.0000 0.0000 0.0000 11.2483 0.0000
# 6 0.0000 0.0000 0.0000 0.0000 0.0000 23.6233
#
#
#
# Elastic Compliance Matrix: (Units=1/GPa)
#
#
# Indices 1 2 3 4 5 6 
#
# 1 0.012169 -0.001344 -0.007379 0.000000 0.000000 0.000000
# 2 -0.001344 0.010512 0.000278 0.000000 0.000000 0.000000
# 3 -0.007379 0.000278 0.016079 0.000000 0.000000 0.000000
# 4 0.000000 0.000000 0.000000 0.051516 0.000000 0.000000
# 5 0.000000 0.000000 0.000000 0.000000 0.088902 0.000000
# 6 0.000000 0.000000 0.000000 0.000000 0.000000 0.042331
#
#
# Mechanical properties :
#
#
# Convention : Reuss Voigt Hill
#
# Bulk Modulus (GPa) = 45.72335 48.92193 47.32264
# Shear Modulus (GPa) = 20.35094 26.06211 23.20652
#
# Velocity S-wave (km/s) = 3.23508 3.66099 3.45460
# Velocity P-wave (km/s) = 6.12113 6.55967 6.34419
#
# Compressibility (1/GPa) = 0.02187066
#
# Stress axis : x y z
#
# Youngs Moduli (GPa) = 82.17528 95.13261 62.19215
#
# Poissons Ratio (x) = 0.12784 0.45892
# Poissons Ratio (y) = 0.11043 -0.01731
# Poissons Ratio (z) = 0.60638 -0.02647
#
# Static dielectric constant tensor:
#      x y z
#    x 1.689140 0.000000 0.000000 
#    y 0.000000 1.662610 0.000000 
#    z 0.000000 0.000000 1.645460 
# 
# From -- ./inp_files/29708.got.cif
#   From: 2010.05.17/outbox.cif.g08.bks.cpg/sg20_15_cif.got.tgz:29708.got - 2010.06.03 22:52:26.
