data_PCOD9319890
_publ_section_title
;
Structure prediction by ZEFSAII (Michael W. Deem and Ramdas Pophale) SiO2 
 PCOD9319890
Probable space group: C 2 2 21
;
_chemical_formula_sum "Si O2"
_cell_formula_units_Z 40
_cell_length_a 16.914860
_cell_length_b 5.489416
_cell_length_c 18.318427
_cell_angle_alpha 90.000000
_cell_angle_beta 90.000000
_cell_angle_gamma 90.000000
_cell_volume 1700.915464
_symmetry_space_group_name_H-M "C 2 2 21"
_symmetry_group_IT_number 20
_symmetry_cell_setting 'orthorhombic'
loop_
_space_group_symop_operation_xyz
x,y,z
-x,-y,1/2+z
x,-y,-z
-x,y,1/2-z
1/2+x,1/2+y,z
1/2-x,1/2-y,1/2+z
1/2+x,1/2-y,-z
1/2-x,1/2+y,1/2-z
loop_
_atom_site_type_symbol
_atom_site_label
_atom_site_fract_x
_atom_site_fract_y
_atom_site_fract_z
Si Si1 0.472337 0.374753 0.071116
Si Si2 0.861189 0.204569 0.807189
Si Si3 0.646171 0.247477 0.038793
Si Si4 0.441889 0.670375 0.305330
Si Si5 0.697752 0.976284 0.823499
O O1 0.414273 0.225577 0.123701
O O2 0.550774 0.238500 0.044168
O O3 0.507774 0.576882 0.126510
O O4 0.434693 0.500000 0.000000
O O5 0.819195 0.413799 0.760689
O O6 0.910980 0.047366 0.747644
O O7 0.787845 0.045310 0.834483
O O8 0.677630 0.239495 0.121170
O O9 0.667550 0.500000 0.000000
O O10 0.674720 0.000000 0.000000
O O11 0.500000 0.819062 0.250000
O O12 0.367707 0.816289 0.336668
#
# Coordination Sequence:
#
# PCOD9319890 Si02
#       5
#     8   8   8   8   8
#     4  10  22  45  67  95 134 177 234 285 347 414
#     4  11  24  41  64 100 134 179 231 286 349 414
#     4  11  25  44  73 103 138 186 237 287 347 415
#     4  10  22  40  68  96 132 179 230 287 341 409
#     4  12  23  41  68  96 142 178 234 284 353 412
#
# _framework density 23.516748
#
# number of rings (size 3 to 8) (size 9 to 14) (size 15 to 20)
#    0.000    1.200    4.000    2.400    2.800    0.800 
#    0.000    0.000    0.000    1.200    0.000    0.000 
#    0.000    0.000    0.000    0.000    0.000    0.000 
#
# Total GULP energy -111802.337634 kJ/mol
# GULP energy per Si atom -5590.116882 kJ/mol
# Density = 2.346322 g / cm^3
# Si number density = 23.516748 Si / 1000 Ang^3
#
#
#
# Elastic Constant Matrix: (Units=GPa)
#
#
# Indices 1 2 3 4 5 6 
#
# 1 46.3938 1.9696 10.3891 0.0000 0.0000 0.0000
# 2 1.9696 63.2807 29.3445 0.0000 0.0000 0.0000
# 3 10.3891 29.3445 118.7611 0.0000 0.0000 0.0000
# 4 0.0000 0.0000 0.0000 34.0613 0.0000 0.0000
# 5 0.0000 0.0000 0.0000 0.0000 23.7803 0.0000
# 6 0.0000 0.0000 0.0000 0.0000 0.0000 20.4542
#
#
#
# Elastic Compliance Matrix: (Units=1/GPa)
#
#
# Indices 1 2 3 4 5 6 
#
# 1 0.021988 0.000234 -0.001981 0.000000 0.000000 0.000000
# 2 0.000234 0.017850 -0.004431 0.000000 0.000000 0.000000
# 3 -0.001981 -0.004431 0.009688 0.000000 0.000000 0.000000
# 4 0.000000 0.000000 0.000000 0.029359 0.000000 0.000000
# 5 0.000000 0.000000 0.000000 0.000000 0.042052 0.000000
# 6 0.000000 0.000000 0.000000 0.000000 0.000000 0.048890
#
#
# Mechanical properties :
#
#
# Convention : Reuss Voigt Hill
#
# Bulk Modulus (GPa) = 26.90283 34.64909 30.77596
# Shear Modulus (GPa) = 25.69726 28.10800 26.90263
#
# Velocity S-wave (km/s) = 3.30922 3.46097 3.38594
# Velocity P-wave (km/s) = 5.10548 5.54408 5.32930
#
# Compressibility (1/GPa) = 0.03717081
#
# Stress axis : x y z
#
# Youngs Moduli (GPa) = 45.47862 56.02217 103.21551
#
# Poissons Ratio (x) = -0.01313 0.20452
# Poissons Ratio (y) = -0.01066 0.45735
# Poissons Ratio (z) = 0.09011 0.24824
#
# Static dielectric constant tensor:
#      x y z
#    x 1.935160 0.000000 0.000000 
#    y 0.000000 1.958440 0.000000 
#    z 0.000000 0.000000 1.959840 
# 
# From -- ./inp_files/22592.got.cif
#   From: 2010.05.17/outbox.cif.g08.bks.cpg/sg20_12_cif.got.tgz:22592.got - 2010.06.03 22:52:26.
