data_PCOD9319487
_publ_section_title
;
Structure prediction by ZEFSAII (Michael W. Deem and Ramdas Pophale) SiO2 
 PCOD9319487
Probable space group: C 2 2 21
;
_chemical_formula_sum "Si O2"
_cell_formula_units_Z 52
_cell_length_a 6.954372
_cell_length_b 17.553946
_cell_length_c 17.509971
_cell_angle_alpha 90.000000
_cell_angle_beta 90.000000
_cell_angle_gamma 90.000000
_cell_volume 2137.558961
_symmetry_space_group_name_H-M "C 2 2 21"
_symmetry_group_IT_number 20
_symmetry_cell_setting 'orthorhombic'
loop_
_space_group_symop_operation_xyz
x,y,z
-x,-y,1/2+z
x,-y,-z
-x,y,1/2-z
1/2+x,1/2+y,z
1/2-x,1/2-y,1/2+z
1/2+x,1/2-y,-z
1/2-x,1/2+y,1/2-z
loop_
_atom_site_type_symbol
_atom_site_label
_atom_site_fract_x
_atom_site_fract_y
_atom_site_fract_z
Si Si1 0.500000 0.435939 0.750000
Si Si2 0.748265 0.165615 0.161203
Si Si3 0.089066 0.743059 0.912780
Si Si4 0.244562 0.350956 0.472717
Si Si5 0.196374 0.055716 0.838390
Si Si6 0.268750 0.197167 0.739282
Si Si7 0.484390 0.955114 0.925252
O O1 0.682302 0.384532 0.732751
O O2 0.546122 0.490345 0.820105
O O3 0.675466 0.243803 0.200236
O O4 0.616619 0.110513 0.111073
O O5 0.942349 0.191739 0.117424
O O6 0.245586 0.721508 0.848873
O O7 0.954175 0.671445 0.930800
O O8 0.176774 0.774378 0.990656
O O9 0.368266 0.392641 0.409284
O O10 0.196866 0.409594 0.539471
O O11 0.219316 0.112329 0.766365
O O12 0.395476 0.014317 0.864121
O O13 0.500000 0.204970 0.750000
O O14 0.566186 0.000000 0.000000
#
# Coordination Sequence:
#
# PCOD9319487 Si02
#       7
#     4   8   8   8   8   8   8
#     4  12  26  40  66  98 132 178 218 282 332 402
#     4  11  22  44  68  95 131 178 227 272 333 403
#     4  11  22  41  69  95 136 171 232 275 340 393
#     4  11  23  41  67  99 134 177 219 282 340 409
#     4  11  25  45  64  98 137 172 221 279 343 397
#     4  10  21  43  68  90 131 177 219 277 327 396
#     4  10  25  42  69 100 136 177 225 276 350 412
#
# _framework density 24.326813999999999
#
# number of rings (size 3 to 8) (size 9 to 14) (size 15 to 20)
#    0.000    1.231    5.385    1.846    2.154    2.462 
#    0.000    0.000    0.000    0.000    0.000    0.000 
#    0.000    0.000    0.000    0.000    0.000    0.000 
#
# Total GULP energy -145341.011000 kJ/mol
# GULP energy per Si atom -5590.038885 kJ/mol
# Density = 2.427144 g / cm^3
# Si number density = 24.326814 Si / 1000 Ang^3
#
#
#
# Elastic Constant Matrix: (Units=GPa)
#
#
# Indices 1 2 3 4 5 6 
#
# 1 44.7499 19.9717 17.9037 0.0000 0.0000 0.0000
# 2 19.9717 135.5530 33.4692 0.0000 0.0000 0.0000
# 3 17.9037 33.4692 73.9498 0.0000 0.0000 0.0000
# 4 0.0000 0.0000 0.0000 42.9174 0.0000 0.0000
# 5 0.0000 0.0000 0.0000 0.0000 30.7323 0.0000
# 6 0.0000 0.0000 0.0000 0.0000 0.0000 23.2493
#
#
#
# Elastic Compliance Matrix: (Units=1/GPa)
#
#
# Indices 1 2 3 4 5 6 
#
# 1 0.025481 -0.002512 -0.005032 0.000000 0.000000 0.000000
# 2 -0.002512 0.008553 -0.003263 0.000000 0.000000 0.000000
# 3 -0.005032 -0.003263 0.016218 0.000000 0.000000 0.000000
# 4 0.000000 0.000000 0.000000 0.023301 0.000000 0.000000
# 5 0.000000 0.000000 0.000000 0.000000 0.032539 0.000000
# 6 0.000000 0.000000 0.000000 0.000000 0.000000 0.043012
#
#
# Mechanical properties :
#
#
# Convention : Reuss Voigt Hill
#
# Bulk Modulus (GPa) = 34.91898 44.10465 39.51181
# Shear Modulus (GPa) = 27.73730 31.57367 29.65548
#
# Velocity S-wave (km/s) = 3.38034 3.60654 3.49527
# Velocity P-wave (km/s) = 5.44251 5.95922 5.70671
#
# Compressibility (1/GPa) = 0.02863772
#
# Stress axis : x y z
#
# Youngs Moduli (GPa) = 39.24534 116.91968 61.66070
#
# Poissons Ratio (x) = 0.29367 0.31029
# Poissons Ratio (y) = 0.09857 0.20119
# Poissons Ratio (z) = 0.19749 0.38149
#
# Static dielectric constant tensor:
#      x y z
#    x 1.929130 0.000000 0.000000 
#    y 0.000000 1.932590 0.000000 
#    z 0.000000 0.000000 2.015470 
# 
# From -- ./inp_files/23715.got.cif
#   From: 2010.05.17/outbox.cif.g08.bks.cpg/sg20_12_cif.got.tgz:23715.got - 2010.06.03 22:52:26.
