data_PCOD9319644
_publ_section_title
;
Structure prediction by ZEFSAII (Michael W. Deem and Ramdas Pophale) SiO2 
 PCOD9319644
Probable space group: C 2 2 21
;
_chemical_formula_sum "Si O2"
_cell_formula_units_Z 56
_cell_length_a 20.545382
_cell_length_b 23.105558
_cell_length_c 5.000278
_cell_angle_alpha 90.000000
_cell_angle_beta 90.000000
_cell_angle_gamma 90.000000
_cell_volume 2373.694547
_symmetry_space_group_name_H-M "C 2 2 21"
_symmetry_group_IT_number 20
_symmetry_cell_setting 'orthorhombic'
loop_
_space_group_symop_operation_xyz
x,y,z
-x,-y,1/2+z
x,-y,-z
-x,y,1/2-z
1/2+x,1/2+y,z
1/2-x,1/2-y,1/2+z
1/2+x,1/2-y,-z
1/2-x,1/2+y,1/2-z
loop_
_atom_site_type_symbol
_atom_site_label
_atom_site_fract_x
_atom_site_fract_y
_atom_site_fract_z
Si Si1 0.726526 0.939924 0.417772
Si Si2 0.870230 0.560022 0.410688
Si Si3 0.069476 0.247142 0.202917
Si Si4 0.044237 0.068907 0.002427
Si Si5 0.741293 0.209843 0.048350
Si Si6 0.097398 0.679318 0.259654
Si Si7 0.331875 0.355246 0.617666
O O1 0.672443 0.944751 0.645564
O O2 0.771365 0.883717 0.458766
O O3 0.764745 0.000000 0.500000
O O4 0.685080 0.932879 0.144958
O O5 0.903575 0.500000 0.500000
O O6 0.915896 0.612622 0.318585
O O7 0.092025 0.288580 0.451813
O O8 0.125085 0.203563 0.095998
O O9 0.000000 0.216534 0.250000
O O10 0.054299 0.286884 0.951520
O O11 0.000000 0.086245 0.750000
O O12 0.112698 0.098484 0.055711
O O13 0.000000 0.083293 0.250000
O O14 0.053799 0.000000 0.000000
O O15 0.756139 0.262864 0.255036
O O16 0.671839 0.186671 0.148891
O O17 0.796249 0.161141 0.101928
#
# Coordination Sequence:
#
# PCOD9319644 Si02
#       7
#     8   8   8   8   8   8   8
#     4  10  22  37  60 100 140 173 214 266 330 397
#     4  10  22  40  66 102 136 168 206 260 339 419
#     4  12  28  44  65  95 130 180 231 276 326 388
#     4  10  24  45  65  90 129 182 238 285 325 372
#     4  12  24  40  62 100 132 171 215 271 345 402
#     4  12  23  45  68  93 136 169 212 278 341 404
#     4  12  24  41  68  93 137 175 230 274 332 400
#
# _framework density 23.591912000000001
#
# number of rings (size 3 to 8) (size 9 to 14) (size 15 to 20)
#    0.000    0.857    4.286    2.143    2.000    5.714 
#    0.000    4.286    0.000    1.714    0.000    0.000 
#    0.000    0.000    0.000    0.000    0.000    0.000 
#
# Total GULP energy -155913.525723 kJ/mol
# GULP energy per Si atom -5568.340204 kJ/mol
# Density = 2.353822 g / cm^3
# Si number density = 23.591912 Si / 1000 Ang^3
#
#
#
# Elastic Constant Matrix: (Units=GPa)
#
#
# Indices 1 2 3 4 5 6 
#
# 1 56.0334 23.2795 -1.0030 0.0000 0.0000 0.0000
# 2 23.2795 141.6566 54.5991 0.0000 0.0000 0.0000
# 3 -1.0030 54.5991 142.6624 0.0000 0.0000 0.0000
# 4 0.0000 0.0000 0.0000 29.7788 0.0000 0.0000
# 5 0.0000 0.0000 0.0000 0.0000 4.4000 0.0000
# 6 0.0000 0.0000 0.0000 0.0000 0.0000 127.7341
#
#
#
# Elastic Compliance Matrix: (Units=1/GPa)
#
#
# Indices 1 2 3 4 5 6 
#
# 1 0.019459 -0.003813 0.001596 0.000000 0.000000 0.000000
# 2 -0.003813 0.009028 -0.003482 0.000000 0.000000 0.000000
# 3 0.001596 -0.003482 0.008353 0.000000 0.000000 0.000000
# 4 0.000000 0.000000 0.000000 0.033581 0.000000 0.000000
# 5 0.000000 0.000000 0.000000 0.000000 0.227272 0.000000
# 6 0.000000 0.000000 0.000000 0.000000 0.000000 0.007829
#
#
# Mechanical properties :
#
#
# Convention : Reuss Voigt Hill
#
# Bulk Modulus (GPa) = 39.30381 54.90038 47.10210
# Shear Modulus (GPa) = 15.36563 49.94771 32.65667
#
# Velocity S-wave (km/s) = 2.55484 4.60625 3.72456
# Velocity P-wave (km/s) = 5.03974 7.18411 6.20525
#
# Compressibility (1/GPa) = 0.02544283
#
# Stress axis : x y z
#
# Youngs Moduli (GPa) = 51.38942 110.76619 119.71200
#
# Poissons Ratio (x) = 0.42236 -0.19108
# Poissons Ratio (y) = 0.19595 0.41683
# Poissons Ratio (z) = -0.08202 0.38569
#
# Static dielectric constant tensor:
#      x y z
#    x 1.931300 0.000000 0.000000 
#    y 0.000000 2.258220 0.000000 
#    z 0.000000 0.000000 1.826150 
# 
# From -- ./inp_files/3303.got.cif
#   From: 2010.05.17/outbox.cif.g08.bks.cpg/sg20_2_cif.got.tgz:3303.got - 2010.06.03 22:52:26.
