data_PCOD9319889
_publ_section_title
;
Structure prediction by ZEFSAII (Michael W. Deem and Ramdas Pophale) SiO2 
 PCOD9319889
Probable space group: C 2 2 21
;
_chemical_formula_sum "Si O2"
_cell_formula_units_Z 60
_cell_length_a 10.616592
_cell_length_b 9.401613
_cell_length_c 29.151998
_cell_angle_alpha 90.000000
_cell_angle_beta 90.000000
_cell_angle_gamma 90.000000
_cell_volume 2909.750981
_symmetry_space_group_name_H-M "C 2 2 21"
_symmetry_group_IT_number 20
_symmetry_cell_setting 'orthorhombic'
loop_
_space_group_symop_operation_xyz
x,y,z
-x,-y,1/2+z
x,-y,-z
-x,y,1/2-z
1/2+x,1/2+y,z
1/2-x,1/2-y,1/2+z
1/2+x,1/2-y,-z
1/2-x,1/2+y,1/2-z
loop_
_atom_site_type_symbol
_atom_site_label
_atom_site_fract_x
_atom_site_fract_y
_atom_site_fract_z
Si Si1 0.934275 0.458236 0.645177
Si Si2 0.182158 0.500000 0.500000
Si Si3 0.979201 0.963514 0.304260
Si Si4 0.792827 0.168299 0.636064
Si Si5 0.667467 0.225075 0.331203
Si Si6 0.336910 0.391456 0.584501
Si Si7 0.543803 0.842489 0.422026
Si Si8 0.087954 0.730368 0.793155
O O1 0.058775 0.392713 0.668709
O O2 0.963225 0.523811 0.595638
O O3 0.840014 0.328675 0.638152
O O4 0.896112 0.591385 0.676016
O O5 0.263417 0.413715 0.537162
O O6 0.103052 0.387625 0.470115
O O7 0.087772 0.871667 0.329112
O O8 0.000000 0.953662 0.250000
O O9 0.841692 0.898316 0.316232
O O10 0.977520 0.130824 0.315957
O O11 0.652127 0.167481 0.617046
O O12 0.861025 0.052470 0.602620
O O13 0.748317 0.187226 0.377168
O O14 0.766239 0.220285 0.289038
O O15 0.459402 0.296929 0.577010
O O16 0.000000 0.698464 0.750000
#
# Coordination Sequence:
#
# PCOD9319889 Si02
#       8
#     8   4   8   8   8   8   8   8
#     4  11  22  39  68  95 126 178 222 262 335 391
#     4  10  24  42  68 104 130 170 210 288 334 406
#     4  10  22  42  66  96 137 177 223 276 325 387
#     4  10  22  40  68  96 128 181 219 271 334 386
#     4  11  22  43  65  94 133 173 218 279 324 405
#     4  11  22  47  68  98 136 173 221 273 350 399
#     4  11  22  44  70  92 136 167 217 275 334 409
#     4  11  24  41  62 100 132 178 229 274 331 389
#
# _framework density 20.620322000000002
#
# number of rings (size 3 to 8) (size 9 to 14) (size 15 to 20)
#    0.000    1.333    5.333    0.000    0.000   10.667 
#    0.000    0.000    0.000    0.000    0.000    0.000 
#    0.000    0.000    0.000    0.000    0.000    0.000 
#
# Total GULP energy -167273.589127 kJ/mol
# GULP energy per Si atom -5575.786304 kJ/mol
# Density = 2.057339 g / cm^3
# Si number density = 20.620322 Si / 1000 Ang^3
#
#
#
# Elastic Constant Matrix: (Units=GPa)
#
#
# Indices 1 2 3 4 5 6 
#
# 1 56.9616 43.3902 11.1806 0.0000 0.0000 0.0000
# 2 43.3902 166.0457 42.0308 0.0000 0.0000 0.0000
# 3 11.1806 42.0308 69.9158 0.0000 0.0000 0.0000
# 4 0.0000 0.0000 0.0000 18.2696 0.0000 0.0000
# 5 0.0000 0.0000 0.0000 0.0000 29.2241 0.0000
# 6 0.0000 0.0000 0.0000 0.0000 0.0000 33.0769
#
#
#
# Elastic Compliance Matrix: (Units=1/GPa)
#
#
# Indices 1 2 3 4 5 6 
#
# 1 0.021919 -0.005709 -0.000073 0.000000 0.000000 0.000000
# 2 -0.005709 0.008590 -0.004251 0.000000 0.000000 0.000000
# 3 -0.000073 -0.004251 0.016870 0.000000 0.000000 0.000000
# 4 0.000000 0.000000 0.000000 0.054736 0.000000 0.000000
# 5 0.000000 0.000000 0.000000 0.000000 0.034218 0.000000
# 6 0.000000 0.000000 0.000000 0.000000 0.000000 0.030233
#
#
# Mechanical properties :
#
#
# Convention : Reuss Voigt Hill
#
# Bulk Modulus (GPa) = 36.61296 54.01404 45.31350
# Shear Modulus (GPa) = 25.54436 29.20221 27.37328
#
# Velocity S-wave (km/s) = 3.52347 3.76731 3.64743
# Velocity P-wave (km/s) = 5.86067 6.72123 6.30565
#
# Compressibility (1/GPa) = 0.02731273
#
# Stress axis : x y z
#
# Youngs Moduli (GPa) = 45.62243 116.40783 59.27581
#
# Poissons Ratio (x) = 0.66461 0.00432
# Poissons Ratio (y) = 0.26047 0.25200
# Poissons Ratio (z) = 0.00333 0.49488
#
# Static dielectric constant tensor:
#      x y z
#    x 1.791930 0.000000 0.000000 
#    y 0.000000 1.747780 0.000000 
#    z 0.000000 0.000000 1.761030 
# 
# From -- ./inp_files/31170.got.cif
#   From: 2010.05.17/outbox.cif.g08.bks.cpg/sg20_16_cif.got.tgz:31170.got - 2010.06.03 22:52:26.
