data_PCOD9319728
_publ_section_title
;
Structure prediction by ZEFSAII (Michael W. Deem and Ramdas Pophale) SiO2 
 PCOD9319728
Probable space group: C 2 2 21
;
_chemical_formula_sum "Si O2"
_cell_formula_units_Z 40
_cell_length_a 13.653109
_cell_length_b 16.015074
_cell_length_c 8.485004
_cell_angle_alpha 90.000000
_cell_angle_beta 90.000000
_cell_angle_gamma 90.000000
_cell_volume 1855.293225
_symmetry_space_group_name_H-M "C 2 2 21"
_symmetry_group_IT_number 20
_symmetry_cell_setting 'orthorhombic'
loop_
_space_group_symop_operation_xyz
x,y,z
-x,-y,1/2+z
x,-y,-z
-x,y,1/2-z
1/2+x,1/2+y,z
1/2-x,1/2-y,1/2+z
1/2+x,1/2-y,-z
1/2-x,1/2+y,1/2-z
loop_
_atom_site_type_symbol
_atom_site_label
_atom_site_fract_x
_atom_site_fract_y
_atom_site_fract_z
Si Si1 0.500000 0.877739 0.750000
Si Si2 0.469730 0.251189 0.999558
Si Si3 0.433106 0.586361 0.408473
Si Si4 0.102779 0.500000 0.000000
Si Si5 0.791073 0.201095 0.226376
Si Si6 0.671108 0.839147 0.069425
O O1 0.558927 0.809800 0.642931
O O2 0.543467 0.940985 0.880789
O O3 0.513707 0.344609 0.020806
O O4 0.380668 0.266128 0.882273
O O5 0.563386 0.202518 0.924188
O O6 0.419455 0.500000 0.500000
O O7 0.500000 0.575278 0.250000
O O8 0.334291 0.630873 0.343487
O O9 0.165000 0.563775 0.894061
O O10 0.760651 0.283050 0.322209
O O11 0.711127 0.167679 0.107256
#
# Coordination Sequence:
#
# PCOD9319728 Si02
#       6
#     4   8   8   4   8   8
#     4  10  22  38  70  94 126 172 216 266 334 380
#     4   9  21  40  67  90 127 174 220 254 339 377
#     4   9  19  39  63  96 128 172 226 270 318 388
#     4  10  24  40  62 100 130 160 232 266 322 390
#     4  10  22  42  66  91 134 175 213 277 326 391
#     4  10  22  42  63  93 130 170 219 267 325 385
#
# _framework density 21.559934999999999
#
# number of rings (size 3 to 8) (size 9 to 14) (size 15 to 20)
#    0.000    2.400    0.000    1.800   12.600    0.000 
#   14.400    0.000    2.200    0.000    0.000    0.000 
#    0.000    0.000    0.000    0.000    0.000    0.000 
#
# Total GULP energy -111386.042612 kJ/mol
# GULP energy per Si atom -5569.302131 kJ/mol
# Density = 2.151086 g / cm^3
# Si number density = 21.559935 Si / 1000 Ang^3
#
#
#
# Elastic Constant Matrix: (Units=GPa)
#
#
# Indices 1 2 3 4 5 6 
#
# 1 45.9394 24.4242 22.4322 0.0000 0.0000 0.0000
# 2 24.4242 195.6503 68.6315 0.0000 0.0000 0.0000
# 3 22.4322 68.6315 87.8187 0.0000 0.0000 0.0000
# 4 0.0000 0.0000 0.0000 52.6466 0.0000 0.0000
# 5 0.0000 0.0000 0.0000 0.0000 25.4300 0.0000
# 6 0.0000 0.0000 0.0000 0.0000 0.0000 20.2321
#
#
#
# Elastic Compliance Matrix: (Units=1/GPa)
#
#
# Indices 1 2 3 4 5 6 
#
# 1 0.025079 -0.001217 -0.005455 0.000000 0.000000 0.000000
# 2 -0.001217 0.007101 -0.005238 0.000000 0.000000 0.000000
# 3 -0.005455 -0.005238 0.016874 0.000000 0.000000 0.000000
# 4 0.000000 0.000000 0.000000 0.018995 0.000000 0.000000
# 5 0.000000 0.000000 0.000000 0.000000 0.039324 0.000000
# 6 0.000000 0.000000 0.000000 0.000000 0.000000 0.049426
#
#
# Mechanical properties :
#
#
# Convention : Reuss Voigt Hill
#
# Bulk Modulus (GPa) = 39.63084 62.26490 50.94787
# Shear Modulus (GPa) = 26.45089 33.92310 30.18700
#
# Velocity S-wave (km/s) = 3.50645 3.97095 3.74591
# Velocity P-wave (km/s) = 5.90044 7.06875 6.51085
#
# Compressibility (1/GPa) = 0.02523287
#
# Stress axis : x y z
#
# Youngs Moduli (GPa) = 39.87475 140.83223 59.26193
#
# Poissons Ratio (x) = 0.17143 0.32326
# Poissons Ratio (y) = 0.04854 0.31043
# Poissons Ratio (z) = 0.21750 0.73772
#
# Static dielectric constant tensor:
#      x y z
#    x 1.853710 0.000000 0.000000 
#    y 0.000000 1.765180 0.000000 
#    z 0.000000 0.000000 1.852040 
# 
# From -- ./inp_files/8165.got.cif
#   From: 2010.05.17/outbox.cif.g08.bks.cpg/sg20_5_cif.got.tgz:8165.got - 2010.06.03 22:52:26.
