data_PCOD9319367
_publ_section_title
;
Structure prediction by ZEFSAII (Michael W. Deem and Ramdas Pophale) SiO2 
 PCOD9319367
Probable space group: C 2 2 21
;
_chemical_formula_sum "Si O2"
_cell_formula_units_Z 60
_cell_length_a 5.083875
_cell_length_b 17.847566
_cell_length_c 29.056598
_cell_angle_alpha 90.000000
_cell_angle_beta 90.000000
_cell_angle_gamma 90.000000
_cell_volume 2636.444451
_symmetry_space_group_name_H-M "C 2 2 21"
_symmetry_group_IT_number 20
_symmetry_cell_setting 'orthorhombic'
loop_
_space_group_symop_operation_xyz
x,y,z
-x,-y,1/2+z
x,-y,-z
-x,y,1/2-z
1/2+x,1/2+y,z
1/2-x,1/2-y,1/2+z
1/2+x,1/2-y,-z
1/2-x,1/2+y,1/2-z
loop_
_atom_site_type_symbol
_atom_site_label
_atom_site_fract_x
_atom_site_fract_y
_atom_site_fract_z
Si Si1 0.577070 0.150769 0.527750
Si Si2 0.221653 0.850077 0.388916
Si Si3 0.899693 0.582604 0.374301
Si Si4 0.574337 0.494933 0.102987
Si Si5 0.877831 0.000000 0.500000
Si Si6 0.960761 0.694849 0.803047
Si Si7 0.453517 0.204339 0.197797
Si Si8 0.933609 0.275773 0.567553
O O1 0.341096 0.127907 0.561136
O O2 0.526879 0.199926 0.482657
O O3 0.715284 0.075458 0.510687
O O4 0.735182 0.208242 0.559783
O O5 0.418851 0.854230 0.345261
O O6 0.145297 0.763161 0.398819
O O7 0.980934 0.908501 0.384438
O O8 0.132122 0.526986 0.391059
O O9 0.833146 0.647896 0.410940
O O10 0.632682 0.538853 0.365720
O O11 0.999188 0.631889 0.332372
O O12 0.488601 0.511632 0.049706
O O13 0.158375 0.765295 0.804917
O O14 0.000000 0.664894 0.750000
O O15 0.666644 0.727499 0.811044
O O16 0.500000 0.183071 0.250000
#
# Coordination Sequence:
#
# PCOD9319367 Si02
#       8
#     8   8   8   8   4   8   8   8
#     4  12  26  43  64 102 140 187 232 290 344 412
#     4  12  26  44  67  99 141 184 232 287 341 421
#     4  12  26  45  68 101 137 178 229 283 341 414
#     4  12  29  43  67  95 142 189 225 273 355 404
#     4  12  26  48  62  94 144 186 234 278 346 422
#     4  10  22  42  72 106 135 175 229 294 353 406
#     4  10  21  41  73 106 135 170 226 292 353 405
#     4  12  25  39  68  99 134 179 235 286 337 395
#
# _framework density 22.757923000000002
#
# number of rings (size 3 to 8) (size 9 to 14) (size 15 to 20)
#    0.000    0.533    5.333    2.400    5.600    0.533 
#    0.000    0.667    0.000    1.600    0.000    0.000 
#    0.000    0.000    0.000    0.000    0.000    0.000 
#
# Total GULP energy -167533.789550 kJ/mol
# GULP energy per Si atom -5584.459652 kJ/mol
# Density = 2.270612 g / cm^3
# Si number density = 22.757923 Si / 1000 Ang^3
#
#
#
# Elastic Constant Matrix: (Units=GPa)
#
#
# Indices 1 2 3 4 5 6 
#
# 1 59.1256 35.2080 -10.5689 0.0000 0.0000 0.0000
# 2 35.2080 121.6839 12.2803 0.0000 0.0000 0.0000
# 3 -10.5689 12.2803 87.5447 0.0000 0.0000 0.0000
# 4 0.0000 0.0000 0.0000 27.2343 0.0000 0.0000
# 5 0.0000 0.0000 0.0000 0.0000 29.0905 0.0000
# 6 0.0000 0.0000 0.0000 0.0000 0.0000 34.1120
#
#
#
# Elastic Compliance Matrix: (Units=1/GPa)
#
#
# Indices 1 2 3 4 5 6 
#
# 1 0.021446 -0.006559 0.003509 0.000000 0.000000 0.000000
# 2 -0.006559 0.010342 -0.002243 0.000000 0.000000 0.000000
# 3 0.003509 -0.002243 0.012161 0.000000 0.000000 0.000000
# 4 0.000000 0.000000 0.000000 0.036718 0.000000 0.000000
# 5 0.000000 0.000000 0.000000 0.000000 0.034376 0.000000
# 6 0.000000 0.000000 0.000000 0.000000 0.000000 0.029315
#
#
# Mechanical properties :
#
#
# Convention : Reuss Voigt Hill
#
# Bulk Modulus (GPa) = 29.97242 38.02143 33.99693
# Shear Modulus (GPa) = 30.10852 33.51633 31.81243
#
# Velocity S-wave (km/s) = 3.64124 3.84178 3.74285
# Velocity P-wave (km/s) = 5.55670 6.03508 5.80082
#
# Compressibility (1/GPa) = 0.03336400
#
# Stress axis : x y z
#
# Youngs Moduli (GPa) = 46.62775 96.69062 82.23013
#
# Poissons Ratio (x) = 0.63424 -0.28857
# Poissons Ratio (y) = 0.30585 0.18441
# Poissons Ratio (z) = -0.16363 0.21684
#
# Static dielectric constant tensor:
#      x y z
#    x 1.907970 0.000000 0.000000 
#    y 0.000000 1.823850 0.000000 
#    z 0.000000 0.000000 1.938050 
# 
# From -- ./inp_files/30830.got.cif
#   From: 2010.05.17/outbox.cif.g08.bks.cpg/sg20_16_cif.got.tgz:30830.got - 2010.06.03 22:52:26.
