data_PCOD9319473
_publ_section_title
;
Structure prediction by ZEFSAII (Michael W. Deem and Ramdas Pophale) SiO2 
 PCOD9319473
Probable space group: C 2 2 21
;
_chemical_formula_sum "Si O2"
_cell_formula_units_Z 32
_cell_length_a 6.932484
_cell_length_b 12.429504
_cell_length_c 13.399069
_cell_angle_alpha 90.000000
_cell_angle_beta 90.000000
_cell_angle_gamma 90.000000
_cell_volume 1154.562102
_symmetry_space_group_name_H-M "C 2 2 21"
_symmetry_group_IT_number 20
_symmetry_cell_setting 'orthorhombic'
loop_
_space_group_symop_operation_xyz
x,y,z
-x,-y,1/2+z
x,-y,-z
-x,y,1/2-z
1/2+x,1/2+y,z
1/2-x,1/2-y,1/2+z
1/2+x,1/2-y,-z
1/2-x,1/2+y,1/2-z
loop_
_atom_site_type_symbol
_atom_site_label
_atom_site_fract_x
_atom_site_fract_y
_atom_site_fract_z
Si Si1 0.795778 0.377054 0.000216
Si Si2 0.309859 0.656393 0.910005
Si Si3 0.112174 0.081870 0.390821
Si Si4 0.228371 0.771873 0.216368
O O1 0.889286 0.274468 0.943416
O O2 0.591130 0.386253 0.940886
O O3 0.868764 0.500000 0.000000
O O4 0.761714 0.337802 0.114473
O O5 0.401987 0.544089 0.871049
O O6 0.173612 0.682468 0.816811
O O7 0.243660 0.613124 0.017796
O O8 0.193302 0.152064 0.301503
O O9 0.000000 0.772970 0.250000
#
# Coordination Sequence:
#
# PCOD9319473 Si02
#       4
#     8   8   8   8
#     4  11  22  42  70  95 130 178 220 276 330 390
#     4  10  22  41  63 101 127 171 226 265 333 391
#     4  10  21  43  65  92 141 169 214 289 317 386
#     4  11  22  40  67  95 136 177 219 270 334 398
#
# _framework density 27.716135000000001
#
# number of rings (size 3 to 8) (size 9 to 14) (size 15 to 20)
#    0.000    1.500    5.000    0.000    3.500    1.000 
#    4.500    0.000    0.000    0.000    0.000    0.000 
#    0.000    0.000    0.000    0.000    0.000    0.000 
#
# Total GULP energy -89209.512566 kJ/mol
# GULP energy per Si atom -5575.594535 kJ/mol
# Density = 2.765305 g / cm^3
# Si number density = 27.716135 Si / 1000 Ang^3
#
#
#
# Elastic Constant Matrix: (Units=GPa)
#
#
# Indices 1 2 3 4 5 6 
#
# 1 111.9910 74.3258 23.9632 0.0000 0.0000 0.0000
# 2 74.3258 286.6233 57.7297 0.0000 0.0000 0.0000
# 3 23.9632 57.7297 166.4010 0.0000 0.0000 0.0000
# 4 0.0000 0.0000 0.0000 60.0748 0.0000 0.0000
# 5 0.0000 0.0000 0.0000 0.0000 29.3698 0.0000
# 6 0.0000 0.0000 0.0000 0.0000 0.0000 35.1408
#
#
#
# Elastic Compliance Matrix: (Units=1/GPa)
#
#
# Indices 1 2 3 4 5 6 
#
# 1 0.010847 -0.002686 -0.000630 0.000000 0.000000 0.000000
# 2 -0.002686 0.004416 -0.001145 0.000000 0.000000 0.000000
# 3 -0.000630 -0.001145 0.006498 0.000000 0.000000 0.000000
# 4 0.000000 0.000000 0.000000 0.016646 0.000000 0.000000
# 5 0.000000 0.000000 0.000000 0.000000 0.034049 0.000000
# 6 0.000000 0.000000 0.000000 0.000000 0.000000 0.028457
#
#
# Mechanical properties :
#
#
# Convention : Reuss Voigt Hill
#
# Bulk Modulus (GPa) = 77.89514 97.45029 87.67272
# Shear Modulus (GPa) = 43.81600 52.18352 47.99976
#
# Velocity S-wave (km/s) = 3.98035 4.34381 4.16605
# Velocity P-wave (km/s) = 7.02067 7.77141 7.40556
#
# Compressibility (1/GPa) = 0.01283777
#
# Stress axis : x y z
#
# Youngs Moduli (GPa) = 92.19468 226.44756 153.90118
#
# Poissons Ratio (x) = 0.60818 0.09699
# Poissons Ratio (y) = 0.24761 0.17626
# Poissons Ratio (z) = 0.05810 0.25935
#
# Static dielectric constant tensor:
#      x y z
#    x 2.388480 0.000000 0.000000 
#    y 0.000000 2.036290 0.000000 
#    z 0.000000 0.000000 2.304990 
# 
# From -- ./inp_files/13579.got.cif
#   From: 2010.05.17/outbox.cif.g08.bks.cpg/sg20_7_cif.got.tgz:13579.got - 2010.06.03 22:52:26.
