data_PCOD9320660
_publ_section_title
;
Structure prediction by ZEFSAII (Michael W. Deem and Ramdas Pophale) SiO2 
 PCOD9320660
Probable space group: C 2 2 21
;
_chemical_formula_sum "Si O2"
_cell_formula_units_Z 32
_cell_length_a 16.397453
_cell_length_b 6.559624
_cell_length_c 12.089569
_cell_angle_alpha 90.000000
_cell_angle_beta 90.000000
_cell_angle_gamma 90.000000
_cell_volume 1300.367657
_symmetry_space_group_name_H-M "C 2 2 21"
_symmetry_group_IT_number 20
_symmetry_cell_setting 'orthorhombic'
loop_
_space_group_symop_operation_xyz
x,y,z
-x,-y,1/2+z
x,-y,-z
-x,y,1/2-z
1/2+x,1/2+y,z
1/2-x,1/2-y,1/2+z
1/2+x,1/2-y,-z
1/2-x,1/2+y,1/2-z
loop_
_atom_site_type_symbol
_atom_site_label
_atom_site_fract_x
_atom_site_fract_y
_atom_site_fract_z
Si Si1 0.902903 0.710193 0.336451
Si Si2 0.434147 0.448880 0.122595
Si Si3 0.626742 0.209105 0.778444
Si Si4 0.240198 0.045817 0.884476
O O1 0.921641 0.471017 0.339136
O O2 0.818308 0.757829 0.395465
O O3 0.893175 0.788237 0.208174
O O4 0.975367 0.851148 0.384534
O O5 0.424191 0.657720 0.191114
O O6 0.403083 0.500000 0.000000
O O7 0.696665 0.090675 0.710947
O O8 0.676607 0.367020 0.853965
O O9 0.282400 0.000000 0.000000
#
# Coordination Sequence:
#
# PCOD9320660 Si02
#       4
#     8   8   8   8
#     4  10  23  45  64 100 140 176 231 282 340 414
#     4  10  24  43  70  99 136 180 230 283 347 409
#     4  11  24  44  69 103 140 175 231 294 331 420
#     4  11  24  42  71 102 136 184 228 283 352 404
#
# _framework density 24.608423999999999
#
# number of rings (size 3 to 8) (size 9 to 14) (size 15 to 20)
#    0.000    1.500    2.500    0.750    3.500    9.000 
#    0.000    7.500    0.000    0.000    0.000    0.000 
#    0.000    0.000    0.000    0.000    0.000    0.000 
#
# Total GULP energy -89408.137017 kJ/mol
# GULP energy per Si atom -5588.008564 kJ/mol
# Density = 2.455241 g / cm^3
# Si number density = 24.608424 Si / 1000 Ang^3
#
#
#
# Elastic Constant Matrix: (Units=GPa)
#
#
# Indices 1 2 3 4 5 6 
#
# 1 47.9779 16.3094 -21.6575 0.0000 0.0000 0.0000
# 2 16.3094 158.4413 1.1474 0.0000 0.0000 0.0000
# 3 -21.6575 1.1474 73.5067 0.0000 0.0000 0.0000
# 4 0.0000 0.0000 0.0000 9.3545 0.0000 0.0000
# 5 0.0000 0.0000 0.0000 0.0000 8.0540 0.0000
# 6 0.0000 0.0000 0.0000 0.0000 0.0000 31.1627
#
#
#
# Elastic Compliance Matrix: (Units=1/GPa)
#
#
# Indices 1 2 3 4 5 6 
#
# 1 0.025096 -0.002637 0.007435 0.000000 0.000000 0.000000
# 2 -0.002637 0.006589 -0.000880 0.000000 0.000000 0.000000
# 3 0.007435 -0.000880 0.015809 0.000000 0.000000 0.000000
# 4 0.000000 0.000000 0.000000 0.106900 0.000000 0.000000
# 5 0.000000 0.000000 0.000000 0.000000 0.124162 0.000000
# 6 0.000000 0.000000 0.000000 0.000000 0.000000 0.032090
#
#
# Mechanical properties :
#
#
# Convention : Reuss Voigt Hill
#
# Bulk Modulus (GPa) = 18.07335 30.16937 24.12136
# Shear Modulus (GPa) = 15.56407 28.65600 22.11004
#
# Velocity S-wave (km/s) = 2.51762 3.41615 3.00071
# Velocity P-wave (km/s) = 3.97637 5.27698 4.67215
#
# Compressibility (1/GPa) = 0.05533007
#
# Stress axis : x y z
#
# Youngs Moduli (GPa) = 39.84750 151.76097 63.25676
#
# Poissons Ratio (x) = 0.40021 -0.47033
# Poissons Ratio (y) = 0.10508 0.05566
# Poissons Ratio (z) = -0.29627 0.13352
#
# Static dielectric constant tensor:
#      x y z
#    x 1.968880 0.000000 0.000000 
#    y 0.000000 1.981930 0.000000 
#    z 0.000000 0.000000 1.959840 
# 
# From -- ./inp_files/11912.got.cif
#   From: 2010.05.17/outbox.cif.g08.bks.cpg/sg20_6_cif.got.tgz:11912.got - 2010.06.03 22:52:26.
