data_PCOD9320291
_publ_section_title
;
Structure prediction by ZEFSAII (Michael W. Deem and Ramdas Pophale) SiO2 
 PCOD9320291
Probable space group: C 2 2 21
;
_chemical_formula_sum "Si O2"
_cell_formula_units_Z 24
_cell_length_a 5.221989
_cell_length_b 23.996987
_cell_length_c 7.995965
_cell_angle_alpha 90.000000
_cell_angle_beta 90.000000
_cell_angle_gamma 90.000000
_cell_volume 1001.990383
_symmetry_space_group_name_H-M "C 2 2 21"
_symmetry_group_IT_number 20
_symmetry_cell_setting 'orthorhombic'
loop_
_space_group_symop_operation_xyz
x,y,z
-x,-y,1/2+z
x,-y,-z
-x,y,1/2-z
1/2+x,1/2+y,z
1/2-x,1/2-y,1/2+z
1/2+x,1/2-y,-z
1/2-x,1/2+y,1/2-z
loop_
_atom_site_type_symbol
_atom_site_label
_atom_site_fract_x
_atom_site_fract_y
_atom_site_fract_z
Si Si1 0.500000 0.958140 0.250000
Si Si2 0.355799 0.386694 0.070826
Si Si3 0.863177 0.725350 0.430162
Si Si4 0.626190 0.500000 0.000000
O O1 0.587147 0.916212 0.108270
O O2 0.283691 0.995201 0.171239
O O3 0.500000 0.374486 0.250000
O O4 0.495805 0.439609 0.990895
O O5 0.287986 0.331967 0.969006
O O6 0.618394 0.767410 0.451804
O O7 0.000000 0.728494 0.250000
#
# Coordination Sequence:
#
# PCOD9320291 Si02
#       4
#     4   8   8   4
#     4  10  22  44  74 106 154 196 252 316 376 470
#     4  10  24  47  79 109 156 205 258 319 390 468
#     4  12  29  53  83 116 155 207 267 333 395 470
#     4  10  22  46  74 112 150 204 250 316 384 464
#
# _framework density 23.952327
#
# number of rings (size 3 to 8) (size 9 to 14) (size 15 to 20)
#    0.000    1.333    0.000    3.000   14.000    0.000 
#   24.000    0.000    3.667    0.000    0.000    0.000 
#    0.000    0.000    0.000    0.000    0.000    0.000 
#
# Total GULP energy -66894.375174 kJ/mol
# GULP energy per Si atom -5574.531265 kJ/mol
# Density = 2.389781 g / cm^3
# Si number density = 23.952327 Si / 1000 Ang^3
#
#
#
# Elastic Constant Matrix: (Units=GPa)
#
#
# Indices 1 2 3 4 5 6 
#
# 1 115.3787 57.6257 20.2155 0.0000 0.0000 0.0000
# 2 57.6257 151.8378 49.5330 0.0000 0.0000 0.0000
# 3 20.2155 49.5330 65.5639 0.0000 0.0000 0.0000
# 4 0.0000 0.0000 0.0000 33.0528 0.0000 0.0000
# 5 0.0000 0.0000 0.0000 0.0000 -96.3629 0.0000
# 6 0.0000 0.0000 0.0000 0.0000 0.0000 54.6143
#
#
#
# Elastic Compliance Matrix: (Units=1/GPa)
#
#
# Indices 1 2 3 4 5 6 
#
# 1 0.010699 -0.003960 -0.000307 0.000000 0.000000 0.000000
# 2 -0.003960 0.010206 -0.006489 0.000000 0.000000 0.000000
# 3 -0.000307 -0.006489 0.020250 0.000000 0.000000 0.000000
# 4 0.000000 0.000000 0.000000 0.030255 0.000000 0.000000
# 5 0.000000 0.000000 0.000000 0.000000 -0.010377 0.000000
# 6 0.000000 0.000000 0.000000 0.000000 0.000000 0.018310
#
#
# Mechanical properties :
#
#
# Convention : Reuss Voigt Hill
#
# Bulk Modulus (GPa) = 50.91318 65.28099 58.09708
# Shear Modulus (GPa) = 46.55396 11.95459 29.25427
#
# Velocity S-wave (km/s) = 4.41342 2.23648 3.49858
# Velocity P-wave (km/s) = 6.87555 5.82948 6.37401
#
# Compressibility (1/GPa) = 0.01964128
#
# Stress axis : x y z
#
# Youngs Moduli (GPa) = 93.46791 97.98125 49.38363
#
# Poissons Ratio (x) = 0.38804 0.01515
# Poissons Ratio (y) = 0.37017 0.32047
# Poissons Ratio (z) = 0.02867 0.63585
#
# Static dielectric constant tensor:
#      x y z
#    x 2.042290 0.000000 0.000000 
#    y 0.000000 3.590690 0.000000 
#    z 0.000000 0.000000 1.921260 
# 
# From -- ./inp_files/4981.got.cif
#   From: 2010.05.17/outbox.cif.g08.bks.cpg/sg20_3_cif.got.tgz:4981.got - 2010.06.03 22:52:26.
