data_PCOD9320768
_publ_section_title
;
Structure prediction by ZEFSAII (Michael W. Deem and Ramdas Pophale) SiO2 
 PCOD9320768
Probable space group: C 2 2 21
;
_chemical_formula_sum "Si O2"
_cell_formula_units_Z 48
_cell_length_a 8.742361
_cell_length_b 18.850144
_cell_length_c 14.963105
_cell_angle_alpha 90.000000
_cell_angle_beta 90.000000
_cell_angle_gamma 90.000000
_cell_volume 2465.841353
_symmetry_space_group_name_H-M "C 2 2 21"
_symmetry_group_IT_number 20
_symmetry_cell_setting 'orthorhombic'
loop_
_space_group_symop_operation_xyz
x,y,z
-x,-y,1/2+z
x,-y,-z
-x,y,1/2-z
1/2+x,1/2+y,z
1/2-x,1/2-y,1/2+z
1/2+x,1/2-y,-z
1/2-x,1/2+y,1/2-z
loop_
_atom_site_type_symbol
_atom_site_label
_atom_site_fract_x
_atom_site_fract_y
_atom_site_fract_z
Si Si1 0.500000 0.845615 0.250000
Si Si2 0.580313 0.730157 0.104227
Si Si3 0.091367 0.000000 0.000000
Si Si4 0.569479 0.067345 0.152379
Si Si5 0.634184 0.063645 0.604739
Si Si6 0.416583 0.815282 0.957549
Si Si7 0.569755 0.584369 0.345613
O O1 0.573876 0.795276 0.174409
O O2 0.380514 0.897252 0.199906
O O3 0.754109 0.706638 0.084277
O O4 0.480069 0.666591 0.145453
O O5 0.503403 0.753168 0.010257
O O6 0.203254 0.033901 0.925626
O O7 0.993361 0.948325 0.938193
O O8 0.500000 0.062061 0.250000
O O9 0.518553 0.143291 0.113698
O O10 0.751318 0.067352 0.155593
O O11 0.489355 0.000400 0.102890
O O12 0.605683 0.124519 0.532487
O O13 0.500000 0.559244 0.250000
#
# Coordination Sequence:
#
# PCOD9320768 Si02
#       7
#     4   8   4   8   8   8   8
#     4  10  24  38  74  92 136 176 228 272 344 402
#     4  11  22  45  66  97 139 176 231 278 346 407
#     4  12  24  44  72  98 142 174 228 300 344 410
#     4  12  24  42  71  96 135 179 228 277 349 409
#     4  11  21  42  67  96 132 176 221 281 341 404
#     4  11  23  41  67  96 130 181 221 281 335 411
#     4  12  26  44  68 102 138 180 230 289 346 412
#
# _framework density 19.465973000000002
#
# number of rings (size 3 to 8) (size 9 to 14) (size 15 to 20)
#    0.000    0.667    5.000    3.000    2.333    0.000 
#    0.000    0.000    0.000    0.000    0.000    0.000 
#    0.000    0.000    0.000    0.000    0.000    0.000 
#
# Total GULP energy -133915.787631 kJ/mol
# GULP energy per Si atom -5579.824485 kJ/mol
# Density = 1.942167 g / cm^3
# Si number density = 19.465973 Si / 1000 Ang^3
#
#
#
# Elastic Constant Matrix: (Units=GPa)
#
#
# Indices 1 2 3 4 5 6 
#
# 1 160.9356 53.9081 52.2485 0.0000 0.0000 0.0000
# 2 53.9081 80.8652 51.1911 0.0000 0.0000 0.0000
# 3 52.2485 51.1911 98.8748 0.0000 0.0000 0.0000
# 4 0.0000 0.0000 0.0000 47.3161 0.0000 0.0000
# 5 0.0000 0.0000 0.0000 0.0000 23.4889 0.0000
# 6 0.0000 0.0000 0.0000 0.0000 0.0000 19.0561
#
#
#
# Elastic Compliance Matrix: (Units=1/GPa)
#
#
# Indices 1 2 3 4 5 6 
#
# 1 0.008329 -0.004115 -0.002271 0.000000 0.000000 0.000000
# 2 -0.004115 0.020428 -0.008402 0.000000 0.000000 0.000000
# 3 -0.002271 -0.008402 0.015664 0.000000 0.000000 0.000000
# 4 0.000000 0.000000 0.000000 0.021134 0.000000 0.000000
# 5 0.000000 0.000000 0.000000 0.000000 0.042573 0.000000
# 6 0.000000 0.000000 0.000000 0.000000 0.000000 0.052477
#
#
# Mechanical properties :
#
#
# Convention : Reuss Voigt Hill
#
# Bulk Modulus (GPa) = 67.36031 72.81899 70.08965
# Shear Modulus (GPa) = 25.62389 30.19409 27.90899
#
# Velocity S-wave (km/s) = 3.63208 3.94270 3.79057
# Velocity P-wave (km/s) = 7.22970 7.62995 7.43252
#
# Compressibility (1/GPa) = 0.01484554
#
# Stress axis : x y z
#
# Youngs Moduli (GPa) = 120.05732 48.95155 63.84122
#
# Poissons Ratio (x) = 0.20144 0.14498
# Poissons Ratio (y) = 0.49405 0.53639
# Poissons Ratio (z) = 0.27264 0.41129
#
# Static dielectric constant tensor:
#      x y z
#    x 1.725090 0.000000 0.000000 
#    y 0.000000 1.719540 0.000000 
#    z 0.000000 0.000000 1.699350 
# 
# From -- ./inp_files/18928.got.cif
#   From: 2010.05.17/outbox.cif.g08.bks.cpg/sg20_10_cif.got.tgz:18928.got - 2010.06.03 22:52:26.
