data_PCOD9320742
_publ_section_title
;
Structure prediction by ZEFSAII (Michael W. Deem and Ramdas Pophale) SiO2 
 PCOD9320742
Probable space group: C 2 2 21
;
_chemical_formula_sum "Si O2"
_cell_formula_units_Z 60
_cell_length_a 8.637233
_cell_length_b 24.550312
_cell_length_c 11.094230
_cell_angle_alpha 90.000000
_cell_angle_beta 90.000000
_cell_angle_gamma 90.000000
_cell_volume 2352.495581
_symmetry_space_group_name_H-M "C 2 2 21"
_symmetry_group_IT_number 20
_symmetry_cell_setting 'orthorhombic'
loop_
_space_group_symop_operation_xyz
x,y,z
-x,-y,1/2+z
x,-y,-z
-x,y,1/2-z
1/2+x,1/2+y,z
1/2-x,1/2-y,1/2+z
1/2+x,1/2-y,-z
1/2-x,1/2+y,1/2-z
loop_
_atom_site_type_symbol
_atom_site_label
_atom_site_fract_x
_atom_site_fract_y
_atom_site_fract_z
Si Si1 0.827529 0.098592 0.283877
Si Si2 0.880504 0.225525 0.588961
Si Si3 0.500000 0.893028 0.750000
Si Si4 0.520509 0.053420 0.501654
Si Si5 0.785598 0.972853 0.303345
Si Si6 0.453624 0.395490 0.458149
Si Si7 0.723300 0.881893 0.104692
Si Si8 0.226173 0.242816 0.659083
O O1 0.674623 0.131048 0.238146
O O2 0.841247 0.100187 0.428861
O O3 0.000000 0.118701 0.250000
O O4 0.811482 0.033778 0.255540
O O5 0.906776 0.160459 0.608823
O O6 0.769835 0.249698 0.694618
O O7 0.828444 0.231372 0.449277
O O8 0.048616 0.251904 0.615255
O O9 0.465471 0.930259 0.864189
O O10 0.651214 0.033372 0.594728
O O11 0.444576 0.107370 0.553583
O O12 0.410074 0.000000 0.500000
O O13 0.931470 0.948554 0.376116
O O14 0.743851 0.928067 0.204842
O O15 0.634881 0.390700 0.488627
O O16 0.737924 0.821121 0.148204
#
# Coordination Sequence:
#
# PCOD9320742 Si02
#       8
#     8   8   4   8   8   8   8   8
#     4  12  25  43  68 101 147 196 239 294 365 416
#     4  10  23  47  75 102 143 180 229 307 365 444
#     4  12  24  44  62  92 144 182 240 294 344 418
#     4  12  24  42  63  96 143 185 231 299 346 402
#     4  12  22  42  67 100 139 183 239 290 336 414
#     4  11  22  44  67 100 139 180 234 291 355 429
#     4  11  24  42  73 100 134 188 239 280 357 442
#     4  10  23  48  73 107 138 181 238 297 376 440
#
# _framework density 25.504829999999998
#
# number of rings (size 3 to 8) (size 9 to 14) (size 15 to 20)
#    0.000    0.800    4.000    3.600    0.000    2.667 
#    9.600    0.000    0.000    0.000    0.000    0.000 
#    0.000    0.000    0.000    0.000    0.000    0.000 
#
# Total GULP energy -167400.238924 kJ/mol
# GULP energy per Si atom -5580.007964 kJ/mol
# Density = 2.544678 g / cm^3
# Si number density = 25.504830 Si / 1000 Ang^3
#
#
#
# Elastic Constant Matrix: (Units=GPa)
#
#
# Indices 1 2 3 4 5 6 
#
# 1 89.7680 2.4197 21.3725 0.0000 0.0000 0.0000
# 2 2.4197 82.7466 -1.1764 0.0000 0.0000 0.0000
# 3 21.3725 -1.1764 81.4312 0.0000 0.0000 0.0000
# 4 0.0000 0.0000 0.0000 16.0228 0.0000 0.0000
# 5 0.0000 0.0000 0.0000 0.0000 29.5464 0.0000
# 6 0.0000 0.0000 0.0000 0.0000 0.0000 3.7091
#
#
#
# Elastic Compliance Matrix: (Units=1/GPa)
#
#
# Indices 1 2 3 4 5 6 
#
# 1 0.011895 -0.000392 -0.003128 0.000000 0.000000 0.000000
# 2 -0.000392 0.012101 0.000278 0.000000 0.000000 0.000000
# 3 -0.003128 0.000278 0.013105 0.000000 0.000000 0.000000
# 4 0.000000 0.000000 0.000000 0.062411 0.000000 0.000000
# 5 0.000000 0.000000 0.000000 0.000000 0.033845 0.000000
# 6 0.000000 0.000000 0.000000 0.000000 0.000000 0.269607
#
#
# Mechanical properties :
#
#
# Convention : Reuss Voigt Hill
#
# Bulk Modulus (GPa) = 32.66225 33.24196 32.95210
# Shear Modulus (GPa) = 11.91460 25.27766 18.59613
#
# Velocity S-wave (km/s) = 2.16371 3.15158 2.70316
# Velocity P-wave (km/s) = 4.36764 5.12885 4.76348
#
# Compressibility (1/GPa) = 0.03061638
#
# Stress axis : x y z
#
# Youngs Moduli (GPa) = 84.06861 82.64115 76.30561
#
# Poissons Ratio (x) = 0.03242 0.23866
# Poissons Ratio (y) = 0.03298 -0.02120
# Poissons Ratio (z) = 0.26294 -0.02296
#
# Static dielectric constant tensor:
#      x y z
#    x 2.196020 0.000000 0.000000 
#    y 0.000000 1.972170 0.000000 
#    z 0.000000 0.000000 2.090230 
# 
# From -- ./inp_files/13305.got.cif
#   From: 2010.05.17/outbox.cif.g08.bks.cpg/sg20_7_cif.got.tgz:13305.got - 2010.06.03 22:52:26.
