data_PCOD9320975
_publ_section_title
;
Structure prediction by ZEFSAII (Michael W. Deem and Ramdas Pophale) SiO2 
 PCOD9320975
Probable space group: C 2 2 21
;
_chemical_formula_sum "Si O2"
_cell_formula_units_Z 32
_cell_length_a 27.922563
_cell_length_b 5.023462
_cell_length_c 9.633996
_cell_angle_alpha 90.000000
_cell_angle_beta 90.000000
_cell_angle_gamma 90.000000
_cell_volume 1351.340717
_symmetry_space_group_name_H-M "C 2 2 21"
_symmetry_group_IT_number 20
_symmetry_cell_setting 'orthorhombic'
loop_
_space_group_symop_operation_xyz
x,y,z
-x,-y,1/2+z
x,-y,-z
-x,y,1/2-z
1/2+x,1/2+y,z
1/2-x,1/2-y,1/2+z
1/2+x,1/2-y,-z
1/2-x,1/2+y,1/2-z
loop_
_atom_site_type_symbol
_atom_site_label
_atom_site_fract_x
_atom_site_fract_y
_atom_site_fract_z
Si Si1 0.101214 0.387726 0.347357
Si Si2 0.500000 0.193303 0.750000
Si Si3 0.371178 0.640223 0.698400
Si Si4 0.764467 0.025335 0.341418
Si Si5 0.549103 0.500000 0.000000
O O1 0.106794 0.500000 0.500000
O O2 0.047055 0.459135 0.299878
O O3 0.136911 0.568718 0.259206
O O4 0.109197 0.077602 0.311184
O O5 0.483024 0.360008 0.615753
O O6 0.321374 0.524023 0.648571
O O7 0.412525 0.676947 0.583660
O O8 0.754380 0.303511 0.266227
O O9 0.744900 0.000000 0.500000
#
# Coordination Sequence:
#
# PCOD9320975 Si02
#       5
#     8   4   8   8   4
#     4  11  26  41  69 101 145 185 240 292 353 426
#     4  10  26  40  72 102 144 192 242 294 352 424
#     4  11  25  47  70 103 142 190 233 295 369 429
#     4  12  27  49  79 112 148 194 251 313 382 458
#     4  10  24  46  72 100 146 184 238 290 352 428
#
# _framework density 23.680188000000001
#
# number of rings (size 3 to 8) (size 9 to 14) (size 15 to 20)
#    0.000    1.000    1.250    3.000   10.500   10.000 
#    0.000    0.000    0.000    0.000    0.000    0.000 
#    0.000    0.000    0.000    0.000    0.000    0.000 
#
# Total GULP energy -89433.637001 kJ/mol
# GULP energy per Si atom -5589.602313 kJ/mol
# Density = 2.362629 g / cm^3
# Si number density = 23.680188 Si / 1000 Ang^3
#
#
#
# Elastic Constant Matrix: (Units=GPa)
#
#
# Indices 1 2 3 4 5 6 
#
# 1 88.9138 4.9737 23.7058 0.0000 0.0000 0.0000
# 2 4.9737 86.3884 27.9361 0.0000 0.0000 0.0000
# 3 23.7058 27.9361 158.5360 0.0000 0.0000 0.0000
# 4 0.0000 0.0000 0.0000 17.4461 0.0000 0.0000
# 5 0.0000 0.0000 0.0000 0.0000 19.7869 0.0000
# 6 0.0000 0.0000 0.0000 0.0000 0.0000 28.4093
#
#
#
# Elastic Compliance Matrix: (Units=1/GPa)
#
#
# Indices 1 2 3 4 5 6 
#
# 1 0.011715 -0.000115 -0.001732 0.000000 0.000000 0.000000
# 2 -0.000115 0.012276 -0.002146 0.000000 0.000000 0.000000
# 3 -0.001732 -0.002146 0.006945 0.000000 0.000000 0.000000
# 4 0.000000 0.000000 0.000000 0.057319 0.000000 0.000000
# 5 0.000000 0.000000 0.000000 0.000000 0.050538 0.000000
# 6 0.000000 0.000000 0.000000 0.000000 0.000000 0.035200
#
#
# Mechanical properties :
#
#
# Convention : Reuss Voigt Hill
#
# Bulk Modulus (GPa) = 43.56998 49.67438 46.62218
# Shear Modulus (GPa) = 26.36737 31.60997 28.98867
#
# Velocity S-wave (km/s) = 3.34050 3.65755 3.50262
# Velocity P-wave (km/s) = 5.77216 6.23375 6.00739
#
# Compressibility (1/GPa) = 0.02295158
#
# Stress axis : x y z
#
# Youngs Moduli (GPa) = 85.36128 81.45833 143.99256
#
# Poissons Ratio (x) = 0.00933 0.24933
# Poissons Ratio (y) = 0.00978 0.30902
# Poissons Ratio (z) = 0.14781 0.17482
#
# Static dielectric constant tensor:
#      x y z
#    x 1.889670 0.000000 0.000000 
#    y 0.000000 1.860220 0.000000 
#    z 0.000000 0.000000 2.167230 
# 
# From -- ./inp_files/5160.got.cif
#   From: 2010.05.17/outbox.cif.g08.bks.cpg/sg20_3_cif.got.tgz:5160.got - 2010.06.03 22:52:26.
