data_PCOD9320445
_publ_section_title
;
Structure prediction by ZEFSAII (Michael W. Deem and Ramdas Pophale) SiO2 
 PCOD9320445
Probable space group: C 2 2 21
;
_chemical_formula_sum "Si O2"
_cell_formula_units_Z 40
_cell_length_a 18.200891
_cell_length_b 11.783624
_cell_length_c 7.569115
_cell_angle_alpha 90.000000
_cell_angle_beta 90.000000
_cell_angle_gamma 90.000000
_cell_volume 1623.366684
_symmetry_space_group_name_H-M "C 2 2 21"
_symmetry_group_IT_number 20
_symmetry_cell_setting 'orthorhombic'
loop_
_space_group_symop_operation_xyz
x,y,z
-x,-y,1/2+z
x,-y,-z
-x,y,1/2-z
1/2+x,1/2+y,z
1/2-x,1/2-y,1/2+z
1/2+x,1/2-y,-z
1/2-x,1/2+y,1/2-z
loop_
_atom_site_type_symbol
_atom_site_label
_atom_site_fract_x
_atom_site_fract_y
_atom_site_fract_z
Si Si1 0.965059 0.877176 0.020513
Si Si2 0.307655 0.813774 0.753077
Si Si3 0.654240 0.746626 0.343029
Si Si4 0.412212 0.018483 0.788750
Si Si5 0.113193 0.114361 0.894522
O O1 0.914447 0.901281 0.191105
O O2 0.041146 0.811420 0.042140
O O3 0.917288 0.831462 0.863633
O O4 0.999788 0.000000 0.000000
O O5 0.220535 0.827569 0.732975
O O6 0.322613 0.704836 0.629164
O O7 0.362420 0.917175 0.708181
O O8 0.326769 0.780374 0.954425
O O9 0.628949 0.862478 0.249528
O O10 0.500000 0.017562 0.750000
O O11 0.407910 0.000000 0.000000
O O12 0.135976 0.000000 0.000000
#
# Coordination Sequence:
#
# PCOD9320445 Si02
#       5
#     8   8   8   8   8
#     4   9  19  37  60  89 125 159 212 275 330 399
#     4  10  23  40  67  93 136 177 225 285 345 410
#     4  10  23  42  62  96 135 176 228 284 340 413
#     4  10  24  44  69 101 138 185 235 286 346 419
#     4   9  19  36  62  91 118 165 212 270 338 397
#
# _framework density 24.640150999999999
#
# number of rings (size 3 to 8) (size 9 to 14) (size 15 to 20)
#    0.000    2.400    0.000    0.000    8.400    8.800 
#    7.200    0.000    0.000    0.000    0.000    0.000 
#    0.000    0.000    0.000    0.000    0.000    0.000 
#
# Total GULP energy -111466.097948 kJ/mol
# GULP energy per Si atom -5573.304897 kJ/mol
# Density = 2.458407 g / cm^3
# Si number density = 24.640151 Si / 1000 Ang^3
#
#
#
# Elastic Constant Matrix: (Units=GPa)
#
#
# Indices 1 2 3 4 5 6 
#
# 1 81.9689 62.6091 7.4538 0.0000 0.0000 0.0000
# 2 62.6091 114.8614 46.1912 0.0000 0.0000 0.0000
# 3 7.4538 46.1912 59.2507 0.0000 0.0000 0.0000
# 4 0.0000 0.0000 0.0000 34.3667 0.0000 0.0000
# 5 0.0000 0.0000 0.0000 0.0000 35.8170 0.0000
# 6 0.0000 0.0000 0.0000 0.0000 0.0000 18.7024
#
#
#
# Elastic Compliance Matrix: (Units=1/GPa)
#
#
# Indices 1 2 3 4 5 6 
#
# 1 0.024926 -0.017955 0.010862 0.000000 0.000000 0.000000
# 2 -0.017955 0.025615 -0.017711 0.000000 0.000000 0.000000
# 3 0.010862 -0.017711 0.029318 0.000000 0.000000 0.000000
# 4 0.000000 0.000000 0.000000 0.029098 0.000000 0.000000
# 5 0.000000 0.000000 0.000000 0.000000 0.027920 0.000000
# 6 0.000000 0.000000 0.000000 0.000000 0.000000 0.053469
#
#
# Mechanical properties :
#
#
# Convention : Reuss Voigt Hill
#
# Bulk Modulus (GPa) = 33.05575 54.28770 43.67172
# Shear Modulus (GPa) = 19.99693 27.09903 23.54798
#
# Velocity S-wave (km/s) = 2.85188 3.31991 3.09475
# Velocity P-wave (km/s) = 4.92837 6.06430 5.52560
#
# Compressibility (1/GPa) = 0.03025192
#
# Stress axis : x y z
#
# Youngs Moduli (GPa) = 40.11829 39.03899 34.10855
#
# Poissons Ratio (x) = 0.70094 -0.37048
# Poissons Ratio (y) = 0.72032 0.60409
# Poissons Ratio (z) = -0.43575 0.69141
#
# Static dielectric constant tensor:
#      x y z
#    x 1.951180 0.000000 0.000000 
#    y 0.000000 1.999370 0.000000 
#    z 0.000000 0.000000 2.158180 
# 
# From -- ./inp_files/9134.got.cif
#   From: 2010.05.17/outbox.cif.g08.bks.cpg/sg20_5_cif.got.tgz:9134.got - 2010.06.03 22:52:26.
