data_PCOD9320949
_publ_section_title
;
Structure prediction by ZEFSAII (Michael W. Deem and Ramdas Pophale) SiO2 
 PCOD9320949
Probable space group: C 2 2 21
;
_chemical_formula_sum "Si O2"
_cell_formula_units_Z 32
_cell_length_a 18.319000
_cell_length_b 5.545427
_cell_length_c 14.013684
_cell_angle_alpha 90.000000
_cell_angle_beta 90.000000
_cell_angle_gamma 90.000000
_cell_volume 1423.603593
_symmetry_space_group_name_H-M "C 2 2 21"
_symmetry_group_IT_number 20
_symmetry_cell_setting 'orthorhombic'
loop_
_space_group_symop_operation_xyz
x,y,z
-x,-y,1/2+z
x,-y,-z
-x,y,1/2-z
1/2+x,1/2+y,z
1/2-x,1/2-y,1/2+z
1/2+x,1/2-y,-z
1/2-x,1/2+y,1/2-z
loop_
_atom_site_type_symbol
_atom_site_label
_atom_site_fract_x
_atom_site_fract_y
_atom_site_fract_z
Si Si1 0.876297 0.500000 0.000000
Si Si2 0.517866 0.247599 0.947443
Si Si3 0.848960 0.792973 0.660078
Si Si4 0.222715 0.377773 0.351154
Si Si5 0.231261 0.500000 0.000000
O O1 0.823369 0.427908 0.912874
O O2 0.931049 0.696473 0.952799
O O3 0.564059 0.276019 0.850443
O O4 0.532642 0.500000 0.000000
O O5 0.542836 0.000000 0.000000
O O6 0.817071 0.658061 0.751610
O O7 0.818458 0.680480 0.561962
O O8 0.806870 0.048008 0.664624
O O9 0.224303 0.148538 0.420739
#
# Coordination Sequence:
#
# PCOD9320949 Si02
#       5
#     4   8   8   8   4
#     4  10  25  44  70 105 146 188 242 304 371 438
#     4  10  24  45  72  99 146 199 233 293 379 438
#     4  12  24  43  71 109 140 193 248 305 381 440
#     4  12  25  40  74 107 139 192 252 313 369 445
#     4  12  21  42  66 101 148 178 234 314 365 432
#
# _framework density 22.478169000000001
#
# number of rings (size 3 to 8) (size 9 to 14) (size 15 to 20)
#    0.750    0.000    6.250    1.500    1.750    1.000 
#    0.000    0.000    5.500    0.000    0.000    0.000 
#    0.000    0.000    0.000    0.000    0.000    0.000 
#
# Total GULP energy -89100.806768 kJ/mol
# GULP energy per Si atom -5568.800423 kJ/mol
# Density = 2.242701 g / cm^3
# Si number density = 22.478169 Si / 1000 Ang^3
#
#
#
# Elastic Constant Matrix: (Units=GPa)
#
#
# Indices 1 2 3 4 5 6 
#
# 1 105.3216 18.4569 15.9165 0.0000 0.0000 0.0000
# 2 18.4569 77.6475 10.4443 0.0000 0.0000 0.0000
# 3 15.9165 10.4443 86.2894 0.0000 0.0000 0.0000
# 4 0.0000 0.0000 0.0000 38.4540 0.0000 0.0000
# 5 0.0000 0.0000 0.0000 0.0000 -22.9229 0.0000
# 6 0.0000 0.0000 0.0000 0.0000 0.0000 3.7266
#
#
#
# Elastic Compliance Matrix: (Units=1/GPa)
#
#
# Indices 1 2 3 4 5 6 
#
# 1 0.010121 -0.002190 -0.001602 0.000000 0.000000 0.000000
# 2 -0.002190 0.013566 -0.001238 0.000000 0.000000 0.000000
# 3 -0.001602 -0.001238 0.012034 0.000000 0.000000 0.000000
# 4 0.000000 0.000000 0.000000 0.026005 0.000000 0.000000
# 5 0.000000 0.000000 0.000000 0.000000 -0.043625 0.000000
# 6 0.000000 0.000000 0.000000 0.000000 0.000000 0.268342
#
#
# Mechanical properties :
#
#
# Convention : Reuss Voigt Hill
#
# Bulk Modulus (GPa) = 38.96991 39.87710 39.42350
# Shear Modulus (GPa) = 16.39037 18.81425 17.60231
#
# Velocity S-wave (km/s) = 2.70324 2.89624 2.80140
# Velocity P-wave (km/s) = 5.20747 5.38174 5.29532
#
# Compressibility (1/GPa) = 0.02566083
#
# Stress axis : x y z
#
# Youngs Moduli (GPa) = 98.80833 73.71444 83.09661
#
# Poissons Ratio (x) = 0.16145 0.13309
# Poissons Ratio (y) = 0.21641 0.10287
# Poissons Ratio (z) = 0.15826 0.09126
#
# Static dielectric constant tensor:
#      x y z
#    x 1.929870 0.000000 0.000000 
#    y 0.000000 2.031160 0.000000 
#    z 0.000000 0.000000 1.810050 
# 
# From -- ./inp_files/17522.got.cif
#   From: 2010.05.17/outbox.cif.g08.bks.cpg/sg20_9_cif.got.tgz:17522.got - 2010.06.03 22:52:26.
