data_PCOD9320079
_publ_section_title
;
Structure prediction by ZEFSAII (Michael W. Deem and Ramdas Pophale) SiO2 
 PCOD9320079
Probable space group: C 2 2 21
;
_chemical_formula_sum "Si O2"
_cell_formula_units_Z 48
_cell_length_a 13.245233
_cell_length_b 11.630752
_cell_length_c 14.640474
_cell_angle_alpha 90.000000
_cell_angle_beta 90.000000
_cell_angle_gamma 90.000000
_cell_volume 2255.394596
_symmetry_space_group_name_H-M "C 2 2 21"
_symmetry_group_IT_number 20
_symmetry_cell_setting 'orthorhombic'
loop_
_space_group_symop_operation_xyz
x,y,z
-x,-y,1/2+z
x,-y,-z
-x,y,1/2-z
1/2+x,1/2+y,z
1/2-x,1/2-y,1/2+z
1/2+x,1/2-y,-z
1/2-x,1/2+y,1/2-z
loop_
_atom_site_type_symbol
_atom_site_label
_atom_site_fract_x
_atom_site_fract_y
_atom_site_fract_z
Si Si1 0.567623 0.500000 0.500000
Si Si2 0.711488 0.110490 0.690874
Si Si3 0.707112 0.261545 0.870414
Si Si4 0.000000 0.558916 0.750000
Si Si5 0.423536 0.518818 0.334716
Si Si6 0.443257 0.122483 0.547303
Si Si7 0.137006 0.253636 0.489995
O O1 0.493232 0.473356 0.415967
O O2 0.631078 0.615413 0.479107
O O3 0.721069 0.201386 0.773588
O O4 0.617639 0.024551 0.720644
O O5 0.820686 0.051974 0.681972
O O6 0.682724 0.178804 0.597886
O O7 0.621569 0.357231 0.861021
O O8 0.667897 0.172228 0.947333
O O9 0.808794 0.300502 0.918912
O O10 0.973534 0.617964 0.654226
O O11 0.500000 0.527074 0.250000
O O12 0.521288 0.206909 0.501033
O O13 0.448982 0.000000 0.500000
#
# Coordination Sequence:
#
# PCOD9320079 Si02
#       7
#     4   8   8   4   8   8   8
#     4  12  24  44  70 102 146 182 234 296 360 422
#     4  10  23  44  69  98 135 187 234 285 351 430
#     4  11  24  43  66 101 133 185 234 282 361 413
#     4   8  20  42  68  94 130 176 234 266 354 406
#     4  12  25  44  72 104 142 185 237 303 360 426
#     4  10  22  42  67  96 133 176 227 284 340 419
#     4  11  24  42  69  99 136 185 231 288 346 419
#
# _framework density 21.282308
#
# number of rings (size 3 to 8) (size 9 to 14) (size 15 to 20)
#    0.000    1.333    1.667    3.000   10.500    0.000 
#    3.000    0.000    3.667    0.000    0.000    0.000 
#    0.000    0.000    0.000    0.000    0.000    0.000 
#
# Total GULP energy -133636.799681 kJ/mol
# GULP energy per Si atom -5568.199987 kJ/mol
# Density = 2.123387 g / cm^3
# Si number density = 21.282308 Si / 1000 Ang^3
#
#
#
# Elastic Constant Matrix: (Units=GPa)
#
#
# Indices 1 2 3 4 5 6 
#
# 1 121.1757 28.9580 39.0247 0.0000 0.0000 0.0000
# 2 28.9580 98.7925 21.1868 0.0000 0.0000 0.0000
# 3 39.0247 21.1868 89.8529 0.0000 0.0000 0.0000
# 4 0.0000 0.0000 0.0000 16.0397 0.0000 0.0000
# 5 0.0000 0.0000 0.0000 0.0000 36.1475 0.0000
# 6 0.0000 0.0000 0.0000 0.0000 0.0000 28.3686
#
#
#
# Elastic Compliance Matrix: (Units=1/GPa)
#
#
# Indices 1 2 3 4 5 6 
#
# 1 0.009993 -0.002105 -0.003844 0.000000 0.000000 0.000000
# 2 -0.002105 0.011105 -0.001704 0.000000 0.000000 0.000000
# 3 -0.003844 -0.001704 0.013201 0.000000 0.000000 0.000000
# 4 0.000000 0.000000 0.000000 0.062345 0.000000 0.000000
# 5 0.000000 0.000000 0.000000 0.000000 0.027664 0.000000
# 6 0.000000 0.000000 0.000000 0.000000 0.000000 0.035250
#
#
# Mechanical properties :
#
#
# Convention : Reuss Voigt Hill
#
# Bulk Modulus (GPa) = 52.65221 54.23999 53.44610
# Shear Modulus (GPa) = 27.59443 30.82126 29.20785
#
# Velocity S-wave (km/s) = 3.60473 3.80966 3.70861
# Velocity P-wave (km/s) = 6.48992 6.70020 6.59590
#
# Compressibility (1/GPa) = 0.01899255
#
# Stress axis : x y z
#
# Youngs Moduli (GPa) = 100.06536 90.05193 75.75370
#
# Poissons Ratio (x) = 0.18955 0.29120
# Poissons Ratio (y) = 0.21063 0.12910
# Poissons Ratio (z) = 0.38465 0.15347
#
# Static dielectric constant tensor:
#      x y z
#    x 1.843770 0.000000 0.000000 
#    y 0.000000 1.783750 0.000000 
#    z 0.000000 0.000000 1.753780 
# 
# From -- ./inp_files/20689.got.cif
#   From: 2010.05.17/outbox.cif.g08.bks.cpg/sg20_11_cif.got.tgz:20689.got - 2010.06.03 22:52:26.
