data_PCOD9320930
_publ_section_title
;
Structure prediction by ZEFSAII (Michael W. Deem and Ramdas Pophale) SiO2 
 PCOD9320930
Probable space group: C 2 2 21
;
_chemical_formula_sum "Si O2"
_cell_formula_units_Z 32
_cell_length_a 14.219433
_cell_length_b 11.201244
_cell_length_c 7.811771
_cell_angle_alpha 90.000000
_cell_angle_beta 90.000000
_cell_angle_gamma 90.000000
_cell_volume 1244.222471
_symmetry_space_group_name_H-M "C 2 2 21"
_symmetry_group_IT_number 20
_symmetry_cell_setting 'orthorhombic'
loop_
_space_group_symop_operation_xyz
x,y,z
-x,-y,1/2+z
x,-y,-z
-x,y,1/2-z
1/2+x,1/2+y,z
1/2-x,1/2-y,1/2+z
1/2+x,1/2-y,-z
1/2-x,1/2+y,1/2-z
loop_
_atom_site_type_symbol
_atom_site_label
_atom_site_fract_x
_atom_site_fract_y
_atom_site_fract_z
Si Si1 0.399274 0.736130 0.117673
Si Si2 0.784326 0.218356 0.776785
Si Si3 0.407278 0.514085 0.702661
Si Si4 0.563240 0.129684 0.077546
O O1 0.327330 0.775161 0.266148
O O2 0.416182 0.599220 0.172280
O O3 0.329966 0.751718 0.956848
O O4 0.495139 0.799628 0.058200
O O5 0.813281 0.082324 0.746116
O O6 0.844701 0.298642 0.642810
O O7 0.407494 0.500000 0.500000
O O8 0.500000 0.591764 0.750000
O O9 0.500000 0.112062 0.250000
O O10 0.585548 0.000000 0.000000
#
# Coordination Sequence:
#
# PCOD9320930 Si02
#       4
#     8   8   8   8
#     4  11  25  44  68 101 138 181 232 287 347 411
#     4  11  24  44  66  99 139 184 233 285 346 411
#     4  12  24  43  70 100 138 183 232 288 343 409
#     4  10  24  45  69 100 142 184 229 284 348 415
#
# _framework density 25.718872999999999
#
# number of rings (size 3 to 8) (size 9 to 14) (size 15 to 20)
#    0.000    1.000    0.000    7.500    0.000   12.000 
#    0.000    0.000    0.000    0.000    0.000    0.000 
#    0.000    0.000    0.000    0.000    0.000    0.000 
#
# Total GULP energy -89572.889335 kJ/mol
# GULP energy per Si atom -5598.305583 kJ/mol
# Density = 2.566034 g / cm^3
# Si number density = 25.718873 Si / 1000 Ang^3
#
#
#
# Elastic Constant Matrix: (Units=GPa)
#
#
# Indices 1 2 3 4 5 6 
#
# 1 199.6400 45.4489 42.8953 0.0000 0.0000 0.0000
# 2 45.4489 128.4078 27.3388 0.0000 0.0000 0.0000
# 3 42.8953 27.3388 104.7709 0.0000 0.0000 0.0000
# 4 0.0000 0.0000 0.0000 40.6768 0.0000 0.0000
# 5 0.0000 0.0000 0.0000 0.0000 47.8010 0.0000
# 6 0.0000 0.0000 0.0000 0.0000 0.0000 -164.8717
#
#
#
# Elastic Compliance Matrix: (Units=1/GPa)
#
#
# Indices 1 2 3 4 5 6 
#
# 1 0.005800 -0.001638 -0.001947 0.000000 0.000000 0.000000
# 2 -0.001638 0.008709 -0.001602 0.000000 0.000000 0.000000
# 3 -0.001947 -0.001602 0.010760 0.000000 0.000000 0.000000
# 4 0.000000 0.000000 0.000000 0.024584 0.000000 0.000000
# 5 0.000000 0.000000 0.000000 0.000000 0.020920 0.000000
# 6 0.000000 0.000000 0.000000 0.000000 0.000000 -0.006065
#
#
# Mechanical properties :
#
#
# Convention : Reuss Voigt Hill
#
# Bulk Modulus (GPa) = 67.14024 73.79830 70.46927
# Shear Modulus (GPa) = 62.46334 5.86359 34.16347
#
# Velocity S-wave (km/s) = 4.93353 1.51156 3.64860
# Velocity P-wave (km/s) = 7.65605 5.63941 6.72376
#
# Compressibility (1/GPa) = 0.01489420
#
# Stress axis : x y z
#
# Youngs Moduli (GPa) = 172.40170 114.82924 92.93845
#
# Poissons Ratio (x) = 0.18814 0.18098
# Poissons Ratio (y) = 0.28247 0.14885
# Poissons Ratio (z) = 0.33571 0.18391
#
# Static dielectric constant tensor:
#      x y z
#    x 2.136530 0.000000 0.000000 
#    y 0.000000 2.036180 0.000000 
#    z 0.000000 0.000000 3.213320 
# 
# From -- ./inp_files/7879.got.cif
#   From: 2010.05.17/outbox.cif.g08.bks.cpg/sg20_4_cif.got.tgz:7879.got - 2010.06.03 22:52:26.
