data_PCOD9320735
_publ_section_title
;
Structure prediction by ZEFSAII (Michael W. Deem and Ramdas Pophale) SiO2 
 PCOD9320735
Probable space group: C 2 2 21
;
_chemical_formula_sum "Si O2"
_cell_formula_units_Z 40
_cell_length_a 21.576340
_cell_length_b 10.247165
_cell_length_c 7.989573
_cell_angle_alpha 90.000000
_cell_angle_beta 90.000000
_cell_angle_gamma 90.000000
_cell_volume 1766.465157
_symmetry_space_group_name_H-M "C 2 2 21"
_symmetry_group_IT_number 20
_symmetry_cell_setting 'orthorhombic'
loop_
_space_group_symop_operation_xyz
x,y,z
-x,-y,1/2+z
x,-y,-z
-x,y,1/2-z
1/2+x,1/2+y,z
1/2-x,1/2-y,1/2+z
1/2+x,1/2-y,-z
1/2-x,1/2+y,1/2-z
loop_
_atom_site_type_symbol
_atom_site_label
_atom_site_fract_x
_atom_site_fract_y
_atom_site_fract_z
Si Si1 0.894143 0.852546 0.064619
Si Si2 0.320244 0.635180 0.407957
Si Si3 0.073258 0.719575 0.767487
Si Si4 0.446127 0.000000 0.500000
Si Si5 0.760964 0.137169 0.038403
Si Si6 0.000000 0.289110 0.750000
O O1 0.940890 0.801741 0.205859
O O2 0.901431 0.746420 0.916705
O O3 0.820084 0.855609 0.089031
O O4 0.910494 0.000000 0.000000
O O5 0.314342 0.500000 0.500000
O O6 0.391750 0.674280 0.380314
O O7 0.285200 0.745811 0.510832
O O8 0.288804 0.634158 0.224680
O O9 0.000000 0.736181 0.750000
O O10 0.087095 0.579949 0.851714
O O11 0.484190 0.113277 0.403627
O O12 0.729053 0.000000 0.000000
#
# Coordination Sequence:
#
# PCOD9320735 Si02
#       6
#     8   8   8   4   8   4
#     4  10  24  43  68 101 141 188 238 312 366 440
#     4  11  25  46  76 107 148 197 250 307 375 446
#     4  11  24  45  66 101 141 187 244 299 363 443
#     4  12  24  40  64  96 140 184 244 282 378 440
#     4  10  23  47  70 104 148 190 252 301 373 442
#     4  12  22  40  66  96 140 188 240 302 364 438
#
# _framework density 22.644092000000001
#
# number of rings (size 3 to 8) (size 9 to 14) (size 15 to 20)
#    0.000    1.200    3.000    1.200    2.800    7.200 
#    9.000    0.000    0.000    0.000    0.000    0.000 
#    0.000    0.000    0.000    0.000    0.000    0.000 
#
# Total GULP energy -111747.342732 kJ/mol
# GULP energy per Si atom -5587.367137 kJ/mol
# Density = 2.259255 g / cm^3
# Si number density = 22.644092 Si / 1000 Ang^3
#
#
#
# Elastic Constant Matrix: (Units=GPa)
#
#
# Indices 1 2 3 4 5 6 
#
# 1 97.4466 65.3942 41.5166 0.0000 0.0000 0.0000
# 2 65.3942 168.7003 55.2051 0.0000 0.0000 0.0000
# 3 41.5166 55.2051 97.3065 0.0000 0.0000 0.0000
# 4 0.0000 0.0000 0.0000 40.7875 0.0000 0.0000
# 5 0.0000 0.0000 0.0000 0.0000 26.1807 0.0000
# 6 0.0000 0.0000 0.0000 0.0000 0.0000 27.7899
#
#
#
# Elastic Compliance Matrix: (Units=1/GPa)
#
#
# Indices 1 2 3 4 5 6 
#
# 1 0.014928 -0.004546 -0.003790 0.000000 0.000000 0.000000
# 2 -0.004546 0.008664 -0.002975 0.000000 0.000000 0.000000
# 3 -0.003790 -0.002975 0.013582 0.000000 0.000000 0.000000
# 4 0.000000 0.000000 0.000000 0.024517 0.000000 0.000000
# 5 0.000000 0.000000 0.000000 0.000000 0.038196 0.000000
# 6 0.000000 0.000000 0.000000 0.000000 0.000000 0.035984
#
#
# Mechanical properties :
#
#
# Convention : Reuss Voigt Hill
#
# Bulk Modulus (GPa) = 68.72819 76.40947 72.56883
# Shear Modulus (GPa) = 30.61033 32.37412 31.49222
#
# Velocity S-wave (km/s) = 3.68067 3.78523 3.73332
# Velocity P-wave (km/s) = 6.96280 7.27467 7.12044
#
# Compressibility (1/GPa) = 0.01455007
#
# Stress axis : x y z
#
# Youngs Moduli (GPa) = 66.99035 115.42468 73.62807
#
# Poissons Ratio (x) = 0.52476 0.27903
# Poissons Ratio (y) = 0.30456 0.21908
# Poissons Ratio (z) = 0.25387 0.34344
#
# Static dielectric constant tensor:
#      x y z
#    x 1.840900 0.000000 0.000000 
#    y 0.000000 1.814640 0.000000 
#    z 0.000000 0.000000 1.915760 
# 
# From -- ./inp_files/10528.got.cif
#   From: 2010.05.17/outbox.cif.g08.bks.cpg/sg20_6_cif.got.tgz:10528.got - 2010.06.03 22:52:26.
