data_PCOD9320436
_publ_section_title
;
Structure prediction by ZEFSAII (Michael W. Deem and Ramdas Pophale) SiO2 
 PCOD9320436
Probable space group: C 2 2 21
;
_chemical_formula_sum "Si O2"
_cell_formula_units_Z 64
_cell_length_a 27.529398
_cell_length_b 22.353120
_cell_length_c 5.190603
_cell_angle_alpha 90.000000
_cell_angle_beta 90.000000
_cell_angle_gamma 90.000000
_cell_volume 3194.130660
_symmetry_space_group_name_H-M "C 2 2 21"
_symmetry_group_IT_number 20
_symmetry_cell_setting 'orthorhombic'
loop_
_space_group_symop_operation_xyz
x,y,z
-x,-y,1/2+z
x,-y,-z
-x,y,1/2-z
1/2+x,1/2+y,z
1/2-x,1/2-y,1/2+z
1/2+x,1/2-y,-z
1/2-x,1/2+y,1/2-z
loop_
_atom_site_type_symbol
_atom_site_label
_atom_site_fract_x
_atom_site_fract_y
_atom_site_fract_z
Si Si1 0.033965 0.306489 0.002627
Si Si2 0.465361 0.936773 0.500002
Si Si3 0.346301 0.635450 0.918878
Si Si4 0.283787 0.039601 0.241402
Si Si5 0.621698 0.735119 0.861175
Si Si6 0.706219 0.732482 0.264132
Si Si7 0.191463 0.674882 0.381481
Si Si8 0.171529 0.062503 0.091522
O O1 0.000000 0.303752 0.250000
O O2 0.059396 0.372352 0.000149
O O3 0.074777 0.256578 0.009573
O O4 0.000000 0.301463 0.750000
O O5 0.500000 0.937507 0.250000
O O6 0.437077 0.000000 0.500000
O O7 0.500000 0.936947 0.750000
O O8 0.389407 0.677310 0.813003
O O9 0.325856 0.599080 0.675559
O O10 0.309482 0.687321 0.008901
O O11 0.354804 0.594942 0.169953
O O12 0.305699 0.106506 0.206769
O O13 0.225758 0.050223 0.201197
O O14 0.291368 0.000000 0.500000
O O15 0.300934 0.000000 0.000000
O O16 0.642275 0.792078 0.703170
O O17 0.666520 0.718527 0.046771
O O18 0.760832 0.711254 0.217018
O O19 0.698206 0.803228 0.321561
O O20 0.149202 0.000000 0.000000
#
# Coordination Sequence:
#
# PCOD9320436 Si02
#       8
#     8   8   8   8   8   8   8   8
#     4  10  23  40  62  88 120 154 197 254 324 375
#     4   8  14  29  54  81 105 137 185 241 299 357
#     4  11  21  37  56  86 121 156 208 248 301 352
#     4  11  24  37  55  78 116 167 210 252 303 361
#     4  11  24  39  63  89 122 164 205 261 303 368
#     4  11  22  36  60  89 119 165 204 257 292 362
#     4  11  23  36  60  84 123 160 220 245 302 362
#     4  11  21  34  56  84 121 165 205 248 294 358
#
# _framework density 20.036752
#
# number of rings (size 3 to 8) (size 9 to 14) (size 15 to 20)
#    0.000    1.500    3.750    1.875    7.000    0.000 
#    0.000    0.625    0.000    0.750    0.000    0.000 
#    0.000    3.000    1.000    0.000    0.000    0.000 
#
# Total GULP energy -178194.659745 kJ/mol
# GULP energy per Si atom -5568.583117 kJ/mol
# Density = 1.999115 g / cm^3
# Si number density = 20.036752 Si / 1000 Ang^3
#
#
#
# Elastic Constant Matrix: (Units=GPa)
#
#
# Indices 1 2 3 4 5 6 
#
# 1 25.1217 17.4233 11.5482 0.0000 0.0000 0.0000
# 2 17.4233 149.5342 61.2454 0.0000 0.0000 0.0000
# 3 11.5482 61.2454 137.3839 0.0000 0.0000 0.0000
# 4 0.0000 0.0000 0.0000 42.6937 0.0000 0.0000
# 5 0.0000 0.0000 0.0000 0.0000 8.7143 0.0000
# 6 0.0000 0.0000 0.0000 0.0000 0.0000 -99.5338
#
#
#
# Elastic Compliance Matrix: (Units=1/GPa)
#
#
# Indices 1 2 3 4 5 6 
#
# 1 0.043633 -0.004382 -0.001714 0.000000 0.000000 0.000000
# 2 -0.004382 0.008621 -0.003475 0.000000 0.000000 0.000000
# 3 -0.001714 -0.003475 0.008972 0.000000 0.000000 0.000000
# 4 0.000000 0.000000 0.000000 0.023423 0.000000 0.000000
# 5 0.000000 0.000000 0.000000 0.000000 0.114753 0.000000
# 6 0.000000 0.000000 0.000000 0.000000 0.000000 -0.010047
#
#
# Mechanical properties :
#
#
# Convention : Reuss Voigt Hill
#
# Bulk Modulus (GPa) = 23.76183 54.71929 39.24056
# Shear Modulus (GPa) = 22.46925 5.16305 13.81615
#
# Velocity S-wave (km/s) = 3.35237 1.60698 2.62876
# Velocity P-wave (km/s) = 5.18357 5.55085 5.37035
#
# Compressibility (1/GPa) = 0.04208431
#
# Stress axis : x y z
#
# Youngs Moduli (GPa) = 22.91828 115.99208 111.45638
#
# Poissons Ratio (x) = 0.50827 0.19107
# Poissons Ratio (y) = 0.10043 0.38731
# Poissons Ratio (z) = 0.03929 0.40307
#
# Static dielectric constant tensor:
#      x y z
#    x 1.735740 0.000000 0.000000 
#    y 0.000000 1.801700 0.000000 
#    z 0.000000 0.000000 1.875990 
# 
# From -- ./inp_files/4388.got.cif
#   From: 2010.05.17/outbox.cif.g08.bks.cpg/sg20_3_cif.got.tgz:4388.got - 2010.06.03 22:52:26.
