data_PCOD9320693
_publ_section_title
;
Structure prediction by ZEFSAII (Michael W. Deem and Ramdas Pophale) SiO2 
 PCOD9320693
Probable space group: C 2 2 21
;
_chemical_formula_sum "Si O2"
_cell_formula_units_Z 60
_cell_length_a 28.750270
_cell_length_b 11.793922
_cell_length_c 8.543247
_cell_angle_alpha 90.000000
_cell_angle_beta 90.000000
_cell_angle_gamma 90.000000
_cell_volume 2896.830881
_symmetry_space_group_name_H-M "C 2 2 21"
_symmetry_group_IT_number 20
_symmetry_cell_setting 'orthorhombic'
loop_
_space_group_symop_operation_xyz
x,y,z
-x,-y,1/2+z
x,-y,-z
-x,y,1/2-z
1/2+x,1/2+y,z
1/2-x,1/2-y,1/2+z
1/2+x,1/2-y,-z
1/2-x,1/2+y,1/2-z
loop_
_atom_site_type_symbol
_atom_site_label
_atom_site_fract_x
_atom_site_fract_y
_atom_site_fract_z
Si Si1 0.449283 0.636151 0.184235
Si Si2 0.644220 0.244179 0.713477
Si Si3 0.192952 0.132149 0.546592
Si Si4 0.859128 0.754976 0.309715
Si Si5 0.550118 0.365277 0.313219
Si Si6 0.768220 0.500000 0.000000
Si Si7 0.715508 0.728066 0.054423
Si Si8 0.334067 0.002646 0.306841
O O1 0.500000 0.670583 0.250000
O O2 0.403602 0.693556 0.258285
O O3 0.444940 0.500897 0.206702
O O4 0.447895 0.658856 0.998199
O O5 0.654832 0.285371 0.536695
O O6 0.639547 0.112139 0.755757
O O7 0.696226 0.281373 0.771352
O O8 0.177170 0.161546 0.721642
O O9 0.246229 0.174322 0.532118
O O10 0.187591 0.000000 0.500000
O O11 0.909358 0.805779 0.283549
O O12 0.834636 0.752929 0.477329
O O13 0.858636 0.621862 0.268708
O O14 0.500000 0.331275 0.250000
O O15 0.738957 0.386322 0.997433
O O16 0.793964 0.502002 0.170779
O O17 0.325356 0.000000 0.500000
#
# Coordination Sequence:
#
# PCOD9320693 Si02
#       8
#     8   8   8   8   8   4   8   8
#     4  10  23  45  73 105 138 178 229 303 373 431
#     4  12  25  45  67 103 142 188 241 294 359 430
#     4  12  26  44  71 100 143 192 241 300 354 423
#     4  12  25  45  67 103 142 188 241 294 359 430
#     4  10  23  45  73 105 138 178 229 303 373 431
#     4  12  28  48  64 110 144 200 258 298 354 428
#     4  12  28  40  65 102 146 193 242 293 355 423
#     4  12  26  48  73  99 151 201 247 300 363 418
#
# _framework density 20.712288000000001
#
# number of rings (size 3 to 8) (size 9 to 14) (size 15 to 20)
#    0.000    0.533    5.333    1.600    7.467    0.000 
#    0.000    0.667    0.000    0.000    0.000    0.000 
#    0.000    0.000    0.000    0.000    0.000    0.000 
#
# Total GULP energy -167117.316197 kJ/mol
# GULP energy per Si atom -5570.577207 kJ/mol
# Density = 2.066515 g / cm^3
# Si number density = 20.712288 Si / 1000 Ang^3
#
#
#
# Elastic Constant Matrix: (Units=GPa)
#
#
# Indices 1 2 3 4 5 6 
#
# 1 170.8143 64.9692 46.6334 0.0000 0.0000 0.0000
# 2 64.9692 108.7513 36.1532 0.0000 0.0000 0.0000
# 3 46.6334 36.1532 55.0697 0.0000 0.0000 0.0000
# 4 0.0000 0.0000 0.0000 29.6985 0.0000 0.0000
# 5 0.0000 0.0000 0.0000 0.0000 31.2119 0.0000
# 6 0.0000 0.0000 0.0000 0.0000 0.0000 34.9227
#
#
#
# Elastic Compliance Matrix: (Units=1/GPa)
#
#
# Indices 1 2 3 4 5 6 
#
# 1 0.008515 -0.003441 -0.004952 0.000000 0.000000 0.000000
# 2 -0.003441 0.013153 -0.005721 0.000000 0.000000 0.000000
# 3 -0.004952 -0.005721 0.026108 0.000000 0.000000 0.000000
# 4 0.000000 0.000000 0.000000 0.033672 0.000000 0.000000
# 5 0.000000 0.000000 0.000000 0.000000 0.032039 0.000000
# 6 0.000000 0.000000 0.000000 0.000000 0.000000 0.028635
#
#
# Mechanical properties :
#
#
# Convention : Reuss Voigt Hill
#
# Bulk Modulus (GPa) = 51.15495 70.01633 60.58564
# Shear Modulus (GPa) = 28.27035 31.62525 29.94780
#
# Velocity S-wave (km/s) = 3.69847 3.91177 3.80662
# Velocity P-wave (km/s) = 6.55666 7.36751 6.97388
#
# Compressibility (1/GPa) = 0.01954845
#
# Stress axis : x y z
#
# Youngs Moduli (GPa) = 117.44257 76.02970 38.30283
#
# Poissons Ratio (x) = 0.26160 0.18966
# Poissons Ratio (y) = 0.40409 0.21914
# Poissons Ratio (z) = 0.58152 0.43498
#
# Static dielectric constant tensor:
#      x y z
#    x 1.721200 0.000000 0.000000 
#    y 0.000000 2.068750 0.000000 
#    z 0.000000 0.000000 1.878110 
# 
# From -- ./inp_files/11143.got.cif
#   From: 2010.05.17/outbox.cif.g08.bks.cpg/sg20_6_cif.got.tgz:11143.got - 2010.06.03 22:52:26.
