data_PCOD9320057
_publ_section_title
;
Structure prediction by ZEFSAII (Michael W. Deem and Ramdas Pophale) SiO2 
 PCOD9320057
Probable space group: C 2 2 21
;
_chemical_formula_sum "Si O2"
_cell_formula_units_Z 60
_cell_length_a 13.047617
_cell_length_b 9.172866
_cell_length_c 23.393806
_cell_angle_alpha 90.000000
_cell_angle_beta 90.000000
_cell_angle_gamma 90.000000
_cell_volume 2799.865268
_symmetry_space_group_name_H-M "C 2 2 21"
_symmetry_group_IT_number 20
_symmetry_cell_setting 'orthorhombic'
loop_
_space_group_symop_operation_xyz
x,y,z
-x,-y,1/2+z
x,-y,-z
-x,y,1/2-z
1/2+x,1/2+y,z
1/2-x,1/2-y,1/2+z
1/2+x,1/2-y,-z
1/2-x,1/2+y,1/2-z
loop_
_atom_site_type_symbol
_atom_site_label
_atom_site_fract_x
_atom_site_fract_y
_atom_site_fract_z
Si Si1 0.846215 0.577656 0.943312
Si Si2 0.804089 0.128861 0.371894
Si Si3 0.314446 0.079040 0.241957
Si Si4 0.543845 0.864307 0.328655
Si Si5 0.820445 0.545313 0.645321
Si Si6 0.500000 0.692029 0.750000
Si Si7 0.291944 0.406169 0.943032
Si Si8 0.468340 0.456362 0.849158
O O1 0.765493 0.470636 0.912278
O O2 0.928668 0.612186 0.894908
O O3 0.801677 0.736423 0.957274
O O4 0.885463 0.500000 0.000000
O O5 0.769276 0.119930 0.305487
O O6 0.790479 0.300822 0.382571
O O7 0.920451 0.075767 0.377159
O O8 0.397235 0.207251 0.255483
O O9 0.378693 0.954492 0.209384
O O10 0.262053 0.017820 0.299304
O O11 0.430490 0.927253 0.326439
O O12 0.551241 0.694481 0.315121
O O13 0.809975 0.430153 0.594856
O O14 0.481081 0.591852 0.806106
O O15 0.382311 0.460617 0.899166
O O16 0.293371 0.500000 0.000000
#
# Coordination Sequence:
#
# PCOD9320057 Si02
#       8
#     8   8   8   8   8   4   8   8
#     4  10  22  42  66  90 120 161 216 265 318 375
#     4  10  24  39  64  93 128 165 213 260 316 377
#     4  11  23  38  61  97 132 171 205 263 313 390
#     4   9  21  43  62  91 127 170 212 258 325 381
#     4  11  22  40  63  90 126 169 209 256 320 380
#     4  12  24  36  62  98 134 164 214 258 322 378
#     4  11  25  45  65  90 127 166 213 268 322 377
#     4  10  25  41  63  93 127 172 211 263 317 382
#
# _framework density 21.429601999999999
#
# number of rings (size 3 to 8) (size 9 to 14) (size 15 to 20)
#    0.000    1.600    1.333    1.600    9.333    3.200 
#    0.000    2.667    0.000    0.000    0.000    0.000 
#    0.000    0.000    0.000    0.000    0.000    0.000 
#
# Total GULP energy -167550.006704 kJ/mol
# GULP energy per Si atom -5585.000223 kJ/mol
# Density = 2.138083 g / cm^3
# Si number density = 21.429602 Si / 1000 Ang^3
#
#
#
# Elastic Constant Matrix: (Units=GPa)
#
#
# Indices 1 2 3 4 5 6 
#
# 1 33.2135 -14.2794 -9.2707 0.0000 0.0000 0.0000
# 2 -14.2794 59.4391 28.9974 0.0000 0.0000 0.0000
# 3 -9.2707 28.9974 111.3143 0.0000 0.0000 0.0000
# 4 0.0000 0.0000 0.0000 39.7235 0.0000 0.0000
# 5 0.0000 0.0000 0.0000 0.0000 13.6208 0.0000
# 6 0.0000 0.0000 0.0000 0.0000 0.0000 18.5680
#
#
#
# Elastic Compliance Matrix: (Units=1/GPa)
#
#
# Indices 1 2 3 4 5 6 
#
# 1 0.033638 0.007692 0.000798 0.000000 0.000000 0.000000
# 2 0.007692 0.021032 -0.004838 0.000000 0.000000 0.000000
# 3 0.000798 -0.004838 0.010310 0.000000 0.000000 0.000000
# 4 0.000000 0.000000 0.000000 0.025174 0.000000 0.000000
# 5 0.000000 0.000000 0.000000 0.000000 0.073417 0.000000
# 6 0.000000 0.000000 0.000000 0.000000 0.000000 0.053856
#
#
# Mechanical properties :
#
#
# Convention : Reuss Voigt Hill
#
# Bulk Modulus (GPa) = 13.83451 23.87350 18.85400
# Shear Modulus (GPa) = 21.34750 27.61708 24.48229
#
# Velocity S-wave (km/s) = 3.15964 3.59379 3.38368
# Velocity P-wave (km/s) = 4.44757 5.32776 4.90744
#
# Compressibility (1/GPa) = 0.07228302
#
# Stress axis : x y z
#
# Youngs Moduli (GPa) = 29.72842 47.54624 96.98954
#
# Poissons Ratio (x) = -0.36572 -0.07738
# Poissons Ratio (y) = -0.22867 0.46926
# Poissons Ratio (z) = -0.02372 0.23004
#
# Static dielectric constant tensor:
#      x y z
#    x 1.824390 0.000000 0.000000 
#    y 0.000000 1.798570 0.000000 
#    z 0.000000 0.000000 1.750800 
# 
# From -- ./inp_files/29300.got.cif
#   From: 2010.05.17/outbox.cif.g08.bks.cpg/sg20_15_cif.got.tgz:29300.got - 2010.06.03 22:52:26.
