data_PCOD9320345
_publ_section_title
;
Structure prediction by ZEFSAII (Michael W. Deem and Ramdas Pophale) SiO2 
 PCOD9320345
Probable space group: C 2 2 21
;
_chemical_formula_sum "Si O2"
_cell_formula_units_Z 52
_cell_length_a 21.506810
_cell_length_b 19.139722
_cell_length_c 6.266150
_cell_angle_alpha 90.000000
_cell_angle_beta 90.000000
_cell_angle_gamma 90.000000
_cell_volume 2579.362673
_symmetry_space_group_name_H-M "C 2 2 21"
_symmetry_group_IT_number 20
_symmetry_cell_setting 'orthorhombic'
loop_
_space_group_symop_operation_xyz
x,y,z
-x,-y,1/2+z
x,-y,-z
-x,y,1/2-z
1/2+x,1/2+y,z
1/2-x,1/2-y,1/2+z
1/2+x,1/2-y,-z
1/2-x,1/2+y,1/2-z
loop_
_atom_site_type_symbol
_atom_site_label
_atom_site_fract_x
_atom_site_fract_y
_atom_site_fract_z
Si Si1 0.058067 0.652043 0.409517
Si Si2 0.500000 0.470599 0.750000
Si Si3 0.304034 0.819396 0.809122
Si Si4 0.784060 0.080638 0.564709
Si Si5 0.000000 0.245778 0.250000
Si Si6 0.603410 0.360326 0.792810
Si Si7 0.030228 0.500000 0.500000
Si Si8 0.791895 0.836289 0.042483
O O1 0.122472 0.673224 0.303420
O O2 0.065306 0.573419 0.496072
O O3 0.000000 0.652489 0.250000
O O4 0.038751 0.705589 0.592767
O O5 0.491504 0.500000 0.500000
O O6 0.561896 0.424955 0.719848
O O7 0.269582 0.842959 0.597294
O O8 0.287884 0.737867 0.838983
O O9 0.272825 0.869671 0.987521
O O10 0.846603 0.112814 0.461808
O O11 0.793772 0.095550 0.812225
O O12 0.775987 0.000000 0.500000
O O13 0.051811 0.196551 0.137183
O O14 0.646807 0.331889 0.603513
O O15 0.000000 0.498735 0.250000
#
# Coordination Sequence:
#
# PCOD9320345 Si02
#       8
#     8   4   8   8   4   8   4   8
#     4  11  25  41  68  99 140 178 240 294 372 435
#     4  11  26  46  72 108 153 206 246 302 371 446
#     4  11  24  43  69 101 135 187 238 300 364 440
#     4  11  26  45  72 101 139 186 239 309 370 438
#     4  11  22  42  66 104 139 186 238 286 357 448
#     4  10  25  41  69 105 145 191 241 296 362 440
#     4  10  22  46  66 100 136 188 226 300 364 434
#     4  11  23  44  70  99 142 185 244 301 370 441
#
# _framework density 20.160019999999999
#
# number of rings (size 3 to 8) (size 9 to 14) (size 15 to 20)
#    0.000    1.231    3.846    0.462    7.538    3.077 
#    2.769    0.000    0.000    0.000    0.000    0.000 
#    0.000    0.000    0.000    0.000    0.000    0.000 
#
# Total GULP energy -144787.627698 kJ/mol
# GULP energy per Si atom -5568.754911 kJ/mol
# Density = 2.011414 g / cm^3
# Si number density = 20.160020 Si / 1000 Ang^3
#
#
#
# Elastic Constant Matrix: (Units=GPa)
#
#
# Indices 1 2 3 4 5 6 
#
# 1 129.4651 23.2288 23.6496 0.0000 0.0000 0.0000
# 2 23.2288 97.2090 29.0777 0.0000 0.0000 0.0000
# 3 23.6496 29.0777 70.9376 0.0000 0.0000 0.0000
# 4 0.0000 0.0000 0.0000 30.1184 0.0000 0.0000
# 5 0.0000 0.0000 0.0000 0.0000 -12.6289 0.0000
# 6 0.0000 0.0000 0.0000 0.0000 0.0000 53.1556
#
#
#
# Elastic Compliance Matrix: (Units=1/GPa)
#
#
# Indices 1 2 3 4 5 6 
#
# 1 0.008373 -0.001329 -0.002247 0.000000 0.000000 0.000000
# 2 -0.001329 0.011936 -0.004449 0.000000 0.000000 0.000000
# 3 -0.002247 -0.004449 0.016670 0.000000 0.000000 0.000000
# 4 0.000000 0.000000 0.000000 0.033202 0.000000 0.000000
# 5 0.000000 0.000000 0.000000 0.000000 -0.079183 0.000000
# 6 0.000000 0.000000 0.000000 0.000000 0.000000 0.018813
#
#
# Mechanical properties :
#
#
# Convention : Reuss Voigt Hill
#
# Bulk Modulus (GPa) = 47.78203 49.94712 48.86457
# Shear Modulus (GPa) = 152.27197 28.90606 90.58902
#
# Velocity S-wave (km/s) = 8.70032 3.79070 6.71063
# Velocity P-wave (km/s) = 11.16603 6.63237 9.18337
#
# Compressibility (1/GPa) = 0.02092837
#
# Stress axis : x y z
#
# Youngs Moduli (GPa) = 119.43277 83.78317 59.98870
#
# Poissons Ratio (x) = 0.11132 0.13478
# Poissons Ratio (y) = 0.15869 0.26692
# Poissons Ratio (z) = 0.26834 0.37279
#
# Static dielectric constant tensor:
#      x y z
#    x 1.671370 0.000000 0.000000 
#    y 0.000000 1.719670 0.000000 
#    z 0.000000 0.000000 1.684260 
# 
# From -- ./inp_files/3253.got.cif
#   From: 2010.05.17/outbox.cif.g08.bks.cpg/sg20_2_cif.got.tgz:3253.got - 2010.06.03 22:52:26.
