data_PCOD9320653
_publ_section_title
;
Structure prediction by ZEFSAII (Michael W. Deem and Ramdas Pophale) SiO2 
 PCOD9320653
Probable space group: C 2 2 21
;
_chemical_formula_sum "Si O2"
_cell_formula_units_Z 32
_cell_length_a 5.341298
_cell_length_b 14.424063
_cell_length_c 16.875865
_cell_angle_alpha 90.000000
_cell_angle_beta 90.000000
_cell_angle_gamma 90.000000
_cell_volume 1300.170961
_symmetry_space_group_name_H-M "C 2 2 21"
_symmetry_group_IT_number 20
_symmetry_cell_setting 'orthorhombic'
loop_
_space_group_symop_operation_xyz
x,y,z
-x,-y,1/2+z
x,-y,-z
-x,y,1/2-z
1/2+x,1/2+y,z
1/2-x,1/2-y,1/2+z
1/2+x,1/2-y,-z
1/2-x,1/2+y,1/2-z
loop_
_atom_site_type_symbol
_atom_site_label
_atom_site_fract_x
_atom_site_fract_y
_atom_site_fract_z
Si Si1 0.025875 0.104272 0.497021
Si Si2 0.136168 0.580176 0.861388
Si Si3 0.185761 0.880431 0.676400
Si Si4 0.629702 0.315681 0.149117
O O1 0.036057 0.130686 0.406283
O O2 0.889263 0.178295 0.552515
O O3 0.290781 0.090846 0.544818
O O4 0.910944 0.000000 0.500000
O O5 0.155864 0.473620 0.836281
O O6 0.373974 0.634684 0.825151
O O7 0.878349 0.625085 0.836361
O O8 0.000000 0.889225 0.750000
O O9 0.344254 0.787299 0.679525
#
# Coordination Sequence:
#
# PCOD9320653 Si02
#       4
#     8   8   8   8
#     4   8  20  43  67  98 130 181 231 277 333 417
#     4   9  23  45  71  95 136 179 233 279 338 416
#     4  11  24  44  71 108 142 181 232 295 354 404
#     4  10  23  44  72  96 135 181 236 275 344 414
#
# _framework density 24.612148999999999
#
# number of rings (size 3 to 8) (size 9 to 14) (size 15 to 20)
#    1.500    1.000    0.000    0.000    3.500    7.000 
#    0.000    2.500    0.000    0.000    0.000    0.000 
#    0.000    0.000    0.000    0.000    0.000    0.000 
#
# Total GULP energy -89461.168251 kJ/mol
# GULP energy per Si atom -5591.323016 kJ/mol
# Density = 2.455613 g / cm^3
# Si number density = 24.612149 Si / 1000 Ang^3
#
#
#
# Elastic Constant Matrix: (Units=GPa)
#
#
# Indices 1 2 3 4 5 6 
#
# 1 141.9374 74.6274 55.6124 0.0000 0.0000 0.0000
# 2 74.6274 180.4386 33.9184 0.0000 0.0000 0.0000
# 3 55.6124 33.9184 190.1200 0.0000 0.0000 0.0000
# 4 0.0000 0.0000 0.0000 55.8505 0.0000 0.0000
# 5 0.0000 0.0000 0.0000 0.0000 26.6913 0.0000
# 6 0.0000 0.0000 0.0000 0.0000 0.0000 -44.9618
#
#
#
# Elastic Compliance Matrix: (Units=1/GPa)
#
#
# Indices 1 2 3 4 5 6 
#
# 1 0.009837 -0.003650 -0.002226 0.000000 0.000000 0.000000
# 2 -0.003650 0.007089 -0.000197 0.000000 0.000000 0.000000
# 3 -0.002226 -0.000197 0.005946 0.000000 0.000000 0.000000
# 4 0.000000 0.000000 0.000000 0.017905 0.000000 0.000000
# 5 0.000000 0.000000 0.000000 0.000000 0.037465 0.000000
# 6 0.000000 0.000000 0.000000 0.000000 0.000000 -0.022241
#
#
# Mechanical properties :
#
#
# Convention : Reuss Voigt Hill
#
# Bulk Modulus (GPa) = 93.23737 93.42360 93.33048
# Shear Modulus (GPa) = 69.71378 30.73850 50.22614
#
# Velocity S-wave (km/s) = 5.32789 3.53783 4.52232
# Velocity P-wave (km/s) = 8.70709 7.39791 8.07906
#
# Compressibility (1/GPa) = 0.01072531
#
# Stress axis : x y z
#
# Youngs Moduli (GPa) = 101.66115 141.07116 168.17554
#
# Poissons Ratio (x) = 0.51489 0.37439
# Poissons Ratio (y) = 0.37105 0.03313
# Poissons Ratio (z) = 0.22632 0.02779
#
# Static dielectric constant tensor:
#      x y z
#    x 1.963240 0.000000 0.000000 
#    y 0.000000 1.898540 0.000000 
#    z 0.000000 0.000000 2.155960 
# 
# From -- ./inp_files/22541.got.cif
#   From: 2010.05.17/outbox.cif.g08.bks.cpg/sg20_12_cif.got.tgz:22541.got - 2010.06.03 22:52:26.
