data_PCOD9320913
_publ_section_title
;
Structure prediction by ZEFSAII (Michael W. Deem and Ramdas Pophale) SiO2 
 PCOD9320913
Probable space group: C 2 2 21
;
_chemical_formula_sum "Si O2"
_cell_formula_units_Z 32
_cell_length_a 9.175299
_cell_length_b 17.762556
_cell_length_c 7.923588
_cell_angle_alpha 90.000000
_cell_angle_beta 90.000000
_cell_angle_gamma 90.000000
_cell_volume 1291.360718
_symmetry_space_group_name_H-M "C 2 2 21"
_symmetry_group_IT_number 20
_symmetry_cell_setting 'orthorhombic'
loop_
_space_group_symop_operation_xyz
x,y,z
-x,-y,1/2+z
x,-y,-z
-x,y,1/2-z
1/2+x,1/2+y,z
1/2-x,1/2-y,1/2+z
1/2+x,1/2-y,-z
1/2-x,1/2+y,1/2-z
loop_
_atom_site_type_symbol
_atom_site_label
_atom_site_fract_x
_atom_site_fract_y
_atom_site_fract_z
Si Si1 0.107465 0.195486 0.988268
Si Si2 0.168222 0.332192 0.774376
Si Si3 0.500000 0.185410 0.750000
Si Si4 0.500000 0.429841 0.250000
Si Si5 0.288186 0.930580 0.410753
O O1 0.234820 0.166516 0.109050
O O2 0.009675 0.255837 0.093526
O O3 0.163068 0.245474 0.832762
O O4 0.032015 0.123879 0.908618
O O5 0.000000 0.356753 0.750000
O O6 0.239686 0.377013 0.928345
O O7 0.629218 0.125353 0.783249
O O8 0.650604 0.466629 0.311000
O O9 0.372202 0.000000 0.500000
#
# Coordination Sequence:
#
# PCOD9320913 Si02
#       5
#     8   8   4   4   8
#     4  11  23  42  70 110 136 179 237 305 382 419
#     4  11  25  41  70 104 142 184 230 304 366 432
#     4  10  24  44  76 100 146 184 244 308 354 432
#     4  12  26  44  76 104 144 188 238 310 366 432
#     4  11  28  48  68 105 143 200 245 284 358 433
#
# _framework density 24.780063999999999
#
# number of rings (size 3 to 8) (size 9 to 14) (size 15 to 20)
#    0.000    1.000    1.250    4.500   15.750    2.000 
#    0.000    1.250    0.000    0.000    0.000    0.000 
#    0.000    0.000    0.000    0.000    0.000    0.000 
#
# Total GULP energy -89400.720000 kJ/mol
# GULP energy per Si atom -5587.545000 kJ/mol
# Density = 2.472366 g / cm^3
# Si number density = 24.780064 Si / 1000 Ang^3
#
#
#
# Elastic Constant Matrix: (Units=GPa)
#
#
# Indices 1 2 3 4 5 6 
#
# 1 117.2094 19.6198 64.5149 0.0000 0.0000 0.0000
# 2 19.6198 54.9653 -1.0671 0.0000 0.0000 0.0000
# 3 64.5149 -1.0671 103.3856 0.0000 0.0000 0.0000
# 4 0.0000 0.0000 0.0000 34.8510 0.0000 0.0000
# 5 0.0000 0.0000 0.0000 0.0000 52.7835 0.0000
# 6 0.0000 0.0000 0.0000 0.0000 0.0000 12.5909
#
#
#
# Elastic Compliance Matrix: (Units=1/GPa)
#
#
# Indices 1 2 3 4 5 6 
#
# 1 0.014396 -0.005314 -0.009038 0.000000 0.000000 0.000000
# 2 -0.005314 0.020159 0.003524 0.000000 0.000000 0.000000
# 3 -0.009038 0.003524 0.015349 0.000000 0.000000 0.000000
# 4 0.000000 0.000000 0.000000 0.028694 0.000000 0.000000
# 5 0.000000 0.000000 0.000000 0.000000 0.018945 0.000000
# 6 0.000000 0.000000 0.000000 0.000000 0.000000 0.079423
#
#
# Mechanical properties :
#
#
# Convention : Reuss Voigt Hill
#
# Bulk Modulus (GPa) = 35.40179 49.07729 42.23954
# Shear Modulus (GPa) = 24.03409 32.87793 28.45601
#
# Velocity S-wave (km/s) = 3.11769 3.64646 3.39240
# Velocity P-wave (km/s) = 5.22278 6.13001 5.69449
#
# Compressibility (1/GPa) = 0.02824716
#
# Stress axis : x y z
#
# Youngs Moduli (GPa) = 69.46256 49.60660 65.15056
#
# Poissons Ratio (x) = 0.26362 0.58886
# Poissons Ratio (y) = 0.36914 -0.22961
# Poissons Ratio (z) = 0.62783 -0.17483
#
# Static dielectric constant tensor:
#      x y z
#    x 2.200310 0.000000 0.000000 
#    y 0.000000 1.914630 0.000000 
#    z 0.000000 0.000000 1.938880 
# 
# From -- ./inp_files/5831.got.cif
#   From: 2010.05.17/outbox.cif.g08.bks.cpg/sg20_3_cif.got.tgz:5831.got - 2010.06.03 22:52:26.
