data_PCOD9320416
_publ_section_title
;
Structure prediction by ZEFSAII (Michael W. Deem and Ramdas Pophale) SiO2 
 PCOD9320416
Probable space group: C 2 2 21
;
_chemical_formula_sum "Si O2"
_cell_formula_units_Z 48
_cell_length_a 16.461077
_cell_length_b 8.673711
_cell_length_c 17.954837
_cell_angle_alpha 90.000000
_cell_angle_beta 90.000000
_cell_angle_gamma 90.000000
_cell_volume 2563.566933
_symmetry_space_group_name_H-M "C 2 2 21"
_symmetry_group_IT_number 20
_symmetry_cell_setting 'orthorhombic'
loop_
_space_group_symop_operation_xyz
x,y,z
-x,-y,1/2+z
x,-y,-z
-x,y,1/2-z
1/2+x,1/2+y,z
1/2-x,1/2-y,1/2+z
1/2+x,1/2-y,-z
1/2-x,1/2+y,1/2-z
loop_
_atom_site_type_symbol
_atom_site_label
_atom_site_fract_x
_atom_site_fract_y
_atom_site_fract_z
Si Si1 0.834244 0.103994 0.927840
Si Si2 0.745483 0.639187 0.329606
Si Si3 0.296783 0.628526 0.442502
Si Si4 0.440430 0.896528 0.924628
Si Si5 0.799524 0.483716 0.182554
Si Si6 0.878702 0.657061 0.455958
O O1 0.758958 0.221120 0.935282
O O2 0.908596 0.221450 0.928176
O O3 0.817358 0.990752 0.858764
O O4 0.839690 0.000000 0.000000
O O5 0.795145 0.569314 0.260999
O O6 0.704938 0.800577 0.308349
O O7 0.806300 0.676870 0.397523
O O8 0.264705 0.500000 0.500000
O O9 0.280497 0.544620 0.363686
O O10 0.375942 0.700761 0.484250
O O11 0.536622 0.875046 0.914131
O O12 0.380690 0.972872 0.863587
O O13 0.431526 0.000000 0.000000
O O14 0.863223 0.500000 0.500000
#
# Coordination Sequence:
#
# PCOD9320416 Si02
#       6
#     8   8   8   8   8   8
#     4  11  18  35  61  88 116 153 197 247 285 352
#     4  12  22  39  65  90 118 162 203 245 306 354
#     4  11  18  35  60  88 114 152 201 249 287 347
#     4  10  23  38  59  91 122 156 197 246 306 351
#     4  11  23  37  62  91 120 156 202 254 296 364
#     4  11  22  39  62  88 119 159 199 247 302 366
#
# _framework density 18.723911999999999
#
# number of rings (size 3 to 8) (size 9 to 14) (size 15 to 20)
#    0.000    1.000    5.000    5.000    0.000    1.333 
#    0.000    0.000    0.000    0.000    0.000    0.000 
#    0.000    0.000    0.000    0.000    0.000    0.000 
#
# Total GULP energy -133651.838876 kJ/mol
# GULP energy per Si atom -5568.826620 kJ/mol
# Density = 1.868130 g / cm^3
# Si number density = 18.723912 Si / 1000 Ang^3
#
#
#
# Elastic Constant Matrix: (Units=GPa)
#
#
# Indices 1 2 3 4 5 6 
#
# 1 44.3146 10.0472 -4.6723 0.0000 0.0000 0.0000
# 2 10.0472 132.8796 10.9676 0.0000 0.0000 0.0000
# 3 -4.6723 10.9676 49.6175 0.0000 0.0000 0.0000
# 4 0.0000 0.0000 0.0000 37.9630 0.0000 0.0000
# 5 0.0000 0.0000 0.0000 0.0000 5.8926 0.0000
# 6 0.0000 0.0000 0.0000 0.0000 0.0000 14.9168
#
#
#
# Elastic Compliance Matrix: (Units=1/GPa)
#
#
# Indices 1 2 3 4 5 6 
#
# 1 0.023292 -0.001978 0.002631 0.000000 0.000000 0.000000
# 2 -0.001978 0.007833 -0.001918 0.000000 0.000000 0.000000
# 3 0.002631 -0.001918 0.020826 0.000000 0.000000 0.000000
# 4 0.000000 0.000000 0.000000 0.026341 0.000000 0.000000
# 5 0.000000 0.000000 0.000000 0.000000 0.169706 0.000000
# 6 0.000000 0.000000 0.000000 0.000000 0.000000 0.067038
#
#
# Mechanical properties :
#
#
# Convention : Reuss Voigt Hill
#
# Bulk Modulus (GPa) = 20.23467 28.83297 24.53382
# Shear Modulus (GPa) = 14.96822 25.78575 20.37698
#
# Velocity S-wave (km/s) = 2.83046 3.71503 3.30250
# Velocity P-wave (km/s) = 4.63814 5.81673 5.26055
#
# Compressibility (1/GPa) = 0.04942012
#
# Stress axis : x y z
#
# Youngs Moduli (GPa) = 42.93356 127.65717 48.01731
#
# Poissons Ratio (x) = 0.25254 -0.12631
# Poissons Ratio (y) = 0.08493 0.09209
# Poissons Ratio (z) = -0.11294 0.24482
#
# Static dielectric constant tensor:
#      x y z
#    x 1.675830 0.000000 0.000000 
#    y 0.000000 1.665520 0.000000 
#    z 0.000000 0.000000 1.666770 
# 
# From -- ./inp_files/21286.got.cif
#   From: 2010.05.17/outbox.cif.g08.bks.cpg/sg20_11_cif.got.tgz:21286.got - 2010.06.03 22:52:26.
