data_PCOD9320148
_publ_section_title
;
Structure prediction by ZEFSAII (Michael W. Deem and Ramdas Pophale) SiO2 
 PCOD9320148
Probable space group: C 2 2 21
;
_chemical_formula_sum "Si O2"
_cell_formula_units_Z 40
_cell_length_a 9.900853
_cell_length_b 10.979019
_cell_length_c 14.148620
_cell_angle_alpha 90.000000
_cell_angle_beta 90.000000
_cell_angle_gamma 90.000000
_cell_volume 1537.978385
_symmetry_space_group_name_H-M "C 2 2 21"
_symmetry_group_IT_number 20
_symmetry_cell_setting 'orthorhombic'
loop_
_space_group_symop_operation_xyz
x,y,z
-x,-y,1/2+z
x,-y,-z
-x,y,1/2-z
1/2+x,1/2+y,z
1/2-x,1/2-y,1/2+z
1/2+x,1/2-y,-z
1/2-x,1/2+y,1/2-z
loop_
_atom_site_type_symbol
_atom_site_label
_atom_site_fract_x
_atom_site_fract_y
_atom_site_fract_z
Si Si1 0.452444 0.924994 0.403347
Si Si2 0.514223 0.399883 0.353932
Si Si3 0.233195 0.240769 0.519244
Si Si4 0.268660 0.399649 0.824606
Si Si5 0.268165 0.023222 0.124780
O O1 0.374326 0.801857 0.431673
O O2 0.455552 0.000000 0.500000
O O3 0.348330 0.002002 0.342253
O O4 0.600248 0.938585 0.359768
O O5 0.500000 0.337642 0.250000
O O6 0.606066 0.326273 0.428456
O O7 0.594156 0.525762 0.338833
O O8 0.365671 0.441988 0.382174
O O9 0.239048 0.196608 0.410064
O O10 0.212414 0.382079 0.539525
O O11 0.252744 0.380839 0.713057
#
# Coordination Sequence:
#
# PCOD9320148 Si02
#       5
#     8   8   8   8   8
#     4   9  20  40  62  91 127 162 207 260 309 367
#     4   9  20  40  62  90 124 159 207 261 309 368
#     4  10  22  43  65  90 131 173 201 252 330 372
#     4   9  20  41  61  88 136 166 197 267 315 360
#     4  11  22  40  66  95 123 164 220 260 299 375
#
# _framework density 26.00817
#
# number of rings (size 3 to 8) (size 9 to 14) (size 15 to 20)
#    0.000    2.400    0.000    2.400    0.000    6.400 
#    0.000   36.000    0.000    0.000    0.000    0.000 
#    0.000    0.000    0.000    0.000    0.000    0.000 
#
# Total GULP energy -111861.825816 kJ/mol
# GULP energy per Si atom -5593.091291 kJ/mol
# Density = 2.594897 g / cm^3
# Si number density = 26.008170 Si / 1000 Ang^3
#
#
#
# Elastic Constant Matrix: (Units=GPa)
#
#
# Indices 1 2 3 4 5 6 
#
# 1 197.0954 53.2487 32.2296 0.0000 0.0000 0.0000
# 2 53.2487 108.8359 21.3313 0.0000 0.0000 0.0000
# 3 32.2296 21.3313 143.6325 0.0000 0.0000 0.0000
# 4 0.0000 0.0000 0.0000 25.7712 0.0000 0.0000
# 5 0.0000 0.0000 0.0000 0.0000 53.1408 0.0000
# 6 0.0000 0.0000 0.0000 0.0000 0.0000 28.9049
#
#
#
# Elastic Compliance Matrix: (Units=1/GPa)
#
#
# Indices 1 2 3 4 5 6 
#
# 1 0.005965 -0.002736 -0.000932 0.000000 0.000000 0.000000
# 2 -0.002736 0.010718 -0.000978 0.000000 0.000000 0.000000
# 3 -0.000932 -0.000978 0.007317 0.000000 0.000000 0.000000
# 4 0.000000 0.000000 0.000000 0.038803 0.000000 0.000000
# 5 0.000000 0.000000 0.000000 0.000000 0.018818 0.000000
# 6 0.000000 0.000000 0.000000 0.000000 0.000000 0.034596
#
#
# Mechanical properties :
#
#
# Convention : Reuss Voigt Hill
#
# Bulk Modulus (GPa) = 67.98904 73.68700 70.83802
# Shear Modulus (GPa) = 38.34002 44.41366 41.37684
#
# Velocity S-wave (km/s) = 3.84364 4.13689 3.99296
# Velocity P-wave (km/s) = 6.77467 7.15627 6.96809
#
# Compressibility (1/GPa) = 0.01470825
#
# Stress axis : x y z
#
# Youngs Moduli (GPa) = 167.63731 93.29801 136.67492
#
# Poissons Ratio (x) = 0.25525 0.12741
# Poissons Ratio (y) = 0.45863 0.13366
# Poissons Ratio (z) = 0.15628 0.09124
#
# Static dielectric constant tensor:
#      x y z
#    x 2.125460 0.000000 0.000000 
#    y 0.000000 1.964240 0.000000 
#    z 0.000000 0.000000 2.185500 
# 
# From -- ./inp_files/18514.got.cif
#   From: 2010.05.17/outbox.cif.g08.bks.cpg/sg20_10_cif.got.tgz:18514.got - 2010.06.03 22:52:26.
