data_PCOD9320892
_publ_section_title
;
Structure prediction by ZEFSAII (Michael W. Deem and Ramdas Pophale) SiO2 
 PCOD9320892
Probable space group: C 2 2 21
;
_chemical_formula_sum "Si O2"
_cell_formula_units_Z 48
_cell_length_a 9.190159
_cell_length_b 22.536375
_cell_length_c 11.214191
_cell_angle_alpha 90.000000
_cell_angle_beta 90.000000
_cell_angle_gamma 90.000000
_cell_volume 2322.603278
_symmetry_space_group_name_H-M "C 2 2 21"
_symmetry_group_IT_number 20
_symmetry_cell_setting 'orthorhombic'
loop_
_space_group_symop_operation_xyz
x,y,z
-x,-y,1/2+z
x,-y,-z
-x,y,1/2-z
1/2+x,1/2+y,z
1/2-x,1/2-y,1/2+z
1/2+x,1/2-y,-z
1/2-x,1/2+y,1/2-z
loop_
_atom_site_type_symbol
_atom_site_label
_atom_site_fract_x
_atom_site_fract_y
_atom_site_fract_z
Si Si1 0.021875 0.415548 0.885026
Si Si2 0.066619 0.274822 0.878251
Si Si3 0.630190 0.699975 0.453958
Si Si4 0.553415 0.398836 0.384305
Si Si5 0.761726 0.000000 0.000000
Si Si6 0.500000 0.615681 0.250000
Si Si7 0.693887 0.434198 0.950012
O O1 0.865046 0.421580 0.947792
O O2 0.000000 0.436792 0.750000
O O3 0.057220 0.346104 0.882519
O O4 0.153279 0.453363 0.938304
O O5 0.235534 0.263394 0.901436
O O6 0.000000 0.256249 0.750000
O O7 0.981503 0.245436 0.987033
O O8 0.655660 0.653630 0.563872
O O9 0.574787 0.658354 0.346710
O O10 0.500000 0.394268 0.250000
O O11 0.635151 0.460734 0.413963
O O12 0.405314 0.394961 0.462377
O O13 0.380140 0.576892 0.320664
O O14 0.675824 0.500000 0.000000
#
# Coordination Sequence:
#
# PCOD9320892 Si02
#       7
#     8   8   8   8   4   4   8
#     4  11  25  43  68  99 137 176 234 297 357 415
#     4  11  25  45  74 101 140 182 240 300 358 419
#     4  11  25  46  71 104 134 190 234 291 361 420
#     4  11  26  43  67 100 145 182 229 288 349 432
#     4  12  24  42  66 102 138 188 234 278 362 426
#     4  10  24  44  70 100 140 186 238 280 358 432
#     4  11  24  39  69 101 132 182 230 282 349 424
#
# _framework density 20.666464999999999
#
# number of rings (size 3 to 8) (size 9 to 14) (size 15 to 20)
#    0.000    1.000    3.333    2.500   12.833    0.000 
#    0.000    0.000    1.833    0.000    0.000    0.000 
#    0.000    0.000    0.000    0.000    0.000    0.000 
#
# Total GULP energy -134032.103266 kJ/mol
# GULP energy per Si atom -5584.670969 kJ/mol
# Density = 2.061943 g / cm^3
# Si number density = 20.666465 Si / 1000 Ang^3
#
#
#
# Elastic Constant Matrix: (Units=GPa)
#
#
# Indices 1 2 3 4 5 6 
#
# 1 115.7944 12.0332 47.4207 0.0000 0.0000 0.0000
# 2 12.0332 51.2972 29.4407 0.0000 0.0000 0.0000
# 3 47.4207 29.4407 137.1756 0.0000 0.0000 0.0000
# 4 0.0000 0.0000 0.0000 35.0216 0.0000 0.0000
# 5 0.0000 0.0000 0.0000 0.0000 30.5297 0.0000
# 6 0.0000 0.0000 0.0000 0.0000 0.0000 38.7903
#
#
#
# Elastic Compliance Matrix: (Units=1/GPa)
#
#
# Indices 1 2 3 4 5 6 
#
# 1 0.010068 -0.000415 -0.003391 0.000000 0.000000 0.000000
# 2 -0.000415 0.022250 -0.004632 0.000000 0.000000 0.000000
# 3 -0.003391 -0.004632 0.009456 0.000000 0.000000 0.000000
# 4 0.000000 0.000000 0.000000 0.028554 0.000000 0.000000
# 5 0.000000 0.000000 0.000000 0.000000 0.032755 0.000000
# 6 0.000000 0.000000 0.000000 0.000000 0.000000 0.025780
#
#
# Mechanical properties :
#
#
# Convention : Reuss Voigt Hill
#
# Bulk Modulus (GPa) = 40.16469 53.56184 46.86327
# Shear Modulus (GPa) = 32.45940 35.22648 33.84294
#
# Velocity S-wave (km/s) = 3.96742 4.13307 4.05109
# Velocity P-wave (km/s) = 6.36114 6.98211 6.67885
#
# Compressibility (1/GPa) = 0.02489749
#
# Stress axis : x y z
#
# Youngs Moduli (GPa) = 99.32483 44.94398 105.74934
#
# Poissons Ratio (x) = 0.01867 0.35863
# Poissons Ratio (y) = 0.04126 0.48980
# Poissons Ratio (z) = 0.33684 0.20817
#
# Static dielectric constant tensor:
#      x y z
#    x 1.774640 0.000000 0.000000 
#    y 0.000000 1.773020 0.000000 
#    z 0.000000 0.000000 1.746040 
# 
# From -- ./inp_files/13151.got.cif
#   From: 2010.05.17/outbox.cif.g08.bks.cpg/sg20_7_cif.got.tgz:13151.got - 2010.06.03 22:52:26.
