data_PCOD9320867
_publ_section_title
;
Structure prediction by ZEFSAII (Michael W. Deem and Ramdas Pophale) SiO2 
 PCOD9320867
Probable space group: C 2 2 21
;
_chemical_formula_sum "Si O2"
_cell_formula_units_Z 28
_cell_length_a 4.929579
_cell_length_b 25.297110
_cell_length_c 9.305753
_cell_angle_alpha 90.000000
_cell_angle_beta 90.000000
_cell_angle_gamma 90.000000
_cell_volume 1160.465573
_symmetry_space_group_name_H-M "C 2 2 21"
_symmetry_group_IT_number 20
_symmetry_cell_setting 'orthorhombic'
loop_
_space_group_symop_operation_xyz
x,y,z
-x,-y,1/2+z
x,-y,-z
-x,y,1/2-z
1/2+x,1/2+y,z
1/2-x,1/2-y,1/2+z
1/2+x,1/2-y,-z
1/2-x,1/2+y,1/2-z
loop_
_atom_site_type_symbol
_atom_site_label
_atom_site_fract_x
_atom_site_fract_y
_atom_site_fract_z
Si Si1 0.304924 0.606581 0.508185
Si Si2 0.500000 0.466182 0.750000
Si Si3 0.500000 0.959580 0.250000
Si Si4 0.500000 0.666848 0.750000
Si Si5 0.883023 0.284037 0.035567
O O1 0.405568 0.570016 0.381819
O O2 0.113598 0.575000 0.618383
O O3 0.545281 0.628990 0.612412
O O4 0.155603 0.660008 0.454344
O O5 0.249591 0.503094 0.795187
O O6 0.254378 0.701029 0.688325
O O7 0.679962 0.239676 0.973794
#
# Coordination Sequence:
#
# PCOD9320867 Si02
#       5
#     8   4   4   4   8
#     4  10  26  49  77 113 159 200 266 331 397 477
#     4  12  29  50  79 122 149 214 278 343 382 488
#     4  12  28  48  78 114 165 211 266 324 424 466
#     4   8  23  44  73 102 154 195 244 311 410 448
#     4  10  24  43  73 108 145 197 252 309 394 475
#
# _framework density 24.128246000000001
#
# number of rings (size 3 to 8) (size 9 to 14) (size 15 to 20)
#    1.714    0.000    0.000    1.714    4.000   14.857 
#    0.000    0.000    0.000    0.000    0.000    0.000 
#    0.000    0.000    0.000    0.000    0.000    0.000 
#
# Total GULP energy -78251.621277 kJ/mol
# GULP energy per Si atom -5589.401520 kJ/mol
# Density = 2.407333 g / cm^3
# Si number density = 24.128246 Si / 1000 Ang^3
#
#
#
# Elastic Constant Matrix: (Units=GPa)
#
#
# Indices 1 2 3 4 5 6 
#
# 1 105.0633 39.8115 36.0372 0.0000 0.0000 0.0000
# 2 39.8115 168.0869 63.1453 0.0000 0.0000 0.0000
# 3 36.0372 63.1453 123.4198 0.0000 0.0000 0.0000
# 4 0.0000 0.0000 0.0000 50.4633 0.0000 0.0000
# 5 0.0000 0.0000 0.0000 0.0000 38.8393 0.0000
# 6 0.0000 0.0000 0.0000 0.0000 0.0000 -122.8604
#
#
#
# Elastic Compliance Matrix: (Units=1/GPa)
#
#
# Indices 1 2 3 4 5 6 
#
# 1 0.010968 -0.001726 -0.002319 0.000000 0.000000 0.000000
# 2 -0.001726 0.007637 -0.003403 0.000000 0.000000 0.000000
# 3 -0.002319 -0.003403 0.010521 0.000000 0.000000 0.000000
# 4 0.000000 0.000000 0.000000 0.019816 0.000000 0.000000
# 5 0.000000 0.000000 0.000000 0.000000 0.025747 0.000000
# 6 0.000000 0.000000 0.000000 0.000000 0.000000 -0.008139
#
#
# Mechanical properties :
#
#
# Convention : Reuss Voigt Hill
#
# Bulk Modulus (GPa) = 70.28503 74.95089 72.61796
# Shear Modulus (GPa) = 58.01197 10.46019 34.23608
#
# Velocity S-wave (km/s) = 4.90870 2.08438 3.77094
# Velocity P-wave (km/s) = 7.83072 6.07650 7.00871
#
# Compressibility (1/GPa) = 0.01422778
#
# Stress axis : x y z
#
# Youngs Moduli (GPa) = 91.17632 130.94775 95.05097
#
# Poissons Ratio (x) = 0.22608 0.22044
# Poissons Ratio (y) = 0.15741 0.32346
# Poissons Ratio (z) = 0.21145 0.44562
#
# Static dielectric constant tensor:
#      x y z
#    x 1.927460 0.000000 0.000000 
#    y 0.000000 1.960150 0.000000 
#    z 0.000000 0.000000 1.950750 
# 
# From -- ./inp_files/11976.got.cif
#   From: 2010.05.17/outbox.cif.g08.bks.cpg/sg20_6_cif.got.tgz:11976.got - 2010.06.03 22:52:26.
