data_PCOD9320174
_publ_section_title
;
Structure prediction by ZEFSAII (Michael W. Deem and Ramdas Pophale) SiO2 
 PCOD9320174
Probable space group: C 2 2 21
;
_chemical_formula_sum "Si O2"
_cell_formula_units_Z 56
_cell_length_a 6.369957
_cell_length_b 13.481238
_cell_length_c 26.296310
_cell_angle_alpha 90.000000
_cell_angle_beta 90.000000
_cell_angle_gamma 90.000000
_cell_volume 2258.193159
_symmetry_space_group_name_H-M "C 2 2 21"
_symmetry_group_IT_number 20
_symmetry_cell_setting 'orthorhombic'
loop_
_space_group_symop_operation_xyz
x,y,z
-x,-y,1/2+z
x,-y,-z
-x,y,1/2-z
1/2+x,1/2+y,z
1/2-x,1/2-y,1/2+z
1/2+x,1/2-y,-z
1/2-x,1/2+y,1/2-z
loop_
_atom_site_type_symbol
_atom_site_label
_atom_site_fract_x
_atom_site_fract_y
_atom_site_fract_z
Si Si1 0.892649 0.085790 0.799839
Si Si2 0.334292 0.208608 0.004640
Si Si3 0.908907 0.576150 0.910692
Si Si4 0.312521 0.377864 0.607267
Si Si5 0.959613 0.721605 0.680445
Si Si6 0.897384 0.293484 0.696503
Si Si7 0.249265 0.438040 0.885542
O O1 0.670418 0.139109 0.789511
O O2 0.000000 0.042973 0.750000
O O3 0.026482 0.181950 0.815856
O O4 0.854285 0.006546 0.842478
O O5 0.323914 0.124624 0.961425
O O6 0.590119 0.242018 0.000820
O O7 0.318074 0.170573 0.062128
O O8 0.758181 0.491680 0.887930
O O9 0.959179 0.660199 0.869127
O O10 0.121413 0.513012 0.920486
O O11 0.316090 0.309603 0.657327
O O12 0.559237 0.379865 0.589646
O O13 0.150517 0.776957 0.706366
O O14 0.897135 0.366144 0.648221
O O15 0.000000 0.326247 0.750000
#
# Coordination Sequence:
#
# PCOD9320174 Si02
#       7
#     8   8   8   8   8   8   8
#     4  10  22  43  68 101 144 191 245 313 375 452
#     4  12  29  50  79 118 156 200 260 329 385 472
#     4  11  24  45  76 105 149 198 252 316 391 470
#     4  11  24  45  76 105 149 198 252 316 391 470
#     4  10  22  45  70 104 142 200 248 310 385 460
#     4  10  22  43  68 101 144 191 245 313 375 452
#     4  10  24  46  71 106 144 196 258 309 388 468
#
# _framework density 24.798587999999999
#
# number of rings (size 3 to 8) (size 9 to 14) (size 15 to 20)
#    0.000    1.429    1.429    2.143    4.000    3.429 
#   23.143    0.000    0.000    0.000    0.000    0.000 
#    0.000    0.000    0.000    0.000    0.000    0.000 
#
# Total GULP energy -156276.383203 kJ/mol
# GULP energy per Si atom -5581.299400 kJ/mol
# Density = 2.474215 g / cm^3
# Si number density = 24.798588 Si / 1000 Ang^3
#
#
#
# Elastic Constant Matrix: (Units=GPa)
#
#
# Indices 1 2 3 4 5 6 
#
# 1 124.8944 36.1117 33.3441 0.0000 0.0000 0.0000
# 2 36.1117 78.4219 27.2787 0.0000 0.0000 0.0000
# 3 33.3441 27.2787 86.3962 0.0000 0.0000 0.0000
# 4 0.0000 0.0000 0.0000 29.5998 0.0000 0.0000
# 5 0.0000 0.0000 0.0000 0.0000 54.8423 0.0000
# 6 0.0000 0.0000 0.0000 0.0000 0.0000 53.1983
#
#
#
# Elastic Compliance Matrix: (Units=1/GPa)
#
#
# Indices 1 2 3 4 5 6 
#
# 1 0.009742 -0.003570 -0.002633 0.000000 0.000000 0.000000
# 2 -0.003570 0.015633 -0.003558 0.000000 0.000000 0.000000
# 3 -0.002633 -0.003558 0.013714 0.000000 0.000000 0.000000
# 4 0.000000 0.000000 0.000000 0.033784 0.000000 0.000000
# 5 0.000000 0.000000 0.000000 0.000000 0.018234 0.000000
# 6 0.000000 0.000000 0.000000 0.000000 0.000000 0.018798
#
#
# Mechanical properties :
#
#
# Convention : Reuss Voigt Hill
#
# Bulk Modulus (GPa) = 51.10555 53.68684 52.39619
# Shear Modulus (GPa) = 36.77846 40.39327 38.58587
#
# Velocity S-wave (km/s) = 3.85526 4.04028 3.94886
# Velocity P-wave (km/s) = 6.36164 6.59252 6.47811
#
# Compressibility (1/GPa) = 0.01956735
#
# Stress axis : x y z
#
# Youngs Moduli (GPa) = 102.64955 63.96633 72.91790
#
# Poissons Ratio (x) = 0.22837 0.19196
# Poissons Ratio (y) = 0.36648 0.25945
# Poissons Ratio (z) = 0.27023 0.22760
#
# Static dielectric constant tensor:
#      x y z
#    x 2.192920 0.000000 0.000000 
#    y 0.000000 1.936590 0.000000 
#    z 0.000000 0.000000 1.918320 
# 
# From -- ./inp_files/30748.got.cif
#   From: 2010.05.17/outbox.cif.g08.bks.cpg/sg20_16_cif.got.tgz:30748.got - 2010.06.03 22:52:26.
