data_PCOD9320838
_publ_section_title
;
Structure prediction by ZEFSAII (Michael W. Deem and Ramdas Pophale) SiO2 
 PCOD9320838
Probable space group: C 2 2 21
;
_chemical_formula_sum "Si O2"
_cell_formula_units_Z 32
_cell_length_a 27.443952
_cell_length_b 8.919561
_cell_length_c 5.345242
_cell_angle_alpha 90.000000
_cell_angle_beta 90.000000
_cell_angle_gamma 90.000000
_cell_volume 1308.451120
_symmetry_space_group_name_H-M "C 2 2 21"
_symmetry_group_IT_number 20
_symmetry_cell_setting 'orthorhombic'
loop_
_space_group_symop_operation_xyz
x,y,z
-x,-y,1/2+z
x,-y,-z
-x,y,1/2-z
1/2+x,1/2+y,z
1/2-x,1/2-y,1/2+z
1/2+x,1/2-y,-z
1/2-x,1/2+y,1/2-z
loop_
_atom_site_type_symbol
_atom_site_label
_atom_site_fract_x
_atom_site_fract_y
_atom_site_fract_z
Si Si1 0.363550 0.745742 0.155596
Si Si2 0.943138 0.243843 0.789726
Si Si3 0.107046 0.500000 0.000000
Si Si4 0.770623 0.674569 0.077780
Si Si5 0.120505 0.000000 0.000000
O O1 0.328265 0.784514 0.928687
O O2 0.349661 0.593753 0.297033
O O3 0.360962 0.884225 0.343650
O O4 0.419589 0.732109 0.065232
O O5 0.927128 0.404585 0.683605
O O6 0.913700 0.119051 0.636807
O O7 0.000000 0.221843 0.750000
O O8 0.749290 0.773338 0.846398
O O9 0.764251 0.500000 0.000000
#
# Coordination Sequence:
#
# PCOD9320838 Si02
#       5
#     8   8   4   8   4
#     4  11  26  49  73 108 150 199 253 315 385 464
#     4  11  25  41  71 102 146 191 249 308 378 455
#     4  10  24  42  72 102 144 194 244 306 382 446
#     4  12  30  51  85 120 161 208 267 332 400 479
#     4  10  26  42  72 102 146 194 244 308 386 446
#
# _framework density 24.456399000000001
#
# number of rings (size 3 to 8) (size 9 to 14) (size 15 to 20)
#    0.000    1.000    0.000    3.750   19.250    4.000 
#    0.000    0.000    0.000    0.000    0.000    0.000 
#    0.000    0.000    0.000    0.000    0.000    0.000 
#
# Total GULP energy -89672.785150 kJ/mol
# GULP energy per Si atom -5604.549072 kJ/mol
# Density = 2.440074 g / cm^3
# Si number density = 24.456399 Si / 1000 Ang^3
#
#
#
# Elastic Constant Matrix: (Units=GPa)
#
#
# Indices 1 2 3 4 5 6 
#
# 1 104.6240 8.8443 15.1980 0.0000 0.0000 0.0000
# 2 8.8443 133.8779 24.8205 0.0000 0.0000 0.0000
# 3 15.1980 24.8205 95.1536 0.0000 0.0000 0.0000
# 4 0.0000 0.0000 0.0000 48.5293 0.0000 0.0000
# 5 0.0000 0.0000 0.0000 0.0000 26.0570 0.0000
# 6 0.0000 0.0000 0.0000 0.0000 0.0000 7.8175
#
#
#
# Elastic Compliance Matrix: (Units=1/GPa)
#
#
# Indices 1 2 3 4 5 6 
#
# 1 0.009803 -0.000375 -0.001468 0.000000 0.000000 0.000000
# 2 -0.000375 0.007863 -0.001991 0.000000 0.000000 0.000000
# 3 -0.001468 -0.001991 0.011263 0.000000 0.000000 0.000000
# 4 0.000000 0.000000 0.000000 0.020606 0.000000 0.000000
# 5 0.000000 0.000000 0.000000 0.000000 0.038377 0.000000
# 6 0.000000 0.000000 0.000000 0.000000 0.000000 0.127918
#
#
# Mechanical properties :
#
#
# Convention : Reuss Voigt Hill
#
# Bulk Modulus (GPa) = 47.03520 47.93124 47.48322
# Shear Modulus (GPa) = 21.68381 35.46694 28.57538
#
# Velocity S-wave (km/s) = 2.98087 3.81230 3.42193
# Velocity P-wave (km/s) = 5.57866 6.24654 5.92202
#
# Compressibility (1/GPa) = 0.02126067
#
# Stress axis : x y z
#
# Youngs Moduli (GPa) = 102.00964 127.17052 88.78502
#
# Poissons Ratio (x) = 0.04775 0.13032
# Poissons Ratio (y) = 0.03830 0.17679
# Poissons Ratio (z) = 0.14973 0.25322
#
# Static dielectric constant tensor:
#      x y z
#    x 1.932620 0.000000 0.000000 
#    y 0.000000 1.908600 0.000000 
#    z 0.000000 0.000000 1.974070 
# 
# From -- ./inp_files/724.got.cif
#   From: 2010.05.17/outbox.cif.g08.bks.cpg/sg20_1_cif.got.tgz:724.got - 2010.06.03 22:52:26.
