data_PCOD9320906
_publ_section_title
;
Structure prediction by ZEFSAII (Michael W. Deem and Ramdas Pophale) SiO2 
 PCOD9320906
Probable space group: C 2 2 21
;
_chemical_formula_sum "Si O2"
_cell_formula_units_Z 64
_cell_length_a 14.422559
_cell_length_b 8.360435
_cell_length_c 24.510526
_cell_angle_alpha 90.000000
_cell_angle_beta 90.000000
_cell_angle_gamma 90.000000
_cell_volume 2955.451456
_symmetry_space_group_name_H-M "C 2 2 21"
_symmetry_group_IT_number 20
_symmetry_cell_setting 'orthorhombic'
loop_
_space_group_symop_operation_xyz
x,y,z
-x,-y,1/2+z
x,-y,-z
-x,y,1/2-z
1/2+x,1/2+y,z
1/2-x,1/2-y,1/2+z
1/2+x,1/2-y,-z
1/2-x,1/2+y,1/2-z
loop_
_atom_site_type_symbol
_atom_site_label
_atom_site_fract_x
_atom_site_fract_y
_atom_site_fract_z
Si Si1 0.136310 0.327950 0.250825
Si Si2 0.561420 0.346945 0.116403
Si Si3 0.830285 0.322883 0.526677
Si Si4 0.613586 0.835497 0.617931
Si Si5 0.714754 0.468031 0.813570
Si Si6 0.368615 0.306860 0.997323
Si Si7 0.447773 0.674293 0.438544
Si Si8 0.491024 0.879638 0.339651
O O1 0.223502 0.419422 0.275114
O O2 0.163793 0.164924 0.222014
O O3 0.066040 0.294139 0.300612
O O4 0.084097 0.437320 0.205114
O O5 0.607438 0.205548 0.080017
O O6 0.461927 0.294613 0.140690
O O7 0.639508 0.422564 0.155172
O O8 0.540067 0.488603 0.073682
O O9 0.836668 0.500000 0.500000
O O10 0.724066 0.275575 0.537240
O O11 0.864136 0.207523 0.478545
O O12 0.710495 0.874679 0.647741
O O13 0.633771 0.776427 0.556467
O O14 0.551155 0.993331 0.626832
O O15 0.370951 0.500000 0.000000
O O16 0.461578 0.255531 0.967598
O O17 0.439471 0.764764 0.381520
#
# Coordination Sequence:
#
# PCOD9320906 Si02
#       8
#     8   8   8   8   8   8   8   8
#     4  10  24  49  68 101 138 176 243 306 363 424
#     4  12  24  46  71 101 144 188 234 293 364 427
#     4  11  25  42  65 101 143 187 233 287 354 435
#     4  11  24  45  68 104 140 190 235 290 364 435
#     4  11  26  47  74 106 138 186 242 307 365 433
#     4  11  23  41  64  98 141 181 228 280 346 436
#     4  12  22  43  67 101 142 182 229 288 350 440
#     4  10  24  44  71  97 139 183 233 301 362 422
#
# _framework density 21.654896999999998
#
# number of rings (size 3 to 8) (size 9 to 14) (size 15 to 20)
#    0.000    1.000    3.750    1.875    5.250    1.000 
#    0.000    0.000    0.000    0.000    0.000    0.000 
#    0.000    0.000    0.000    0.000    0.000    0.000 
#
# Total GULP energy -178671.821744 kJ/mol
# GULP energy per Si atom -5583.494430 kJ/mol
# Density = 2.160561 g / cm^3
# Si number density = 21.654897 Si / 1000 Ang^3
#
#
#
# Elastic Constant Matrix: (Units=GPa)
#
#
# Indices 1 2 3 4 5 6 
#
# 1 85.9089 9.8263 20.4786 0.0000 0.0000 0.0000
# 2 9.8263 57.1783 26.8526 0.0000 0.0000 0.0000
# 3 20.4786 26.8526 82.4787 0.0000 0.0000 0.0000
# 4 0.0000 0.0000 0.0000 40.3888 0.0000 0.0000
# 5 0.0000 0.0000 0.0000 0.0000 27.5154 0.0000
# 6 0.0000 0.0000 0.0000 0.0000 0.0000 25.0659
#
#
#
# Elastic Compliance Matrix: (Units=1/GPa)
#
#
# Indices 1 2 3 4 5 6 
#
# 1 0.012404 -0.000809 -0.002816 0.000000 0.000000 0.000000
# 2 -0.000809 0.020699 -0.006538 0.000000 0.000000 0.000000
# 3 -0.002816 -0.006538 0.014952 0.000000 0.000000 0.000000
# 4 0.000000 0.000000 0.000000 0.024759 0.000000 0.000000
# 5 0.000000 0.000000 0.000000 0.000000 0.036343 0.000000
# 6 0.000000 0.000000 0.000000 0.000000 0.000000 0.039895
#
#
# Mechanical properties :
#
#
# Convention : Reuss Voigt Hill
#
# Bulk Modulus (GPa) = 36.06447 37.76452 36.91450
# Shear Modulus (GPa) = 27.99208 29.82125 28.90667
#
# Velocity S-wave (km/s) = 3.59924 3.71497 3.65756
# Velocity P-wave (km/s) = 5.82778 5.98987 5.90938
#
# Compressibility (1/GPa) = 0.02772812
#
# Stress axis : x y z
#
# Youngs Moduli (GPa) = 80.61830 48.31240 66.87977
#
# Poissons Ratio (x) = 0.03909 0.18836
# Poissons Ratio (y) = 0.06522 0.43726
# Poissons Ratio (z) = 0.22706 0.31587
#
# Static dielectric constant tensor:
#      x y z
#    x 1.807740 0.000000 0.000000 
#    y 0.000000 1.842260 0.000000 
#    z 0.000000 0.000000 1.784700 
# 
# From -- ./inp_files/29343.got.cif
#   From: 2010.05.17/outbox.cif.g08.bks.cpg/sg20_15_cif.got.tgz:29343.got - 2010.06.03 22:52:26.
