data_PCOD9320198
_publ_section_title
;
Structure prediction by ZEFSAII (Michael W. Deem and Ramdas Pophale) SiO2 
 PCOD9320198
Probable space group: C 2 2 21
;
_chemical_formula_sum "Si O2"
_cell_formula_units_Z 60
_cell_length_a 21.388175
_cell_length_b 4.920752
_cell_length_c 23.258095
_cell_angle_alpha 90.000000
_cell_angle_beta 90.000000
_cell_angle_gamma 90.000000
_cell_volume 2447.819255
_symmetry_space_group_name_H-M "C 2 2 21"
_symmetry_group_IT_number 20
_symmetry_cell_setting 'orthorhombic'
loop_
_space_group_symop_operation_xyz
x,y,z
-x,-y,1/2+z
x,-y,-z
-x,y,1/2-z
1/2+x,1/2+y,z
1/2-x,1/2-y,1/2+z
1/2+x,1/2-y,-z
1/2-x,1/2+y,1/2-z
loop_
_atom_site_type_symbol
_atom_site_label
_atom_site_fract_x
_atom_site_fract_y
_atom_site_fract_z
Si Si1 0.047779 0.915731 0.585909
Si Si2 0.528866 0.981199 0.306981
Si Si3 0.849641 0.337427 0.373835
Si Si4 0.747994 0.438962 0.713126
Si Si5 0.855965 0.715836 0.153574
Si Si6 0.934654 0.166194 0.624894
Si Si7 0.231042 0.645624 0.438806
Si Si8 0.360191 0.500000 0.000000
O O1 0.090791 0.152683 0.613054
O O2 0.089567 0.808005 0.532997
O O3 0.980660 0.051444 0.575407
O O4 0.034606 0.705765 0.636747
O O5 0.500000 0.849916 0.250000
O O6 0.600559 0.075278 0.298523
O O7 0.479572 0.217261 0.324698
O O8 0.806972 0.473886 0.324969
O O9 0.893273 0.580824 0.395739
O O10 0.799961 0.219143 0.419250
O O11 0.891729 0.083346 0.354690
O O12 0.747979 0.124349 0.729433
O O13 0.686709 0.552228 0.681458
O O14 0.809714 0.529510 0.114524
O O15 0.230237 0.500000 0.500000
O O16 0.189163 0.907912 0.452303
#
# Coordination Sequence:
#
# PCOD9320198 Si02
#       8
#     8   8   8   8   8   8   8   4
#     4  10  22  44  70 102 139 184 235 297 347 414
#     4  11  24  40  70  99 136 188 235 294 347 420
#     4  11  25  44  68  96 142 175 224 277 346 426
#     4  11  25  41  65  96 131 180 221 276 340 399
#     4   9  23  40  63  99 132 171 236 283 341 414
#     4  11  24  47  65  98 142 180 223 279 348 420
#     4  10  22  43  70  99 130 179 225 295 347 417
#     4  10  22  44  74 102 136 180 244 296 360 414
#
# _framework density 24.511616
#
# number of rings (size 3 to 8) (size 9 to 14) (size 15 to 20)
#    0.000    1.600    1.333    1.600    7.467    2.133 
#    1.200    1.333    0.000    0.000    0.000    0.000 
#    0.000    0.000    0.000    0.000    0.000    0.000 
#
# Total GULP energy -167538.703608 kJ/mol
# GULP energy per Si atom -5584.623454 kJ/mol
# Density = 2.445583 g / cm^3
# Si number density = 24.511616 Si / 1000 Ang^3
#
#
#
# Elastic Constant Matrix: (Units=GPa)
#
#
# Indices 1 2 3 4 5 6 
#
# 1 155.4391 30.2396 27.7497 0.0000 0.0000 0.0000
# 2 30.2396 78.3832 2.6134 0.0000 0.0000 0.0000
# 3 27.7497 2.6134 68.4990 0.0000 0.0000 0.0000
# 4 0.0000 0.0000 0.0000 34.9316 0.0000 0.0000
# 5 0.0000 0.0000 0.0000 0.0000 36.5859 0.0000
# 6 0.0000 0.0000 0.0000 0.0000 0.0000 -19.5291
#
#
#
# Elastic Compliance Matrix: (Units=1/GPa)
#
#
# Indices 1 2 3 4 5 6 
#
# 1 0.007501 -0.002796 -0.002932 0.000000 0.000000 0.000000
# 2 -0.002796 0.013816 0.000606 0.000000 0.000000 0.000000
# 3 -0.002932 0.000606 0.015763 0.000000 0.000000 0.000000
# 4 0.000000 0.000000 0.000000 0.028627 0.000000 0.000000
# 5 0.000000 0.000000 0.000000 0.000000 0.027333 0.000000
# 6 0.000000 0.000000 0.000000 0.000000 0.000000 -0.051206
#
#
# Mechanical properties :
#
#
# Convention : Reuss Voigt Hill
#
# Bulk Modulus (GPa) = 37.26377 47.05854 42.16115
# Shear Modulus (GPa) = 81.93348 26.51226 54.22287
#
# Velocity S-wave (km/s) = 5.78783 3.29237 4.70843
# Velocity P-wave (km/s) = 7.73956 5.80457 6.84083
#
# Compressibility (1/GPa) = 0.02683572
#
# Stress axis : x y z
#
# Youngs Moduli (GPa) = 133.31988 72.37820 63.43798
#
# Poissons Ratio (x) = 0.20237 0.18600
# Poissons Ratio (y) = 0.37276 -0.03842
# Poissons Ratio (z) = 0.39089 -0.04383
#
# Static dielectric constant tensor:
#      x y z
#    x 1.944590 0.000000 0.000000 
#    y 0.000000 2.011390 0.000000 
#    z 0.000000 0.000000 2.123790 
# 
# From -- ./inp_files/29538.got.cif
#   From: 2010.05.17/outbox.cif.g08.bks.cpg/sg20_15_cif.got.tgz:29538.got - 2010.06.03 22:52:26.
