data_PCOD9320809
_publ_section_title
;
Structure prediction by ZEFSAII (Michael W. Deem and Ramdas Pophale) SiO2 
 PCOD9320809
Probable space group: C 2 2 21
;
_chemical_formula_sum "Si O2"
_cell_formula_units_Z 32
_cell_length_a 7.666282
_cell_length_b 21.212017
_cell_length_c 8.371706
_cell_angle_alpha 90.000000
_cell_angle_beta 90.000000
_cell_angle_gamma 90.000000
_cell_volume 1361.384261
_symmetry_space_group_name_H-M "C 2 2 21"
_symmetry_group_IT_number 20
_symmetry_cell_setting 'orthorhombic'
loop_
_space_group_symop_operation_xyz
x,y,z
-x,-y,1/2+z
x,-y,-z
-x,y,1/2-z
1/2+x,1/2+y,z
1/2-x,1/2-y,1/2+z
1/2+x,1/2-y,-z
1/2-x,1/2+y,1/2-z
loop_
_atom_site_type_symbol
_atom_site_label
_atom_site_fract_x
_atom_site_fract_y
_atom_site_fract_z
Si Si1 0.500000 0.511834 0.750000
Si Si2 0.993458 0.095670 0.459315
Si Si3 0.384763 0.857310 0.909654
Si Si4 0.500000 0.155059 0.750000
Si Si5 0.650320 0.289868 0.379311
O O1 0.572887 0.560130 0.879635
O O2 0.408381 0.459603 0.862439
O O3 0.812484 0.119549 0.386077
O O4 0.114388 0.155531 0.492285
O O5 0.500000 0.868765 0.750000
O O6 0.370500 0.781528 0.934506
O O7 0.458130 0.881081 0.082393
O O8 0.666148 0.197001 0.797205
O O9 0.500000 0.299912 0.250000
#
# Coordination Sequence:
#
# PCOD9320809 Si02
#       5
#     4   8   8   4   8
#     4  10  24  41  80  92 140 207 256 298 364 458
#     4  11  22  48  71 106 147 196 257 309 373 463
#     4  11  26  43  72 115 153 193 249 318 406 459
#     4  12  24  41  68 102 158 191 240 310 384 462
#     4  11  23  43  70 110 154 193 241 318 389 458
#
# _framework density 23.505486999999999
#
# number of rings (size 3 to 8) (size 9 to 14) (size 15 to 20)
#    0.000    1.000    3.750    1.500    7.000    2.000 
#    0.000    0.000   24.750    0.000    0.000    0.000 
#    0.000    0.000    0.000    0.000    0.000    0.000 
#
# Total GULP energy -89166.777330 kJ/mol
# GULP energy per Si atom -5572.923583 kJ/mol
# Density = 2.345199 g / cm^3
# Si number density = 23.505487 Si / 1000 Ang^3
#
#
#
# Elastic Constant Matrix: (Units=GPa)
#
#
# Indices 1 2 3 4 5 6 
#
# 1 118.4050 18.5036 30.7306 0.0000 0.0000 0.0000
# 2 18.5036 117.9705 44.5016 0.0000 0.0000 0.0000
# 3 30.7306 44.5016 144.4117 0.0000 0.0000 0.0000
# 4 0.0000 0.0000 0.0000 31.9331 0.0000 0.0000
# 5 0.0000 0.0000 0.0000 0.0000 18.8253 0.0000
# 6 0.0000 0.0000 0.0000 0.0000 0.0000 11.3837
#
#
#
# Elastic Compliance Matrix: (Units=1/GPa)
#
#
# Indices 1 2 3 4 5 6 
#
# 1 0.009002 -0.000780 -0.001675 0.000000 0.000000 0.000000
# 2 -0.000780 0.009659 -0.002811 0.000000 0.000000 0.000000
# 3 -0.001675 -0.002811 0.008147 0.000000 0.000000 0.000000
# 4 0.000000 0.000000 0.000000 0.031315 0.000000 0.000000
# 5 0.000000 0.000000 0.000000 0.000000 0.053120 0.000000
# 6 0.000000 0.000000 0.000000 0.000000 0.000000 0.087845
#
#
# Mechanical properties :
#
#
# Convention : Reuss Voigt Hill
#
# Bulk Modulus (GPa) = 61.43652 63.13986 62.28819
# Shear Modulus (GPa) = 23.25073 31.56517 27.40795
#
# Velocity S-wave (km/s) = 3.14851 3.66852 3.41841
# Velocity P-wave (km/s) = 6.27784 6.69807 6.49135
#
# Compressibility (1/GPa) = 0.01627696
#
# Stress axis : x y z
#
# Youngs Moduli (GPa) = 111.08283 103.52746 122.74080
#
# Poissons Ratio (x) = 0.08076 0.20563
# Poissons Ratio (y) = 0.08665 0.34497
# Poissons Ratio (z) = 0.18610 0.29097
#
# Static dielectric constant tensor:
#      x y z
#    x 1.834380 0.000000 0.000000 
#    y 0.000000 1.882620 0.000000 
#    z 0.000000 0.000000 2.071500 
# 
# From -- ./inp_files/5858.got.cif
#   From: 2010.05.17/outbox.cif.g08.bks.cpg/sg20_3_cif.got.tgz:5858.got - 2010.06.03 22:52:26.
