data_PCOD9320208
_publ_section_title
;
Structure prediction by ZEFSAII (Michael W. Deem and Ramdas Pophale) SiO2 
 PCOD9320208
Probable space group: C 2 2 21
;
_chemical_formula_sum "Si O2"
_cell_formula_units_Z 40
_cell_length_a 22.819484
_cell_length_b 6.490363
_cell_length_c 13.075947
_cell_angle_alpha 90.000000
_cell_angle_beta 90.000000
_cell_angle_gamma 90.000000
_cell_volume 1936.635812
_symmetry_space_group_name_H-M "C 2 2 21"
_symmetry_group_IT_number 20
_symmetry_cell_setting 'orthorhombic'
loop_
_space_group_symop_operation_xyz
x,y,z
-x,-y,1/2+z
x,-y,-z
-x,y,1/2-z
1/2+x,1/2+y,z
1/2-x,1/2-y,1/2+z
1/2+x,1/2-y,-z
1/2-x,1/2+y,1/2-z
loop_
_atom_site_type_symbol
_atom_site_label
_atom_site_fract_x
_atom_site_fract_y
_atom_site_fract_z
Si Si1 0.629090 0.608627 0.602166
Si Si2 0.743975 0.348320 0.641842
Si Si3 0.287696 0.500000 0.500000
Si Si4 0.438120 0.731572 0.195123
Si Si5 0.907993 0.500000 0.000000
Si Si6 0.173468 0.307654 0.169632
O O1 0.607289 0.500000 0.500000
O O2 0.692979 0.512371 0.618078
O O3 0.584750 0.506301 0.682603
O O4 0.627831 0.846338 0.574321
O O5 0.805121 0.467590 0.635643
O O6 0.724634 0.262766 0.751345
O O7 0.748216 0.159081 0.564354
O O8 0.325094 0.359983 0.578968
O O9 0.500000 0.741412 0.250000
O O10 0.386475 0.820462 0.267394
O O11 0.439957 0.858010 0.086736
#
# Coordination Sequence:
#
# PCOD9320208 Si02
#       6
#     8   8   4   8   4   8
#     4   9  20  37  65  97 129 172 223 280 331 399
#     4  11  23  40  66 100 138 177 219 284 342 421
#     4  12  24  43  62 100 142 182 223 278 354 408
#     4  10  24  45  65 100 136 182 235 287 339 407
#     4  10  22  43  72 102 128 186 237 282 346 398
#     4  11  24  40  66  97 136 181 225 279 350 406
#
# _framework density 20.654375000000002
#
# number of rings (size 3 to 8) (size 9 to 14) (size 15 to 20)
#    0.000    1.600    2.000    1.800    2.800   10.400 
#    9.000    0.000    0.000    0.000    0.000    0.000 
#    0.000    0.000    0.000    0.000    0.000    0.000 
#
# Total GULP energy -111470.691609 kJ/mol
# GULP energy per Si atom -5573.534580 kJ/mol
# Density = 2.060736 g / cm^3
# Si number density = 20.654375 Si / 1000 Ang^3
#
#
#
# Elastic Constant Matrix: (Units=GPa)
#
#
# Indices 1 2 3 4 5 6 
#
# 1 114.8464 54.8074 53.2574 0.0000 0.0000 0.0000
# 2 54.8074 109.5647 43.1777 0.0000 0.0000 0.0000
# 3 53.2574 43.1777 112.6811 0.0000 0.0000 0.0000
# 4 0.0000 0.0000 0.0000 44.1830 0.0000 0.0000
# 5 0.0000 0.0000 0.0000 0.0000 29.1382 0.0000
# 6 0.0000 0.0000 0.0000 0.0000 0.0000 -0.7936
#
#
#
# Elastic Compliance Matrix: (Units=1/GPa)
#
#
# Indices 1 2 3 4 5 6 
#
# 1 0.012995 -0.004806 -0.004300 0.000000 0.000000 0.000000
# 2 -0.004806 0.012528 -0.002529 0.000000 0.000000 0.000000
# 3 -0.004300 -0.002529 0.011876 0.000000 0.000000 0.000000
# 4 0.000000 0.000000 0.000000 0.022633 0.000000 0.000000
# 5 0.000000 0.000000 0.000000 0.000000 0.034319 0.000000
# 6 0.000000 0.000000 0.000000 0.000000 0.000000 -1.260079
#
#
# Mechanical properties :
#
#
# Convention : Reuss Voigt Hill
#
# Bulk Modulus (GPa) = 70.77914 71.06412 70.92163
# Shear Modulus (GPa) = -4.39465 26.89550 11.25043
#
# Velocity S-wave (km/s) = -1.46025 3.61247 2.33641
# Velocity P-wave (km/s) = 5.61245 7.20284 6.45680
#
# Compressibility (1/GPa) = 0.01412846
#
# Stress axis : x y z
#
# Youngs Moduli (GPa) = 76.95334 79.82355 84.20174
#
# Poissons Ratio (x) = 0.38361 0.36210
# Poissons Ratio (y) = 0.36981 0.21295
# Poissons Ratio (z) = 0.33093 0.20188
#
# Static dielectric constant tensor:
#      x y z
#    x 1.703020 0.000000 0.000000 
#    y 0.000000 1.846020 0.000000 
#    z 0.000000 0.000000 1.834500 
# 
# From -- ./inp_files/21946.got.cif
#   From: 2010.05.17/outbox.cif.g08.bks.cpg/sg20_11_cif.got.tgz:21946.got - 2010.06.03 22:52:26.
