data_PCOD9320677
_publ_section_title
;
Structure prediction by ZEFSAII (Michael W. Deem and Ramdas Pophale) SiO2 
 PCOD9320677
Probable space group: C 2 2 21
;
_chemical_formula_sum "Si O2"
_cell_formula_units_Z 24
_cell_length_a 10.513704
_cell_length_b 15.426533
_cell_length_c 7.267649
_cell_angle_alpha 90.000000
_cell_angle_beta 90.000000
_cell_angle_gamma 90.000000
_cell_volume 1178.740004
_symmetry_space_group_name_H-M "C 2 2 21"
_symmetry_group_IT_number 20
_symmetry_cell_setting 'orthorhombic'
loop_
_space_group_symop_operation_xyz
x,y,z
-x,-y,1/2+z
x,-y,-z
-x,y,1/2-z
1/2+x,1/2+y,z
1/2-x,1/2-y,1/2+z
1/2+x,1/2-y,-z
1/2-x,1/2+y,1/2-z
loop_
_atom_site_type_symbol
_atom_site_label
_atom_site_fract_x
_atom_site_fract_y
_atom_site_fract_z
Si Si1 0.357802 0.107445 0.891667
Si Si2 0.500000 0.263620 0.750000
Si Si3 0.560240 0.597707 0.946494
Si Si4 0.500000 0.045068 0.250000
O O1 0.385492 0.196903 0.789067
O O2 0.213187 0.101413 0.951071
O O3 0.385620 0.026312 0.754218
O O4 0.456437 0.098044 0.067531
O O5 0.485864 0.327561 0.580705
O O6 0.500000 0.615539 0.750000
O O7 0.520947 0.500000 0.000000
#
# Coordination Sequence:
#
# PCOD9320677 Si02
#       4
#     8   4   8   4
#     4  10  23  45  70 106 138 178 243 283 349 417
#     4  11  28  44  69 108 128 192 233 284 352 401
#     4  12  26  49  68 100 146 186 228 289 356 415
#     4   9  18  42  73 100 134 182 223 296 344 405
#
# _framework density 20.360724000000001
#
# number of rings (size 3 to 8) (size 9 to 14) (size 15 to 20)
#    0.000    1.333    5.000    0.000    7.000    0.000 
#   24.000    0.000    0.000    0.000    0.000    0.000 
#    0.000    0.000    0.000    0.000    0.000    0.000 
#
# Total GULP energy -66832.226951 kJ/mol
# GULP energy per Si atom -5569.352246 kJ/mol
# Density = 2.031438 g / cm^3
# Si number density = 20.360724 Si / 1000 Ang^3
#
#
#
# Elastic Constant Matrix: (Units=GPa)
#
#
# Indices 1 2 3 4 5 6 
#
# 1 26.1595 2.0396 28.8216 0.0000 0.0000 0.0000
# 2 2.0396 147.7590 60.0665 0.0000 0.0000 0.0000
# 3 28.8216 60.0665 155.0512 0.0000 0.0000 0.0000
# 4 0.0000 0.0000 0.0000 40.3667 0.0000 0.0000
# 5 0.0000 0.0000 0.0000 0.0000 14.9808 0.0000
# 6 0.0000 0.0000 0.0000 0.0000 0.0000 10.4056
#
#
#
# Elastic Compliance Matrix: (Units=1/GPa)
#
#
# Indices 1 2 3 4 5 6 
#
# 1 0.049670 0.003641 -0.010643 0.000000 0.000000 0.000000
# 2 0.003641 0.008300 -0.003892 0.000000 0.000000 0.000000
# 3 -0.010643 -0.003892 0.009936 0.000000 0.000000 0.000000
# 4 0.000000 0.000000 0.000000 0.024773 0.000000 0.000000
# 5 0.000000 0.000000 0.000000 0.000000 0.066752 0.000000
# 6 0.000000 0.000000 0.000000 0.000000 0.000000 0.096102
#
#
# Mechanical properties :
#
#
# Convention : Reuss Voigt Hill
#
# Bulk Modulus (GPa) = 21.68428 56.75834 39.22131
# Shear Modulus (GPa) = 17.08276 29.02009 23.05143
#
# Velocity S-wave (km/s) = 2.89970 3.77941 3.36840
# Velocity P-wave (km/s) = 4.67805 6.85435 5.86798
#
# Compressibility (1/GPa) = 0.04611636
#
# Stress axis : x y z
#
# Youngs Moduli (GPa) = 20.13299 120.48585 100.64694
#
# Poissons Ratio (x) = -0.43870 1.07122
# Poissons Ratio (y) = -0.07331 0.39173
# Poissons Ratio (z) = 0.21428 0.46895
#
# Static dielectric constant tensor:
#      x y z
#    x 1.701510 0.000000 0.000000 
#    y 0.000000 1.724720 0.000000 
#    z 0.000000 0.000000 1.769450 
# 
# From -- ./inp_files/5572.got.cif
#   From: 2010.05.17/outbox.cif.g08.bks.cpg/sg20_3_cif.got.tgz:5572.got - 2010.06.03 22:52:26.
