data_PCOD9320273
_publ_section_title
;
Structure prediction by ZEFSAII (Michael W. Deem and Ramdas Pophale) SiO2 
 PCOD9320273
Probable space group: C 2 2 21
;
_chemical_formula_sum "Si O2"
_cell_formula_units_Z 56
_cell_length_a 14.000273
_cell_length_b 12.640627
_cell_length_c 14.648854
_cell_angle_alpha 90.000000
_cell_angle_beta 90.000000
_cell_angle_gamma 90.000000
_cell_volume 2592.440343
_symmetry_space_group_name_H-M "C 2 2 21"
_symmetry_group_IT_number 20
_symmetry_cell_setting 'orthorhombic'
loop_
_space_group_symop_operation_xyz
x,y,z
-x,-y,1/2+z
x,-y,-z
-x,y,1/2-z
1/2+x,1/2+y,z
1/2-x,1/2-y,1/2+z
1/2+x,1/2-y,-z
1/2-x,1/2+y,1/2-z
loop_
_atom_site_type_symbol
_atom_site_label
_atom_site_fract_x
_atom_site_fract_y
_atom_site_fract_z
Si Si1 0.806118 0.050960 0.694695
Si Si2 0.120221 0.712451 0.395551
Si Si3 0.500000 0.328035 0.250000
Si Si4 0.532910 0.994444 0.647282
Si Si5 0.609614 0.329008 0.770740
Si Si6 0.126899 0.500000 0.000000
Si Si7 0.202341 0.351832 0.141974
Si Si8 0.657509 0.192369 0.603809
O O1 0.907027 0.104713 0.722166
O O2 0.731163 0.064615 0.779496
O O3 0.754372 0.121750 0.616297
O O4 0.835054 0.928227 0.685234
O O5 0.031451 0.759665 0.338410
O O6 0.115224 0.587981 0.378540
O O7 0.211598 0.769584 0.355032
O O8 0.130557 0.730570 0.503211
O O9 0.500000 0.982878 0.750000
O O10 0.444268 0.968242 0.581430
O O11 0.574165 0.109893 0.629624
O O12 0.500000 0.357646 0.750000
O O13 0.613887 0.222905 0.832399
O O14 0.657941 0.288034 0.676396
O O15 0.188929 0.591885 0.954419
#
# Coordination Sequence:
#
# PCOD9320273 Si02
#       8
#     8   8   4   8   8   4   8   8
#     4  10  22  44  71  99 143 185 234 292 362 427
#     4  11  23  43  68  98 142 180 238 289 359 421
#     4  10  22  46  68 106 138 200 236 284 368 446
#     4  12  23  42  70  99 135 181 234 292 349 422
#     4  11  22  42  70  96 134 183 230 283 359 423
#     4  12  24  42  66  98 140 170 228 294 346 416
#     4  10  25  41  64 103 136 178 231 283 356 428
#     4  11  23  41  67 105 138 179 242 297 349 430
#
# _framework density 21.601268000000001
#
# number of rings (size 3 to 8) (size 9 to 14) (size 15 to 20)
#    0.000    1.143    2.857    3.857    2.000    1.143 
#    0.000    0.000    0.000    0.000    0.000    0.000 
#    0.000    0.000    0.000    0.000    0.000    0.000 
#
# Total GULP energy -156345.938132 kJ/mol
# GULP energy per Si atom -5583.783505 kJ/mol
# Density = 2.155210 g / cm^3
# Si number density = 21.601268 Si / 1000 Ang^3
#
#
#
# Elastic Constant Matrix: (Units=GPa)
#
#
# Indices 1 2 3 4 5 6 
#
# 1 103.4965 37.1760 14.5738 0.0000 0.0000 0.0000
# 2 37.1760 77.0151 10.9722 0.0000 0.0000 0.0000
# 3 14.5738 10.9722 100.5418 0.0000 0.0000 0.0000
# 4 0.0000 0.0000 0.0000 29.9897 0.0000 0.0000
# 5 0.0000 0.0000 0.0000 0.0000 25.7506 0.0000
# 6 0.0000 0.0000 0.0000 0.0000 0.0000 26.8658
#
#
#
# Elastic Compliance Matrix: (Units=1/GPa)
#
#
# Indices 1 2 3 4 5 6 
#
# 1 0.011809 -0.005543 -0.001107 0.000000 0.000000 0.000000
# 2 -0.005543 0.015791 -0.000920 0.000000 0.000000 0.000000
# 3 -0.001107 -0.000920 0.010207 0.000000 0.000000 0.000000
# 4 0.000000 0.000000 0.000000 0.033345 0.000000 0.000000
# 5 0.000000 0.000000 0.000000 0.000000 0.038834 0.000000
# 6 0.000000 0.000000 0.000000 0.000000 0.000000 0.037222
#
#
# Mechanical properties :
#
#
# Convention : Reuss Voigt Hill
#
# Bulk Modulus (GPa) = 44.11470 45.16640 44.64055
# Shear Modulus (GPa) = 29.42867 31.07666 30.25266
#
# Velocity S-wave (km/s) = 3.69502 3.79707 3.74639
# Velocity P-wave (km/s) = 6.21859 6.33863 6.27889
#
# Compressibility (1/GPa) = 0.02266818
#
# Stress axis : x y z
#
# Youngs Moduli (GPa) = 84.68167 63.32719 97.97253
#
# Poissons Ratio (x) = 0.35100 0.10844
# Poissons Ratio (y) = 0.46936 0.09012
# Poissons Ratio (z) = 0.09373 0.05825
#
# Static dielectric constant tensor:
#      x y z
#    x 1.827930 0.000000 0.000000 
#    y 0.000000 1.797380 0.000000 
#    z 0.000000 0.000000 1.799330 
# 
# From -- ./inp_files/20785.got.cif
#   From: 2010.05.17/outbox.cif.g08.bks.cpg/sg20_11_cif.got.tgz:20785.got - 2010.06.03 22:52:26.
