data_PCOD9320037
_publ_section_title
;
Structure prediction by ZEFSAII (Michael W. Deem and Ramdas Pophale) SiO2 
 PCOD9320037
Probable space group: C 2 2 21
;
_chemical_formula_sum "Si O2"
_cell_formula_units_Z 32
_cell_length_a 4.872175
_cell_length_b 31.260483
_cell_length_c 8.763435
_cell_angle_alpha 90.000000
_cell_angle_beta 90.000000
_cell_angle_gamma 90.000000
_cell_volume 1334.728496
_symmetry_space_group_name_H-M "C 2 2 21"
_symmetry_group_IT_number 20
_symmetry_cell_setting 'orthorhombic'
loop_
_space_group_symop_operation_xyz
x,y,z
-x,-y,1/2+z
x,-y,-z
-x,y,1/2-z
1/2+x,1/2+y,z
1/2-x,1/2-y,1/2+z
1/2+x,1/2-y,-z
1/2-x,1/2+y,1/2-z
loop_
_atom_site_type_symbol
_atom_site_label
_atom_site_fract_x
_atom_site_fract_y
_atom_site_fract_z
Si Si1 0.856605 0.045417 0.081701
Si Si2 0.500000 0.832065 0.750000
Si Si3 0.794451 0.221961 0.990839
Si Si4 0.000000 0.334452 0.250000
Si Si5 0.671217 0.896536 0.519427
O O1 0.000000 0.041185 0.250000
O O2 0.068338 0.074594 0.989348
O O3 0.573525 0.071534 0.069813
O O4 0.822813 0.000000 0.000000
O O5 0.323133 0.804299 0.633324
O O6 0.701753 0.863275 0.657363
O O7 0.609992 0.265238 0.991151
O O8 0.715214 0.195801 0.839335
O O9 0.116151 0.366285 0.376781
#
# Coordination Sequence:
#
# PCOD9320037 Si02
#       5
#     8   4   8   4   8
#     4  12  26  45  70  99 133 175 219 273 333 394
#     4  10  22  42  65  90 128 174 210 266 321 384
#     4  11  24  41  65  95 132 172 221 269 327 385
#     4  10  26  42  69 102 134 178 224 274 333 390
#     4  11  25  44  68  97 136 174 223 267 331 397
#
# _framework density 23.974913000000001
#
# number of rings (size 3 to 8) (size 9 to 14) (size 15 to 20)
#    0.000    1.000    2.500    2.250    3.500   12.000 
#    0.000    0.000    0.000    0.000    0.000    0.000 
#    0.000    0.000    0.000    0.000    0.000    0.000 
#
# Total GULP energy -89702.117480 kJ/mol
# GULP energy per Si atom -5606.382342 kJ/mol
# Density = 2.392034 g / cm^3
# Si number density = 23.974913 Si / 1000 Ang^3
#
#
#
# Elastic Constant Matrix: (Units=GPa)
#
#
# Indices 1 2 3 4 5 6 
#
# 1 92.3796 23.1505 0.6132 0.0000 0.0000 0.0000
# 2 23.1505 139.1492 46.8227 0.0000 0.0000 0.0000
# 3 0.6132 46.8227 119.8135 0.0000 0.0000 0.0000
# 4 0.0000 0.0000 0.0000 46.3177 0.0000 0.0000
# 5 0.0000 0.0000 0.0000 0.0000 11.8952 0.0000
# 6 0.0000 0.0000 0.0000 0.0000 0.0000 13.8208
#
#
#
# Elastic Compliance Matrix: (Units=1/GPa)
#
#
# Indices 1 2 3 4 5 6 
#
# 1 0.011359 -0.002154 0.000783 0.000000 0.000000 0.000000
# 2 -0.002154 0.008683 -0.003382 0.000000 0.000000 0.000000
# 3 0.000783 -0.003382 0.009664 0.000000 0.000000 0.000000
# 4 0.000000 0.000000 0.000000 0.021590 0.000000 0.000000
# 5 0.000000 0.000000 0.000000 0.000000 0.084067 0.000000
# 6 0.000000 0.000000 0.000000 0.000000 0.000000 0.072355
#
#
# Mechanical properties :
#
#
# Convention : Reuss Voigt Hill
#
# Bulk Modulus (GPa) = 49.50062 54.72390 52.11226
# Shear Modulus (GPa) = 22.32574 33.12381 27.72477
#
# Velocity S-wave (km/s) = 3.05489 3.72102 3.40429
# Velocity P-wave (km/s) = 5.75628 6.42934 6.10210
#
# Compressibility (1/GPa) = 0.02020177
#
# Stress axis : x y z
#
# Youngs Moduli (GPa) = 88.03300 115.16882 103.47619
#
# Poissons Ratio (x) = 0.24802 -0.08107
# Poissons Ratio (y) = 0.18958 0.34998
# Poissons Ratio (z) = -0.06897 0.38953
#
# Static dielectric constant tensor:
#      x y z
#    x 1.851780 0.000000 0.000000 
#    y 0.000000 1.902680 0.000000 
#    z 0.000000 0.000000 1.930510 
# 
# From -- ./inp_files/5142.got.cif
#   From: 2010.05.17/outbox.cif.g08.bks.cpg/sg20_3_cif.got.tgz:5142.got - 2010.06.03 22:52:26.
