data_PCOD9320490
_publ_section_title
;
Structure prediction by ZEFSAII (Michael W. Deem and Ramdas Pophale) SiO2 
 PCOD9320490
Probable space group: C 2 2 21
;
_chemical_formula_sum "Si O2"
_cell_formula_units_Z 32
_cell_length_a 21.895551
_cell_length_b 7.700904
_cell_length_c 8.077363
_cell_angle_alpha 90.000000
_cell_angle_beta 90.000000
_cell_angle_gamma 90.000000
_cell_volume 1361.968894
_symmetry_space_group_name_H-M "C 2 2 21"
_symmetry_group_IT_number 20
_symmetry_cell_setting 'orthorhombic'
loop_
_space_group_symop_operation_xyz
x,y,z
-x,-y,1/2+z
x,-y,-z
-x,y,1/2-z
1/2+x,1/2+y,z
1/2-x,1/2-y,1/2+z
1/2+x,1/2-y,-z
1/2-x,1/2+y,1/2-z
loop_
_atom_site_type_symbol
_atom_site_label
_atom_site_fract_x
_atom_site_fract_y
_atom_site_fract_z
Si Si1 0.288674 0.893559 0.174773
Si Si2 0.898404 0.204948 0.024965
Si Si3 0.000000 0.826662 0.750000
Si Si4 0.091101 0.000000 0.000000
Si Si5 0.838651 0.717538 0.309269
O O1 0.338240 0.746602 0.132494
O O2 0.224180 0.819457 0.231071
O O3 0.316688 0.019603 0.313290
O O4 0.280863 0.000000 0.000000
O O5 0.958181 0.274379 0.118563
O O6 0.885176 0.281416 0.845115
O O7 0.905876 0.000000 0.000000
O O8 0.952377 0.944587 0.649855
O O9 0.130857 0.168511 0.952233
#
# Coordination Sequence:
#
# PCOD9320490 Si02
#       5
#     8   8   4   4   8
#     4  10  23  41  68 109 141 182 229 297 361 421
#     4  11  22  42  67  96 136 183 233 291 347 427
#     4  12  24  42  66  98 132 192 242 284 354 422
#     4  12  22  42  68 100 134 190 238 300 344 430
#     4  11  22  41  69 104 140 181 238 293 365 418
#
# _framework density 23.495398999999999
#
# number of rings (size 3 to 8) (size 9 to 14) (size 15 to 20)
#    0.000    1.000    5.000    1.500    0.000    0.000 
#    0.000   15.000    0.000    0.000    0.000    0.000 
#    0.000    0.000    0.000    0.000    0.000    0.000 
#
# Total GULP energy -89471.529937 kJ/mol
# GULP energy per Si atom -5591.970621 kJ/mol
# Density = 2.344192 g / cm^3
# Si number density = 23.495399 Si / 1000 Ang^3
#
#
#
# Elastic Constant Matrix: (Units=GPa)
#
#
# Indices 1 2 3 4 5 6 
#
# 1 131.5251 34.5736 47.0051 0.0000 0.0000 0.0000
# 2 34.5736 49.7272 31.0863 0.0000 0.0000 0.0000
# 3 47.0051 31.0863 111.6482 0.0000 0.0000 0.0000
# 4 0.0000 0.0000 0.0000 34.4995 0.0000 0.0000
# 5 0.0000 0.0000 0.0000 0.0000 23.9057 0.0000
# 6 0.0000 0.0000 0.0000 0.0000 0.0000 16.5200
#
#
#
# Elastic Compliance Matrix: (Units=1/GPa)
#
#
# Indices 1 2 3 4 5 6 
#
# 1 0.009951 -0.005206 -0.002740 0.000000 0.000000 0.000000
# 2 -0.005206 0.027071 -0.005346 0.000000 0.000000 0.000000
# 3 -0.002740 -0.005346 0.011599 0.000000 0.000000 0.000000
# 4 0.000000 0.000000 0.000000 0.028986 0.000000 0.000000
# 5 0.000000 0.000000 0.000000 0.000000 0.041831 0.000000
# 6 0.000000 0.000000 0.000000 0.000000 0.000000 0.060533
#
#
# Mechanical properties :
#
#
# Convention : Reuss Voigt Hill
#
# Bulk Modulus (GPa) = 45.37690 57.58117 51.47903
# Shear Modulus (GPa) = 23.37559 27.00072 25.18815
#
# Velocity S-wave (km/s) = 3.15763 3.39365 3.27776
# Velocity P-wave (km/s) = 5.71394 6.31795 6.02352
#
# Compressibility (1/GPa) = 0.02203764
#
# Stress axis : x y z
#
# Youngs Moduli (GPa) = 100.49544 36.94025 86.21671
#
# Poissons Ratio (x) = 0.19229 0.23623
# Poissons Ratio (y) = 0.52313 0.46089
# Poissons Ratio (z) = 0.27535 0.19747
#
# Static dielectric constant tensor:
#      x y z
#    x 1.862080 0.000000 0.000000 
#    y 0.000000 1.881000 0.000000 
#    z 0.000000 0.000000 1.983100 
# 
# From -- ./inp_files/9810.got.cif
#   From: 2010.05.17/outbox.cif.g08.bks.cpg/sg20_5_cif.got.tgz:9810.got - 2010.06.03 22:52:26.
