data_PCOD9320634
_publ_section_title
;
Structure prediction by ZEFSAII (Michael W. Deem and Ramdas Pophale) SiO2 
 PCOD9320634
Probable space group: C 2 2 21
;
_chemical_formula_sum "Si O2"
_cell_formula_units_Z 40
_cell_length_a 23.394829
_cell_length_b 7.839289
_cell_length_c 8.740760
_cell_angle_alpha 90.000000
_cell_angle_beta 90.000000
_cell_angle_gamma 90.000000
_cell_volume 1603.045119
_symmetry_space_group_name_H-M "C 2 2 21"
_symmetry_group_IT_number 20
_symmetry_cell_setting 'orthorhombic'
loop_
_space_group_symop_operation_xyz
x,y,z
-x,-y,1/2+z
x,-y,-z
-x,y,1/2-z
1/2+x,1/2+y,z
1/2-x,1/2-y,1/2+z
1/2+x,1/2-y,-z
1/2-x,1/2+y,1/2-z
loop_
_atom_site_type_symbol
_atom_site_label
_atom_site_fract_x
_atom_site_fract_y
_atom_site_fract_z
Si Si1 0.939988 0.278843 0.312694
Si Si2 0.235835 0.425959 0.337745
Si Si3 0.868438 0.582745 0.329243
Si Si4 0.452359 0.657571 0.619666
Si Si5 0.163959 0.075607 0.338556
O O1 0.916803 0.459718 0.255851
O O2 0.955948 0.303935 0.490702
O O3 0.889520 0.145814 0.264443
O O4 0.000000 0.220453 0.250000
O O5 0.254563 0.500000 0.500000
O O6 0.188021 0.548622 0.265609
O O7 0.204140 0.245028 0.356795
O O8 0.290811 0.442196 0.230962
O O9 0.856247 0.500000 0.500000
O O10 0.891580 0.775489 0.318011
O O11 0.453710 0.500000 0.500000
O O12 0.500000 0.653867 0.750000
O O13 0.142508 0.000000 0.500000
#
# Coordination Sequence:
#
# PCOD9320634 Si02
#       5
#     8   8   8   8   8
#     4  10  23  44  69 100 136 182 235 284 347 420
#     4  11  24  43  70 106 141 182 234 291 358 423
#     4   9  21  43  70  98 135 185 235 287 348 423
#     4  11  24  40  63  96 137 182 231 293 351 411
#     4  11  25  46  73 104 142 185 235 293 351 423
#
# _framework density 24.952511000000001
#
# number of rings (size 3 to 8) (size 9 to 14) (size 15 to 20)
#    0.000    1.600    0.000    3.000    0.000   12.800 
#    0.000    2.000    0.000    0.000    0.000    0.000 
#    0.000    0.000    0.000    0.000    0.000    0.000 
#
# Total GULP energy -111573.915012 kJ/mol
# GULP energy per Si atom -5578.695751 kJ/mol
# Density = 2.489572 g / cm^3
# Si number density = 24.952511 Si / 1000 Ang^3
#
#
#
# Elastic Constant Matrix: (Units=GPa)
#
#
# Indices 1 2 3 4 5 6 
#
# 1 139.3361 49.9561 49.5986 0.0000 0.0000 0.0000
# 2 49.9561 140.6719 22.9061 0.0000 0.0000 0.0000
# 3 49.5986 22.9061 115.6511 0.0000 0.0000 0.0000
# 4 0.0000 0.0000 0.0000 29.2457 0.0000 0.0000
# 5 0.0000 0.0000 0.0000 0.0000 29.4192 0.0000
# 6 0.0000 0.0000 0.0000 0.0000 0.0000 25.7471
#
#
#
# Elastic Compliance Matrix: (Units=1/GPa)
#
#
# Indices 1 2 3 4 5 6 
#
# 1 0.009413 -0.002775 -0.003487 0.000000 0.000000 0.000000
# 2 -0.002775 0.008164 -0.000427 0.000000 0.000000 0.000000
# 3 -0.003487 -0.000427 0.010227 0.000000 0.000000 0.000000
# 4 0.000000 0.000000 0.000000 0.034193 0.000000 0.000000
# 5 0.000000 0.000000 0.000000 0.000000 0.033991 0.000000
# 6 0.000000 0.000000 0.000000 0.000000 0.000000 0.038839
#
#
# Mechanical properties :
#
#
# Convention : Reuss Voigt Hill
#
# Bulk Modulus (GPa) = 69.32230 71.17565 70.24898
# Shear Modulus (GPa) = 32.67668 35.09562 33.88615
#
# Velocity S-wave (km/s) = 3.62270 3.75440 3.68914
# Velocity P-wave (km/s) = 6.73355 6.88334 6.80886
#
# Compressibility (1/GPa) = 0.01442537
#
# Stress axis : x y z
#
# Youngs Moduli (GPa) = 106.23401 122.49332 97.78198
#
# Poissons Ratio (x) = 0.33992 0.34100
# Poissons Ratio (y) = 0.29480 0.04174
# Poissons Ratio (z) = 0.37048 0.05228
#
# Static dielectric constant tensor:
#      x y z
#    x 2.057870 0.000000 0.000000 
#    y 0.000000 2.153790 0.000000 
#    z 0.000000 0.000000 2.216050 
# 
# From -- ./inp_files/10477.got.cif
#   From: 2010.05.17/outbox.cif.g08.bks.cpg/sg20_6_cif.got.tgz:10477.got - 2010.06.03 22:52:26.
