data_PCOD9320399
_publ_section_title
;
Structure prediction by ZEFSAII (Michael W. Deem and Ramdas Pophale) SiO2 
 PCOD9320399
Probable space group: C 2 2 21
;
_chemical_formula_sum "Si O2"
_cell_formula_units_Z 20
_cell_length_a 8.174053
_cell_length_b 12.098996
_cell_length_c 7.368628
_cell_angle_alpha 90.000000
_cell_angle_beta 90.000000
_cell_angle_gamma 90.000000
_cell_volume 728.741353
_symmetry_space_group_name_H-M "C 2 2 21"
_symmetry_group_IT_number 20
_symmetry_cell_setting 'orthorhombic'
loop_
_space_group_symop_operation_xyz
x,y,z
-x,-y,1/2+z
x,-y,-z
-x,y,1/2-z
1/2+x,1/2+y,z
1/2-x,1/2-y,1/2+z
1/2+x,1/2-y,-z
1/2-x,1/2+y,1/2-z
loop_
_atom_site_type_symbol
_atom_site_label
_atom_site_fract_x
_atom_site_fract_y
_atom_site_fract_z
Si Si1 0.500000 0.489261 0.250000
Si Si2 0.034342 0.377500 0.536407
Si Si3 0.172163 0.849555 0.540582
O O1 0.533098 0.404052 0.413191
O O2 0.352238 0.578202 0.223253
O O3 0.096806 0.500000 0.500000
O O4 0.849406 0.371550 0.457984
O O5 0.000000 0.356292 0.750000
O O6 0.139241 0.279476 0.451076
#
# Coordination Sequence:
#
# PCOD9320399 Si02
#       3
#     4   8   8
#     4  10  22  48  78 106 154 188 242 310 378 424
#     4  12  29  49  75 113 150 198 254 301 372 445
#     4  11  26  47  78 111 150 196 246 310 373 438
#
# _framework density 27.444580999999999
#
# number of rings (size 3 to 8) (size 9 to 14) (size 15 to 20)
#    0.000    0.800    6.000    0.000    8.400    3.200 
#    0.000    0.000    0.000    0.000    0.000    0.000 
#    0.000    0.000    0.000    0.000    0.000    0.000 
#
# Total GULP energy -55962.226466 kJ/mol
# GULP energy per Si atom -5596.222647 kJ/mol
# Density = 2.738212 g / cm^3
# Si number density = 27.444581 Si / 1000 Ang^3
#
#
#
# Elastic Constant Matrix: (Units=GPa)
#
#
# Indices 1 2 3 4 5 6 
#
# 1 57.4255 56.1953 8.2456 0.0000 0.0000 0.0000
# 2 56.1953 291.4747 37.1348 0.0000 0.0000 0.0000
# 3 8.2456 37.1348 109.9150 0.0000 0.0000 0.0000
# 4 0.0000 0.0000 0.0000 53.0059 0.0000 0.0000
# 5 0.0000 0.0000 0.0000 0.0000 20.5195 0.0000
# 6 0.0000 0.0000 0.0000 0.0000 0.0000 20.9143
#
#
#
# Elastic Compliance Matrix: (Units=1/GPa)
#
#
# Indices 1 2 3 4 5 6 
#
# 1 0.021468 -0.004111 -0.000222 0.000000 0.000000 0.000000
# 2 -0.004111 0.004372 -0.001169 0.000000 0.000000 0.000000
# 3 -0.000222 -0.001169 0.009509 0.000000 0.000000 0.000000
# 4 0.000000 0.000000 0.000000 0.018866 0.000000 0.000000
# 5 0.000000 0.000000 0.000000 0.000000 0.048734 0.000000
# 6 0.000000 0.000000 0.000000 0.000000 0.000000 0.047814
#
#
# Mechanical properties :
#
#
# Convention : Reuss Voigt Hill
#
# Bulk Modulus (GPa) = 41.07180 73.55186 57.31183
# Shear Modulus (GPa) = 29.43207 42.70390 36.06798
#
# Velocity S-wave (km/s) = 3.27833 3.94890 3.62914
# Velocity P-wave (km/s) = 5.41551 6.90290 6.20395
#
# Compressibility (1/GPa) = 0.02434760
#
# Stress axis : x y z
#
# Youngs Moduli (GPa) = 46.58006 228.71339 105.15855
#
# Poissons Ratio (x) = 0.94019 0.02331
# Poissons Ratio (y) = 0.19148 0.12291
# Poissons Ratio (z) = 0.01033 0.26732
#
# Static dielectric constant tensor:
#      x y z
#    x 2.102990 0.000000 0.000000 
#    y 0.000000 2.038700 0.000000 
#    z 0.000000 0.000000 2.364430 
# 
# From -- ./inp_files/5349.got.cif
#   From: 2010.05.17/outbox.cif.g08.bks.cpg/sg20_3_cif.got.tgz:5349.got - 2010.06.03 22:52:26.
