data_PCOD9320993
_publ_section_title
;
Structure prediction by ZEFSAII (Michael W. Deem and Ramdas Pophale) SiO2 
 PCOD9320993
Probable space group: C 2 2 21
;
_chemical_formula_sum "Si O2"
_cell_formula_units_Z 40
_cell_length_a 16.117191
_cell_length_b 19.399351
_cell_length_c 5.123830
_cell_angle_alpha 90.000000
_cell_angle_beta 90.000000
_cell_angle_gamma 90.000000
_cell_volume 1602.032292
_symmetry_space_group_name_H-M "C 2 2 21"
_symmetry_group_IT_number 20
_symmetry_cell_setting 'orthorhombic'
loop_
_space_group_symop_operation_xyz
x,y,z
-x,-y,1/2+z
x,-y,-z
-x,y,1/2-z
1/2+x,1/2+y,z
1/2-x,1/2-y,1/2+z
1/2+x,1/2-y,-z
1/2-x,1/2+y,1/2-z
loop_
_atom_site_type_symbol
_atom_site_label
_atom_site_fract_x
_atom_site_fract_y
_atom_site_fract_z
Si Si1 0.260453 0.079507 0.917839
Si Si2 0.000000 0.046353 0.250000
Si Si3 0.209745 0.500000 0.000000
Si Si4 0.096417 0.235640 0.820509
Si Si5 0.596234 0.106465 0.302567
Si Si6 0.356158 0.655979 0.180124
O O1 0.235977 0.063090 0.620037
O O2 0.357862 0.101310 0.914876
O O3 0.215722 0.127352 0.124517
O O4 0.244862 0.000000 0.000000
O O5 0.075683 0.095452 0.331465
O O6 0.976953 0.000000 0.500000
O O7 0.146368 0.544669 0.171517
O O8 0.113409 0.316496 0.793276
O O9 0.149994 0.193104 0.603443
O O10 0.000000 0.222712 0.750000
O O11 0.108344 0.213793 0.118804
O O12 0.500000 0.094316 0.250000
#
# Coordination Sequence:
#
# PCOD9320993 Si02
#       6
#     8   4   4   8   8   8
#     4  10  25  45  68 106 142 191 244 314 373 444
#     4  12  24  44  72 106 140 192 250 292 366 436
#     4  10  24  46  74 108 148 184 258 314 388 452
#     4  11  24  46  72 106 148 195 247 303 368 451
#     4  10  25  44  74 105 143 197 246 314 382 454
#     4  12  25  45  73 103 150 192 244 304 370 446
#
# _framework density 24.968285999999999
#
# number of rings (size 3 to 8) (size 9 to 14) (size 15 to 20)
#    0.000    1.200    2.000    1.800   12.600    1.600 
#    3.600    0.000    0.000    0.000    0.000    0.000 
#    0.000    0.000    0.000    0.000    0.000    0.000 
#
# Total GULP energy -111427.478180 kJ/mol
# GULP energy per Si atom -5571.373909 kJ/mol
# Density = 2.491146 g / cm^3
# Si number density = 24.968286 Si / 1000 Ang^3
#
#
#
# Elastic Constant Matrix: (Units=GPa)
#
#
# Indices 1 2 3 4 5 6 
#
# 1 94.3979 19.3361 -6.9551 0.0000 0.0000 0.0000
# 2 19.3361 94.7475 27.3802 0.0000 0.0000 0.0000
# 3 -6.9551 27.3802 97.6011 0.0000 0.0000 0.0000
# 4 0.0000 0.0000 0.0000 19.0739 0.0000 0.0000
# 5 0.0000 0.0000 0.0000 0.0000 18.6027 0.0000
# 6 0.0000 0.0000 0.0000 0.0000 0.0000 33.9424
#
#
#
# Elastic Compliance Matrix: (Units=1/GPa)
#
#
# Indices 1 2 3 4 5 6 
#
# 1 0.011274 -0.002756 0.001577 0.000000 0.000000 0.000000
# 2 -0.002756 0.012159 -0.003608 0.000000 0.000000 0.000000
# 3 0.001577 -0.003608 0.011370 0.000000 0.000000 0.000000
# 4 0.000000 0.000000 0.000000 0.052428 0.000000 0.000000
# 5 0.000000 0.000000 0.000000 0.000000 0.053756 0.000000
# 6 0.000000 0.000000 0.000000 0.000000 0.000000 0.029462
#
#
# Mechanical properties :
#
#
# Convention : Reuss Voigt Hill
#
# Bulk Modulus (GPa) = 39.63664 40.69655 40.16659
# Shear Modulus (GPa) = 26.53460 30.78948 28.66204
#
# Velocity S-wave (km/s) = 3.26349 3.51542 3.39180
# Velocity P-wave (km/s) = 5.48724 5.72820 5.60901
#
# Compressibility (1/GPa) = 0.02522918
#
# Stress axis : x y z
#
# Youngs Moduli (GPa) = 88.69761 82.24071 87.94942
#
# Poissons Ratio (x) = 0.22670 -0.13867
# Poissons Ratio (y) = 0.24449 0.31728
# Poissons Ratio (z) = -0.13985 0.29669
#
# Static dielectric constant tensor:
#      x y z
#    x 2.065440 0.000000 0.000000 
#    y 0.000000 1.937950 0.000000 
#    z 0.000000 0.000000 4.401090 
# 
# From -- ./inp_files/2545.got.cif
#   From: 2010.05.17/outbox.cif.g08.bks.cpg/sg20_2_cif.got.tgz:2545.got - 2010.06.03 22:52:26.
