data_PCOD9320753
_publ_section_title
;
Structure prediction by ZEFSAII (Michael W. Deem and Ramdas Pophale) SiO2 
 PCOD9320753
Probable space group: C 2 2 21
;
_chemical_formula_sum "Si O2"
_cell_formula_units_Z 40
_cell_length_a 18.002850
_cell_length_b 11.967318
_cell_length_c 8.352806
_cell_angle_alpha 90.000000
_cell_angle_beta 90.000000
_cell_angle_gamma 90.000000
_cell_volume 1799.577229
_symmetry_space_group_name_H-M "C 2 2 21"
_symmetry_group_IT_number 20
_symmetry_cell_setting 'orthorhombic'
loop_
_space_group_symop_operation_xyz
x,y,z
-x,-y,1/2+z
x,-y,-z
-x,y,1/2-z
1/2+x,1/2+y,z
1/2-x,1/2-y,1/2+z
1/2+x,1/2-y,-z
1/2-x,1/2+y,1/2-z
loop_
_atom_site_type_symbol
_atom_site_label
_atom_site_fract_x
_atom_site_fract_y
_atom_site_fract_z
Si Si1 0.340172 0.454015 0.733496
Si Si2 0.965914 0.813348 0.578595
Si Si3 0.174674 0.412866 0.633347
Si Si4 0.623707 0.339425 0.434120
Si Si5 0.560265 0.098729 0.111975
O O1 0.407661 0.407946 0.627020
O O2 0.262442 0.427593 0.651461
O O3 0.352792 0.582041 0.786587
O O4 0.341669 0.386938 0.901962
O O5 0.927967 0.709706 0.490801
O O6 0.000000 0.775087 0.750000
O O7 0.035294 0.848745 0.467746
O O8 0.148403 0.500000 0.500000
O O9 0.149313 0.287359 0.590817
O O10 0.135048 0.439470 0.800838
O O11 0.500000 0.121367 0.250000
O O12 0.532125 0.000000 0.000000
#
# Coordination Sequence:
#
# PCOD9320753 Si02
#       5
#     8   8   8   8   8
#     4  10  26  47  78 105 148 195 241 318 379 446
#     4  10  23  49  76 109 142 194 250 308 372 451
#     4  12  29  47  74 111 154 195 252 310 382 455
#     4  10  24  51  72 110 149 191 254 306 373 461
#     4  12  26  44  74 107 149 198 249 308 378 449
#
# _framework density 22.227444999999999
#
# number of rings (size 3 to 8) (size 9 to 14) (size 15 to 20)
#    0.000    1.200    2.000    1.200   14.000    0.000 
#   32.400    0.000    0.000    0.000    0.000    0.000 
#    0.000    0.000    0.000    0.000    0.000    0.000 
#
# Total GULP energy -111980.688608 kJ/mol
# GULP energy per Si atom -5599.034430 kJ/mol
# Density = 2.217685 g / cm^3
# Si number density = 22.227445 Si / 1000 Ang^3
#
#
#
# Elastic Constant Matrix: (Units=GPa)
#
#
# Indices 1 2 3 4 5 6 
#
# 1 136.6819 55.3943 45.5648 0.0000 0.0000 0.0000
# 2 55.3943 176.8017 75.5894 0.0000 0.0000 0.0000
# 3 45.5648 75.5894 101.7960 0.0000 0.0000 0.0000
# 4 0.0000 0.0000 0.0000 53.5018 0.0000 0.0000
# 5 0.0000 0.0000 0.0000 0.0000 39.6787 0.0000
# 6 0.0000 0.0000 0.0000 0.0000 0.0000 1.0389
#
#
#
# Elastic Compliance Matrix: (Units=1/GPa)
#
#
# Indices 1 2 3 4 5 6 
#
# 1 0.008894 -0.001589 -0.002801 0.000000 0.000000 0.000000
# 2 -0.001589 0.008571 -0.005653 0.000000 0.000000 0.000000
# 3 -0.002801 -0.005653 0.015275 0.000000 0.000000 0.000000
# 4 0.000000 0.000000 0.000000 0.018691 0.000000 0.000000
# 5 0.000000 0.000000 0.000000 0.000000 0.025202 0.000000
# 6 0.000000 0.000000 0.000000 0.000000 0.000000 0.962526
#
#
# Mechanical properties :
#
#
# Convention : Reuss Voigt Hill
#
# Bulk Modulus (GPa) = 79.02920 85.37518 82.20219
# Shear Modulus (GPa) = 4.70162 34.75929 19.73045
#
# Velocity S-wave (km/s) = 1.45596 3.95878 2.98260
# Velocity P-wave (km/s) = 6.20148 7.70643 6.99455
#
# Compressibility (1/GPa) = 0.01265355
#
# Stress axis : x y z
#
# Youngs Moduli (GPa) = 112.43475 116.67494 65.46607
#
# Poissons Ratio (x) = 0.18540 0.18338
# Poissons Ratio (y) = 0.17866 0.37008
# Poissons Ratio (z) = 0.31494 0.65957
#
# Static dielectric constant tensor:
#      x y z
#    x 1.813960 0.000000 0.000000 
#    y 0.000000 1.790120 0.000000 
#    z 0.000000 0.000000 1.855060 
# 
# From -- ./inp_files/9110.got.cif
#   From: 2010.05.17/outbox.cif.g08.bks.cpg/sg20_5_cif.got.tgz:9110.got - 2010.06.03 22:52:26.
