data_PCOD9320784
_publ_section_title
;
Structure prediction by ZEFSAII (Michael W. Deem and Ramdas Pophale) SiO2 
 PCOD9320784
Probable space group: C 2 2 21
;
_chemical_formula_sum "Si O2"
_cell_formula_units_Z 60
_cell_length_a 6.608581
_cell_length_b 18.412087
_cell_length_c 23.900436
_cell_angle_alpha 90.000000
_cell_angle_beta 90.000000
_cell_angle_gamma 90.000000
_cell_volume 2908.151714
_symmetry_space_group_name_H-M "C 2 2 21"
_symmetry_group_IT_number 20
_symmetry_cell_setting 'orthorhombic'
loop_
_space_group_symop_operation_xyz
x,y,z
-x,-y,1/2+z
x,-y,-z
-x,y,1/2-z
1/2+x,1/2+y,z
1/2-x,1/2-y,1/2+z
1/2+x,1/2-y,-z
1/2-x,1/2+y,1/2-z
loop_
_atom_site_type_symbol
_atom_site_label
_atom_site_fract_x
_atom_site_fract_y
_atom_site_fract_z
Si Si1 0.446553 0.668315 0.427043
Si Si2 0.747148 0.430365 0.130612
Si Si3 0.975441 0.819749 0.185614
Si Si4 0.557236 0.426074 0.469253
Si Si5 0.500000 0.350508 0.750000
Si Si6 0.706025 0.815876 0.843738
Si Si7 0.321885 0.088769 0.165133
Si Si8 0.628064 0.166707 0.897522
O O1 0.460923 0.630162 0.486634
O O2 0.665390 0.659367 0.397011
O O3 0.281126 0.628107 0.388439
O O4 0.401252 0.754200 0.425095
O O5 0.594731 0.394071 0.175041
O O6 0.611049 0.447076 0.076449
O O7 0.841388 0.504004 0.153634
O O8 0.918520 0.372851 0.114691
O O9 0.751003 0.824113 0.160839
O O10 0.000000 0.797991 0.250000
O O11 0.086306 0.758597 0.148412
O O12 0.623901 0.500000 0.500000
O O13 0.735937 0.384571 0.436941
O O14 0.372111 0.305455 0.795025
O O15 0.336281 0.396432 0.715108
O O16 0.538218 0.874104 0.825710
#
# Coordination Sequence:
#
# PCOD9320784 Si02
#       8
#     8   8   8   8   4   8   8   8
#     4  11  24  44  68  99 133 173 222 278 328 391
#     4  11  26  45  64  99 136 174 223 273 340 397
#     4  11  24  43  69  97 138 174 223 274 324 396
#     4  11  26  46  68  97 134 173 223 280 332 397
#     4  10  24  40  68 100 130 174 228 270 330 396
#     4  11  23  41  70  99 132 177 225 270 329 401
#     4  11  23  43  68  94 135 171 224 274 332 395
#     4  11  26  44  68 100 132 175 226 270 333 398
#
# _framework density 20.631661999999999
#
# number of rings (size 3 to 8) (size 9 to 14) (size 15 to 20)
#    0.000    1.067    4.000    1.200    6.533    3.200 
#    2.400    0.000    0.000    0.000    0.000    0.000 
#    0.000    0.000    0.000    0.000    0.000    0.000 
#
# Total GULP energy -167741.490638 kJ/mol
# GULP energy per Si atom -5591.383021 kJ/mol
# Density = 2.058470 g / cm^3
# Si number density = 20.631662 Si / 1000 Ang^3
#
#
#
# Elastic Constant Matrix: (Units=GPa)
#
#
# Indices 1 2 3 4 5 6 
#
# 1 77.8578 18.9380 11.3022 0.0000 0.0000 0.0000
# 2 18.9380 102.4734 -17.0422 0.0000 0.0000 0.0000
# 3 11.3022 -17.0422 32.9766 0.0000 0.0000 0.0000
# 4 0.0000 0.0000 0.0000 19.2571 0.0000 0.0000
# 5 0.0000 0.0000 0.0000 0.0000 13.3674 0.0000
# 6 0.0000 0.0000 0.0000 0.0000 0.0000 22.9024
#
#
#
# Elastic Compliance Matrix: (Units=1/GPa)
#
#
# Indices 1 2 3 4 5 6 
#
# 1 0.014830 -0.003923 -0.007110 0.000000 0.000000 0.000000
# 2 -0.003923 0.011714 0.007398 0.000000 0.000000 0.000000
# 3 -0.007110 0.007398 0.036585 0.000000 0.000000 0.000000
# 4 0.000000 0.000000 0.000000 0.051929 0.000000 0.000000
# 5 0.000000 0.000000 0.000000 0.000000 0.074809 0.000000
# 6 0.000000 0.000000 0.000000 0.000000 0.000000 0.043664
#
#
# Mechanical properties :
#
#
# Convention : Reuss Voigt Hill
#
# Bulk Modulus (GPa) = 17.90222 26.63374 22.26798
# Shear Modulus (GPa) = 19.27367 24.44603 21.85985
#
# Velocity S-wave (km/s) = 3.05975 3.44594 3.25857
# Velocity P-wave (km/s) = 4.60203 5.36376 4.99743
#
# Compressibility (1/GPa) = 0.05585901
#
# Stress axis : x y z
#
# Youngs Moduli (GPa) = 67.42898 85.36697 27.33361
#
# Poissons Ratio (x) = 0.33492 0.19435
# Poissons Ratio (y) = 0.26455 -0.20223
# Poissons Ratio (z) = 0.47945 -0.63159
#
# Static dielectric constant tensor:
#      x y z
#    x 1.713800 0.000000 0.000000 
#    y 0.000000 1.713830 0.000000 
#    z 0.000000 0.000000 1.740320 
# 
# From -- ./inp_files/29944.got.cif
#   From: 2010.05.17/outbox.cif.g08.bks.cpg/sg20_15_cif.got.tgz:29944.got - 2010.06.03 22:52:26.
