data_PCOD9321969
_publ_section_title
;
Structure prediction by ZEFSAII (Michael W. Deem and Ramdas Pophale) SiO2 
 PCOD9321969
Probable space group: C 2 2 21
;
_chemical_formula_sum "Si O2"
_cell_formula_units_Z 36
_cell_length_a 22.360905
_cell_length_b 10.983790
_cell_length_c 6.104924
_cell_angle_alpha 90.000000
_cell_angle_beta 90.000000
_cell_angle_gamma 90.000000
_cell_volume 1499.415028
_symmetry_space_group_name_H-M "C 2 2 21"
_symmetry_group_IT_number 20
_symmetry_cell_setting 'orthorhombic'
loop_
_space_group_symop_operation_xyz
x,y,z
-x,-y,1/2+z
x,-y,-z
-x,y,1/2-z
1/2+x,1/2+y,z
1/2-x,1/2-y,1/2+z
1/2+x,1/2-y,-z
1/2-x,1/2+y,1/2-z
loop_
_atom_site_type_symbol
_atom_site_label
_atom_site_fract_x
_atom_site_fract_y
_atom_site_fract_z
Si Si1 0.659305 0.000000 0.000000
Si Si2 0.246465 0.189815 0.653339
Si Si3 0.620212 0.363106 0.515298
Si Si4 0.435995 0.155803 0.251590
Si Si5 0.441309 0.367293 0.599883
O O1 0.616728 0.069809 0.169811
O O2 0.701994 0.909919 0.133666
O O3 0.251072 0.256147 0.405340
O O4 0.179912 0.134307 0.625074
O O5 0.591766 0.500000 0.500000
O O6 0.584977 0.240558 0.448561
O O7 0.621861 0.349540 0.775668
O O8 0.500000 0.088885 0.250000
O O9 0.446138 0.261477 0.427895
O O10 0.441011 0.500000 0.500000
O O11 0.500000 0.359171 0.750000
#
# Coordination Sequence:
#
# PCOD9321969 Si02
#       5
#     4   8   8   8   8
#     4  12  28  54  80 120 162 218 272 346 422 512
#     4  12  28  54  82 114 161 214 274 339 407 496
#     4  12  24  44  77 112 152 210 266 341 402 480
#     4  12  26  50  73 112 163 210 270 331 420 498
#     4  12  23  40  73 114 159 208 272 339 409 486
#
# _framework density 24.009363
#
# number of rings (size 3 to 8) (size 9 to 14) (size 15 to 20)
#    0.000    0.000    7.778    2.667    0.000    1.778 
#    8.000    0.000    0.000    0.000    0.000    0.000 
#    0.000    0.000    0.000    0.000    0.000    0.000 
#
# Total GULP energy -100390.736026 kJ/mol
# GULP energy per Si atom -5577.263113 kJ/mol
# Density = 2.395472 g / cm^3
# Si number density = 24.009363 Si / 1000 Ang^3
#
#
#
# Elastic Constant Matrix: (Units=GPa)
#
#
# Indices 1 2 3 4 5 6 
#
# 1 108.8207 43.5306 13.6917 0.0000 0.0000 0.0000
# 2 43.5306 94.0815 40.8665 0.0000 0.0000 0.0000
# 3 13.6917 40.8665 110.7232 0.0000 0.0000 0.0000
# 4 0.0000 0.0000 0.0000 25.9570 0.0000 0.0000
# 5 0.0000 0.0000 0.0000 0.0000 34.1963 0.0000
# 6 0.0000 0.0000 0.0000 0.0000 0.0000 38.7664
#
#
#
# Elastic Compliance Matrix: (Units=1/GPa)
#
#
# Indices 1 2 3 4 5 6 
#
# 1 0.011314 -0.005511 0.000635 0.000000 0.000000 0.000000
# 2 -0.005511 0.015343 -0.004981 0.000000 0.000000 0.000000
# 3 0.000635 -0.004981 0.010792 0.000000 0.000000 0.000000
# 4 0.000000 0.000000 0.000000 0.038525 0.000000 0.000000
# 5 0.000000 0.000000 0.000000 0.000000 0.029243 0.000000
# 6 0.000000 0.000000 0.000000 0.000000 0.000000 0.025796
#
#
# Mechanical properties :
#
#
# Convention : Reuss Voigt Hill
#
# Bulk Modulus (GPa) = 56.38921 56.64478 56.51700
# Shear Modulus (GPa) = 31.92091 34.15305 33.03698
#
# Velocity S-wave (km/s) = 3.65021 3.77568 3.71348
# Velocity P-wave (km/s) = 6.42672 6.53083 6.47898
#
# Compressibility (1/GPa) = 0.01773389
#
# Stress axis : x y z
#
# Youngs Moduli (GPa) = 88.38678 65.17833 92.66505
#
# Poissons Ratio (x) = 0.35917 -0.05883
# Poissons Ratio (y) = 0.48706 0.46159
# Poissons Ratio (z) = -0.05611 0.32467
#
# Static dielectric constant tensor:
#      x y z
#    x 2.044450 0.000000 0.000000 
#    y 0.000000 1.898950 0.000000 
#    z 0.000000 0.000000 2.016330 
# 
# From -- ./inp_files/3556.got.cif
#   From: 2010.05.17/outbox.cif.g08.bks.cpg/sg20_2_cif.got.tgz:3556.got - 2010.06.03 22:52:26.
