data_PCOD9321370
_publ_section_title
;
Structure prediction by ZEFSAII (Michael W. Deem and Ramdas Pophale) SiO2 
 PCOD9321370
Probable space group: C 2 2 21
;
_chemical_formula_sum "Si O2"
_cell_formula_units_Z 32
_cell_length_a 32.736389
_cell_length_b 4.888676
_cell_length_c 9.501921
_cell_angle_alpha 90.000000
_cell_angle_beta 90.000000
_cell_angle_gamma 90.000000
_cell_volume 1520.664625
_symmetry_space_group_name_H-M "C 2 2 21"
_symmetry_group_IT_number 20
_symmetry_cell_setting 'orthorhombic'
loop_
_space_group_symop_operation_xyz
x,y,z
-x,-y,1/2+z
x,-y,-z
-x,y,1/2-z
1/2+x,1/2+y,z
1/2-x,1/2-y,1/2+z
1/2+x,1/2-y,-z
1/2-x,1/2+y,1/2-z
loop_
_atom_site_type_symbol
_atom_site_label
_atom_site_fract_x
_atom_site_fract_y
_atom_site_fract_z
Si Si1 0.287133 0.000000 0.500000
Si Si2 0.114731 0.902134 0.654410
Si Si3 0.522559 0.266438 0.601809
Si Si4 0.662956 0.892074 0.734356
Si Si5 0.228621 0.500000 0.500000
O O1 0.316791 0.032936 0.631488
O O2 0.258237 0.747359 0.540643
O O3 0.065901 0.896978 0.651287
O O4 0.128756 0.594987 0.676742
O O5 0.128214 0.000000 0.500000
O O6 0.139845 0.105081 0.756144
O O7 0.502883 0.500000 0.500000
O O8 0.500000 0.203687 0.750000
O O9 0.527886 0.000000 0.500000
O O10 0.699500 0.884563 0.621744
#
# Coordination Sequence:
#
# PCOD9321370 Si02
#       5
#     4   8   8   8   4
#     4  12  26  40  58  98 129 162 213 288 338 370
#     4  11  21  42  68  92 125 175 220 255 317 402
#     4  11  24  45  73 105 140 178 228 281 338 412
#     4  12  23  41  65  91 126 168 219 268 325 392
#     4  12  22  42  64  88 123 174 221 264 330 404
#
# _framework density 21.043429
#
# number of rings (size 3 to 8) (size 9 to 14) (size 15 to 20)
#    0.000    0.500    2.500    8.250    0.000    0.000 
#    6.750    0.000    0.000    0.000    0.000    0.000 
#    0.000    0.000    0.000    0.000    0.000    0.000 
#
# Total GULP energy -89320.366216 kJ/mol
# GULP energy per Si atom -5582.522888 kJ/mol
# Density = 2.099553 g / cm^3
# Si number density = 21.043429 Si / 1000 Ang^3
#
#
#
# Elastic Constant Matrix: (Units=GPa)
#
#
# Indices 1 2 3 4 5 6 
#
# 1 73.6060 16.7982 39.9471 0.0000 0.0000 0.0000
# 2 16.7982 107.4831 0.8421 0.0000 0.0000 0.0000
# 3 39.9471 0.8421 87.4331 0.0000 0.0000 0.0000
# 4 0.0000 0.0000 0.0000 20.5401 0.0000 0.0000
# 5 0.0000 0.0000 0.0000 0.0000 39.4217 0.0000
# 6 0.0000 0.0000 0.0000 0.0000 0.0000 35.8863
#
#
#
# Elastic Compliance Matrix: (Units=1/GPa)
#
#
# Indices 1 2 3 4 5 6 
#
# 1 0.018922 -0.002890 -0.008617 0.000000 0.000000 0.000000
# 2 -0.002890 0.009746 0.001226 0.000000 0.000000 0.000000
# 3 -0.008617 0.001226 0.015363 0.000000 0.000000 0.000000
# 4 0.000000 0.000000 0.000000 0.048685 0.000000 0.000000
# 5 0.000000 0.000000 0.000000 0.000000 0.025367 0.000000
# 6 0.000000 0.000000 0.000000 0.000000 0.000000 0.027866
#
#
# Mechanical properties :
#
#
# Convention : Reuss Voigt Hill
#
# Bulk Modulus (GPa) = 42.60926 42.63302 42.62114
# Shear Modulus (GPa) = 28.68071 33.23194 30.95632
#
# Velocity S-wave (km/s) = 3.69579 3.97824 3.83961
# Velocity P-wave (km/s) = 6.20516 6.43470 6.32097
#
# Compressibility (1/GPa) = 0.02346908
#
# Stress axis : x y z
#
# Youngs Moduli (GPa) = 52.84801 102.60818 65.09260
#
# Poissons Ratio (x) = 0.29652 0.56093
# Poissons Ratio (y) = 0.15272 -0.07983
# Poissons Ratio (z) = 0.45542 -0.12584
#
# Static dielectric constant tensor:
#      x y z
#    x 1.743200 0.000000 0.000000 
#    y 0.000000 1.673220 0.000000 
#    z 0.000000 0.000000 1.753750 
# 
# From -- ./inp_files/11264.got.cif
#   From: 2010.05.17/outbox.cif.g08.bks.cpg/sg20_6_cif.got.tgz:11264.got - 2010.06.03 22:52:26.
