data_PCOD9321614
_publ_section_title
;
Structure prediction by ZEFSAII (Michael W. Deem and Ramdas Pophale) SiO2 
 PCOD9321614
Probable space group: C 2 2 21
;
_chemical_formula_sum "Si O2"
_cell_formula_units_Z 60
_cell_length_a 16.922824
_cell_length_b 17.642410
_cell_length_c 9.115371
_cell_angle_alpha 90.000000
_cell_angle_beta 90.000000
_cell_angle_gamma 90.000000
_cell_volume 2721.479691
_symmetry_space_group_name_H-M "C 2 2 21"
_symmetry_group_IT_number 20
_symmetry_cell_setting 'orthorhombic'
loop_
_space_group_symop_operation_xyz
x,y,z
-x,-y,1/2+z
x,-y,-z
-x,y,1/2-z
1/2+x,1/2+y,z
1/2-x,1/2-y,1/2+z
1/2+x,1/2-y,-z
1/2-x,1/2+y,1/2-z
loop_
_atom_site_type_symbol
_atom_site_label
_atom_site_fract_x
_atom_site_fract_y
_atom_site_fract_z
Si Si1 0.094099 0.928333 0.105477
Si Si2 0.906973 0.719664 0.721236
Si Si3 0.797868 0.144692 0.397703
Si Si4 0.200940 0.929579 0.609483
Si Si5 0.075901 0.878601 0.411397
Si Si6 0.000000 0.363263 0.750000
Si Si7 0.369880 0.091104 0.480427
Si Si8 0.870261 0.282939 0.938725
O O1 0.093387 0.938186 0.280818
O O2 0.018042 0.873693 0.079901
O O3 0.173232 0.887964 0.052067
O O4 0.079371 0.000000 0.000000
O O5 0.860341 0.790461 0.649614
O O6 0.895068 0.644980 0.617436
O O7 0.000000 0.733888 0.750000
O O8 0.872787 0.711858 0.885382
O O9 0.797787 0.073940 0.284149
O O10 0.711449 0.179565 0.393937
O O11 0.115432 0.898371 0.564486
O O12 0.280536 0.883460 0.563808
O O13 0.207405 0.000000 0.500000
O O14 0.121201 0.801623 0.375407
O O15 0.051867 0.320247 0.629045
O O16 0.932219 0.401484 0.651910
O O17 0.367785 0.000000 0.500000
#
# Coordination Sequence:
#
# PCOD9321614 Si02
#       8
#     8   8   8   8   8   4   8   8
#     4  11  26  45  70 107 145 192 239 300 367 440
#     4  12  26  47  72 107 142 184 246 299 359 436
#     4  12  27  43  72 108 142 191 243 303 358 437
#     4  11  23  44  68 100 140 188 233 290 362 429
#     4  11  24  45  70 101 143 190 236 302 359 430
#     4  12  24  46  72 100 140 178 238 290 352 422
#     4  11  27  46  73 104 143 187 235 298 364 435
#     4  12  26  45  71 107 140 188 241 303 360 422
#
# _framework density 22.04683
#
# number of rings (size 3 to 8) (size 9 to 14) (size 15 to 20)
#    0.000    0.533    4.000    3.600    6.533    1.067 
#    0.000    0.667    0.000    0.000    0.000    0.000 
#    0.000    0.000    0.000    0.000    0.000    0.000 
#
# Total GULP energy -167306.621463 kJ/mol
# GULP energy per Si atom -5576.887382 kJ/mol
# Density = 2.199665 g / cm^3
# Si number density = 22.046830 Si / 1000 Ang^3
#
#
#
# Elastic Constant Matrix: (Units=GPa)
#
#
# Indices 1 2 3 4 5 6 
#
# 1 90.7682 -1.6665 6.5406 0.0000 0.0000 0.0000
# 2 -1.6665 54.1584 15.9936 0.0000 0.0000 0.0000
# 3 6.5406 15.9936 94.3610 0.0000 0.0000 0.0000
# 4 0.0000 0.0000 0.0000 30.8502 0.0000 0.0000
# 5 0.0000 0.0000 0.0000 0.0000 36.4715 0.0000
# 6 0.0000 0.0000 0.0000 0.0000 0.0000 18.7807
#
#
#
# Elastic Compliance Matrix: (Units=1/GPa)
#
#
# Indices 1 2 3 4 5 6 
#
# 1 0.011091 0.000598 -0.000870 0.000000 0.000000 0.000000
# 2 0.000598 0.019470 -0.003341 0.000000 0.000000 0.000000
# 3 -0.000870 -0.003341 0.011224 0.000000 0.000000 0.000000
# 4 0.000000 0.000000 0.000000 0.032415 0.000000 0.000000
# 5 0.000000 0.000000 0.000000 0.000000 0.027419 0.000000
# 6 0.000000 0.000000 0.000000 0.000000 0.000000 0.053246
#
#
# Mechanical properties :
#
#
# Convention : Reuss Voigt Hill
#
# Bulk Modulus (GPa) = 28.93697 31.22478 30.08088
# Shear Modulus (GPa) = 28.80017 31.78180 30.29099
#
# Velocity S-wave (km/s) = 3.61822 3.80091 3.71069
# Velocity P-wave (km/s) = 5.53255 5.78413 5.65974
#
# Compressibility (1/GPa) = 0.03455786
#
# Stress axis : x y z
#
# Youngs Moduli (GPa) = 90.16515 51.36235 89.09276
#
# Poissons Ratio (x) = -0.03073 0.07752
# Poissons Ratio (y) = -0.05394 0.29770
# Poissons Ratio (z) = 0.07846 0.17162
#
# Static dielectric constant tensor:
#      x y z
#    x 1.805020 0.000000 0.000000 
#    y 0.000000 1.956140 0.000000 
#    z 0.000000 0.000000 1.678440 
# 
# From -- ./inp_files/9579.got.cif
#   From: 2010.05.17/outbox.cif.g08.bks.cpg/sg20_5_cif.got.tgz:9579.got - 2010.06.03 22:52:26.
