data_PCOD9321020
_publ_section_title
;
Structure prediction by ZEFSAII (Michael W. Deem and Ramdas Pophale) SiO2 
 PCOD9321020
Probable space group: C 2 2 21
;
_chemical_formula_sum "Si O2"
_cell_formula_units_Z 24
_cell_length_a 12.928668
_cell_length_b 5.172427
_cell_length_c 13.661599
_cell_angle_alpha 90.000000
_cell_angle_beta 90.000000
_cell_angle_gamma 90.000000
_cell_volume 913.586528
_symmetry_space_group_name_H-M "C 2 2 21"
_symmetry_group_IT_number 20
_symmetry_cell_setting 'orthorhombic'
loop_
_space_group_symop_operation_xyz
x,y,z
-x,-y,1/2+z
x,-y,-z
-x,y,1/2-z
1/2+x,1/2+y,z
1/2-x,1/2-y,1/2+z
1/2+x,1/2-y,-z
1/2-x,1/2+y,1/2-z
loop_
_atom_site_type_symbol
_atom_site_label
_atom_site_fract_x
_atom_site_fract_y
_atom_site_fract_z
Si Si1 0.390584 0.421478 0.786184
Si Si2 0.504992 0.762878 0.565107
Si Si3 0.783869 0.138056 0.603322
O O1 0.500000 0.302981 0.750000
O O2 0.426549 0.685551 0.841200
O O3 0.319108 0.278475 0.863523
O O4 0.319967 0.451429 0.690810
O O5 0.501893 0.500000 0.500000
O O6 0.386146 0.817795 0.595379
O O7 0.539809 0.000000 0.500000
O O8 0.771711 0.000000 0.500000
#
# Coordination Sequence:
#
# PCOD9321020 Si02
#       3
#     8   8   8
#     4  10  24  47  76 114 157 206 266 331 399 474
#     4  10  24  47  77 114 155 202 256 318 392 469
#     4  10  24  48  77 112 158 212 268 329 400 473
#
# _framework density 26.27009
#
# number of rings (size 3 to 8) (size 9 to 14) (size 15 to 20)
#    0.000    2.000    0.000    0.000    0.000   16.000 
#    0.000   31.667    0.000    0.000    0.000    0.000 
#    0.000    0.000    0.000    0.000    0.000    0.000 
#
# Total GULP energy -67273.886004 kJ/mol
# GULP energy per Si atom -5606.157167 kJ/mol
# Density = 2.621030 g / cm^3
# Si number density = 26.270090 Si / 1000 Ang^3
#
#
#
# Elastic Constant Matrix: (Units=GPa)
#
#
# Indices 1 2 3 4 5 6 
#
# 1 234.4966 77.0919 101.9673 0.0000 0.0000 0.0000
# 2 77.0919 101.3033 78.4219 0.0000 0.0000 0.0000
# 3 101.9673 78.4219 220.4498 0.0000 0.0000 0.0000
# 4 0.0000 0.0000 0.0000 46.5939 0.0000 0.0000
# 5 0.0000 0.0000 0.0000 0.0000 27.3968 0.0000
# 6 0.0000 0.0000 0.0000 0.0000 0.0000 15.7356
#
#
#
# Elastic Compliance Matrix: (Units=1/GPa)
#
#
# Indices 1 2 3 4 5 6 
#
# 1 0.006074 -0.003378 -0.001608 0.000000 0.000000 0.000000
# 2 -0.003378 0.015501 -0.003952 0.000000 0.000000 0.000000
# 3 -0.001608 -0.003952 0.006686 0.000000 0.000000 0.000000
# 4 0.000000 0.000000 0.000000 0.021462 0.000000 0.000000
# 5 0.000000 0.000000 0.000000 0.000000 0.036501 0.000000
# 6 0.000000 0.000000 0.000000 0.000000 0.000000 0.063550
#
#
# Mechanical properties :
#
#
# Convention : Reuss Voigt Hill
#
# Bulk Modulus (GPa) = 96.28541 119.02353 107.65447
# Shear Modulus (GPa) = 29.22085 37.86317 33.54201
#
# Velocity S-wave (km/s) = 3.33877 3.80057 3.57713
# Velocity P-wave (km/s) = 7.18296 8.04146 7.62430
#
# Compressibility (1/GPa) = 0.01038579
#
# Stress axis : x y z
#
# Youngs Moduli (GPa) = 164.63464 64.51174 149.57055
#
# Poissons Ratio (x) = 0.21789 0.24051
# Poissons Ratio (y) = 0.55607 0.59110
# Poissons Ratio (z) = 0.26473 0.25495
#
# Static dielectric constant tensor:
#      x y z
#    x 2.028230 0.000000 0.000000 
#    y 0.000000 2.102320 0.000000 
#    z 0.000000 0.000000 2.077100 
# 
# From -- ./inp_files/20383.got.cif
#   From: 2010.05.17/outbox.cif.g08.bks.cpg/sg20_11_cif.got.tgz:20383.got - 2010.06.03 22:52:26.
