data_PCOD9321019
_publ_section_title
;
Structure prediction by ZEFSAII (Michael W. Deem and Ramdas Pophale) SiO2 
 PCOD9321019
Probable space group: C 2 2 21
;
_chemical_formula_sum "Si O2"
_cell_formula_units_Z 40
_cell_length_a 6.420928
_cell_length_b 12.437125
_cell_length_c 17.947376
_cell_angle_alpha 90.000000
_cell_angle_beta 90.000000
_cell_angle_gamma 90.000000
_cell_volume 1433.239473
_symmetry_space_group_name_H-M "C 2 2 21"
_symmetry_group_IT_number 20
_symmetry_cell_setting 'orthorhombic'
loop_
_space_group_symop_operation_xyz
x,y,z
-x,-y,1/2+z
x,-y,-z
-x,y,1/2-z
1/2+x,1/2+y,z
1/2-x,1/2-y,1/2+z
1/2+x,1/2-y,-z
1/2-x,1/2+y,1/2-z
loop_
_atom_site_type_symbol
_atom_site_label
_atom_site_fract_x
_atom_site_fract_y
_atom_site_fract_z
Si Si1 0.094305 0.763082 0.933838
Si Si2 0.636952 0.127373 0.678727
Si Si3 0.030238 0.218515 0.899628
Si Si4 0.755196 0.414702 0.742898
Si Si5 0.156788 0.983840 0.580745
O O1 0.312738 0.776734 0.891896
O O2 0.989566 0.658671 0.895845
O O3 0.978517 0.875538 0.926345
O O4 0.127360 0.744065 0.021822
O O5 0.500000 0.150621 0.750000
O O6 0.736324 0.012944 0.696801
O O7 0.814342 0.218019 0.668864
O O8 0.975094 0.093109 0.911110
O O9 0.500000 0.379072 0.750000
O O10 0.769316 0.466104 0.659153
O O11 0.000000 0.373555 0.750000
O O12 0.266840 0.000000 0.500000
#
# Coordination Sequence:
#
# PCOD9321019 Si02
#       5
#     8   8   8   8   8
#     4  11  24  44  76 115 151 215 275 332 422 500
#     4  11  24  42  76 108 153 214 256 332 426 483
#     4  11  21  46  75 108 161 204 267 347 412 497
#     4  11  23  46  76 110 158 217 262 333 420 485
#     4  10  24  47  75 118 165 206 275 344 413 505
#
# _framework density 27.908804
#
# number of rings (size 3 to 8) (size 9 to 14) (size 15 to 20)
#    0.000    1.200    4.000    2.400    0.000    0.800 
#    3.600    2.000    0.000    0.000    0.000    0.000 
#    0.000    0.000    0.000    0.000    0.000    0.000 
#
# Total GULP energy -111630.950824 kJ/mol
# GULP energy per Si atom -5581.547541 kJ/mol
# Density = 2.784528 g / cm^3
# Si number density = 27.908804 Si / 1000 Ang^3
#
#
#
# Elastic Constant Matrix: (Units=GPa)
#
#
# Indices 1 2 3 4 5 6 
#
# 1 175.0628 53.6847 61.8158 0.0000 0.0000 0.0000
# 2 53.6847 120.0764 14.1674 0.0000 0.0000 0.0000
# 3 61.8158 14.1674 115.1251 0.0000 0.0000 0.0000
# 4 0.0000 0.0000 0.0000 20.2553 0.0000 0.0000
# 5 0.0000 0.0000 0.0000 0.0000 78.0294 0.0000
# 6 0.0000 0.0000 0.0000 0.0000 0.0000 14.5285
#
#
#
# Elastic Compliance Matrix: (Units=1/GPa)
#
#
# Indices 1 2 3 4 5 6 
#
# 1 0.008069 -0.003142 -0.003946 0.000000 0.000000 0.000000
# 2 -0.003142 0.009674 0.000497 0.000000 0.000000 0.000000
# 3 -0.003946 0.000497 0.010744 0.000000 0.000000 0.000000
# 4 0.000000 0.000000 0.000000 0.049370 0.000000 0.000000
# 5 0.000000 0.000000 0.000000 0.000000 0.012816 0.000000
# 6 0.000000 0.000000 0.000000 0.000000 0.000000 0.068830
#
#
# Mechanical properties :
#
#
# Convention : Reuss Voigt Hill
#
# Bulk Modulus (GPa) = 65.34118 74.40002 69.87060
# Shear Modulus (GPa) = 28.12352 41.26907 34.69630
#
# Velocity S-wave (km/s) = 3.17786 3.84957 3.52973
# Velocity P-wave (km/s) = 6.07687 6.81726 6.45769
#
# Compressibility (1/GPa) = 0.01530428
#
# Stress axis : x y z
#
# Youngs Moduli (GPa) = 123.92905 103.36769 93.07617
#
# Poissons Ratio (x) = 0.32478 0.36728
# Poissons Ratio (y) = 0.38939 -0.04622
# Poissons Ratio (z) = 0.48903 -0.05133
#
# Static dielectric constant tensor:
#      x y z
#    x 2.354610 0.000000 0.000000 
#    y 0.000000 2.155590 0.000000 
#    z 0.000000 0.000000 2.191390 
# 
# From -- ./inp_files/25986.got.cif
#   From: 2010.05.17/outbox.cif.g08.bks.cpg/sg20_13_cif.got.tgz:25986.got - 2010.06.03 22:52:26.
