data_PCOD9321588
_publ_section_title
;
Structure prediction by ZEFSAII (Michael W. Deem and Ramdas Pophale) SiO2 
 PCOD9321588
Probable space group: C 2 2 21
;
_chemical_formula_sum "Si O2"
_cell_formula_units_Z 40
_cell_length_a 5.903324
_cell_length_b 19.596680
_cell_length_c 16.024652
_cell_angle_alpha 90.000000
_cell_angle_beta 90.000000
_cell_angle_gamma 90.000000
_cell_volume 1853.820702
_symmetry_space_group_name_H-M "C 2 2 21"
_symmetry_group_IT_number 20
_symmetry_cell_setting 'orthorhombic'
loop_
_space_group_symop_operation_xyz
x,y,z
-x,-y,1/2+z
x,-y,-z
-x,y,1/2-z
1/2+x,1/2+y,z
1/2-x,1/2-y,1/2+z
1/2+x,1/2-y,-z
1/2-x,1/2+y,1/2-z
loop_
_atom_site_type_symbol
_atom_site_label
_atom_site_fract_x
_atom_site_fract_y
_atom_site_fract_z
Si Si1 0.306457 0.334877 0.535860
Si Si2 0.379514 0.774504 0.122388
Si Si3 0.094754 0.345406 0.837916
Si Si4 0.000000 0.048168 0.750000
Si Si5 0.000000 0.378711 0.250000
Si Si6 0.587976 0.539480 0.416407
O O1 0.486145 0.279073 0.565928
O O2 0.267973 0.320162 0.439514
O O3 0.385203 0.411661 0.552985
O O4 0.090087 0.323888 0.594359
O O5 0.239433 0.722918 0.180811
O O6 0.528180 0.827771 0.172085
O O7 0.232366 0.406420 0.880323
O O8 0.000000 0.370328 0.750000
O O9 0.747416 0.084195 0.743303
O O10 0.980356 0.006227 0.837061
O O11 0.667112 0.500000 0.500000
#
# Coordination Sequence:
#
# PCOD9321588 Si02
#       6
#     8   8   8   4   4   8
#     4  11  23  42  74 103 144 188 247 309 381 453
#     4  11  24  44  71 112 140 186 242 317 387 456
#     4  11  24  43  75 103 148 189 245 311 377 456
#     4  12  30  51  72 111 150 206 260 310 372 458
#     4  12  30  45  78 103 158 188 252 314 382 432
#     4  11  27  47  72 103 147 203 258 308 376 452
#
# _framework density 21.577057
#
# number of rings (size 3 to 8) (size 9 to 14) (size 15 to 20)
#    0.000    0.800    2.000    3.600   11.200    4.000 
#    0.000    0.000    0.000    0.000    0.000    0.000 
#    0.000    0.000    0.000    0.000    0.000    0.000 
#
# Total GULP energy -111606.485175 kJ/mol
# GULP energy per Si atom -5580.324259 kJ/mol
# Density = 2.152795 g / cm^3
# Si number density = 21.577057 Si / 1000 Ang^3
#
#
#
# Elastic Constant Matrix: (Units=GPa)
#
#
# Indices 1 2 3 4 5 6 
#
# 1 68.5233 37.8901 22.1043 0.0000 0.0000 0.0000
# 2 37.8901 104.0037 67.0805 0.0000 0.0000 0.0000
# 3 22.1043 67.0805 123.9324 0.0000 0.0000 0.0000
# 4 0.0000 0.0000 0.0000 38.8241 0.0000 0.0000
# 5 0.0000 0.0000 0.0000 0.0000 34.9558 0.0000
# 6 0.0000 0.0000 0.0000 0.0000 0.0000 -740.8889
#
#
#
# Elastic Compliance Matrix: (Units=1/GPa)
#
#
# Indices 1 2 3 4 5 6 
#
# 1 0.018298 -0.007008 0.000529 0.000000 0.000000 0.000000
# 2 -0.007008 0.017456 -0.008198 0.000000 0.000000 0.000000
# 3 0.000529 -0.008198 0.012412 0.000000 0.000000 0.000000
# 4 0.000000 0.000000 0.000000 0.025757 0.000000 0.000000
# 5 0.000000 0.000000 0.000000 0.000000 0.028608 0.000000
# 6 0.000000 0.000000 0.000000 0.000000 0.000000 -0.001350
#
#
# Mechanical properties :
#
#
# Convention : Reuss Voigt Hill
#
# Bulk Modulus (GPa) = 53.15645 61.17882 57.16763
# Shear Modulus (GPa) = 36.54851 -122.12952 -42.79051
#
# Velocity S-wave (km/s) = 4.12012 -7.53156 -4.45809
# Velocity P-wave (km/s) = 6.87917 6.87149 0.22973
#
# Compressibility (1/GPa) = 0.01881239
#
# Stress axis : x y z
#
# Youngs Moduli (GPa) = 54.65181 57.28735 80.56707
#
# Poissons Ratio (x) = 0.40145 -0.04266
# Poissons Ratio (y) = 0.38298 0.66052
# Poissons Ratio (z) = -0.02894 0.46967
#
# Static dielectric constant tensor:
#      x y z
#    x 1.858440 0.000000 0.000000 
#    y 0.000000 1.761210 0.000000 
#    z 0.000000 0.000000 1.900870 
# 
# From -- ./inp_files/22668.got.cif
#   From: 2010.05.17/outbox.cif.g08.bks.cpg/sg20_12_cif.got.tgz:22668.got - 2010.06.03 22:52:26.
