data_PCOD9321116
_publ_section_title
;
Structure prediction by ZEFSAII (Michael W. Deem and Ramdas Pophale) SiO2 
 PCOD9321116
Probable space group: C 2 2 21
;
_chemical_formula_sum "Si O2"
_cell_formula_units_Z 28
_cell_length_a 7.654426
_cell_length_b 5.057205
_cell_length_c 24.990538
_cell_angle_alpha 90.000000
_cell_angle_beta 90.000000
_cell_angle_gamma 90.000000
_cell_volume 967.383762
_symmetry_space_group_name_H-M "C 2 2 21"
_symmetry_group_IT_number 20
_symmetry_cell_setting 'orthorhombic'
loop_
_space_group_symop_operation_xyz
x,y,z
-x,-y,1/2+z
x,-y,-z
-x,y,1/2-z
1/2+x,1/2+y,z
1/2-x,1/2-y,1/2+z
1/2+x,1/2-y,-z
1/2-x,1/2+y,1/2-z
loop_
_atom_site_type_symbol
_atom_site_label
_atom_site_fract_x
_atom_site_fract_y
_atom_site_fract_z
Si Si1 0.000000 0.142896 0.250000
Si Si2 0.790886 0.485480 0.323893
Si Si3 0.837659 0.745149 0.962741
Si Si4 0.971323 0.085013 0.610390
O O1 0.049999 0.313569 0.197770
O O2 0.164655 0.988225 0.272424
O O3 0.670861 0.349049 0.370038
O O4 0.860851 0.773065 0.341762
O O5 0.647909 0.698098 0.937112
O O6 0.978238 0.797358 0.915268
O O7 0.878642 0.500000 0.000000
O O8 0.833598 0.000000 0.000000
#
# Coordination Sequence:
#
# PCOD9321116 Si02
#       4
#     4   8   8   8
#     4  12  24  44  72 104 146 192 248 302 376 444
#     4  11  24  44  71 106 146 194 247 310 372 449
#     4  11  26  48  77 112 154 202 253 312 376 447
#     4  10  25  47  74 108 150 196 252 309 375 444
#
# _framework density 28.944044999999999
#
# number of rings (size 3 to 8) (size 9 to 14) (size 15 to 20)
#    0.000    1.143    0.000    4.286    0.000   13.714 
#    0.000    0.000    0.000    0.000    0.000    0.000 
#    0.000    0.000    0.000    0.000    0.000    0.000 
#
# Total GULP energy -78254.580177 kJ/mol
# GULP energy per Si atom -5589.612870 kJ/mol
# Density = 2.887817 g / cm^3
# Si number density = 28.944045 Si / 1000 Ang^3
#
#
#
# Elastic Constant Matrix: (Units=GPa)
#
#
# Indices 1 2 3 4 5 6 
#
# 1 174.5216 49.4497 77.3659 0.0000 0.0000 0.0000
# 2 49.4497 122.0044 36.4726 0.0000 0.0000 0.0000
# 3 77.3659 36.4726 139.9739 0.0000 0.0000 0.0000
# 4 0.0000 0.0000 0.0000 41.9345 0.0000 0.0000
# 5 0.0000 0.0000 0.0000 0.0000 72.7145 0.0000
# 6 0.0000 0.0000 0.0000 0.0000 0.0000 42.1482
#
#
#
# Elastic Compliance Matrix: (Units=1/GPa)
#
#
# Indices 1 2 3 4 5 6 
#
# 1 0.008056 -0.002097 -0.003906 0.000000 0.000000 0.000000
# 2 -0.002097 0.009435 -0.001299 0.000000 0.000000 0.000000
# 3 -0.003906 -0.001299 0.009642 0.000000 0.000000 0.000000
# 4 0.000000 0.000000 0.000000 0.023847 0.000000 0.000000
# 5 0.000000 0.000000 0.000000 0.000000 0.013752 0.000000
# 6 0.000000 0.000000 0.000000 0.000000 0.000000 0.023726
#
#
# Mechanical properties :
#
#
# Convention : Reuss Voigt Hill
#
# Bulk Modulus (GPa) = 79.82684 84.78624 82.30654
# Shear Modulus (GPa) = 46.62515 49.57354 48.09935
#
# Velocity S-wave (km/s) = 4.01792 4.14301 4.08095
# Velocity P-wave (km/s) = 7.01174 7.22792 7.12065
#
# Compressibility (1/GPa) = 0.01252712
#
# Stress axis : x y z
#
# Youngs Moduli (GPa) = 124.13405 105.98941 103.71670
#
# Poissons Ratio (x) = 0.22230 0.40512
# Poissons Ratio (y) = 0.26036 0.13474
# Poissons Ratio (z) = 0.48488 0.13770
#
# Static dielectric constant tensor:
#      x y z
#    x 2.136660 0.000000 0.000000 
#    y 0.000000 2.267080 0.000000 
#    z 0.000000 0.000000 2.360450 
# 
# From -- ./inp_files/29652.got.cif
#   From: 2010.05.17/outbox.cif.g08.bks.cpg/sg20_15_cif.got.tgz:29652.got - 2010.06.03 22:52:26.
