data_PCOD9321094
_publ_section_title
;
Structure prediction by ZEFSAII (Michael W. Deem and Ramdas Pophale) SiO2 
 PCOD9321094
Probable space group: C 2 2 21
;
_chemical_formula_sum "Si O2"
_cell_formula_units_Z 28
_cell_length_a 16.385919
_cell_length_b 8.089526
_cell_length_c 9.354289
_cell_angle_alpha 90.000000
_cell_angle_beta 90.000000
_cell_angle_gamma 90.000000
_cell_volume 1239.951397
_symmetry_space_group_name_H-M "C 2 2 21"
_symmetry_group_IT_number 20
_symmetry_cell_setting 'orthorhombic'
loop_
_space_group_symop_operation_xyz
x,y,z
-x,-y,1/2+z
x,-y,-z
-x,y,1/2-z
1/2+x,1/2+y,z
1/2-x,1/2-y,1/2+z
1/2+x,1/2-y,-z
1/2-x,1/2+y,1/2-z
loop_
_atom_site_type_symbol
_atom_site_label
_atom_site_fract_x
_atom_site_fract_y
_atom_site_fract_z
Si Si1 0.500000 0.072382 0.250000
Si Si2 0.167913 0.995965 0.835873
Si Si3 0.345593 0.152800 0.818954
Si Si4 0.427338 0.668156 0.921902
O O1 0.504026 0.197831 0.384134
O O2 0.580031 0.961409 0.266691
O O3 0.261239 0.055965 0.825576
O O4 0.116496 0.106427 0.723248
O O5 0.161931 0.808128 0.784931
O O6 0.141698 0.000000 0.000000
O O7 0.366640 0.234212 0.972601
O O8 0.454224 0.500000 0.000000
#
# Coordination Sequence:
#
# PCOD9321094 Si02
#       4
#     4   8   8   8
#     4  12  24  42  68  96 134 178 220 272 340 406
#     4  11  23  43  71 100 133 181 231 279 340 408
#     4  11  24  44  68 101 138 177 227 286 339 401
#     4  10  25  45  68  99 138 175 225 288 341 400
#
# _framework density 22.581531999999999
#
# number of rings (size 3 to 8) (size 9 to 14) (size 15 to 20)
#    0.000    1.143    0.000    6.000    0.000   10.286 
#    0.000   11.429    0.000    0.000    0.000    0.000 
#    0.000    0.000    0.000    0.000    0.000    0.000 
#
# Total GULP energy -78381.652756 kJ/mol
# GULP energy per Si atom -5598.689483 kJ/mol
# Density = 2.253014 g / cm^3
# Si number density = 22.581532 Si / 1000 Ang^3
#
#
#
# Elastic Constant Matrix: (Units=GPa)
#
#
# Indices 1 2 3 4 5 6 
#
# 1 127.5491 93.5671 70.4541 0.0000 0.0000 0.0000
# 2 93.5671 195.4073 89.5862 0.0000 0.0000 0.0000
# 3 70.4541 89.5862 183.6591 0.0000 0.0000 0.0000
# 4 0.0000 0.0000 0.0000 35.2706 0.0000 0.0000
# 5 0.0000 0.0000 0.0000 0.0000 25.7902 0.0000
# 6 0.0000 0.0000 0.0000 0.0000 0.0000 44.4185
#
#
#
# Elastic Compliance Matrix: (Units=1/GPa)
#
#
# Indices 1 2 3 4 5 6 
#
# 1 0.012916 -0.005040 -0.002496 0.000000 0.000000 0.000000
# 2 -0.005040 0.008558 -0.002241 0.000000 0.000000 0.000000
# 3 -0.002496 -0.002241 0.007496 0.000000 0.000000 0.000000
# 4 0.000000 0.000000 0.000000 0.028352 0.000000 0.000000
# 5 0.000000 0.000000 0.000000 0.000000 0.038774 0.000000
# 6 0.000000 0.000000 0.000000 0.000000 0.000000 0.022513
#
#
# Mechanical properties :
#
#
# Convention : Reuss Voigt Hill
#
# Bulk Modulus (GPa) = 106.21355 112.64781 109.43068
# Shear Modulus (GPa) = 35.38458 37.96307 36.67382
#
# Velocity S-wave (km/s) = 3.96279 4.10464 4.03434
# Velocity P-wave (km/s) = 8.25082 8.51219 8.38252
#
# Compressibility (1/GPa) = 0.00941499
#
# Stress axis : x y z
#
# Youngs Moduli (GPa) = 77.42039 116.84337 133.40988
#
# Poissons Ratio (x) = 0.58893 0.33304
# Poissons Ratio (y) = 0.39023 0.29899
# Poissons Ratio (z) = 0.19327 0.26186
#
# Static dielectric constant tensor:
#      x y z
#    x 1.810660 0.000000 0.000000 
#    y 0.000000 1.818670 0.000000 
#    z 0.000000 0.000000 1.853390 
# 
# From -- ./inp_files/5665.got.cif
#   From: 2010.05.17/outbox.cif.g08.bks.cpg/sg20_3_cif.got.tgz:5665.got - 2010.06.03 22:52:26.
