data_PCOD9321812
_publ_section_title
;
Structure prediction by ZEFSAII (Michael W. Deem and Ramdas Pophale) SiO2 
 PCOD9321812
Probable space group: C 2 2 21
;
_chemical_formula_sum "Si O2"
_cell_formula_units_Z 32
_cell_length_a 5.579960
_cell_length_b 12.580775
_cell_length_c 17.558064
_cell_angle_alpha 90.000000
_cell_angle_beta 90.000000
_cell_angle_gamma 90.000000
_cell_volume 1232.579978
_symmetry_space_group_name_H-M "C 2 2 21"
_symmetry_group_IT_number 20
_symmetry_cell_setting 'orthorhombic'
loop_
_space_group_symop_operation_xyz
x,y,z
-x,-y,1/2+z
x,-y,-z
-x,y,1/2-z
1/2+x,1/2+y,z
1/2-x,1/2-y,1/2+z
1/2+x,1/2-y,-z
1/2-x,1/2+y,1/2-z
loop_
_atom_site_type_symbol
_atom_site_label
_atom_site_fract_x
_atom_site_fract_y
_atom_site_fract_z
Si Si1 0.720422 0.628326 0.562641
Si Si2 0.976794 0.844988 0.591319
Si Si3 0.430953 0.993919 0.832293
Si Si4 0.332988 0.287785 0.321071
O O1 0.895799 0.729881 0.559209
O O2 0.617187 0.604917 0.479455
O O3 0.500219 0.677556 0.609382
O O4 0.858798 0.537909 0.611721
O O5 0.757939 0.917543 0.622603
O O6 0.159570 0.809376 0.657726
O O7 0.500000 0.947577 0.750000
O O8 0.307918 0.104024 0.807137
O O9 0.500000 0.268605 0.250000
#
# Coordination Sequence:
#
# PCOD9321812 Si02
#       4
#     8   8   8   8
#     4  11  24  52  80 117 169 212 277 354 413 500
#     4  11  26  50  84 121 166 224 282 343 433 500
#     4  11  26  52  83 122 166 219 286 347 426 508
#     4  11  24  51  81 116 169 214 276 352 412 496
#
# _framework density 25.961805999999999
#
# number of rings (size 3 to 8) (size 9 to 14) (size 15 to 20)
#    0.000    1.000    5.000    0.000    0.000    4.000 
#    9.000    2.500    0.000    0.000    0.000    0.000 
#    0.000    0.000    0.000    0.000    0.000    0.000 
#
# Total GULP energy -89630.994844 kJ/mol
# GULP energy per Si atom -5601.937178 kJ/mol
# Density = 2.590272 g / cm^3
# Si number density = 25.961806 Si / 1000 Ang^3
#
#
#
# Elastic Constant Matrix: (Units=GPa)
#
#
# Indices 1 2 3 4 5 6 
#
# 1 112.6030 52.5732 83.1922 0.0000 0.0000 0.0000
# 2 52.5732 167.7255 82.1588 0.0000 0.0000 0.0000
# 3 83.1922 82.1588 189.6601 0.0000 0.0000 0.0000
# 4 0.0000 0.0000 0.0000 30.0200 0.0000 0.0000
# 5 0.0000 0.0000 0.0000 0.0000 74.7743 0.0000
# 6 0.0000 0.0000 0.0000 0.0000 0.0000 84.2145
#
#
#
# Elastic Compliance Matrix: (Units=1/GPa)
#
#
# Indices 1 2 3 4 5 6 
#
# 1 0.013506 -0.001690 -0.005192 0.000000 0.000000 0.000000
# 2 -0.001690 0.007780 -0.002629 0.000000 0.000000 0.000000
# 3 -0.005192 -0.002629 0.008689 0.000000 0.000000 0.000000
# 4 0.000000 0.000000 0.000000 0.033311 0.000000 0.000000
# 5 0.000000 0.000000 0.000000 0.000000 0.013374 0.000000
# 6 0.000000 0.000000 0.000000 0.000000 0.000000 0.011874
#
#
# Mechanical properties :
#
#
# Convention : Reuss Voigt Hill
#
# Bulk Modulus (GPa) = 91.30382 100.64855 95.97619
# Shear Modulus (GPa) = 44.96184 54.60606 49.78395
#
# Velocity S-wave (km/s) = 4.16606 4.59118 4.38377
# Velocity P-wave (km/s) = 7.64109 8.18274 7.91655
#
# Compressibility (1/GPa) = 0.01095244
#
# Stress axis : x y z
#
# Youngs Moduli (GPa) = 74.04250 128.54295 115.09187
#
# Poissons Ratio (x) = 0.21725 0.59756
# Poissons Ratio (y) = 0.12514 0.30254
# Poissons Ratio (z) = 0.38443 0.33790
#
# Static dielectric constant tensor:
#      x y z
#    x 2.170640 0.000000 0.000000 
#    y 0.000000 2.145480 0.000000 
#    z 0.000000 0.000000 2.012940 
# 
# From -- ./inp_files/22490.got.cif
#   From: 2010.05.17/outbox.cif.g08.bks.cpg/sg20_12_cif.got.tgz:22490.got - 2010.06.03 22:52:26.
