data_PCOD9321546
_publ_section_title
;
Structure prediction by ZEFSAII (Michael W. Deem and Ramdas Pophale) SiO2 
 PCOD9321546
Probable space group: C 2 2 21
;
_chemical_formula_sum "Si O2"
_cell_formula_units_Z 56
_cell_length_a 16.716676
_cell_length_b 31.638942
_cell_length_c 5.160232
_cell_angle_alpha 90.000000
_cell_angle_beta 90.000000
_cell_angle_gamma 90.000000
_cell_volume 2729.236087
_symmetry_space_group_name_H-M "C 2 2 21"
_symmetry_group_IT_number 20
_symmetry_cell_setting 'orthorhombic'
loop_
_space_group_symop_operation_xyz
x,y,z
-x,-y,1/2+z
x,-y,-z
-x,y,1/2-z
1/2+x,1/2+y,z
1/2-x,1/2-y,1/2+z
1/2+x,1/2-y,-z
1/2-x,1/2+y,1/2-z
loop_
_atom_site_type_symbol
_atom_site_label
_atom_site_fract_x
_atom_site_fract_y
_atom_site_fract_z
Si Si1 0.663901 0.662759 0.835126
Si Si2 0.911689 0.127162 0.168133
Si Si3 0.197212 0.253813 0.717427
Si Si4 0.093624 0.339508 0.709656
Si Si5 0.747492 0.029325 0.746185
Si Si6 0.923019 0.046573 0.903962
Si Si7 0.332535 0.120688 0.716571
O O1 0.607871 0.641675 0.621131
O O2 0.650615 0.712621 0.816739
O O3 0.753325 0.649550 0.754905
O O4 0.648296 0.645757 0.121825
O O5 0.000000 0.140118 0.250000
O O6 0.906613 0.076645 0.148249
O O7 0.233267 0.242510 0.435113
O O8 0.144304 0.295854 0.704274
O O9 0.108721 0.364910 0.445109
O O10 0.000000 0.330827 0.750000
O O11 0.128538 0.367672 0.943271
O O12 0.840807 0.043702 0.743993
O O13 0.695420 0.072027 0.761824
O O14 0.730095 0.000000 0.500000
O O15 0.737988 0.000000 0.000000
O O16 0.000000 0.063148 0.750000
O O17 0.942934 0.000000 0.000000
#
# Coordination Sequence:
#
# PCOD9321546 Si02
#       7
#     8   8   8   8   8   8   8
#     4  12  24  42  68  95 131 184 232 271 334 399
#     4  12  26  40  59  90 135 181 230 276 332 395
#     4  12  23  44  70 103 138 177 222 271 334 409
#     4  12  26  46  75 109 137 176 227 283 346 416
#     4  11  25  41  68 101 134 179 238 287 342 411
#     4  11  23  38  60  91 135 183 235 289 343 394
#     4  12  24  45  75  99 140 178 228 286 346 413
#
# _framework density 20.518561999999999
#
# number of rings (size 3 to 8) (size 9 to 14) (size 15 to 20)
#    0.000    0.286    4.286    5.143    4.000    1.143 
#    0.000    0.000    0.000    8.571    0.000    0.000 
#    0.000    0.000    0.000    0.000    0.000    0.000 
#
# Total GULP energy -156730.536543 kJ/mol
# GULP energy per Si atom -5597.519162 kJ/mol
# Density = 2.047186 g / cm^3
# Si number density = 20.518562 Si / 1000 Ang^3
#
#
#
# Elastic Constant Matrix: (Units=GPa)
#
#
# Indices 1 2 3 4 5 6 
#
# 1 71.7059 26.6446 -4.6248 0.0000 0.0000 0.0000
# 2 26.6446 128.3782 36.1673 0.0000 0.0000 0.0000
# 3 -4.6248 36.1673 67.4649 0.0000 0.0000 0.0000
# 4 0.0000 0.0000 0.0000 35.0562 0.0000 0.0000
# 5 0.0000 0.0000 0.0000 0.0000 34.0246 0.0000
# 6 0.0000 0.0000 0.0000 0.0000 0.0000 22.2657
#
#
#
# Elastic Compliance Matrix: (Units=1/GPa)
#
#
# Indices 1 2 3 4 5 6 
#
# 1 0.015722 -0.004201 0.003330 0.000000 0.000000 0.000000
# 2 -0.004201 0.010298 -0.005809 0.000000 0.000000 0.000000
# 3 0.003330 -0.005809 0.018165 0.000000 0.000000 0.000000
# 4 0.000000 0.000000 0.000000 0.028526 0.000000 0.000000
# 5 0.000000 0.000000 0.000000 0.000000 0.029390 0.000000
# 6 0.000000 0.000000 0.000000 0.000000 0.000000 0.044912
#
#
# Mechanical properties :
#
#
# Convention : Reuss Voigt Hill
#
# Bulk Modulus (GPa) = 32.44152 42.65814 37.54983
# Shear Modulus (GPa) = 29.30029 32.22678 30.76354
#
# Velocity S-wave (km/s) = 3.78297 3.96740 3.87628
# Velocity P-wave (km/s) = 5.90985 6.46701 6.19470
#
# Compressibility (1/GPa) = 0.03082470
#
# Stress axis : x y z
#
# Youngs Moduli (GPa) = 63.60642 97.10779 55.05182
#
# Poissons Ratio (x) = 0.40796 -0.18332
# Poissons Ratio (y) = 0.26722 0.31977
# Poissons Ratio (z) = -0.21180 0.56406
#
# Static dielectric constant tensor:
#      x y z
#    x 1.725620 0.000000 0.000000 
#    y 0.000000 1.753670 0.000000 
#    z 0.000000 0.000000 1.772450 
# 
# From -- ./inp_files/2247.got.cif
#   From: 2010.05.17/outbox.cif.g08.bks.cpg/sg20_2_cif.got.tgz:2247.got - 2010.06.03 22:52:26.
