data_PCOD9321581
_publ_section_title
;
Structure prediction by ZEFSAII (Michael W. Deem and Ramdas Pophale) SiO2 
 PCOD9321581
Probable space group: C 2 2 21
;
_chemical_formula_sum "Si O2"
_cell_formula_units_Z 32
_cell_length_a 21.525935
_cell_length_b 11.673495
_cell_length_c 5.143943
_cell_angle_alpha 90.000000
_cell_angle_beta 90.000000
_cell_angle_gamma 90.000000
_cell_volume 1292.584887
_symmetry_space_group_name_H-M "C 2 2 21"
_symmetry_group_IT_number 20
_symmetry_cell_setting 'orthorhombic'
loop_
_space_group_symop_operation_xyz
x,y,z
-x,-y,1/2+z
x,-y,-z
-x,y,1/2-z
1/2+x,1/2+y,z
1/2-x,1/2-y,1/2+z
1/2+x,1/2-y,-z
1/2-x,1/2+y,1/2-z
loop_
_atom_site_type_symbol
_atom_site_label
_atom_site_fract_x
_atom_site_fract_y
_atom_site_fract_z
Si Si1 0.303872 0.349115 0.447380
Si Si2 0.804020 0.600225 0.307865
Si Si3 0.560070 0.130491 0.408977
Si Si4 0.387879 0.623930 0.060227
O O1 0.237857 0.392837 0.551424
O O2 0.294397 0.214497 0.469170
O O3 0.335404 0.368729 0.167680
O O4 0.353540 0.386397 0.664689
O O5 0.787048 0.500000 0.500000
O O6 0.876419 0.601243 0.240073
O O7 0.500000 0.167552 0.250000
O O8 0.577636 0.250671 0.560919
O O9 0.542860 0.000000 0.500000
O O10 0.420833 0.500000 0.000000
#
# Coordination Sequence:
#
# PCOD9321581 Si02
#       4
#     8   8   8   8
#     4  11  24  42  69 106 142 178 227 287 354 420
#     4  11  23  42  68 100 139 187 231 285 350 416
#     4  11  25  46  69 101 141 189 239 287 336 408
#     4  11  25  46  73 105 141 180 228 291 355 414
#
# _framework density 24.756592000000001
#
# number of rings (size 3 to 8) (size 9 to 14) (size 15 to 20)
#    0.000    1.000    0.000    6.750    0.000    8.000 
#    0.000    6.250    0.000    0.000    0.000    0.000 
#    0.000    0.000    0.000    0.000    0.000    0.000 
#
# Total GULP energy -89304.048108 kJ/mol
# GULP energy per Si atom -5581.503007 kJ/mol
# Density = 2.470024 g / cm^3
# Si number density = 24.756592 Si / 1000 Ang^3
#
#
#
# Elastic Constant Matrix: (Units=GPa)
#
#
# Indices 1 2 3 4 5 6 
#
# 1 92.7663 -23.1460 17.7548 0.0000 0.0000 0.0000
# 2 -23.1460 195.1400 2.3553 0.0000 0.0000 0.0000
# 3 17.7548 2.3553 97.9176 0.0000 0.0000 0.0000
# 4 0.0000 0.0000 0.0000 48.6169 0.0000 0.0000
# 5 0.0000 0.0000 0.0000 0.0000 -18.1139 0.0000
# 6 0.0000 0.0000 0.0000 0.0000 0.0000 -74.3892
#
#
#
# Elastic Compliance Matrix: (Units=1/GPa)
#
#
# Indices 1 2 3 4 5 6 
#
# 1 0.011534 0.001394 -0.002125 0.000000 0.000000 0.000000
# 2 0.001394 0.005294 -0.000380 0.000000 0.000000 0.000000
# 3 -0.002125 -0.000380 0.010607 0.000000 0.000000 0.000000
# 4 0.000000 0.000000 0.000000 0.020569 0.000000 0.000000
# 5 0.000000 0.000000 0.000000 0.000000 -0.055206 0.000000
# 6 0.000000 0.000000 0.000000 0.000000 0.000000 -0.013443
#
#
# Mechanical properties :
#
#
# Convention : Reuss Voigt Hill
#
# Bulk Modulus (GPa) = 39.66176 42.19470 40.92823
# Shear Modulus (GPa) = -499.13222 17.14675 -240.99273
#
# Velocity S-wave (km/s) = -14.21456 2.63461 -9.87705
# Velocity P-wave (km/s) = 15.91695 5.13183 10.65396
#
# Compressibility (1/GPa) = 0.02521321
#
# Stress axis : x y z
#
# Youngs Moduli (GPa) = 86.69847 188.87782 94.27633
#
# Poissons Ratio (x) = -0.26325 0.20033
# Poissons Ratio (y) = -0.12084 0.03583
# Poissons Ratio (z) = 0.18423 0.07179
#
# Static dielectric constant tensor:
#      x y z
#    x 1.928810 0.000000 0.000000 
#    y 0.000000 2.108510 0.000000 
#    z 0.000000 0.000000 2.013400 
# 
# From -- ./inp_files/1020.got.cif
#   From: 2010.05.17/outbox.cif.g08.bks.cpg/sg20_1_cif.got.tgz:1020.got - 2010.06.03 22:52:26.
