data_PCOD9321405
_publ_section_title
;
Structure prediction by ZEFSAII (Michael W. Deem and Ramdas Pophale) SiO2 
 PCOD9321405
Probable space group: C 2 2 21
;
_chemical_formula_sum "Si O2"
_cell_formula_units_Z 48
_cell_length_a 25.092700
_cell_length_b 10.272874
_cell_length_c 9.815529
_cell_angle_alpha 90.000000
_cell_angle_beta 90.000000
_cell_angle_gamma 90.000000
_cell_volume 2530.189600
_symmetry_space_group_name_H-M "C 2 2 21"
_symmetry_group_IT_number 20
_symmetry_cell_setting 'orthorhombic'
loop_
_space_group_symop_operation_xyz
x,y,z
-x,-y,1/2+z
x,-y,-z
-x,y,1/2-z
1/2+x,1/2+y,z
1/2-x,1/2-y,1/2+z
1/2+x,1/2-y,-z
1/2-x,1/2+y,1/2-z
loop_
_atom_site_type_symbol
_atom_site_label
_atom_site_fract_x
_atom_site_fract_y
_atom_site_fract_z
Si Si1 0.171825 0.497905 0.835648
Si Si2 0.627054 0.274194 0.778142
Si Si3 0.061183 0.847272 0.030153
Si Si4 0.798345 0.998968 0.836152
Si Si5 0.441403 0.655988 0.030275
Si Si6 0.374534 0.732467 0.782111
O O1 0.147731 0.627613 0.768393
O O2 0.235389 0.495988 0.812528
O O3 0.145417 0.370965 0.769715
O O4 0.163277 0.500000 0.000000
O O5 0.672645 0.376093 0.733453
O O6 0.577371 0.312327 0.682130
O O7 0.606272 0.290599 0.931475
O O8 0.078927 0.819015 0.182966
O O9 0.001629 0.800034 0.998377
O O10 0.060618 0.000000 0.000000
O O11 0.826536 0.128401 0.779144
O O12 0.807121 0.000000 0.000000
O O13 0.399905 0.728383 0.931681
O O14 0.437721 0.500000 0.000000
#
# Coordination Sequence:
#
# PCOD9321405 Si02
#       6
#     8   8   8   8   8   8
#     4  11  26  41  62  92 135 166 205 261 318 367
#     4  12  21  43  63  94 126 167 207 255 317 369
#     4  11  22  37  68  96 123 162 215 261 308 374
#     4  11  22  43  66  94 125 166 211 263 310 363
#     4  11  22  41  66  96 125 162 211 267 310 364
#     4  12  21  43  63  94 126 167 207 255 317 369
#
# _framework density 18.97091
#
# number of rings (size 3 to 8) (size 9 to 14) (size 15 to 20)
#    0.000    0.667    6.667    2.000    0.000    3.333 
#    0.000    6.667    0.000    0.000    0.000    0.000 
#    0.000    0.000    0.000    0.000    0.000    0.000 
#
# Total GULP energy -134126.570125 kJ/mol
# GULP energy per Si atom -5588.607089 kJ/mol
# Density = 1.892773 g / cm^3
# Si number density = 18.970910 Si / 1000 Ang^3
#
#
#
# Elastic Constant Matrix: (Units=GPa)
#
#
# Indices 1 2 3 4 5 6 
#
# 1 72.7573 31.9375 -11.6231 0.0000 0.0000 0.0000
# 2 31.9375 132.5492 1.4180 0.0000 0.0000 0.0000
# 3 -11.6231 1.4180 30.6373 0.0000 0.0000 0.0000
# 4 0.0000 0.0000 0.0000 28.4134 0.0000 0.0000
# 5 0.0000 0.0000 0.0000 0.0000 17.6635 0.0000
# 6 0.0000 0.0000 0.0000 0.0000 0.0000 -1.0631
#
#
#
# Elastic Compliance Matrix: (Units=1/GPa)
#
#
# Indices 1 2 3 4 5 6 
#
# 1 0.016560 -0.004059 0.006470 0.000000 0.000000 0.000000
# 2 -0.004059 0.008543 -0.001935 0.000000 0.000000 0.000000
# 3 0.006470 -0.001935 0.035184 0.000000 0.000000 0.000000
# 4 0.000000 0.000000 0.000000 0.035195 0.000000 0.000000
# 5 0.000000 0.000000 0.000000 0.000000 0.056614 0.000000
# 6 0.000000 0.000000 0.000000 0.000000 0.000000 -0.940638
#
#
# Mechanical properties :
#
#
# Convention : Reuss Voigt Hill
#
# Bulk Modulus (GPa) = 16.32963 31.04540 23.68751
# Shear Modulus (GPa) = -6.50127 23.28351 8.39112
#
# Velocity S-wave (km/s) = -1.85322 3.50712 2.10541
# Velocity P-wave (km/s) = 2.01176 5.72714 4.29228
#
# Compressibility (1/GPa) = 0.06123839
#
# Stress axis : x y z
#
# Youngs Moduli (GPa) = 60.38708 117.05281 28.42188
#
# Poissons Ratio (x) = 0.47515 -0.18390
# Poissons Ratio (y) = 0.24513 0.05501
# Poissons Ratio (z) = -0.39072 0.22654
#
# Static dielectric constant tensor:
#      x y z
#    x 1.651780 0.000000 0.000000 
#    y 0.000000 1.771340 0.000000 
#    z 0.000000 0.000000 1.638990 
# 
# From -- ./inp_files/11433.got.cif
#   From: 2010.05.17/outbox.cif.g08.bks.cpg/sg20_6_cif.got.tgz:11433.got - 2010.06.03 22:52:26.
