data_PCOD9321717
_publ_section_title
;
Structure prediction by ZEFSAII (Michael W. Deem and Ramdas Pophale) SiO2 
 PCOD9321717
Probable space group: C 2 2 21
;
_chemical_formula_sum "Si O2"
_cell_formula_units_Z 44
_cell_length_a 15.774105
_cell_length_b 14.557776
_cell_length_c 8.406922
_cell_angle_alpha 90.000000
_cell_angle_beta 90.000000
_cell_angle_gamma 90.000000
_cell_volume 1930.530992
_symmetry_space_group_name_H-M "C 2 2 21"
_symmetry_group_IT_number 20
_symmetry_cell_setting 'orthorhombic'
loop_
_space_group_symop_operation_xyz
x,y,z
-x,-y,1/2+z
x,-y,-z
-x,y,1/2-z
1/2+x,1/2+y,z
1/2-x,1/2-y,1/2+z
1/2+x,1/2-y,-z
1/2-x,1/2+y,1/2-z
loop_
_atom_site_type_symbol
_atom_site_label
_atom_site_fract_x
_atom_site_fract_y
_atom_site_fract_z
Si Si1 0.253769 0.336463 0.329587
Si Si2 0.616710 0.561819 0.346653
Si Si3 0.853872 0.000000 0.500000
Si Si4 0.522727 0.092614 0.073363
Si Si5 0.933634 0.727640 0.884188
Si Si6 0.216216 0.362410 0.963007
O O1 0.297872 0.414578 0.435453
O O2 0.154319 0.324979 0.364405
O O3 0.258050 0.352330 0.139066
O O4 0.290318 0.237660 0.381605
O O5 0.592284 0.500000 0.500000
O O6 0.597972 0.529031 0.165166
O O7 0.581610 0.664330 0.372550
O O8 0.719263 0.575760 0.360212
O O9 0.500000 0.075342 0.250000
O O10 0.478820 0.189814 0.037906
O O11 0.621629 0.099856 0.030029
O O12 0.485484 0.000000 0.000000
O O13 0.000000 0.698919 0.750000
#
# Coordination Sequence:
#
# PCOD9321717 Si02
#       6
#     8   8   4   8   8   8
#     4  11  24  42  73 100 142 185 242 296 355 425
#     4  11  25  48  74 104 143 188 247 297 352 431
#     4  12  26  42  76 108 138 192 248 294 356 424
#     4  12  29  44  70 105 144 189 236 297 373 432
#     4  11  25  48  67 101 147 185 235 302 359 427
#     4  11  24  46  70 102 141 188 237 298 358 428
#
# _framework density 22.791658000000002
#
# number of rings (size 3 to 8) (size 9 to 14) (size 15 to 20)
#    0.000    0.727    3.636    3.273    8.909    0.000 
#    1.636    0.000    0.000    0.000    0.000    0.000 
#    0.000    0.000    0.000    0.000    0.000    0.000 
#
# Total GULP energy -122938.008419 kJ/mol
# GULP energy per Si atom -5588.091292 kJ/mol
# Density = 2.273978 g / cm^3
# Si number density = 22.791658 Si / 1000 Ang^3
#
#
#
# Elastic Constant Matrix: (Units=GPa)
#
#
# Indices 1 2 3 4 5 6 
#
# 1 45.5677 24.7655 7.2256 0.0000 0.0000 0.0000
# 2 24.7655 108.9327 58.7174 0.0000 0.0000 0.0000
# 3 7.2256 58.7174 187.7056 0.0000 0.0000 0.0000
# 4 0.0000 0.0000 0.0000 51.7316 0.0000 0.0000
# 5 0.0000 0.0000 0.0000 0.0000 17.7264 0.0000
# 6 0.0000 0.0000 0.0000 0.0000 0.0000 45.2918
#
#
#
# Elastic Compliance Matrix: (Units=1/GPa)
#
#
# Indices 1 2 3 4 5 6 
#
# 1 0.025191 -0.006260 0.000988 0.000000 0.000000 0.000000
# 2 -0.006260 0.012597 -0.003700 0.000000 0.000000 0.000000
# 3 0.000988 -0.003700 0.006447 0.000000 0.000000 0.000000
# 4 0.000000 0.000000 0.000000 0.019331 0.000000 0.000000
# 5 0.000000 0.000000 0.000000 0.000000 0.056413 0.000000
# 6 0.000000 0.000000 0.000000 0.000000 0.000000 0.022079
#
#
# Mechanical properties :
#
#
# Convention : Reuss Voigt Hill
#
# Bulk Modulus (GPa) = 38.03327 58.18033 48.10680
# Shear Modulus (GPa) = 29.62720 39.71647 34.67183
#
# Velocity S-wave (km/s) = 3.60934 4.17896 3.90455
# Velocity P-wave (km/s) = 5.83896 6.99052 6.44053
#
# Compressibility (1/GPa) = 0.02629277
#
# Stress axis : x y z
#
# Youngs Moduli (GPa) = 39.69706 79.38169 155.11663
#
# Poissons Ratio (x) = 0.49692 -0.15333
# Poissons Ratio (y) = 0.24850 0.57388
# Poissons Ratio (z) = -0.03924 0.29369
#
# Static dielectric constant tensor:
#      x y z
#    x 1.837160 0.000000 0.000000 
#    y 0.000000 1.824350 0.000000 
#    z 0.000000 0.000000 1.771050 
# 
# From -- ./inp_files/9273.got.cif
#   From: 2010.05.17/outbox.cif.g08.bks.cpg/sg20_5_cif.got.tgz:9273.got - 2010.06.03 22:52:26.
