data_PCOD9321656
_publ_section_title
;
Structure prediction by ZEFSAII (Michael W. Deem and Ramdas Pophale) SiO2 
 PCOD9321656
Probable space group: C 2 2 21
;
_chemical_formula_sum "Si O2"
_cell_formula_units_Z 32
_cell_length_a 12.960333
_cell_length_b 8.283665
_cell_length_c 13.443808
_cell_angle_alpha 90.000000
_cell_angle_beta 90.000000
_cell_angle_gamma 90.000000
_cell_volume 1443.314547
_symmetry_space_group_name_H-M "C 2 2 21"
_symmetry_group_IT_number 20
_symmetry_cell_setting 'orthorhombic'
loop_
_space_group_symop_operation_xyz
x,y,z
-x,-y,1/2+z
x,-y,-z
-x,y,1/2-z
1/2+x,1/2+y,z
1/2-x,1/2-y,1/2+z
1/2+x,1/2-y,-z
1/2-x,1/2+y,1/2-z
loop_
_atom_site_type_symbol
_atom_site_label
_atom_site_fract_x
_atom_site_fract_y
_atom_site_fract_z
Si Si1 0.000575 0.321065 0.635601
Si Si2 0.172355 0.747184 0.993826
Si Si3 0.832290 0.500000 0.000000
Si Si4 0.824655 0.000000 0.000000
Si Si5 0.000825 0.072033 0.136350
O O1 0.093758 0.408992 0.578144
O O2 0.000000 0.373472 0.750000
O O3 0.896690 0.349173 0.573013
O O4 0.000260 0.124160 0.635039
O O5 0.250289 0.873268 0.045849
O O6 0.094691 0.842556 0.921295
O O7 0.250765 0.623236 0.941950
O O8 0.897611 0.102089 0.073171
O O9 0.000000 0.125827 0.250000
#
# Coordination Sequence:
#
# PCOD9321656 Si02
#       5
#     8   8   4   4   8
#     4  11  24  45  68 103 143 177 231 291 335 407
#     4  12  23  46  71  97 140 181 225 285 347 408
#     4  12  22  44  74  98 140 182 224 282 352 404
#     4  12  24  46  70 102 138 184 224 284 348 404
#     4  11  23  46  70 102 142 178 230 291 338 400
#
# _framework density 22.171191
#
# number of rings (size 3 to 8) (size 9 to 14) (size 15 to 20)
#    0.000    0.500    7.500    0.750    0.000    2.000 
#    0.000    8.750    0.000    0.000    0.000    0.000 
#    0.000    0.000    0.000    0.000    0.000    0.000 
#
# Total GULP energy -89244.870681 kJ/mol
# GULP energy per Si atom -5577.804418 kJ/mol
# Density = 2.212073 g / cm^3
# Si number density = 22.171191 Si / 1000 Ang^3
#
#
#
# Elastic Constant Matrix: (Units=GPa)
#
#
# Indices 1 2 3 4 5 6 
#
# 1 197.7455 78.0623 89.8544 0.0000 0.0000 0.0000
# 2 78.0623 70.9506 39.6305 0.0000 0.0000 0.0000
# 3 89.8544 39.6305 172.4730 0.0000 0.0000 0.0000
# 4 0.0000 0.0000 0.0000 19.4365 0.0000 0.0000
# 5 0.0000 0.0000 0.0000 0.0000 1.8924 0.0000
# 6 0.0000 0.0000 0.0000 0.0000 0.0000 69.5986
#
#
#
# Elastic Compliance Matrix: (Units=1/GPa)
#
#
# Indices 1 2 3 4 5 6 
#
# 1 0.010243 -0.009509 -0.003151 0.000000 0.000000 0.000000
# 2 -0.009509 0.024998 -0.000790 0.000000 0.000000 0.000000
# 3 -0.003151 -0.000790 0.007621 0.000000 0.000000 0.000000
# 4 0.000000 0.000000 0.000000 0.051450 0.000000 0.000000
# 5 0.000000 0.000000 0.000000 0.000000 0.528433 0.000000
# 6 0.000000 0.000000 0.000000 0.000000 0.000000 0.014368
#
#
# Mechanical properties :
#
#
# Convention : Reuss Voigt Hill
#
# Bulk Modulus (GPa) = 62.65195 95.14041 78.89618
# Shear Modulus (GPa) = 7.47011 33.76030 20.61521
#
# Velocity S-wave (km/s) = 1.83755 3.90643 3.05260
# Velocity P-wave (km/s) = 5.72903 7.95938 6.93446
#
# Compressibility (1/GPa) = 0.01596120
#
# Stress axis : x y z
#
# Youngs Moduli (GPa) = 97.62919 40.00320 131.21259
#
# Poissons Ratio (x) = 0.38040 0.41348
# Poissons Ratio (y) = 0.92839 0.10364
# Poissons Ratio (z) = 0.30765 0.03160
#
# Static dielectric constant tensor:
#      x y z
#    x 1.838220 0.000000 0.000000 
#    y 0.000000 1.945940 0.000000 
#    z 0.000000 0.000000 1.779310 
# 
# From -- ./inp_files/18234.got.cif
#   From: 2010.05.17/outbox.cif.g08.bks.cpg/sg20_10_cif.got.tgz:18234.got - 2010.06.03 22:52:26.
