data_PCOD9321439
_publ_section_title
;
Structure prediction by ZEFSAII (Michael W. Deem and Ramdas Pophale) SiO2 
 PCOD9321439
Probable space group: C 2 2 21
;
_chemical_formula_sum "Si O2"
_cell_formula_units_Z 60
_cell_length_a 12.022480
_cell_length_b 8.215781
_cell_length_c 28.823108
_cell_angle_alpha 90.000000
_cell_angle_beta 90.000000
_cell_angle_gamma 90.000000
_cell_volume 2846.975478
_symmetry_space_group_name_H-M "C 2 2 21"
_symmetry_group_IT_number 20
_symmetry_cell_setting 'orthorhombic'
loop_
_space_group_symop_operation_xyz
x,y,z
-x,-y,1/2+z
x,-y,-z
-x,y,1/2-z
1/2+x,1/2+y,z
1/2-x,1/2-y,1/2+z
1/2+x,1/2-y,-z
1/2-x,1/2+y,1/2-z
loop_
_atom_site_type_symbol
_atom_site_label
_atom_site_fract_x
_atom_site_fract_y
_atom_site_fract_z
Si Si1 0.000000 0.713704 0.750000
Si Si2 0.885673 0.460210 0.075211
Si Si3 0.141881 0.232350 0.805249
Si Si4 0.971941 0.885034 0.959438
Si Si5 0.927231 0.440307 0.819299
Si Si6 0.783818 0.072568 0.255798
Si Si7 0.645514 0.595637 0.906572
Si Si8 0.416757 0.146070 0.473788
O O1 0.028907 0.598686 0.707274
O O2 0.108263 0.817420 0.760949
O O3 0.907181 0.268064 0.063565
O O4 0.965319 0.570417 0.043284
O O5 0.917811 0.512521 0.127229
O O6 0.754167 0.489763 0.072058
O O7 0.223333 0.383668 0.792907
O O8 0.161877 0.131506 0.852348
O O9 0.017682 0.300649 0.809346
O O10 0.171055 0.109002 0.763719
O O11 0.034679 0.996802 0.921343
O O12 0.064364 0.789900 0.989820
O O13 0.917851 0.000000 0.000000
O O14 0.810070 0.401577 0.795085
O O15 0.638595 0.773827 0.929649
O O16 0.356380 0.000000 0.500000
#
# Coordination Sequence:
#
# PCOD9321439 Si02
#       8
#     4   8   8   8   8   8   8   8
#     4  12  26  42  70  94 140 176 230 284 340 410
#     4  11  22  40  68  94 132 174 218 277 334 399
#     4  12  24  45  68  96 142 179 234 289 346 411
#     4   9  22  41  65  97 132 173 223 274 334 405
#     4  12  24  44  66  97 135 179 230 282 336 411
#     4  12  25  45  67 102 131 184 228 283 353 406
#     4  11  22  42  65  99 132 173 225 279 335 405
#     4   9  20  40  64  93 131 172 220 270 335 397
#
# _framework density 21.074995999999999
#
# number of rings (size 3 to 8) (size 9 to 14) (size 15 to 20)
#    0.000    1.067    5.333    0.000    3.733    5.333 
#    0.000    4.000    0.000    0.000    0.000    0.000 
#    0.000    0.000    0.000    0.000    0.000    0.000 
#
# Total GULP energy -167345.454467 kJ/mol
# GULP energy per Si atom -5578.181816 kJ/mol
# Density = 2.102703 g / cm^3
# Si number density = 21.074996 Si / 1000 Ang^3
#
#
#
# Elastic Constant Matrix: (Units=GPa)
#
#
# Indices 1 2 3 4 5 6 
#
# 1 128.4490 33.4416 31.6583 0.0000 0.0000 0.0000
# 2 33.4416 84.8555 22.3556 0.0000 0.0000 0.0000
# 3 31.6583 22.3556 63.8053 0.0000 0.0000 0.0000
# 4 0.0000 0.0000 0.0000 29.8349 0.0000 0.0000
# 5 0.0000 0.0000 0.0000 0.0000 18.7069 0.0000
# 6 0.0000 0.0000 0.0000 0.0000 0.0000 48.9764
#
#
#
# Elastic Compliance Matrix: (Units=1/GPa)
#
#
# Indices 1 2 3 4 5 6 
#
# 1 0.009411 -0.002731 -0.003713 0.000000 0.000000 0.000000
# 2 -0.002731 0.013776 -0.003472 0.000000 0.000000 0.000000
# 3 -0.003713 -0.003472 0.018731 0.000000 0.000000 0.000000
# 4 0.000000 0.000000 0.000000 0.033518 0.000000 0.000000
# 5 0.000000 0.000000 0.000000 0.000000 0.053456 0.000000
# 6 0.000000 0.000000 0.000000 0.000000 0.000000 0.020418
#
#
# Mechanical properties :
#
#
# Convention : Reuss Voigt Hill
#
# Bulk Modulus (GPa) = 45.27433 50.22454 47.74943
# Shear Modulus (GPa) = 28.32812 32.14726 30.23769
#
# Velocity S-wave (km/s) = 3.67025 3.90984 3.79194
# Velocity P-wave (km/s) = 6.28412 6.65324 6.47131
#
# Compressibility (1/GPa) = 0.02208757
#
# Stress axis : x y z
#
# Youngs Moduli (GPa) = 106.25604 72.59224 53.38682
#
# Poissons Ratio (x) = 0.19824 0.19821
# Poissons Ratio (y) = 0.29017 0.18534
# Poissons Ratio (z) = 0.39450 0.25201
#
# Static dielectric constant tensor:
#      x y z
#    x 1.766580 0.000000 0.000000 
#    y 0.000000 1.795030 0.000000 
#    z 0.000000 0.000000 1.894550 
# 
# From -- ./inp_files/30337.got.cif
#   From: 2010.05.17/outbox.cif.g08.bks.cpg/sg20_16_cif.got.tgz:30337.got - 2010.06.03 22:52:26.
