data_PCOD9321475
_publ_section_title
;
Structure prediction by ZEFSAII (Michael W. Deem and Ramdas Pophale) SiO2 
 PCOD9321475
Probable space group: C 2 2 21
;
_chemical_formula_sum "Si O2"
_cell_formula_units_Z 64
_cell_length_a 12.429693
_cell_length_b 7.568837
_cell_length_c 28.170149
_cell_angle_alpha 90.000000
_cell_angle_beta 90.000000
_cell_angle_gamma 90.000000
_cell_volume 2650.200300
_symmetry_space_group_name_H-M "C 2 2 21"
_symmetry_group_IT_number 20
_symmetry_cell_setting 'orthorhombic'
loop_
_space_group_symop_operation_xyz
x,y,z
-x,-y,1/2+z
x,-y,-z
-x,y,1/2-z
1/2+x,1/2+y,z
1/2-x,1/2-y,1/2+z
1/2+x,1/2-y,-z
1/2-x,1/2+y,1/2-z
loop_
_atom_site_type_symbol
_atom_site_label
_atom_site_fract_x
_atom_site_fract_y
_atom_site_fract_z
Si Si1 0.449910 0.585779 0.202749
Si Si2 0.334223 0.883240 0.884443
Si Si3 0.395121 0.234156 0.635692
Si Si4 0.244124 0.742320 0.092821
Si Si5 0.894821 0.499395 0.778947
Si Si6 0.982158 0.220547 0.551146
Si Si7 0.222418 0.448458 0.811206
Si Si8 0.465790 0.320527 0.945129
O O1 0.500000 0.507696 0.250000
O O2 0.543321 0.611837 0.164334
O O3 0.405607 0.785402 0.215527
O O4 0.345385 0.483899 0.184946
O O5 0.223803 0.773764 0.881943
O O6 0.428680 0.791697 0.913148
O O7 0.291939 0.061599 0.909492
O O8 0.375668 0.930148 0.831698
O O9 0.475350 0.195329 0.592822
O O10 0.372503 0.078853 0.672539
O O11 0.220332 0.702001 0.148381
O O12 0.344826 0.635981 0.071463
O O13 0.135978 0.709767 0.063850
O O14 0.798615 0.430851 0.744841
O O15 0.000000 0.438183 0.750000
O O16 0.022369 0.254559 0.497693
O O17 0.973427 0.007946 0.556108
#
# Coordination Sequence:
#
# PCOD9321475 Si02
#       8
#     8   8   8   8   8   8   8   8
#     4  11  22  44  66 101 147 195 242 301 361 431
#     4  12  26  45  75 110 146 194 250 302 376 442
#     4  12  24  45  73 103 147 193 242 309 368 433
#     4  12  26  48  73 108 151 191 245 312 370 444
#     4  11  22  42  67 102 148 189 241 300 357 436
#     4  11  28  50  75 110 145 193 252 309 373 451
#     4  12  24  42  75 104 146 198 243 301 373 434
#     4  11  26  51  74 106 148 192 248 311 376 444
#
# _framework density 24.149118000000001
#
# number of rings (size 3 to 8) (size 9 to 14) (size 15 to 20)
#    0.000    0.500    6.250    2.250    3.500    0.500 
#    0.000    0.625    0.000    0.000    0.000    0.000 
#    0.000    0.000    0.000    0.000    0.000    0.000 
#
# Total GULP energy -179062.822652 kJ/mol
# GULP energy per Si atom -5595.713208 kJ/mol
# Density = 2.409415 g / cm^3
# Si number density = 24.149118 Si / 1000 Ang^3
#
#
#
# Elastic Constant Matrix: (Units=GPa)
#
#
# Indices 1 2 3 4 5 6 
#
# 1 177.7765 6.2431 56.6799 0.0000 0.0000 0.0000
# 2 6.2431 29.6231 5.3986 0.0000 0.0000 0.0000
# 3 56.6799 5.3986 151.9722 0.0000 0.0000 0.0000
# 4 0.0000 0.0000 0.0000 22.5990 0.0000 0.0000
# 5 0.0000 0.0000 0.0000 0.0000 37.1707 0.0000
# 6 0.0000 0.0000 0.0000 0.0000 0.0000 33.3017
#
#
#
# Elastic Compliance Matrix: (Units=1/GPa)
#
#
# Indices 1 2 3 4 5 6 
#
# 1 0.006409 -0.000921 -0.002358 0.000000 0.000000 0.000000
# 2 -0.000921 0.034110 -0.000868 0.000000 0.000000 0.000000
# 3 -0.002358 -0.000868 0.007490 0.000000 0.000000 0.000000
# 4 0.000000 0.000000 0.000000 0.044250 0.000000 0.000000
# 5 0.000000 0.000000 0.000000 0.000000 0.026903 0.000000
# 6 0.000000 0.000000 0.000000 0.000000 0.000000 0.030028
#
#
# Mechanical properties :
#
#
# Convention : Reuss Voigt Hill
#
# Bulk Modulus (GPa) = 25.17915 55.11278 40.14596
# Shear Modulus (GPa) = 29.28733 38.01765 33.65249
#
# Velocity S-wave (km/s) = 3.48626 3.97203 3.73705
# Velocity P-wave (km/s) = 5.16280 6.62627 5.93978
#
# Compressibility (1/GPa) = 0.03971541
#
# Stress axis : x y z
#
# Youngs Moduli (GPa) = 156.02914 29.31712 133.50615
#
# Poissons Ratio (x) = 0.02700 0.31476
# Poissons Ratio (y) = 0.14371 0.11591
# Poissons Ratio (z) = 0.36786 0.02545
#
# Static dielectric constant tensor:
#      x y z
#    x 1.914740 0.000000 0.000000 
#    y 0.000000 2.013590 0.000000 
#    z 0.000000 0.000000 1.950860 
# 
# From -- ./inp_files/31198.got.cif
#   From: 2010.05.17/outbox.cif.g08.bks.cpg/sg20_16_cif.got.tgz:31198.got - 2010.06.03 22:52:26.
