data_PCOD9321276
_publ_section_title
;
Structure prediction by ZEFSAII (Michael W. Deem and Ramdas Pophale) SiO2 
 PCOD9321276
Probable space group: C 2 2 21
;
_chemical_formula_sum "Si O2"
_cell_formula_units_Z 64
_cell_length_a 15.736673
_cell_length_b 11.836437
_cell_length_c 17.843087
_cell_angle_alpha 90.000000
_cell_angle_beta 90.000000
_cell_angle_gamma 90.000000
_cell_volume 3323.562915
_symmetry_space_group_name_H-M "C 2 2 21"
_symmetry_group_IT_number 20
_symmetry_cell_setting 'orthorhombic'
loop_
_space_group_symop_operation_xyz
x,y,z
-x,-y,1/2+z
x,-y,-z
-x,y,1/2-z
1/2+x,1/2+y,z
1/2-x,1/2-y,1/2+z
1/2+x,1/2-y,-z
1/2-x,1/2+y,1/2-z
loop_
_atom_site_type_symbol
_atom_site_label
_atom_site_fract_x
_atom_site_fract_y
_atom_site_fract_z
Si Si1 0.956358 0.777594 0.168885
Si Si2 0.284642 0.336222 0.811606
Si Si3 0.855056 0.964485 0.082387
Si Si4 0.618810 0.169561 0.097293
Si Si5 0.076326 0.576091 0.852160
Si Si6 0.115195 0.603577 0.680803
Si Si7 0.206865 0.386989 0.654967
Si Si8 0.796958 0.285795 0.439973
O O1 0.919998 0.891709 0.132293
O O2 0.877704 0.688844 0.171493
O O3 0.000000 0.792391 0.250000
O O4 0.030152 0.727293 0.116707
O O5 0.321618 0.431104 0.867712
O O6 0.191296 0.304055 0.841892
O O7 0.344504 0.226903 0.813702
O O8 0.268122 0.380072 0.727525
O O9 0.775443 0.882046 0.065148
O O10 0.888217 0.000000 0.000000
O O11 0.601868 0.034992 0.101620
O O12 0.658154 0.208538 0.019418
O O13 0.099688 0.556819 0.765202
O O14 0.132079 0.679778 0.879925
O O15 0.976841 0.601868 0.857379
O O16 0.177343 0.514393 0.642348
O O17 0.253192 0.329800 0.584803
#
# Coordination Sequence:
#
# PCOD9321276 Si02
#       8
#     8   8   8   8   8   8   8   8
#     4  11  23  41  67 100 127 169 223 272 322 388
#     4  12  23  40  68  94 135 171 217 270 325 393
#     4  11  23  43  67  97 132 175 217 265 331 399
#     4  12  22  41  68  95 127 170 222 268 320 391
#     4  11  20  39  65  96 128 163 224 274 318 378
#     4  11  23  39  64 102 129 164 219 282 322 374
#     4  11  22  41  67  97 132 170 222 274 328 388
#     4  11  22  41  67  98 127 175 222 265 331 392
#
# _framework density 19.256442
#
# number of rings (size 3 to 8) (size 9 to 14) (size 15 to 20)
#    0.000    0.750    7.500    0.375    1.750    1.000 
#    2.250    4.375    0.000    0.000    0.000    0.000 
#    0.000    0.000    0.000    0.000    0.000    0.000 
#
# Total GULP energy -178815.719780 kJ/mol
# GULP energy per Si atom -5587.991243 kJ/mol
# Density = 1.921261 g / cm^3
# Si number density = 19.256442 Si / 1000 Ang^3
#
#
#
# Elastic Constant Matrix: (Units=GPa)
#
#
# Indices 1 2 3 4 5 6 
#
# 1 82.3881 30.8510 21.1080 0.0000 0.0000 0.0000
# 2 30.8510 70.7879 7.7856 0.0000 0.0000 0.0000
# 3 21.1080 7.7856 55.4767 0.0000 0.0000 0.0000
# 4 0.0000 0.0000 0.0000 19.0917 0.0000 0.0000
# 5 0.0000 0.0000 0.0000 0.0000 30.7693 0.0000
# 6 0.0000 0.0000 0.0000 0.0000 0.0000 25.4160
#
#
#
# Elastic Compliance Matrix: (Units=1/GPa)
#
#
# Indices 1 2 3 4 5 6 
#
# 1 0.015824 -0.006332 -0.005132 0.000000 0.000000 0.000000
# 2 -0.006332 0.016882 0.000040 0.000000 0.000000 0.000000
# 3 -0.005132 0.000040 0.019973 0.000000 0.000000 0.000000
# 4 0.000000 0.000000 0.000000 0.052379 0.000000 0.000000
# 5 0.000000 0.000000 0.000000 0.000000 0.032500 0.000000
# 6 0.000000 0.000000 0.000000 0.000000 0.000000 0.039345
#
#
# Mechanical properties :
#
#
# Convention : Reuss Voigt Hill
#
# Bulk Modulus (GPa) = 33.52296 36.46021 34.99158
# Shear Modulus (GPa) = 23.84436 24.98260 24.41348
#
# Velocity S-wave (km/s) = 3.52270 3.60580 3.56449
# Velocity P-wave (km/s) = 5.83030 6.02585 5.92888
#
# Compressibility (1/GPa) = 0.02983030
#
# Stress axis : x y z
#
# Youngs Moduli (GPa) = 63.19712 59.23512 50.06856
#
# Poissons Ratio (x) = 0.37507 0.25695
# Poissons Ratio (y) = 0.40015 -0.00200
# Poissons Ratio (z) = 0.32433 -0.00237
#
# Static dielectric constant tensor:
#      x y z
#    x 1.656410 0.000000 0.000000 
#    y 0.000000 1.674600 0.000000 
#    z 0.000000 0.000000 1.699360 
# 
# From -- ./inp_files/25007.got.cif
#   From: 2010.05.17/outbox.cif.g08.bks.cpg/sg20_13_cif.got.tgz:25007.got - 2010.06.03 22:52:26.
