data_PCOD9321946
_publ_section_title
;
Structure prediction by ZEFSAII (Michael W. Deem and Ramdas Pophale) SiO2 
 PCOD9321946
Probable space group: C 2 2 21
;
_chemical_formula_sum "Si O2"
_cell_formula_units_Z 36
_cell_length_a 13.298609
_cell_length_b 13.991464
_cell_length_c 8.505030
_cell_angle_alpha 90.000000
_cell_angle_beta 90.000000
_cell_angle_gamma 90.000000
_cell_volume 1582.505494
_symmetry_space_group_name_H-M "C 2 2 21"
_symmetry_group_IT_number 20
_symmetry_cell_setting 'orthorhombic'
loop_
_space_group_symop_operation_xyz
x,y,z
-x,-y,1/2+z
x,-y,-z
-x,y,1/2-z
1/2+x,1/2+y,z
1/2-x,1/2-y,1/2+z
1/2+x,1/2-y,-z
1/2-x,1/2+y,1/2-z
loop_
_atom_site_type_symbol
_atom_site_label
_atom_site_fract_x
_atom_site_fract_y
_atom_site_fract_z
Si Si1 0.790542 0.060921 0.160908
Si Si2 0.735298 0.112733 0.645433
Si Si3 0.572630 0.834089 0.877480
Si Si4 0.662295 0.280690 0.855740
Si Si5 0.559598 0.000000 0.500000
O O1 0.683972 0.121666 0.161111
O O2 0.865325 0.145196 0.217021
O O3 0.797189 0.976941 0.290242
O O4 0.799135 0.000000 0.000000
O O5 0.724593 0.194472 0.776099
O O6 0.774072 0.160023 0.485356
O O7 0.628663 0.064158 0.611496
O O8 0.500000 0.782256 0.750000
O O9 0.580999 0.770415 0.033986
O O10 0.509636 0.927298 0.912350
#
# Coordination Sequence:
#
# PCOD9321946 Si02
#       5
#     8   8   8   8   4
#     4  12  22  42  68 102 147 196 246 304 364 450
#     4  12  22  41  66 105 145 190 245 304 373 451
#     4  12  23  40  66 108 151 181 236 313 383 429
#     4  12  24  40  65 106 152 192 246 304 373 455
#     4  12  24  38  70 106 146 178 238 314 384 414
#
# _framework density 22.748736000000001
#
# number of rings (size 3 to 8) (size 9 to 14) (size 15 to 20)
#    0.000    0.000   10.000    0.000    0.000    0.000 
#    0.000    0.000    0.000    0.000   23.111    0.000 
#    0.000    0.000    0.000    0.000    0.000    0.000 
#
# Total GULP energy -100420.519275 kJ/mol
# GULP energy per Si atom -5578.917738 kJ/mol
# Density = 2.269696 g / cm^3
# Si number density = 22.748736 Si / 1000 Ang^3
#
#
#
# Elastic Constant Matrix: (Units=GPa)
#
#
# Indices 1 2 3 4 5 6 
#
# 1 28.3498 26.1236 21.1057 0.0000 0.0000 0.0000
# 2 26.1236 151.0191 57.9810 0.0000 0.0000 0.0000
# 3 21.1057 57.9810 111.3353 0.0000 0.0000 0.0000
# 4 0.0000 0.0000 0.0000 250.1012 0.0000 0.0000
# 5 0.0000 0.0000 0.0000 0.0000 25.8524 0.0000
# 6 0.0000 0.0000 0.0000 0.0000 0.0000 -91.7143
#
#
#
# Elastic Compliance Matrix: (Units=1/GPa)
#
#
# Indices 1 2 3 4 5 6 
#
# 1 0.044536 -0.005578 -0.005538 0.000000 0.000000 0.000000
# 2 -0.005578 0.008975 -0.003617 0.000000 0.000000 0.000000
# 3 -0.005538 -0.003617 0.011915 0.000000 0.000000 0.000000
# 4 0.000000 0.000000 0.000000 0.003998 0.000000 0.000000
# 5 0.000000 0.000000 0.000000 0.000000 0.038681 0.000000
# 6 0.000000 0.000000 0.000000 0.000000 0.000000 -0.010903
#
#
# Mechanical properties :
#
#
# Convention : Reuss Voigt Hill
#
# Bulk Modulus (GPa) = 27.80725 55.68053 41.74389
# Shear Modulus (GPa) = 36.06082 49.21411 42.63747
#
# Velocity S-wave (km/s) = 3.98575 4.65626 4.33399
# Velocity P-wave (km/s) = 5.78202 7.31007 6.59048
#
# Compressibility (1/GPa) = 0.03596184
#
# Stress axis : x y z
#
# Youngs Moduli (GPa) = 22.45359 111.41960 83.92672
#
# Poissons Ratio (x) = 0.62148 0.46478
# Poissons Ratio (y) = 0.12524 0.30353
# Poissons Ratio (z) = 0.12435 0.40297
#
# Static dielectric constant tensor:
#      x y z
#    x 1.858090 0.000000 0.000000 
#    y 0.000000 1.813650 0.000000 
#    z 0.000000 0.000000 13.968240 
# 
# From -- ./inp_files/7996.got.cif
#   From: 2010.05.17/outbox.cif.g08.bks.cpg/sg20_4_cif.got.tgz:7996.got - 2010.06.03 22:52:26.
