data_PCOD9321729
_publ_section_title
;
Structure prediction by ZEFSAII (Michael W. Deem and Ramdas Pophale) SiO2 
 PCOD9321729
Probable space group: C 2 2 21
;
_chemical_formula_sum "Si O2"
_cell_formula_units_Z 48
_cell_length_a 9.689588
_cell_length_b 9.495672
_cell_length_c 23.896870
_cell_angle_alpha 90.000000
_cell_angle_beta 90.000000
_cell_angle_gamma 90.000000
_cell_volume 2198.730684
_symmetry_space_group_name_H-M "C 2 2 21"
_symmetry_group_IT_number 20
_symmetry_cell_setting 'orthorhombic'
loop_
_space_group_symop_operation_xyz
x,y,z
-x,-y,1/2+z
x,-y,-z
-x,y,1/2-z
1/2+x,1/2+y,z
1/2-x,1/2-y,1/2+z
1/2+x,1/2-y,-z
1/2-x,1/2+y,1/2-z
loop_
_atom_site_type_symbol
_atom_site_label
_atom_site_fract_x
_atom_site_fract_y
_atom_site_fract_z
Si Si1 0.614007 0.077355 0.556269
Si Si2 0.304706 0.867079 0.692732
Si Si3 0.310888 0.804964 0.297099
Si Si4 0.064443 0.079910 0.944643
Si Si5 0.530016 0.328779 0.627467
Si Si6 0.925654 0.696696 0.124684
O O1 0.774723 0.116364 0.547629
O O2 0.531570 0.211862 0.578456
O O3 0.563717 0.000000 0.500000
O O4 0.608747 0.960440 0.605130
O O5 0.250481 0.772273 0.743298
O O6 0.446862 0.809760 0.667581
O O7 0.186383 0.862096 0.645258
O O8 0.324144 0.028471 0.711488
O O9 0.452084 0.736565 0.319197
O O10 0.202649 0.772959 0.346864
O O11 0.975854 0.214763 0.928706
O O12 0.044846 0.968629 0.894178
O O13 0.015386 0.000000 0.000000
#
# Coordination Sequence:
#
# PCOD9321729 Si02
#       6
#     8   8   8   8   8   8
#     4  11  24  43  70 102 135 176 219 271 334 393
#     4  12  28  44  69  98 132 176 225 278 331 394
#     4  12  28  44  69  98 132 176 225 278 331 394
#     4  11  24  43  70 102 135 176 219 271 334 393
#     4  12  24  46  68 100 136 172 222 276 330 392
#     4  12  24  46  68 100 136 172 222 276 330 392
#
# _framework density 21.830777000000001
#
# number of rings (size 3 to 8) (size 9 to 14) (size 15 to 20)
#    0.000    0.333    6.667    2.000    4.667    2.667 
#    0.000    1.667    0.000    0.000    0.000    0.000 
#    0.000    0.000    0.000    0.000    0.000    0.000 
#
# Total GULP energy -134385.999188 kJ/mol
# GULP energy per Si atom -5599.416633 kJ/mol
# Density = 2.178109 g / cm^3
# Si number density = 21.830777 Si / 1000 Ang^3
#
#
#
# Elastic Constant Matrix: (Units=GPa)
#
#
# Indices 1 2 3 4 5 6 
#
# 1 56.7281 -5.4569 -15.9879 0.0000 0.0000 0.0000
# 2 -5.4569 79.6562 -7.6040 0.0000 0.0000 0.0000
# 3 -15.9879 -7.6040 45.0737 0.0000 0.0000 0.0000
# 4 0.0000 0.0000 0.0000 44.1446 0.0000 0.0000
# 5 0.0000 0.0000 0.0000 0.0000 30.7166 0.0000
# 6 0.0000 0.0000 0.0000 0.0000 0.0000 21.1736
#
#
#
# Elastic Compliance Matrix: (Units=1/GPa)
#
#
# Indices 1 2 3 4 5 6 
#
# 1 0.019917 0.002072 0.007414 0.000000 0.000000 0.000000
# 2 0.002072 0.012975 0.002924 0.000000 0.000000 0.000000
# 3 0.007414 0.002924 0.025309 0.000000 0.000000 0.000000
# 4 0.000000 0.000000 0.000000 0.022653 0.000000 0.000000
# 5 0.000000 0.000000 0.000000 0.000000 0.032556 0.000000
# 6 0.000000 0.000000 0.000000 0.000000 0.000000 0.047229
#
#
# Mechanical properties :
#
#
# Convention : Reuss Voigt Hill
#
# Bulk Modulus (GPa) = 12.04509 13.70672 12.87591
# Shear Modulus (GPa) = 30.58268 33.24074 31.91171
#
# Velocity S-wave (km/s) = 3.74692 3.90635 3.82747
# Velocity P-wave (km/s) = 4.92429 5.16124 5.04416
#
# Compressibility (1/GPa) = 0.08302138
#
# Stress axis : x y z
#
# Youngs Moduli (GPa) = 50.20877 77.07112 39.51166
#
# Poissons Ratio (x) = -0.15970 -0.29295
# Poissons Ratio (y) = -0.10404 -0.11553
# Poissons Ratio (z) = -0.37226 -0.22535
#
# Static dielectric constant tensor:
#      x y z
#    x 1.754920 0.000000 0.000000 
#    y 0.000000 1.764210 0.000000 
#    z 0.000000 0.000000 1.807530 
# 
# From -- ./inp_files/29097.got.cif
#   From: 2010.05.17/outbox.cif.g08.bks.cpg/sg20_15_cif.got.tgz:29097.got - 2010.06.03 22:52:26.
