data_PCOD9321114
_publ_section_title
;
Structure prediction by ZEFSAII (Michael W. Deem and Ramdas Pophale) SiO2 
 PCOD9321114
Probable space group: C 2 2 21
;
_chemical_formula_sum "Si O2"
_cell_formula_units_Z 56
_cell_length_a 14.755215
_cell_length_b 19.602103
_cell_length_c 10.326764
_cell_angle_alpha 90.000000
_cell_angle_beta 90.000000
_cell_angle_gamma 90.000000
_cell_volume 2986.843454
_symmetry_space_group_name_H-M "C 2 2 21"
_symmetry_group_IT_number 20
_symmetry_cell_setting 'orthorhombic'
loop_
_space_group_symop_operation_xyz
x,y,z
-x,-y,1/2+z
x,-y,-z
-x,y,1/2-z
1/2+x,1/2+y,z
1/2-x,1/2-y,1/2+z
1/2+x,1/2-y,-z
1/2-x,1/2+y,1/2-z
loop_
_atom_site_type_symbol
_atom_site_label
_atom_site_fract_x
_atom_site_fract_y
_atom_site_fract_z
Si Si1 0.862590 0.764973 0.000099
Si Si2 0.107916 0.873161 0.265992
Si Si3 0.894944 0.138534 0.241896
Si Si4 0.072342 0.529306 0.143281
Si Si5 0.717727 0.507044 0.345136
Si Si6 0.519320 0.186078 0.105356
Si Si7 0.838691 0.207466 0.509589
O O1 0.886246 0.802354 0.866066
O O2 0.761007 0.738126 0.998518
O O3 0.877593 0.821271 0.113353
O O4 0.926918 0.700264 0.028916
O O5 0.145745 0.838988 0.135509
O O6 0.000000 0.886314 0.250000
O O7 0.164813 0.941903 0.289492
O O8 0.832522 0.075545 0.199717
O O9 0.863526 0.167101 0.380017
O O10 0.000000 0.117292 0.250000
O O11 0.175100 0.512531 0.186306
O O12 0.055417 0.610188 0.126064
O O13 0.000000 0.504687 0.250000
O O14 0.057615 0.500000 0.000000
O O15 0.712483 0.500000 0.500000
O O16 0.500000 0.213959 0.250000
O O17 0.593289 0.229938 0.031159
#
# Coordination Sequence:
#
# PCOD9321114 Si02
#       7
#     8   8   8   8   8   8   8
#     4  12  23  42  69  98 135 178 221 273 339 401
#     4  12  23  47  70  96 135 184 225 270 344 412
#     4  12  24  43  64 103 136 165 226 287 331 390
#     4  10  25  47  72  97 137 182 228 272 329 407
#     4  11  25  44  71  95 135 188 222 273 341 407
#     4  11  22  44  70  93 138 186 215 267 342 409
#     4  12  25  39  68 105 134 169 229 278 335 400
#
# _framework density 18.748889999999999
#
# number of rings (size 3 to 8) (size 9 to 14) (size 15 to 20)
#    0.000    0.571    5.714    2.143    6.000    1.714 
#    2.571    0.000    0.000    0.000    0.000    0.000 
#    0.000    0.000    0.000    0.000    0.000    0.000 
#
# Total GULP energy -156490.028705 kJ/mol
# GULP energy per Si atom -5588.929597 kJ/mol
# Density = 1.870622 g / cm^3
# Si number density = 18.748890 Si / 1000 Ang^3
#
#
#
# Elastic Constant Matrix: (Units=GPa)
#
#
# Indices 1 2 3 4 5 6 
#
# 1 165.3721 32.8877 70.4019 0.0000 0.0000 0.0000
# 2 32.8877 57.2210 34.2069 0.0000 0.0000 0.0000
# 3 70.4019 34.2069 101.4350 0.0000 0.0000 0.0000
# 4 0.0000 0.0000 0.0000 20.9469 0.0000 0.0000
# 5 0.0000 0.0000 0.0000 0.0000 31.5198 0.0000
# 6 0.0000 0.0000 0.0000 0.0000 0.0000 20.7410
#
#
#
# Elastic Compliance Matrix: (Units=1/GPa)
#
#
# Indices 1 2 3 4 5 6 
#
# 1 0.008720 -0.001746 -0.005464 0.000000 0.000000 0.000000
# 2 -0.001746 0.022238 -0.006288 0.000000 0.000000 0.000000
# 3 -0.005464 -0.006288 0.015771 0.000000 0.000000 0.000000
# 4 0.000000 0.000000 0.000000 0.047740 0.000000 0.000000
# 5 0.000000 0.000000 0.000000 0.000000 0.031726 0.000000
# 6 0.000000 0.000000 0.000000 0.000000 0.000000 0.048214
#
#
# Mechanical properties :
#
#
# Convention : Reuss Voigt Hill
#
# Bulk Modulus (GPa) = 50.67073 66.55790 58.61431
# Shear Modulus (GPa) = 24.04062 27.07699 25.55881
#
# Velocity S-wave (km/s) = 3.58473 3.80437 3.69618
# Velocity P-wave (km/s) = 6.64969 7.40773 7.03892
#
# Compressibility (1/GPa) = 0.01973526
#
# Stress axis : x y z
#
# Youngs Moduli (GPa) = 114.67797 44.96749 63.40760
#
# Poissons Ratio (x) = 0.07850 0.34643
# Poissons Ratio (y) = 0.20020 0.39869
# Poissons Ratio (z) = 0.62655 0.28275
#
# Static dielectric constant tensor:
#      x y z
#    x 1.643210 0.000000 0.000000 
#    y 0.000000 1.669430 0.000000 
#    z 0.000000 0.000000 1.629780 
# 
# From -- ./inp_files/8732.got.cif
#   From: 2010.05.17/outbox.cif.g08.bks.cpg/sg20_5_cif.got.tgz:8732.got - 2010.06.03 22:52:26.
