data_PCOD9321455
_publ_section_title
;
Structure prediction by ZEFSAII (Michael W. Deem and Ramdas Pophale) SiO2 
 PCOD9321455
Probable space group: C 2 2 21
;
_chemical_formula_sum "Si O2"
_cell_formula_units_Z 32
_cell_length_a 22.811131
_cell_length_b 5.386241
_cell_length_c 11.460464
_cell_angle_alpha 90.000000
_cell_angle_beta 90.000000
_cell_angle_gamma 90.000000
_cell_volume 1408.104224
_symmetry_space_group_name_H-M "C 2 2 21"
_symmetry_group_IT_number 20
_symmetry_cell_setting 'orthorhombic'
loop_
_space_group_symop_operation_xyz
x,y,z
-x,-y,1/2+z
x,-y,-z
-x,y,1/2-z
1/2+x,1/2+y,z
1/2-x,1/2-y,1/2+z
1/2+x,1/2-y,-z
1/2-x,1/2+y,1/2-z
loop_
_atom_site_type_symbol
_atom_site_label
_atom_site_fract_x
_atom_site_fract_y
_atom_site_fract_z
Si Si1 0.823010 0.109143 0.124511
Si Si2 0.069551 0.924880 0.752415
Si Si3 0.219056 0.888053 0.125962
Si Si4 0.114175 0.572520 0.128479
O O1 0.892369 0.061221 0.134206
O O2 0.789380 0.371625 0.123430
O O3 0.799729 0.006331 0.250296
O O4 0.803365 0.000000 0.000000
O O5 0.094959 0.664481 0.798793
O O6 0.000000 0.910124 0.750000
O O7 0.086077 0.169209 0.827603
O O8 0.183770 0.626950 0.128136
O O9 0.199807 0.000000 0.000000
O O10 0.094723 0.500000 0.000000
#
# Coordination Sequence:
#
# PCOD9321455 Si02
#       4
#     8   8   8   8
#     4  11  23  39  65 101 140 182 231 291 356 424
#     4  11  25  44  65  98 139 183 235 292 351 417
#     4  11  22  41  68 103 142 183 234 292 362 432
#     4  11  22  42  70  96 128 178 234 287 348 421
#
# _framework density 22.725593
#
# number of rings (size 3 to 8) (size 9 to 14) (size 15 to 20)
#    0.000    1.000    0.000    8.250    0.000    4.000 
#    0.000    1.250    0.000    0.000    0.000    0.000 
#    0.000    0.000    0.000    0.000    0.000    0.000 
#
# Total GULP energy -89116.877235 kJ/mol
# GULP energy per Si atom -5569.804827 kJ/mol
# Density = 2.267387 g / cm^3
# Si number density = 22.725593 Si / 1000 Ang^3
#
#
#
# Elastic Constant Matrix: (Units=GPa)
#
#
# Indices 1 2 3 4 5 6 
#
# 1 150.6700 51.9860 45.5708 0.0000 0.0000 0.0000
# 2 51.9860 113.1617 45.2421 0.0000 0.0000 0.0000
# 3 45.5708 45.2421 171.9916 0.0000 0.0000 0.0000
# 4 0.0000 0.0000 0.0000 37.8639 0.0000 0.0000
# 5 0.0000 0.0000 0.0000 0.0000 21.5125 0.0000
# 6 0.0000 0.0000 0.0000 0.0000 0.0000 32.3256
#
#
#
# Elastic Compliance Matrix: (Units=1/GPa)
#
#
# Indices 1 2 3 4 5 6 
#
# 1 0.008144 -0.003217 -0.001312 0.000000 0.000000 0.000000
# 2 -0.003217 0.011146 -0.002080 0.000000 0.000000 0.000000
# 3 -0.001312 -0.002080 0.006709 0.000000 0.000000 0.000000
# 4 0.000000 0.000000 0.000000 0.026410 0.000000 0.000000
# 5 0.000000 0.000000 0.000000 0.000000 0.046485 0.000000
# 6 0.000000 0.000000 0.000000 0.000000 0.000000 0.030935
#
#
# Mechanical properties :
#
#
# Convention : Reuss Voigt Hill
#
# Bulk Modulus (GPa) = 78.23164 80.15792 79.19478
# Shear Modulus (GPa) = 33.94306 37.87536 35.90921
#
# Velocity S-wave (km/s) = 3.86891 4.08688 3.97939
# Velocity P-wave (km/s) = 7.37951 7.59070 7.48585
#
# Compressibility (1/GPa) = 0.01278255
#
# Stress axis : x y z
#
# Youngs Moduli (GPa) = 122.79578 89.71718 149.05797
#
# Poissons Ratio (x) = 0.28860 0.19550
# Poissons Ratio (y) = 0.39501 0.30999
# Poissons Ratio (z) = 0.16105 0.18658
#
# Static dielectric constant tensor:
#      x y z
#    x 1.973440 0.000000 0.000000 
#    y 0.000000 2.147550 0.000000 
#    z 0.000000 0.000000 1.958870 
# 
# From -- ./inp_files/11992.got.cif
#   From: 2010.05.17/outbox.cif.g08.bks.cpg/sg20_6_cif.got.tgz:11992.got - 2010.06.03 22:52:26.
