data_PCOD9321869
_publ_section_title
;
Structure prediction by ZEFSAII (Michael W. Deem and Ramdas Pophale) SiO2 
 PCOD9321869
Probable space group: C 2 2 21
;
_chemical_formula_sum "Si O2"
_cell_formula_units_Z 28
_cell_length_a 24.315079
_cell_length_b 5.544278
_cell_length_c 7.817387
_cell_angle_alpha 90.000000
_cell_angle_beta 90.000000
_cell_angle_gamma 90.000000
_cell_volume 1053.858483
_symmetry_space_group_name_H-M "C 2 2 21"
_symmetry_group_IT_number 20
_symmetry_cell_setting 'orthorhombic'
loop_
_space_group_symop_operation_xyz
x,y,z
-x,-y,1/2+z
x,-y,-z
-x,y,1/2-z
1/2+x,1/2+y,z
1/2-x,1/2-y,1/2+z
1/2+x,1/2-y,-z
1/2-x,1/2+y,1/2-z
loop_
_atom_site_type_symbol
_atom_site_label
_atom_site_fract_x
_atom_site_fract_y
_atom_site_fract_z
Si Si1 0.179349 0.235703 0.310590
Si Si2 0.579715 0.500000 0.500000
Si Si3 0.500000 0.797067 0.750000
Si Si4 0.146025 0.000000 0.000000
Si Si5 0.729936 0.000000 0.000000
Si Si6 0.081044 0.500000 0.000000
O O1 0.178893 0.010377 0.177143
O O2 0.227379 0.209532 0.448516
O O3 0.121661 0.194977 0.410434
O O4 0.194687 0.442403 0.171403
O O5 0.538917 0.630916 0.632049
O O6 0.541629 0.975538 0.841032
O O7 0.110816 0.242338 0.004009
#
# Coordination Sequence:
#
# PCOD9321869 Si02
#       6
#     8   4   4   4   4   4
#     4  11  25  50  82 122 166 222 283 357 431 515
#     4  11  27  54  85 116 180 219 296 348 438 512
#     4  12  28  52  84 126 170 234 286 358 432 526
#     4  12  25  50  77 125 162 224 270 355 416 516
#     4  11  25  50  85 118 168 221 286 356 438 522
#     4  12  29  48  83 115 170 218 284 347 418 510
#
# _framework density 26.569035
#
# number of rings (size 3 to 8) (size 9 to 14) (size 15 to 20)
#    0.000    0.571    2.857    3.429    4.000    1.143 
#    5.143    0.000    0.000    0.000    0.000    0.000 
#    0.000    0.000    0.000    0.000    0.000    0.000 
#
# Total GULP energy -78237.828343 kJ/mol
# GULP energy per Si atom -5588.416310 kJ/mol
# Density = 2.650856 g / cm^3
# Si number density = 26.569035 Si / 1000 Ang^3
#
#
#
# Elastic Constant Matrix: (Units=GPa)
#
#
# Indices 1 2 3 4 5 6 
#
# 1 136.5579 76.6618 50.0493 0.0000 0.0000 0.0000
# 2 76.6618 154.6496 43.5496 0.0000 0.0000 0.0000
# 3 50.0493 43.5496 124.3516 0.0000 0.0000 0.0000
# 4 0.0000 0.0000 0.0000 66.7341 0.0000 0.0000
# 5 0.0000 0.0000 0.0000 0.0000 71.6419 0.0000
# 6 0.0000 0.0000 0.0000 0.0000 0.0000 55.7932
#
#
#
# Elastic Compliance Matrix: (Units=1/GPa)
#
#
# Indices 1 2 3 4 5 6 
#
# 1 0.010949 -0.004645 -0.002780 0.000000 0.000000 0.000000
# 2 -0.004645 0.009144 -0.001333 0.000000 0.000000 0.000000
# 3 -0.002780 -0.001333 0.009628 0.000000 0.000000 0.000000
# 4 0.000000 0.000000 0.000000 0.014985 0.000000 0.000000
# 5 0.000000 0.000000 0.000000 0.000000 0.013958 0.000000
# 6 0.000000 0.000000 0.000000 0.000000 0.000000 0.017923
#
#
# Mechanical properties :
#
#
# Convention : Reuss Voigt Hill
#
# Bulk Modulus (GPa) = 81.93363 84.00893 82.97128
# Shear Modulus (GPa) = 50.93106 55.18707 53.05907
#
# Velocity S-wave (km/s) = 4.38303 4.56249 4.47366
# Velocity P-wave (km/s) = 7.51795 7.70992 7.61454
#
# Compressibility (1/GPa) = 0.01220500
#
# Stress axis : x y z
#
# Youngs Moduli (GPa) = 91.32892 109.36021 103.86882
#
# Poissons Ratio (x) = 0.50796 0.28878
# Poissons Ratio (y) = 0.42421 0.13845
# Poissons Ratio (z) = 0.25392 0.14577
#
# Static dielectric constant tensor:
#      x y z
#    x 2.163050 0.000000 0.000000 
#    y 0.000000 2.037080 0.000000 
#    z 0.000000 0.000000 2.185720 
# 
# From -- ./inp_files/5098.got.cif
#   From: 2010.05.17/outbox.cif.g08.bks.cpg/sg20_3_cif.got.tgz:5098.got - 2010.06.03 22:52:26.
