data_PCOD9321754
_publ_section_title
;
Structure prediction by ZEFSAII (Michael W. Deem and Ramdas Pophale) SiO2 
 PCOD9321754
Probable space group: C 2 2 21
;
_chemical_formula_sum "Si O2"
_cell_formula_units_Z 32
_cell_length_a 5.026232
_cell_length_b 10.780856
_cell_length_c 20.948137
_cell_angle_alpha 90.000000
_cell_angle_beta 90.000000
_cell_angle_gamma 90.000000
_cell_volume 1135.118447
_symmetry_space_group_name_H-M "C 2 2 21"
_symmetry_group_IT_number 20
_symmetry_cell_setting 'orthorhombic'
loop_
_space_group_symop_operation_xyz
x,y,z
-x,-y,1/2+z
x,-y,-z
-x,y,1/2-z
1/2+x,1/2+y,z
1/2-x,1/2-y,1/2+z
1/2+x,1/2-y,-z
1/2-x,1/2+y,1/2-z
loop_
_atom_site_type_symbol
_atom_site_label
_atom_site_fract_x
_atom_site_fract_y
_atom_site_fract_z
Si Si1 0.308419 0.574395 0.308623
Si Si2 0.155606 0.266016 0.953582
Si Si3 0.872528 0.998950 0.070368
Si Si4 0.970397 0.340865 0.345890
O O1 0.500000 0.535668 0.250000
O O2 0.441254 0.557574 0.377237
O O3 0.069604 0.471156 0.312894
O O4 0.323991 0.728211 0.306040
O O5 0.123308 0.409874 0.936435
O O6 0.273711 0.204016 0.888299
O O7 0.409561 0.258971 0.000461
O O8 0.752194 0.878551 0.102863
O O9 0.999943 0.000000 0.000000
#
# Coordination Sequence:
#
# PCOD9321754 Si02
#       4
#     8   8   8   8
#     4  11  29  51  78 115 162 223 284 350 432 524
#     4  11  24  44  76 118 167 215 274 354 441 517
#     4  11  24  44  80 116 160 211 278 358 429 514
#     4  11  27  47  80 112 160 215 282 352 433 518
#
# _framework density 28.190891000000001
#
# number of rings (size 3 to 8) (size 9 to 14) (size 15 to 20)
#    0.000    1.000    2.500    1.500   10.500    3.000 
#    0.000    0.000    0.000    0.000    0.000    0.000 
#    0.000    0.000    0.000    0.000    0.000    0.000 
#
# Total GULP energy -89085.631936 kJ/mol
# GULP energy per Si atom -5567.851996 kJ/mol
# Density = 2.812673 g / cm^3
# Si number density = 28.190891 Si / 1000 Ang^3
#
#
#
# Elastic Constant Matrix: (Units=GPa)
#
#
# Indices 1 2 3 4 5 6 
#
# 1 109.3900 10.4846 28.0250 0.0000 0.0000 0.0000
# 2 10.4846 142.7150 2.9142 0.0000 0.0000 0.0000
# 3 28.0250 2.9142 157.1763 0.0000 0.0000 0.0000
# 4 0.0000 0.0000 0.0000 21.3740 0.0000 0.0000
# 5 0.0000 0.0000 0.0000 0.0000 37.8140 0.0000
# 6 0.0000 0.0000 0.0000 0.0000 0.0000 -31.6288
#
#
#
# Elastic Compliance Matrix: (Units=1/GPa)
#
#
# Indices 1 2 3 4 5 6 
#
# 1 0.009643 -0.000674 -0.001707 0.000000 0.000000 0.000000
# 2 -0.000674 0.007057 -0.000011 0.000000 0.000000 0.000000
# 3 -0.001707 -0.000011 0.006667 0.000000 0.000000 0.000000
# 4 0.000000 0.000000 0.000000 0.046786 0.000000 0.000000
# 5 0.000000 0.000000 0.000000 0.000000 0.026445 0.000000
# 6 0.000000 0.000000 0.000000 0.000000 0.000000 -0.031617
#
#
# Mechanical properties :
#
#
# Convention : Reuss Voigt Hill
#
# Bulk Modulus (GPa) = 53.80862 54.68098 54.24480
# Shear Modulus (GPa) = 65.82532 30.03569 47.93050
#
# Velocity S-wave (km/s) = 4.83741 3.26765 4.12784
# Velocity P-wave (km/s) = 7.09432 5.80306 6.48093
#
# Compressibility (1/GPa) = 0.01858438
#
# Stress axis : x y z
#
# Youngs Moduli (GPa) = 103.69698 141.70971 149.99616
#
# Poissons Ratio (x) = 0.09546 0.25604
# Poissons Ratio (y) = 0.06985 0.00161
# Poissons Ratio (z) = 0.17701 0.00152
#
# Static dielectric constant tensor:
#      x y z
#    x 2.324690 0.000000 0.000000 
#    y 0.000000 2.634370 0.000000 
#    z 0.000000 0.000000 2.162400 
# 
# From -- ./inp_files/25849.got.cif
#   From: 2010.05.17/outbox.cif.g08.bks.cpg/sg20_13_cif.got.tgz:25849.got - 2010.06.03 22:52:26.
