data_PCOD9321407
_publ_section_title
;
Structure prediction by ZEFSAII (Michael W. Deem and Ramdas Pophale) SiO2 
 PCOD9321407
Probable space group: C 2 2 21
;
_chemical_formula_sum "Si O2"
_cell_formula_units_Z 48
_cell_length_a 30.357157
_cell_length_b 8.163675
_cell_length_c 8.014049
_cell_angle_alpha 90.000000
_cell_angle_beta 90.000000
_cell_angle_gamma 90.000000
_cell_volume 1986.089416
_symmetry_space_group_name_H-M "C 2 2 21"
_symmetry_group_IT_number 20
_symmetry_cell_setting 'orthorhombic'
loop_
_space_group_symop_operation_xyz
x,y,z
-x,-y,1/2+z
x,-y,-z
-x,y,1/2-z
1/2+x,1/2+y,z
1/2-x,1/2-y,1/2+z
1/2+x,1/2-y,-z
1/2-x,1/2+y,1/2-z
loop_
_atom_site_type_symbol
_atom_site_label
_atom_site_fract_x
_atom_site_fract_y
_atom_site_fract_z
Si Si1 0.888201 0.322794 0.417182
Si Si2 0.730465 0.176012 0.413820
Si Si3 0.525220 0.692268 0.970952
Si Si4 0.654344 0.694313 0.761018
Si Si5 0.183083 0.180302 0.279525
Si Si6 0.433846 0.677233 0.905690
O O1 0.885819 0.500000 0.500000
O O2 0.938956 0.271084 0.407145
O O3 0.865821 0.206561 0.555308
O O4 0.859226 0.294301 0.253836
O O5 0.696236 0.187912 0.260816
O O6 0.778802 0.221950 0.353985
O O7 0.707350 0.293188 0.546515
O O8 0.732401 0.000000 0.500000
O O9 0.475831 0.762387 0.994483
O O10 0.546191 0.689282 0.784153
O O11 0.520508 0.500000 0.000000
O O12 0.668557 0.507033 0.736604
O O13 0.615590 0.738414 0.628956
O O14 0.428544 0.500000 0.000000
#
# Coordination Sequence:
#
# PCOD9321407 Si02
#       6
#     8   8   8   8   8   8
#     4  11  22  38  60  88 121 158 203 258 318 373
#     4  12  25  40  60  90 123 156 202 258 312 363
#     4   9  18  33  58  86 116 152 198 250 305 373
#     4  11  23  41  63  87 121 165 211 255 308 376
#     4  12  24  41  64  88 121 165 210 252 308 378
#     4   9  17  33  58  87 115 152 201 252 301 364
#
# _framework density 24.168094
#
# number of rings (size 3 to 8) (size 9 to 14) (size 15 to 20)
#    0.000    1.333    0.000    8.000    0.000    1.333 
#    0.000    0.833    0.000   30.000    0.000    0.000 
#    0.000    0.000    0.000    0.000    0.000    0.000 
#
# Total GULP energy -134051.764284 kJ/mol
# GULP energy per Si atom -5585.490178 kJ/mol
# Density = 2.411309 g / cm^3
# Si number density = 24.168094 Si / 1000 Ang^3
#
#
#
# Elastic Constant Matrix: (Units=GPa)
#
#
# Indices 1 2 3 4 5 6 
#
# 1 185.3231 -1.2543 28.4210 0.0000 0.0000 0.0000
# 2 -1.2543 41.1613 -4.7068 0.0000 0.0000 0.0000
# 3 28.4210 -4.7068 65.7802 0.0000 0.0000 0.0000
# 4 0.0000 0.0000 0.0000 27.4527 0.0000 0.0000
# 5 0.0000 0.0000 0.0000 0.0000 139.7835 0.0000
# 6 0.0000 0.0000 0.0000 0.0000 0.0000 36.7160
#
#
#
# Elastic Compliance Matrix: (Units=1/GPa)
#
#
# Indices 1 2 3 4 5 6 
#
# 1 0.005779 -0.000110 -0.002505 0.000000 0.000000 0.000000
# 2 -0.000110 0.024497 0.001801 0.000000 0.000000 0.000000
# 3 -0.002505 0.001801 0.016413 0.000000 0.000000 0.000000
# 4 0.000000 0.000000 0.000000 0.036426 0.000000 0.000000
# 5 0.000000 0.000000 0.000000 0.000000 0.007154 0.000000
# 6 0.000000 0.000000 0.000000 0.000000 0.000000 0.027236
#
#
# Mechanical properties :
#
#
# Convention : Reuss Voigt Hill
#
# Bulk Modulus (GPa) = 22.19245 37.46493 29.82869
# Shear Modulus (GPa) = 37.27011 58.77741 48.02376
#
# Velocity S-wave (km/s) = 3.93124 4.93691 4.46250
# Velocity P-wave (km/s) = 5.45974 6.93057 6.23865
#
# Compressibility (1/GPa) = 0.04506036
#
# Stress axis : x y z
#
# Youngs Moduli (GPa) = 173.02862 40.82099 60.92633
#
# Poissons Ratio (x) = 0.00450 0.15262
# Poissons Ratio (y) = 0.01909 -0.10970
# Poissons Ratio (z) = 0.43343 -0.07350
#
# Static dielectric constant tensor:
#      x y z
#    x 1.973630 0.000000 0.000000 
#    y 0.000000 1.789700 0.000000 
#    z 0.000000 0.000000 1.605570 
# 
# From -- ./inp_files/11455.got.cif
#   From: 2010.05.17/outbox.cif.g08.bks.cpg/sg20_6_cif.got.tgz:11455.got - 2010.06.03 22:52:26.
