data_PCOD9322480
_publ_section_title
;
Structure prediction by ZEFSAII (Michael W. Deem and Ramdas Pophale) SiO2 
 PCOD9322480
Probable space group: C 2 2 2
;
_chemical_formula_sum "Si O2"
_cell_formula_units_Z 52
_cell_length_a 32.648518
_cell_length_b 20.632275
_cell_length_c 5.561861
_cell_angle_alpha 90.000000
_cell_angle_beta 90.000000
_cell_angle_gamma 90.000000
_cell_volume 3746.542996
_symmetry_space_group_name_H-M "C 2 2 2"
_symmetry_group_IT_number 21
_symmetry_cell_setting 'orthorhombic'
loop_
_space_group_symop_operation_xyz
x,y,z
-x,-y,z
x,-y,-z
-x,y,-z
1/2+x,1/2+y,z
1/2-x,1/2-y,z
1/2+x,1/2-y,-z
1/2-x,1/2+y,-z
loop_
_atom_site_type_symbol
_atom_site_label
_atom_site_fract_x
_atom_site_fract_y
_atom_site_fract_z
Si Si1 0.811941 0.500000 0.500000
Si Si2 0.300132 0.747620 0.349203
Si Si3 0.288704 0.300759 0.155231
Si Si4 0.952754 0.578457 0.508044
Si Si5 0.171815 0.386161 0.800109
Si Si6 0.746623 0.064660 0.890962
Si Si7 0.091775 0.421250 0.010134
O O1 0.839130 0.554327 0.625585
O O2 0.782292 0.460932 0.678370
O O3 0.250000 0.750000 0.356466
O O4 0.312643 0.717320 0.603163
O O5 0.319714 0.818422 0.324813
O O6 0.309858 0.709754 0.102599
O O7 0.250000 0.250000 0.147786
O O8 0.273794 0.374532 0.180124
O O9 0.952968 0.500000 0.500000
O O10 0.932163 0.597315 0.763232
O O11 0.000000 0.600195 0.500000
O O12 0.930135 0.597370 0.259749
O O13 0.136206 0.387616 0.995755
O O14 0.215082 0.407120 0.913007
O O15 0.767303 0.000000 0.000000
O O16 0.096038 0.500000 0.000000
#
# Coordination Sequence:
#
# PCOD9322480 Si02
#       7
#     4   8   8   8   8   8   8
#     4  10  20  28  42  54  89 104 126 172 228 276
#     4  10  19  31  46  56  77 109 143 166 202 271
#     4  10  18  31  45  57  74 106 140 167 205 268
#     4   9  18  32  46  59  78 107 137 165 206 270
#     4  11  21  30  42  64  84 110 137 176 228 272
#     4  10  20  30  42  62  80 106 137 180 226 271
#     4  10  20  29  44  63  84 104 133 174 223 266
#
# _framework density 13.879462
#
# number of rings (size 3 to 8) (size 9 to 14) (size 15 to 20)
#    0.000    2.000    3.077    3.692    7.538    1.846 
#    0.000    0.000    0.000    0.000    0.000    0.000 
#    0.000    0.000    0.000    0.000    0.000    0.000 
#
# Total GULP energy -144819.484561 kJ/mol
# GULP energy per Si atom -5569.980175 kJ/mol
# Density = 1.384787 g / cm^3
# Si number density = 13.879462 Si / 1000 Ang^3
#
#
#
# Elastic Constant Matrix: (Units=GPa)
#
#
# Indices 1 2 3 4 5 6 
#
# 1 30.3065 20.9859 13.5629 0.0000 0.0000 0.0000
# 2 20.9859 70.5568 24.7714 0.0000 0.0000 0.0000
# 3 13.5629 24.7714 95.6800 0.0000 0.0000 0.0000
# 4 0.0000 0.0000 0.0000 29.6222 0.0000 0.0000
# 5 0.0000 0.0000 0.0000 0.0000 19.2056 0.0000
# 6 0.0000 0.0000 0.0000 0.0000 0.0000 1.7515
#
#
#
# Elastic Compliance Matrix: (Units=1/GPa)
#
#
# Indices 1 2 3 4 5 6 
#
# 1 0.042331 -0.011532 -0.003015 0.000000 0.000000 0.000000
# 2 -0.011532 0.018732 -0.003215 0.000000 0.000000 0.000000
# 3 -0.003015 -0.003215 0.011711 0.000000 0.000000 0.000000
# 4 0.000000 0.000000 0.000000 0.033758 0.000000 0.000000
# 5 0.000000 0.000000 0.000000 0.000000 0.052068 0.000000
# 6 0.000000 0.000000 0.000000 0.000000 0.000000 0.570940
#
#
# Mechanical properties :
#
#
# Convention : Reuss Voigt Hill
#
# Bulk Modulus (GPa) = 26.84562 35.02042 30.93302
# Shear Modulus (GPa) = 6.43103 19.26408 12.84755
#
# Velocity S-wave (km/s) = 2.15489 3.72957 3.04575
# Velocity P-wave (km/s) = 5.05721 6.62064 5.89102
#
# Compressibility (1/GPa) = 0.03725003
#
# Stress axis : x y z
#
# Youngs Moduli (GPa) = 23.62339 53.38543 85.38828
#
# Poissons Ratio (x) = 0.61565 0.25743
# Poissons Ratio (y) = 0.27243 0.27452
# Poissons Ratio (z) = 0.07122 0.17163
#
# Static dielectric constant tensor:
#      x y z
#    x 1.440860 0.000000 0.000000 
#    y 0.000000 1.458300 0.000000 
#    z 0.000000 0.000000 1.547700 
# 
# From -- ./inp_files/8082.got.cif
#   From: 2010.05.17/outbox.cif.g08.bks.cpg/sg21_5_cif.got.tgz:8082.got - 2010.06.03 23:14:55.
