data_PCOD9322581
_publ_section_title
;
Structure prediction by ZEFSAII (Michael W. Deem and Ramdas Pophale) SiO2 
 PCOD9322581
Probable space group: C 2 2 2
;
_chemical_formula_sum "Si O2"
_cell_formula_units_Z 48
_cell_length_a 16.538850
_cell_length_b 16.797137
_cell_length_c 8.084571
_cell_angle_alpha 90.000000
_cell_angle_beta 90.000000
_cell_angle_gamma 90.000000
_cell_volume 2245.936909
_symmetry_space_group_name_H-M "C 2 2 2"
_symmetry_group_IT_number 21
_symmetry_cell_setting 'orthorhombic'
loop_
_space_group_symop_operation_xyz
x,y,z
-x,-y,z
x,-y,-z
-x,y,-z
1/2+x,1/2+y,z
1/2-x,1/2-y,z
1/2+x,1/2-y,-z
1/2-x,1/2+y,-z
loop_
_atom_site_type_symbol
_atom_site_label
_atom_site_fract_x
_atom_site_fract_y
_atom_site_fract_z
Si Si1 0.652298 0.393968 0.796451
Si Si2 0.000000 0.123466 0.000000
Si Si3 0.678750 0.692826 0.517052
Si Si4 0.591422 0.759058 0.809352
Si Si5 0.500000 0.117318 0.000000
Si Si6 0.759970 0.537151 0.674844
Si Si7 0.250000 0.750000 0.970798
Si Si8 0.862525 0.500000 0.000000
O O1 0.574855 0.415562 0.905704
O O2 0.629817 0.346107 0.631371
O O3 0.692516 0.474377 0.733090
O O4 0.716833 0.331778 0.881550
O O5 0.045942 0.180141 0.869917
O O6 0.750000 0.750000 0.452853
O O7 0.621424 0.747010 0.626414
O O8 0.720753 0.622532 0.627246
O O9 0.530760 0.829120 0.850063
O O10 0.671874 0.771302 0.919825
O O11 0.424246 0.067073 0.061918
O O12 0.793647 0.500000 0.500000
O O13 0.815679 0.534705 0.839631
#
# Coordination Sequence:
#
# PCOD9322581 Si02
#       8
#     8   4   8   8   4   8   4   4
#     4  10  21  40  61  93 133 168 217 272 329 382
#     4   9  22  37  58  89 127 166 212 264 321 394
#     4  11  21  38  65  98 127 170 217 272 327 383
#     4  10  20  36  60  90 129 161 217 264 312 387
#     4  10  22  39  59 102 134 168 224 270 326 415
#     4  10  24  41  66 103 127 167 235 277 313 402
#     4  10  18  34  64  90 124 176 218 266 302 400
#     4  11  22  40  72  87 132 186 208 273 358 370
#
# _framework density 21.371926999999999
#
# number of rings (size 3 to 8) (size 9 to 14) (size 15 to 20)
#    0.000    1.833    1.667    2.000    4.667    0.667 
#    0.000    4.167   11.000    3.000    0.000    0.000 
#    0.000    0.000    0.000    0.000    0.000    0.000 
#
# Total GULP energy -133862.474391 kJ/mol
# GULP energy per Si atom -5577.603100 kJ/mol
# Density = 2.132328 g / cm^3
# Si number density = 21.371927 Si / 1000 Ang^3
#
#
#
# Elastic Constant Matrix: (Units=GPa)
#
#
# Indices 1 2 3 4 5 6 
#
# 1 81.7318 29.1473 56.8431 0.0000 0.0000 0.0000
# 2 29.1473 89.4963 34.0645 0.0000 0.0000 0.0000
# 3 56.8431 34.0645 92.6608 0.0000 0.0000 0.0000
# 4 0.0000 0.0000 0.0000 140.3408 0.0000 0.0000
# 5 0.0000 0.0000 0.0000 0.0000 16.2063 0.0000
# 6 0.0000 0.0000 0.0000 0.0000 0.0000 18.2724
#
#
#
# Elastic Compliance Matrix: (Units=1/GPa)
#
#
# Indices 1 2 3 4 5 6 
#
# 1 0.021750 -0.002331 -0.012486 0.000000 0.000000 0.000000
# 2 -0.002331 0.013241 -0.003438 0.000000 0.000000 0.000000
# 3 -0.012486 -0.003438 0.019715 0.000000 0.000000 0.000000
# 4 0.000000 0.000000 0.000000 0.007126 0.000000 0.000000
# 5 0.000000 0.000000 0.000000 0.000000 0.061704 0.000000
# 6 0.000000 0.000000 0.000000 0.000000 0.000000 0.054727
#
#
# Mechanical properties :
#
#
# Convention : Reuss Voigt Hill
#
# Bulk Modulus (GPa) = 54.95297 55.99986 55.47641
# Shear Modulus (GPa) = 22.64092 44.55283 33.59687
#
# Velocity S-wave (km/s) = 3.25834 4.57074 3.96916
# Velocity P-wave (km/s) = 6.31856 7.35629 6.85708
#
# Compressibility (1/GPa) = 0.01819738
#
# Stress axis : x y z
#
# Youngs Moduli (GPa) = 45.97692 75.52077 50.72229
#
# Poissons Ratio (x) = 0.17606 0.63330
# Poissons Ratio (y) = 0.10718 0.17437
# Poissons Ratio (z) = 0.57405 0.25962
#
# Static dielectric constant tensor:
#      x y z
#    x 1.711160 0.000000 0.000000 
#    y 0.000000 1.818400 0.000000 
#    z 0.000000 0.000000 1.794310 
# 
# From -- ./inp_files/15061.got.cif
#   From: 2010.05.17/outbox.cif.g08.bks.cpg/sg21_8_cif.got.tgz:15061.got - 2010.06.03 23:14:55.
