data_PCOD9322011
_publ_section_title
;
Structure prediction by ZEFSAII (Michael W. Deem and Ramdas Pophale) SiO2 
 PCOD9322011
Probable space group: C 2 2 21
;
_chemical_formula_sum "Si O2"
_cell_formula_units_Z 28
_cell_length_a 4.943226
_cell_length_b 21.376193
_cell_length_c 10.613600
_cell_angle_alpha 90.000000
_cell_angle_beta 90.000000
_cell_angle_gamma 90.000000
_cell_volume 1121.511018
_symmetry_space_group_name_H-M "C 2 2 21"
_symmetry_group_IT_number 20
_symmetry_cell_setting 'orthorhombic'
loop_
_space_group_symop_operation_xyz
x,y,z
-x,-y,1/2+z
x,-y,-z
-x,y,1/2-z
1/2+x,1/2+y,z
1/2-x,1/2-y,1/2+z
1/2+x,1/2-y,-z
1/2-x,1/2+y,1/2-z
loop_
_atom_site_type_symbol
_atom_site_label
_atom_site_fract_x
_atom_site_fract_y
_atom_site_fract_z
Si Si1 0.355481 0.071478 0.508917
Si Si2 0.857310 0.886703 0.629513
Si Si3 0.000000 0.647262 0.750000
Si Si4 0.703048 0.749290 0.592323
O O1 0.588605 0.077552 0.405851
O O2 0.506054 0.099653 0.631657
O O3 0.088371 0.111649 0.477767
O O4 0.263877 0.000000 0.500000
O O5 0.766802 0.815995 0.654500
O O6 0.000000 0.915255 0.750000
O O7 0.776098 0.695958 0.694236
O O8 0.410774 0.753729 0.526928
#
# Coordination Sequence:
#
# PCOD9322011 Si02
#       4
#     8   8   4   8
#     4  12  29  49  71 108 149 198 252 290 365 443
#     4  12  25  47  73 104 147 192 240 307 363 429
#     4  12  26  46  80 104 154 192 244 306 380 424
#     4  12  24  44  68 109 145 177 240 298 364 435
#
# _framework density 24.966317
#
# number of rings (size 3 to 8) (size 9 to 14) (size 15 to 20)
#    0.000    0.000    7.143    1.714    4.000    4.571 
#    0.000    0.000    0.000    0.000    0.000    0.000 
#    0.000    0.000    0.000    0.000    0.000    0.000 
#
# Total GULP energy -78286.495044 kJ/mol
# GULP energy per Si atom -5591.892503 kJ/mol
# Density = 2.490949 g / cm^3
# Si number density = 24.966317 Si / 1000 Ang^3
#
#
#
# Elastic Constant Matrix: (Units=GPa)
#
#
# Indices 1 2 3 4 5 6 
#
# 1 101.9298 8.3797 22.2701 0.0000 0.0000 0.0000
# 2 8.3797 103.4839 29.4688 0.0000 0.0000 0.0000
# 3 22.2701 29.4688 81.9174 0.0000 0.0000 0.0000
# 4 0.0000 0.0000 0.0000 24.6789 0.0000 0.0000
# 5 0.0000 0.0000 0.0000 0.0000 41.5393 0.0000
# 6 0.0000 0.0000 0.0000 0.0000 0.0000 51.6431
#
#
#
# Elastic Compliance Matrix: (Units=1/GPa)
#
#
# Indices 1 2 3 4 5 6 
#
# 1 0.010430 -0.000041 -0.002821 0.000000 0.000000 0.000000
# 2 -0.000041 0.010766 -0.003862 0.000000 0.000000 0.000000
# 3 -0.002821 -0.003862 0.014364 0.000000 0.000000 0.000000
# 4 0.000000 0.000000 0.000000 0.040520 0.000000 0.000000
# 5 0.000000 0.000000 0.000000 0.000000 0.024074 0.000000
# 6 0.000000 0.000000 0.000000 0.000000 0.000000 0.019364
#
#
# Mechanical properties :
#
#
# Convention : Reuss Voigt Hill
#
# Bulk Modulus (GPa) = 45.22344 45.28538 45.25441
# Shear Modulus (GPa) = 35.62862 38.71976 37.17419
#
# Velocity S-wave (km/s) = 3.78175 3.94239 3.86291
# Velocity P-wave (km/s) = 6.10098 6.23709 6.16941
#
# Compressibility (1/GPa) = 0.02211243
#
# Stress axis : x y z
#
# Youngs Moduli (GPa) = 95.87401 92.88145 69.62088
#
# Poissons Ratio (x) = 0.00384 0.19638
# Poissons Ratio (y) = 0.00397 0.26886
# Poissons Ratio (z) = 0.27043 0.35869
#
# Static dielectric constant tensor:
#      x y z
#    x 1.998670 0.000000 0.000000 
#    y 0.000000 1.945580 0.000000 
#    z 0.000000 0.000000 2.040070 
# 
# From -- ./inp_files/11850.got.cif
#   From: 2010.05.17/outbox.cif.g08.bks.cpg/sg20_6_cif.got.tgz:11850.got - 2010.06.03 22:52:26.
