data_PCOD9322028
_publ_section_title
;
Structure prediction by ZEFSAII (Michael W. Deem and Ramdas Pophale) SiO2 
 PCOD9322028
Probable space group: C 2 2 21
;
_chemical_formula_sum "Si O2"
_cell_formula_units_Z 48
_cell_length_a 5.030094
_cell_length_b 14.256890
_cell_length_c 25.412403
_cell_angle_alpha 90.000000
_cell_angle_beta 90.000000
_cell_angle_gamma 90.000000
_cell_volume 1822.412282
_symmetry_space_group_name_H-M "C 2 2 21"
_symmetry_group_IT_number 20
_symmetry_cell_setting 'orthorhombic'
loop_
_space_group_symop_operation_xyz
x,y,z
-x,-y,1/2+z
x,-y,-z
-x,y,1/2-z
1/2+x,1/2+y,z
1/2-x,1/2-y,1/2+z
1/2+x,1/2-y,-z
1/2-x,1/2+y,1/2-z
loop_
_atom_site_type_symbol
_atom_site_label
_atom_site_fract_x
_atom_site_fract_y
_atom_site_fract_z
Si Si1 0.360743 0.748200 0.659832
Si Si2 0.076879 0.000000 0.000000
Si Si3 0.325553 0.817780 0.992274
Si Si4 0.859542 0.930844 0.161019
Si Si5 0.500000 0.528287 0.250000
Si Si6 0.806489 0.589507 0.413051
Si Si7 0.000000 0.648169 0.250000
Si Si8 0.500000 0.158916 0.750000
O O1 0.508446 0.659508 0.634091
O O2 0.220820 0.819169 0.620357
O O3 0.580333 0.799009 0.696317
O O4 0.169883 0.714268 0.706777
O O5 0.247483 0.913169 0.024269
O O6 0.886970 0.945245 0.959319
O O7 0.423959 0.869810 0.938740
O O8 0.579024 0.754946 0.010283
O O9 0.698101 0.898907 0.212896
O O10 0.089655 0.983760 0.193706
O O11 0.693053 0.998675 0.124187
O O12 0.251250 0.589546 0.232977
#
# Coordination Sequence:
#
# PCOD9322028 Si02
#       8
#     8   4   8   8   4   8   4   4
#     4  12  27  45  79 123 172 233 286 353 434 528
#     4  12  30  60  90 128 172 234 294 392 446 540
#     4  12  29  60  94 124 173 231 289 380 456 523
#     4  12  27  45  80 125 171 234 286 351 432 532
#     4  12  24  46  76 114 170 224 271 355 405 509
#     4  12  31  53  86 132 166 228 299 366 452 529
#     4  12  24  46  76 110 172 224 283 341 421 493
#     4  12  24  52  72 122 186 228 280 356 426 520
#
# _framework density 26.338719000000001
#
# number of rings (size 3 to 8) (size 9 to 14) (size 15 to 20)
#    0.000    0.000    6.667    1.500    2.333    4.000 
#    3.000    0.000    0.000    0.000    0.000    0.000 
#    0.000    0.000    0.000    0.000    0.000    0.000 
#
# Total GULP energy -134086.096870 kJ/mol
# GULP energy per Si atom -5586.920703 kJ/mol
# Density = 2.627877 g / cm^3
# Si number density = 26.338719 Si / 1000 Ang^3
#
#
#
# Elastic Constant Matrix: (Units=GPa)
#
#
# Indices 1 2 3 4 5 6 
#
# 1 98.6651 48.8584 35.1354 0.0000 0.0000 0.0000
# 2 48.8584 196.2647 62.5772 0.0000 0.0000 0.0000
# 3 35.1354 62.5772 120.6293 0.0000 0.0000 0.0000
# 4 0.0000 0.0000 0.0000 56.8227 0.0000 0.0000
# 5 0.0000 0.0000 0.0000 0.0000 21.5018 0.0000
# 6 0.0000 0.0000 0.0000 0.0000 0.0000 42.3627
#
#
#
# Elastic Compliance Matrix: (Units=1/GPa)
#
#
# Indices 1 2 3 4 5 6 
#
# 1 0.012091 -0.002261 -0.002349 0.000000 0.000000 0.000000
# 2 -0.002261 0.006528 -0.002728 0.000000 0.000000 0.000000
# 3 -0.002349 -0.002728 0.010389 0.000000 0.000000 0.000000
# 4 0.000000 0.000000 0.000000 0.017599 0.000000 0.000000
# 5 0.000000 0.000000 0.000000 0.000000 0.046508 0.000000
# 6 0.000000 0.000000 0.000000 0.000000 0.000000 0.023606
#
#
# Mechanical properties :
#
#
# Convention : Reuss Voigt Hill
#
# Bulk Modulus (GPa) = 69.77011 78.74457 74.25734
# Shear Modulus (GPa) = 36.71794 42.06999 39.39397
#
# Velocity S-wave (km/s) = 3.73777 4.00092 3.87158
# Velocity P-wave (km/s) = 6.72123 7.16275 6.94550
#
# Compressibility (1/GPa) = 0.01433278
#
# Stress axis : x y z
#
# Youngs Moduli (GPa) = 82.70309 153.19187 96.25538
#
# Poissons Ratio (x) = 0.34639 0.22609
# Poissons Ratio (y) = 0.18700 0.26256
# Poissons Ratio (z) = 0.19426 0.41786
#
# Static dielectric constant tensor:
#      x y z
#    x 2.205230 0.000000 0.000000 
#    y 0.000000 3.033700 0.000000 
#    z 0.000000 0.000000 2.043250 
# 
# From -- ./inp_files/30722.got.cif
#   From: 2010.05.17/outbox.cif.g08.bks.cpg/sg20_16_cif.got.tgz:30722.got - 2010.06.03 22:52:26.
