data_PCOD9322056
_publ_section_title
;
Structure prediction by ZEFSAII (Michael W. Deem and Ramdas Pophale) SiO2 
 PCOD9322056
Probable space group: C 2 2 21
;
_chemical_formula_sum "Si O2"
_cell_formula_units_Z 36
_cell_length_a 11.891249
_cell_length_b 20.776077
_cell_length_c 6.714009
_cell_angle_alpha 90.000000
_cell_angle_beta 90.000000
_cell_angle_gamma 90.000000
_cell_volume 1658.719455
_symmetry_space_group_name_H-M "C 2 2 21"
_symmetry_group_IT_number 20
_symmetry_cell_setting 'orthorhombic'
loop_
_space_group_symop_operation_xyz
x,y,z
-x,-y,1/2+z
x,-y,-z
-x,y,1/2-z
1/2+x,1/2+y,z
1/2-x,1/2-y,1/2+z
1/2+x,1/2-y,-z
1/2-x,1/2+y,1/2-z
loop_
_atom_site_type_symbol
_atom_site_label
_atom_site_fract_x
_atom_site_fract_y
_atom_site_fract_z
Si Si1 0.000000 0.605805 0.250000
Si Si2 0.093566 0.790332 0.896946
Si Si3 0.787800 0.326711 0.607515
Si Si4 0.267081 0.555183 0.835366
Si Si5 0.000000 0.879943 0.250000
Si Si6 0.601614 0.000000 0.500000
O O1 0.891578 0.649522 0.261975
O O2 0.978858 0.557410 0.068943
O O3 0.177533 0.826549 0.744917
O O4 0.000000 0.759060 0.750000
O O5 0.174133 0.740908 0.014086
O O6 0.028364 0.834385 0.058844
O O7 0.776279 0.378699 0.432823
O O8 0.391285 0.574757 0.765603
O O9 0.183645 0.527568 0.669410
O O10 0.275166 0.500000 0.000000
#
# Coordination Sequence:
#
# PCOD9322056 Si02
#       6
#     4   8   8   8   4   4
#     4  12  25  44  78 102 146 197 246 306 380 456
#     4  12  28  51  76 114 153 201 259 320 386 451
#     4  12  27  48  77 110 151 198 256 314 383 457
#     4  12  27  48  73 114 149 202 250 310 386 455
#     4  12  27  48  80 106 156 201 256 318 376 460
#     4  12  26  48  70 110 154 192 250 310 384 460
#
# _framework density 21.703488
#
# number of rings (size 3 to 8) (size 9 to 14) (size 15 to 20)
#    0.000    0.000    4.444    4.667    7.778    0.000 
#    0.000    0.000    0.000    0.000    0.000    0.000 
#    0.000    0.000    0.000    0.000    0.000    0.000 
#
# Total GULP energy -100683.758854 kJ/mol
# GULP energy per Si atom -5593.542159 kJ/mol
# Density = 2.165409 g / cm^3
# Si number density = 21.703488 Si / 1000 Ang^3
#
#
#
# Elastic Constant Matrix: (Units=GPa)
#
#
# Indices 1 2 3 4 5 6 
#
# 1 90.9921 12.8017 24.2948 0.0000 0.0000 0.0000
# 2 12.8017 66.2887 34.7022 0.0000 0.0000 0.0000
# 3 24.2948 34.7022 96.4972 0.0000 0.0000 0.0000
# 4 0.0000 0.0000 0.0000 -391.9849 0.0000 0.0000
# 5 0.0000 0.0000 0.0000 0.0000 33.8640 0.0000
# 6 0.0000 0.0000 0.0000 0.0000 0.0000 43.7330
#
#
#
# Elastic Compliance Matrix: (Units=1/GPa)
#
#
# Indices 1 2 3 4 5 6 
#
# 1 0.011825 -0.000893 -0.002656 0.000000 0.000000 0.000000
# 2 -0.000893 0.018652 -0.006483 0.000000 0.000000 0.000000
# 3 -0.002656 -0.006483 0.013363 0.000000 0.000000 0.000000
# 4 0.000000 0.000000 0.000000 -0.002551 0.000000 0.000000
# 5 0.000000 0.000000 0.000000 0.000000 0.029530 0.000000
# 6 0.000000 0.000000 0.000000 0.000000 0.000000 0.022866
#
#
# Mechanical properties :
#
#
# Convention : Reuss Voigt Hill
#
# Bulk Modulus (GPa) = 42.05934 44.15281 43.10608
# Shear Modulus (GPa) = 41.09380 -50.74562 -4.82591
#
# Velocity S-wave (km/s) = 4.35606 -4.84067 -1.49278
# Velocity P-wave (km/s) = 6.68742 3.29469 4.11501
#
# Compressibility (1/GPa) = 0.02377593
#
# Stress axis : x y z
#
# Youngs Moduli (GPa) = 84.56842 53.61448 74.83392
#
# Poissons Ratio (x) = 0.04789 0.19875
# Poissons Ratio (y) = 0.07554 0.48512
# Poissons Ratio (z) = 0.22460 0.34756
#
# Static dielectric constant tensor:
#      x y z
#    x 1.965140 0.000000 0.000000 
#    y 0.000000 1.772280 0.000000 
#    z 0.000000 0.000000 1.790760 
# 
# From -- ./inp_files/1274.got.cif
#   From: 2010.05.17/outbox.cif.g08.bks.cpg/sg20_1_cif.got.tgz:1274.got - 2010.06.03 22:52:26.
