data_PCOD9322751
_publ_section_title
;
Structure prediction by ZEFSAII (Michael W. Deem and Ramdas Pophale) SiO2 
 PCOD9322751
Probable space group: C 2 2 2
;
_chemical_formula_sum "Si O2"
_cell_formula_units_Z 48
_cell_length_a 5.195983
_cell_length_b 15.202774
_cell_length_c 29.349138
_cell_angle_alpha 90.000000
_cell_angle_beta 90.000000
_cell_angle_gamma 90.000000
_cell_volume 2318.386885
_symmetry_space_group_name_H-M "C 2 2 2"
_symmetry_group_IT_number 21
_symmetry_cell_setting 'orthorhombic'
loop_
_space_group_symop_operation_xyz
x,y,z
-x,-y,z
x,-y,-z
-x,y,-z
1/2+x,1/2+y,z
1/2-x,1/2-y,z
1/2+x,1/2-y,-z
1/2-x,1/2+y,-z
loop_
_atom_site_type_symbol
_atom_site_label
_atom_site_fract_x
_atom_site_fract_y
_atom_site_fract_z
Si Si1 0.501038 0.812001 0.304467
Si Si2 0.745533 0.355777 0.526863
Si Si3 0.002013 0.395152 0.106179
Si Si4 0.999266 0.891921 0.947470
Si Si5 0.261275 0.056610 0.378341
Si Si6 0.003404 0.310247 0.798035
O O1 0.250000 0.750000 0.316634
O O2 0.597801 0.889106 0.337804
O O3 0.459226 0.847691 0.253056
O O4 0.750000 0.750000 0.302908
O O5 0.500000 0.390224 0.500000
O O6 0.750000 0.250000 0.524471
O O7 0.704126 0.379917 0.579484
O O8 0.000000 0.386497 0.500000
O O9 0.250214 0.361523 0.079502
O O10 0.000000 0.500000 0.101054
O O11 0.747938 0.362124 0.080844
O O12 0.014150 0.374709 0.159493
O O13 0.000000 0.000000 0.947859
O O14 0.000000 0.863965 0.000000
O O15 0.500000 0.000000 0.396470
O O16 0.000000 0.000000 0.366912
O O17 0.250000 0.250000 0.806424
O O18 0.750000 0.250000 0.797860
#
# Coordination Sequence:
#
# PCOD9322751 Si02
#       6
#     8   8   8   8   8   8
#     4  10  22  42  64  84 114 160 204 236 283 362
#     4  10  22  40  62  86 117 163 209 241 281 353
#     4  10  19  32  54  81 106 138 181 231 280 327
#     4   9  17  30  50  77 107 140 181 225 271 330
#     4  12  25  39  61  94 126 154 191 252 315 349
#     4  10  21  38  59  81 109 148 188 230 283 343
#
# _framework density 20.704052000000001
#
# number of rings (size 3 to 8) (size 9 to 14) (size 15 to 20)
#    0.000    1.833    0.000    4.000    0.000    6.667 
#    0.000    2.500    0.000   10.000    0.000    0.000 
#    0.000    0.000    0.000    0.000    0.000    0.000 
#
# Total GULP energy -133892.353970 kJ/mol
# GULP energy per Si atom -5578.848082 kJ/mol
# Density = 2.065693 g / cm^3
# Si number density = 20.704052 Si / 1000 Ang^3
#
#
#
# Elastic Constant Matrix: (Units=GPa)
#
#
# Indices 1 2 3 4 5 6 
#
# 1 190.7413 32.1188 55.5877 0.0000 0.0000 0.0000
# 2 32.1188 36.9764 30.6401 0.0000 0.0000 0.0000
# 3 55.5877 30.6401 136.9062 0.0000 0.0000 0.0000
# 4 0.0000 0.0000 0.0000 31.9482 0.0000 0.0000
# 5 0.0000 0.0000 0.0000 0.0000 35.2373 0.0000
# 6 0.0000 0.0000 0.0000 0.0000 0.0000 0.4983
#
#
#
# Elastic Compliance Matrix: (Units=1/GPa)
#
#
# Indices 1 2 3 4 5 6 
#
# 1 0.006439 -0.004207 -0.001673 0.000000 0.000000 0.000000
# 2 -0.004207 0.035950 -0.006338 0.000000 0.000000 0.000000
# 3 -0.001673 -0.006338 0.009402 0.000000 0.000000 0.000000
# 4 0.000000 0.000000 0.000000 0.031301 0.000000 0.000000
# 5 0.000000 0.000000 0.000000 0.000000 0.028379 0.000000
# 6 0.000000 0.000000 0.000000 0.000000 0.000000 2.006727
#
#
# Mechanical properties :
#
#
# Convention : Reuss Voigt Hill
#
# Bulk Modulus (GPa) = 36.55482 66.81300 51.68391
# Shear Modulus (GPa) = 2.32369 29.95524 16.13947
#
# Velocity S-wave (km/s) = 1.06055 3.80785 2.79504
# Velocity P-wave (km/s) = 4.38108 7.18843 5.95262
#
# Compressibility (1/GPa) = 0.02735618
#
# Stress axis : x y z
#
# Youngs Moduli (GPa) = 155.31458 27.81644 106.36174
#
# Poissons Ratio (x) = 0.11701 0.17792
# Poissons Ratio (y) = 0.65334 0.67409
# Poissons Ratio (z) = 0.25981 0.17629
#
# Static dielectric constant tensor:
#      x y z
#    x 1.662170 0.000000 0.000000 
#    y 0.000000 1.789420 0.000000 
#    z 0.000000 0.000000 1.732580 
# 
# From -- ./inp_files/39059.got.cif
#   From: 2010.05.17/outbox.cif.g08.bks.cpg/sg21_20_cif.got.tgz:39059.got - 2010.06.03 23:14:55.
