data_PCOD9322019
_publ_section_title
;
Structure prediction by ZEFSAII (Michael W. Deem and Ramdas Pophale) SiO2 
 PCOD9322019
Probable space group: C 2 2 21
;
_chemical_formula_sum "Si O2"
_cell_formula_units_Z 28
_cell_length_a 21.902501
_cell_length_b 5.239528
_cell_length_c 9.508975
_cell_angle_alpha 90.000000
_cell_angle_beta 90.000000
_cell_angle_gamma 90.000000
_cell_volume 1091.238249
_symmetry_space_group_name_H-M "C 2 2 21"
_symmetry_group_IT_number 20
_symmetry_cell_setting 'orthorhombic'
loop_
_space_group_symop_operation_xyz
x,y,z
-x,-y,1/2+z
x,-y,-z
-x,y,1/2-z
1/2+x,1/2+y,z
1/2-x,1/2-y,1/2+z
1/2+x,1/2-y,-z
1/2-x,1/2+y,1/2-z
loop_
_atom_site_type_symbol
_atom_site_label
_atom_site_fract_x
_atom_site_fract_y
_atom_site_fract_z
Si Si1 0.057457 0.387537 0.655236
Si Si2 0.505660 0.500000 0.000000
Si Si3 0.268736 0.508758 0.336612
Si Si4 0.882410 0.683532 0.616920
O O1 0.061288 0.500000 0.500000
O O2 0.110774 0.504008 0.747314
O O3 0.000000 0.467514 0.750000
O O4 0.040085 0.094202 0.622230
O O5 0.553789 0.714887 0.050318
O O6 0.246348 0.500000 0.500000
O O7 0.256600 0.251154 0.250863
O O8 0.340774 0.576052 0.348001
O O9 0.852843 0.500000 0.500000
#
# Coordination Sequence:
#
# PCOD9322019 Si02
#       4
#     8   4   8   8
#     4  12  25  43  68 115 160 206 269 325 393 489
#     4  12  24  44  80 106 162 214 264 326 406 492
#     4  12  28  55  90 127 165 221 290 364 440 511
#     4  12  26  48  79 117 158 219 277 338 429 500
#
# _framework density 25.658926000000001
#
# number of rings (size 3 to 8) (size 9 to 14) (size 15 to 20)
#    0.000    0.000    7.143    2.571    4.000    1.143 
#    0.000    5.714    0.000    0.000    0.000    0.000 
#    0.000    0.000    0.000    0.000    0.000    0.000 
#
# Total GULP energy -78291.624979 kJ/mol
# GULP energy per Si atom -5592.258927 kJ/mol
# Density = 2.560052 g / cm^3
# Si number density = 25.658926 Si / 1000 Ang^3
#
#
#
# Elastic Constant Matrix: (Units=GPa)
#
#
# Indices 1 2 3 4 5 6 
#
# 1 53.8500 41.2139 38.3818 0.0000 0.0000 0.0000
# 2 41.2139 150.6446 79.3489 0.0000 0.0000 0.0000
# 3 38.3818 79.3489 234.1338 0.0000 0.0000 0.0000
# 4 0.0000 0.0000 0.0000 72.2751 0.0000 0.0000
# 5 0.0000 0.0000 0.0000 0.0000 35.0023 0.0000
# 6 0.0000 0.0000 0.0000 0.0000 0.0000 48.4405
#
#
#
# Elastic Compliance Matrix: (Units=1/GPa)
#
#
# Indices 1 2 3 4 5 6 
#
# 1 0.024314 -0.005542 -0.002108 0.000000 0.000000 0.000000
# 2 -0.005542 0.009344 -0.002258 0.000000 0.000000 0.000000
# 3 -0.002108 -0.002258 0.005382 0.000000 0.000000 0.000000
# 4 0.000000 0.000000 0.000000 0.013836 0.000000 0.000000
# 5 0.000000 0.000000 0.000000 0.000000 0.028570 0.000000
# 6 0.000000 0.000000 0.000000 0.000000 0.000000 0.020644
#
#
# Mechanical properties :
#
#
# Convention : Reuss Voigt Hill
#
# Bulk Modulus (GPa) = 52.01769 84.05752 68.03761
# Shear Modulus (GPa) = 38.96760 49.78916 44.37838
#
# Velocity S-wave (km/s) = 3.90125 4.40980 4.16330
# Velocity P-wave (km/s) = 6.37258 7.66545 7.04872
#
# Compressibility (1/GPa) = 0.01922423
#
# Stress axis : x y z
#
# Youngs Moduli (GPa) = 41.12918 107.02417 185.80882
#
# Poissons Ratio (x) = 0.59309 0.39163
# Poissons Ratio (y) = 0.22792 0.41959
# Poissons Ratio (z) = 0.08669 0.24168
#
# Static dielectric constant tensor:
#      x y z
#    x 2.075610 0.000000 0.000000 
#    y 0.000000 2.125710 0.000000 
#    z 0.000000 0.000000 2.000940 
# 
# From -- ./inp_files/10896.got.cif
#   From: 2010.05.17/outbox.cif.g08.bks.cpg/sg20_6_cif.got.tgz:10896.got - 2010.06.03 22:52:26.
