data_PCOD9322425
_publ_section_title
;
Structure prediction by ZEFSAII (Michael W. Deem and Ramdas Pophale) SiO2 
 PCOD9322425
Probable space group: C 2 2 2
;
_chemical_formula_sum "Si O2"
_cell_formula_units_Z 64
_cell_length_a 21.387943
_cell_length_b 28.424138
_cell_length_c 7.909483
_cell_angle_alpha 90.000000
_cell_angle_beta 90.000000
_cell_angle_gamma 90.000000
_cell_volume 4808.442399
_symmetry_space_group_name_H-M "C 2 2 2"
_symmetry_group_IT_number 21
_symmetry_cell_setting 'orthorhombic'
loop_
_space_group_symop_operation_xyz
x,y,z
-x,-y,z
x,-y,-z
-x,y,-z
1/2+x,1/2+y,z
1/2-x,1/2-y,z
1/2+x,1/2-y,-z
1/2-x,1/2+y,-z
loop_
_atom_site_type_symbol
_atom_site_label
_atom_site_fract_x
_atom_site_fract_y
_atom_site_fract_z
Si Si1 0.427918 0.731578 0.446791
Si Si2 0.843666 0.861563 0.560320
Si Si3 0.648929 0.230948 0.750000
Si Si4 0.427918 0.731578 0.053209
Si Si5 0.428353 0.554154 0.950446
Si Si6 0.230894 0.172860 0.250000
Si Si7 0.428353 0.445846 0.450446
Si Si8 0.156334 0.138437 0.939680
O O1 0.500000 0.727163 0.500000
O O2 0.393822 0.680870 0.460855
O O3 0.393075 0.765032 0.581513
O O4 0.423071 0.746257 0.250000
O O5 0.791894 0.854500 0.416450
O O6 0.881084 0.909906 0.537020
O O7 0.817921 0.857989 0.750000
O O8 0.696901 0.187696 0.750000
O O9 0.691580 0.278226 0.750000
O O10 0.606925 0.234968 0.918487
O O11 0.393822 0.680870 0.039145
O O12 0.500000 0.727163 0.000000
O O13 0.422281 0.559437 0.750000
O O14 0.416941 0.500000 0.000000
O O15 0.500000 0.565144 0.000000
O O16 0.381084 0.590094 0.037020
O O17 0.208106 0.145500 0.083550
O O18 0.416942 0.500000 0.500000
O O19 0.500000 0.434855 0.500000
#
# Coordination Sequence:
#
# PCOD9322425 Si02
#       8
#     8   8   8   8   8   8   8   8
#     4  10  18  27  43  63  84 109 138 176 214 251
#     4  10  19  30  44  61  81 110 147 179 211 250
#     4   9  18  30  44  60  84 105 141 175 211 252
#     4  10  18  27  43  63  84 109 138 176 214 251
#     4  11  20  30  42  60  84 110 143 183 223 253
#     4   9  18  32  44  59  80 112 139 178 211 246
#     4  11  20  30  42  60  84 110 143 183 223 253
#     4  10  19  30  44  61  81 110 147 179 211 250
#
# _framework density 13.309923
#
# number of rings (size 3 to 8) (size 9 to 14) (size 15 to 20)
#    0.000    2.000    2.500    3.750    0.000    3.000 
#    0.000    5.000    0.000    0.000    0.000    0.000 
#    0.000    0.000    0.000    0.000    0.000    3.750 
#
# Total GULP energy -178405.238365 kJ/mol
# GULP energy per Si atom -5575.163699 kJ/mol
# Density = 1.327963 g / cm^3
# Si number density = 13.309923 Si / 1000 Ang^3
#
#
#
# Elastic Constant Matrix: (Units=GPa)
#
#
# Indices 1 2 3 4 5 6 
#
# 1 48.5821 25.0717 44.0822 0.0000 0.0000 0.0000
# 2 25.0717 42.1359 27.4524 0.0000 0.0000 0.0000
# 3 44.0822 27.4524 125.8430 0.0000 0.0000 0.0000
# 4 0.0000 0.0000 0.0000 0.8927 0.0000 0.0000
# 5 0.0000 0.0000 0.0000 0.0000 13.7782 0.0000
# 6 0.0000 0.0000 0.0000 0.0000 0.0000 20.3487
#
#
#
# Elastic Compliance Matrix: (Units=1/GPa)
#
#
# Indices 1 2 3 4 5 6 
#
# 1 0.037690 -0.016115 -0.009687 0.000000 0.000000 0.000000
# 2 -0.016115 0.034555 -0.001893 0.000000 0.000000 0.000000
# 3 -0.009687 -0.001893 0.011753 0.000000 0.000000 0.000000
# 4 0.000000 0.000000 0.000000 1.120214 0.000000 0.000000
# 5 0.000000 0.000000 0.000000 0.000000 0.072578 0.000000
# 6 0.000000 0.000000 0.000000 0.000000 0.000000 0.049143
#
#
# Mechanical properties :
#
#
# Convention : Reuss Voigt Hill
#
# Bulk Modulus (GPa) = 34.95623 45.53038 40.24330
# Shear Modulus (GPa) = 3.59490 15.00091 9.29791
#
# Velocity S-wave (km/s) = 1.64523 3.36079 2.64591
# Velocity P-wave (km/s) = 5.47077 7.02439 6.29569
#
# Compressibility (1/GPa) = 0.02860721
#
# Stress axis : x y z
#
# Youngs Moduli (GPa) = 26.53228 28.93956 85.08647
#
# Poissons Ratio (x) = 0.46636 0.82425
# Poissons Ratio (y) = 0.42756 0.16108
# Poissons Ratio (z) = 0.25702 0.05479
#
# Static dielectric constant tensor:
#      x y z
#    x 1.413210 0.000000 0.000000 
#    y 0.000000 1.418550 0.000000 
#    z 0.000000 0.000000 1.465600 
# 
# From -- ./inp_files/16941.got.cif
#   From: 2010.05.17/outbox.cif.g08.bks.cpg/sg21_9_cif.got.tgz:16941.got - 2010.06.03 23:14:55.
