data_PCOD9322897
_publ_section_title
;
Structure prediction by ZEFSAII (Michael W. Deem and Ramdas Pophale) SiO2 
 PCOD9322897
Probable space group: C 2 2 2
;
_chemical_formula_sum "Si O2"
_cell_formula_units_Z 64
_cell_length_a 14.301107
_cell_length_b 11.108051
_cell_length_c 15.696595
_cell_angle_alpha 90.000000
_cell_angle_beta 90.000000
_cell_angle_gamma 90.000000
_cell_volume 2493.520677
_symmetry_space_group_name_H-M "C 2 2 2"
_symmetry_group_IT_number 21
_symmetry_cell_setting 'orthorhombic'
loop_
_space_group_symop_operation_xyz
x,y,z
-x,-y,z
x,-y,-z
-x,y,-z
1/2+x,1/2+y,z
1/2-x,1/2-y,z
1/2+x,1/2-y,-z
1/2-x,1/2+y,-z
loop_
_atom_site_type_symbol
_atom_site_label
_atom_site_fract_x
_atom_site_fract_y
_atom_site_fract_z
Si Si1 0.637035 0.122052 0.541908
Si Si2 0.109388 0.007274 0.137713
Si Si3 0.852318 0.114388 0.543269
Si Si4 0.788332 0.954149 0.692177
Si Si5 0.889939 0.715567 0.096917
Si Si6 0.388540 0.754680 0.082845
Si Si7 0.930532 0.614261 0.268461
Si Si8 0.376175 0.787939 0.277538
O O1 0.744458 0.123615 0.510951
O O2 0.602074 0.257384 0.525858
O O3 0.625991 0.116052 0.644034
O O4 0.597294 0.000000 0.500000
O O5 0.128560 0.143081 0.109752
O O6 0.181898 0.981875 0.212200
O O7 0.115615 0.891182 0.075643
O O8 0.000000 0.000000 0.167193
O O9 0.898106 0.000000 0.500000
O O10 0.828766 0.065463 0.638253
O O11 0.681969 0.902308 0.688169
O O12 0.843445 0.830246 0.673349
O O13 0.870948 0.642288 0.183667
O O14 0.002716 0.707175 0.088623
O O15 0.850005 0.684189 0.003295
O O16 0.350747 0.784814 0.176540
O O17 0.000000 0.500000 0.256072
O O18 0.012211 0.712968 0.281107
#
# Coordination Sequence:
#
# PCOD9322897 Si02
#       8
#     8   8   8   8   8   8   8   8
#     4  10  23  43  65  91 125 159 197 249 308 371
#     4   9  16  28  53  85 114 151 199 254 315 365
#     4  10  22  40  66  95 119 154 200 246 304 375
#     4  10  19  35  60  86 121 159 200 254 310 370
#     4   9  16  29  51  80 112 150 202 260 302 348
#     4   8  15  29  50  80 116 153 198 251 306 364
#     4  11  22  37  58  84 117 163 213 251 300 368
#     4   9  20  35  57  86 120 165 206 247 307 370
#
# _framework density 25.666519999999998
#
# number of rings (size 3 to 8) (size 9 to 14) (size 15 to 20)
#    0.000    2.500    0.000    2.625    0.000    6.750 
#    0.000    5.625    0.000   28.125    0.000    0.000 
#    0.000    0.000    0.000    0.000    0.000    0.000 
#
# Total GULP energy -178448.920077 kJ/mol
# GULP energy per Si atom -5576.528752 kJ/mol
# Density = 2.560810 g / cm^3
# Si number density = 25.666520 Si / 1000 Ang^3
#
#
#
# Elastic Constant Matrix: (Units=GPa)
#
#
# Indices 1 2 3 4 5 6 
#
# 1 84.2211 14.4949 14.0903 0.0000 0.0000 0.0000
# 2 14.4949 149.2704 49.7080 0.0000 0.0000 0.0000
# 3 14.0903 49.7080 134.6631 0.0000 0.0000 0.0000
# 4 0.0000 0.0000 0.0000 8.5116 0.0000 0.0000
# 5 0.0000 0.0000 0.0000 0.0000 15.7424 0.0000
# 6 0.0000 0.0000 0.0000 0.0000 0.0000 0.0330
#
#
#
# Elastic Compliance Matrix: (Units=1/GPa)
#
#
# Indices 1 2 3 4 5 6 
#
# 1 0.012182 -0.000865 -0.000955 0.000000 0.000000 0.000000
# 2 -0.000865 0.007700 -0.002752 0.000000 0.000000 0.000000
# 3 -0.000955 -0.002752 0.008542 0.000000 0.000000 0.000000
# 4 0.000000 0.000000 0.000000 0.117486 0.000000 0.000000
# 5 0.000000 0.000000 0.000000 0.000000 0.063523 0.000000
# 6 0.000000 0.000000 0.000000 0.000000 0.000000 30.276111
#
#
# Mechanical properties :
#
#
# Convention : Reuss Voigt Hill
#
# Bulk Modulus (GPa) = 51.86825 58.30455 55.08640
# Shear Modulus (GPa) = 0.16393 24.18151 12.17272
#
# Velocity S-wave (km/s) = 0.25300 3.07276 2.18012
# Velocity P-wave (km/s) = 4.50974 5.94598 5.27695
#
# Compressibility (1/GPa) = 0.01927962
#
# Stress axis : x y z
#
# Youngs Moduli (GPa) = 82.08706 129.87793 117.07385
#
# Poissons Ratio (x) = 0.11232 0.11186
# Poissons Ratio (y) = 0.07099 0.32214
# Poissons Ratio (z) = 0.07843 0.35738
#
# Static dielectric constant tensor:
#      x y z
#    x 2.084300 0.000000 0.000000 
#    y 0.000000 2.099920 0.000000 
#    z 0.000000 0.000000 2.090380 
# 
# From -- ./inp_files/32995.got.cif
#   From: 2010.05.17/outbox.cif.g08.bks.cpg/sg21_17_cif.got.tgz:32995.got - 2010.06.03 23:14:55.
