data_PCOD9322997
_publ_section_title
;
Structure prediction by ZEFSAII (Michael W. Deem and Ramdas Pophale) SiO2 
 PCOD9322997
Probable space group: C 2 2 2
;
_chemical_formula_sum "Si O2"
_cell_formula_units_Z 32
_cell_length_a 5.473380
_cell_length_b 28.062273
_cell_length_c 10.942749
_cell_angle_alpha 90.000000
_cell_angle_beta 90.000000
_cell_angle_gamma 90.000000
_cell_volume 1680.756827
_symmetry_space_group_name_H-M "C 2 2 2"
_symmetry_group_IT_number 21
_symmetry_cell_setting 'orthorhombic'
loop_
_space_group_symop_operation_xyz
x,y,z
-x,-y,z
x,-y,-z
-x,y,-z
1/2+x,1/2+y,z
1/2-x,1/2-y,z
1/2+x,1/2-y,-z
1/2-x,1/2+y,-z
loop_
_atom_site_type_symbol
_atom_site_label
_atom_site_fract_x
_atom_site_fract_y
_atom_site_fract_z
Si Si1 0.500000 0.908323 0.500000
Si Si2 0.392605 0.548811 0.361217
Si Si3 0.365031 0.643572 0.680109
Si Si4 0.500000 0.720054 0.500000
Si Si5 0.248013 0.306675 0.074117
O O1 0.388673 0.942719 0.395157
O O2 0.319672 0.873771 0.574044
O O3 0.500000 0.500000 0.308529
O O4 0.500000 0.550841 0.500000
O O5 0.479629 0.596135 0.293138
O O6 0.519154 0.685840 0.618257
O O7 0.245141 0.663879 0.800991
O O8 0.250000 0.750000 0.511245
O O9 0.250000 0.250000 0.101255
O O10 0.500000 0.316895 0.000000
O O11 0.000000 0.316682 0.000000
#
# Coordination Sequence:
#
# PCOD9322997 Si02
#       5
#     4   8   8   4   8
#     4  10  19  37  61  92 132 155 200 245 325 380
#     4   9  19  34  57  91 123 159 195 245 309 382
#     4  11  22  37  59  91 123 159 205 251 317 370
#     4  12  25  36  56  94 133 165 196 251 324 378
#     4  10  24  42  61  85 116 164 216 256 296 355
#
# _framework density 19.039042999999999
#
# number of rings (size 3 to 8) (size 9 to 14) (size 15 to 20)
#    0.000    1.750    3.750    1.500    3.500   11.000 
#    0.000    0.000    0.000    0.750    0.000    0.000 
#    0.000    0.000    0.000    0.000    0.000    0.000 
#
# Total GULP energy -89152.546677 kJ/mol
# GULP energy per Si atom -5572.034167 kJ/mol
# Density = 1.899571 g / cm^3
# Si number density = 19.039043 Si / 1000 Ang^3
#
#
#
# Elastic Constant Matrix: (Units=GPa)
#
#
# Indices 1 2 3 4 5 6 
#
# 1 95.6813 54.1175 28.5408 0.0000 0.0000 0.0000
# 2 54.1175 132.6332 54.6317 0.0000 0.0000 0.0000
# 3 28.5408 54.6317 69.7247 0.0000 0.0000 0.0000
# 4 0.0000 0.0000 0.0000 13.6280 0.0000 0.0000
# 5 0.0000 0.0000 0.0000 0.0000 21.7826 0.0000
# 6 0.0000 0.0000 0.0000 0.0000 0.0000 18.3306
#
#
#
# Elastic Compliance Matrix: (Units=1/GPa)
#
#
# Indices 1 2 3 4 5 6 
#
# 1 0.013741 -0.004858 -0.001819 0.000000 0.000000 0.000000
# 2 -0.004858 0.012850 -0.008080 0.000000 0.000000 0.000000
# 3 -0.001819 -0.008080 0.021417 0.000000 0.000000 0.000000
# 4 0.000000 0.000000 0.000000 0.073378 0.000000 0.000000
# 5 0.000000 0.000000 0.000000 0.000000 0.045908 0.000000
# 6 0.000000 0.000000 0.000000 0.000000 0.000000 0.054553
#
#
# Mechanical properties :
#
#
# Convention : Reuss Voigt Hill
#
# Bulk Modulus (GPa) = 54.06522 63.62435 58.84478
# Shear Modulus (GPa) = 19.41554 21.46488 20.44021
#
# Velocity S-wave (km/s) = 3.19686 3.36134 3.28013
# Velocity P-wave (km/s) = 6.48731 6.96816 6.73203
#
# Compressibility (1/GPa) = 0.01849618
#
# Stress axis : x y z
#
# Youngs Moduli (GPa) = 72.77297 77.82288 46.69118
#
# Poissons Ratio (x) = 0.37804 0.08492
# Poissons Ratio (y) = 0.35351 0.37725
# Poissons Ratio (z) = 0.13235 0.62879
#
# Static dielectric constant tensor:
#      x y z
#    x 1.869990 0.000000 0.000000 
#    y 0.000000 1.705760 0.000000 
#    z 0.000000 0.000000 1.634970 
# 
# From -- ./inp_files/9188.got.cif
#   From: 2010.05.17/outbox.cif.g08.bks.cpg/sg21_5_cif.got.tgz:9188.got - 2010.06.03 23:14:55.
