data_PCOD9322531
_publ_section_title
;
Structure prediction by ZEFSAII (Michael W. Deem and Ramdas Pophale) SiO2 
 PCOD9322531
Probable space group: C 2 2 2
;
_chemical_formula_sum "Si O2"
_cell_formula_units_Z 48
_cell_length_a 23.206192
_cell_length_b 9.151898
_cell_length_c 12.275152
_cell_angle_alpha 90.000000
_cell_angle_beta 90.000000
_cell_angle_gamma 90.000000
_cell_volume 2607.005401
_symmetry_space_group_name_H-M "C 2 2 2"
_symmetry_group_IT_number 21
_symmetry_cell_setting 'orthorhombic'
loop_
_space_group_symop_operation_xyz
x,y,z
-x,-y,z
x,-y,-z
-x,y,-z
1/2+x,1/2+y,z
1/2-x,1/2-y,z
1/2+x,1/2-y,-z
1/2-x,1/2+y,-z
loop_
_atom_site_type_symbol
_atom_site_label
_atom_site_fract_x
_atom_site_fract_y
_atom_site_fract_z
Si Si1 0.521635 0.852211 0.779360
Si Si2 0.883602 0.645035 0.604799
Si Si3 0.940748 0.066571 0.119575
Si Si4 0.637583 0.479083 0.316784
Si Si5 0.553162 0.279721 0.583542
Si Si6 0.743998 0.074667 0.386984
O O1 0.570575 0.900999 0.694233
O O2 0.547529 0.738430 0.865720
O O3 0.475773 0.776035 0.696135
O O4 0.500000 0.000000 0.833043
O O5 0.872713 0.818151 0.632038
O O6 0.911624 0.656693 0.484560
O O7 0.824544 0.557634 0.624020
O O8 0.888844 0.023291 0.196873
O O9 0.000000 0.000000 0.165838
O O10 0.933997 0.000000 0.000000
O O11 0.599393 0.594857 0.385001
O O12 0.706833 0.494054 0.310638
O O13 0.500000 0.321163 0.500000
O O14 0.750000 0.250000 0.389795
O O15 0.760331 0.000000 0.500000
#
# Coordination Sequence:
#
# PCOD9322531 Si02
#       6
#     8   8   8   8   8   8
#     4  10  21  34  53  86 115 150 182 224 296 349
#     4   9  20  30  50  78 120 159 185 218 271 334
#     4  10  20  37  59  82 105 135 189 254 304 341
#     4  10  18  33  52  79 105 146 198 239 281 322
#     4  10  19  30  53  83 121 153 195 229 273 339
#     4  10  20  34  49  77 116 158 197 228 268 333
#
# _framework density 18.411928
#
# number of rings (size 3 to 8) (size 9 to 14) (size 15 to 20)
#    0.000    2.167    1.667    2.500    2.333    5.667 
#    0.000    1.667    0.000    0.000    0.000   40.833 
#    0.000    0.000    0.000    0.000    0.000    0.000 
#
# Total GULP energy -133668.695230 kJ/mol
# GULP energy per Si atom -5569.528968 kJ/mol
# Density = 1.837002 g / cm^3
# Si number density = 18.411928 Si / 1000 Ang^3
#
#
#
# Elastic Constant Matrix: (Units=GPa)
#
#
# Indices 1 2 3 4 5 6 
#
# 1 146.7781 36.7958 42.4479 0.0000 0.0000 0.0000
# 2 36.7958 72.8552 45.8565 0.0000 0.0000 0.0000
# 3 42.4479 45.8565 85.9573 0.0000 0.0000 0.0000
# 4 0.0000 0.0000 0.0000 16.7361 0.0000 0.0000
# 5 0.0000 0.0000 0.0000 0.0000 15.4950 0.0000
# 6 0.0000 0.0000 0.0000 0.0000 0.0000 42.2589
#
#
#
# Elastic Compliance Matrix: (Units=1/GPa)
#
#
# Indices 1 2 3 4 5 6 
#
# 1 0.008218 -0.002403 -0.002776 0.000000 0.000000 0.000000
# 2 -0.002403 0.021367 -0.010212 0.000000 0.000000 0.000000
# 3 -0.002776 -0.010212 0.018453 0.000000 0.000000 0.000000
# 4 0.000000 0.000000 0.000000 0.059751 0.000000 0.000000
# 5 0.000000 0.000000 0.000000 0.000000 0.064537 0.000000
# 6 0.000000 0.000000 0.000000 0.000000 0.000000 0.023664
#
#
# Mechanical properties :
#
#
# Convention : Reuss Voigt Hill
#
# Bulk Modulus (GPa) = 57.95497 61.75455 59.85476
# Shear Modulus (GPa) = 21.50297 26.93068 24.21682
#
# Velocity S-wave (km/s) = 3.42114 3.82864 3.63061
# Velocity P-wave (km/s) = 6.86664 7.29095 7.08198
#
# Compressibility (1/GPa) = 0.01725477
#
# Stress axis : x y z
#
# Youngs Moduli (GPa) = 121.67831 46.80015 54.19227
#
# Poissons Ratio (x) = 0.11247 0.15046
# Poissons Ratio (y) = 0.29242 0.55343
# Poissons Ratio (z) = 0.33783 0.47794
#
# Static dielectric constant tensor:
#      x y z
#    x 1.705340 0.000000 0.000000 
#    y 0.000000 1.707550 0.000000 
#    z 0.000000 0.000000 1.585420 
# 
# From -- ./inp_files/22781.got.cif
#   From: 2010.05.17/outbox.cif.g08.bks.cpg/sg21_12_cif.got.tgz:22781.got - 2010.06.03 23:14:55.
