data_PCOD9322976
_publ_section_title
;
Structure prediction by ZEFSAII (Michael W. Deem and Ramdas Pophale) SiO2 
 PCOD9322976
Probable space group: C 2 2 2
;
_chemical_formula_sum "Si O2"
_cell_formula_units_Z 52
_cell_length_a 21.927780
_cell_length_b 8.574013
_cell_length_c 14.043433
_cell_angle_alpha 90.000000
_cell_angle_beta 90.000000
_cell_angle_gamma 90.000000
_cell_volume 2640.292789
_symmetry_space_group_name_H-M "C 2 2 2"
_symmetry_group_IT_number 21
_symmetry_cell_setting 'orthorhombic'
loop_
_space_group_symop_operation_xyz
x,y,z
-x,-y,z
x,-y,-z
-x,y,-z
1/2+x,1/2+y,z
1/2-x,1/2-y,z
1/2+x,1/2-y,-z
1/2-x,1/2+y,-z
loop_
_atom_site_type_symbol
_atom_site_label
_atom_site_fract_x
_atom_site_fract_y
_atom_site_fract_z
Si Si1 0.123889 0.871722 0.306570
Si Si2 0.816601 0.812294 0.508150
Si Si3 0.081396 0.766684 0.865178
Si Si4 0.320017 0.706120 0.707206
Si Si5 0.882622 0.500000 0.000000
Si Si6 0.184644 0.265789 0.864613
Si Si7 0.847532 0.000000 0.000000
Si Si8 0.000000 0.000000 0.758574
O O1 0.138293 0.784022 0.404316
O O2 0.134004 0.766083 0.214681
O O3 0.169809 0.018930 0.291948
O O4 0.057416 0.947368 0.303439
O O5 0.750000 0.750000 0.533551
O O6 0.831922 0.747269 0.403089
O O7 0.814220 0.000000 0.500000
O O8 0.130302 0.728566 0.781317
O O9 0.077882 0.622727 0.938111
O O10 0.022258 0.850257 0.820339
O O11 0.111658 0.905735 0.925955
O O12 0.250000 0.750000 0.730899
O O13 0.838422 0.589120 0.925913
O O14 0.250000 0.250000 0.814419
O O15 0.189494 0.125711 0.941001
#
# Coordination Sequence:
#
# PCOD9322976 Si02
#       8
#     8   8   8   8   4   8   4   4
#     4  10  20  37  58  87 117 160 206 246 298 366
#     4   9  18  35  58  92 124 153 194 238 306 370
#     4  10  21  39  60  85 118 161 207 249 307 352
#     4   9  18  33  59  86 125 154 194 245 303 369
#     4  10  25  38  55  94 118 159 211 260 306 356
#     4  11  21  35  54  84 121 155 196 252 310 364
#     4  10  19  37  54  78 108 162 204 236 306 366
#     4  10  20  41  65  82 120 166 208 254 296 358
#
# _framework density 19.694785
#
# number of rings (size 3 to 8) (size 9 to 14) (size 15 to 20)
#    0.000    2.154    3.077    0.923    2.154    2.769 
#    2.769   11.154    0.000    0.000    0.000    0.000 
#    0.000    0.000    0.000    0.000    0.000    0.000 
#
# Total GULP energy -144919.198612 kJ/mol
# GULP energy per Si atom -5573.815331 kJ/mol
# Density = 1.964996 g / cm^3
# Si number density = 19.694785 Si / 1000 Ang^3
#
#
#
# Elastic Constant Matrix: (Units=GPa)
#
#
# Indices 1 2 3 4 5 6 
#
# 1 88.3642 22.2766 47.6710 0.0000 0.0000 0.0000
# 2 22.2766 55.7000 29.0802 0.0000 0.0000 0.0000
# 3 47.6710 29.0802 104.1081 0.0000 0.0000 0.0000
# 4 0.0000 0.0000 0.0000 27.0242 0.0000 0.0000
# 5 0.0000 0.0000 0.0000 0.0000 -1.2971 0.0000
# 6 0.0000 0.0000 0.0000 0.0000 0.0000 20.0514
#
#
#
# Elastic Compliance Matrix: (Units=1/GPa)
#
#
# Indices 1 2 3 4 5 6 
#
# 1 0.015421 -0.002904 -0.006250 0.000000 0.000000 0.000000
# 2 -0.002904 0.021566 -0.004694 0.000000 0.000000 0.000000
# 3 -0.006250 -0.004694 0.013778 0.000000 0.000000 0.000000
# 4 0.000000 0.000000 0.000000 0.037004 0.000000 0.000000
# 5 0.000000 0.000000 0.000000 0.000000 -0.770940 0.000000
# 6 0.000000 0.000000 0.000000 0.000000 0.000000 0.049872
#
#
# Mechanical properties :
#
#
# Convention : Reuss Voigt Hill
#
# Bulk Modulus (GPa) = 43.34957 49.58084 46.46521
# Shear Modulus (GPa) = -8.36240 19.09866 5.36813
#
# Velocity S-wave (km/s) = -2.06282 3.11743 1.65275
# Velocity P-wave (km/s) = 4.04782 6.17957 5.22360
#
# Compressibility (1/GPa) = 0.02306828
#
# Stress axis : x y z
#
# Youngs Moduli (GPa) = 64.84799 46.37030 72.57768
#
# Poissons Ratio (x) = 0.13468 0.45360
# Poissons Ratio (y) = 0.18834 0.34067
# Poissons Ratio (z) = 0.40529 0.21766
#
# Static dielectric constant tensor:
#      x y z
#    x 1.717890 0.000000 0.000000 
#    y 0.000000 1.745030 0.000000 
#    z 0.000000 0.000000 1.747150 
# 
# From -- ./inp_files/33255.got.cif
#   From: 2010.05.17/outbox.cif.g08.bks.cpg/sg21_17_cif.got.tgz:33255.got - 2010.06.03 23:14:55.
