data_PCOD9322186
_publ_section_title
;
Structure prediction by ZEFSAII (Michael W. Deem and Ramdas Pophale) SiO2 
 PCOD9322186
Probable space group: C 2 2 21
;
_chemical_formula_sum "Si O2"
_cell_formula_units_Z 24
_cell_length_a 30.000000
_cell_length_b 9.000000
_cell_length_c 9.000000
_cell_angle_alpha 90.000000
_cell_angle_beta 90.000000
_cell_angle_gamma 90.000000
_cell_volume 2430.000000
_symmetry_space_group_name_H-M "C 2 2 21"
_symmetry_group_IT_number 20
_symmetry_cell_setting 'orthorhombic'
loop_
_space_group_symop_operation_xyz
x,y,z
-x,-y,1/2+z
x,-y,-z
-x,y,1/2-z
1/2+x,1/2+y,z
1/2-x,1/2-y,1/2+z
1/2+x,1/2-y,-z
1/2-x,1/2+y,1/2-z
loop_
_atom_site_type_symbol
_atom_site_label
_atom_site_fract_x
_atom_site_fract_y
_atom_site_fract_z
Si Si1 0.889064 0.154563 0.594084
Si Si2 0.788216 0.227947 0.583178
Si Si3 0.521594 0.850560 0.914380
Si Si4 0.629719 0.438582 0.658896
Si Si5 0.224517 0.092923 0.225690
Si Si6 0.466295 0.639005 0.112713
O O1 0.842027 0.237546 0.564841
O O2 0.934334 0.246706 0.583678
O O3 0.890414 0.000000 0.500000
O O4 0.884764 0.088348 0.757318
O O5 0.767676 0.184668 0.424812
O O6 0.762440 0.364044 0.657620
O O7 0.778975 0.080858 0.683894
O O8 0.500000 0.869177 0.750000
O O9 0.484537 0.774747 0.018102
O O10 0.534205 0.000000 0.000000
O O11 0.642121 0.500000 0.500000
O O12 0.674244 0.366758 0.723393
O O13 0.584899 0.340699 0.662603
O O14 0.500000 0.612076 0.250000
O O15 0.466947 0.500000 0.000000
#
# Coordination Sequence:
#
# PCOD9322186 Si02
#       6
#     8   8   8   8   8   8
#     4  11  21  43  68  90 125 164 216 261 305 373
#     4  10  22  42  63  94 122 167 205 264 311 373
#     4  12  26  44  62  92 133 170 207 264 326 384
#     4  10  20  35  62  95 120 160 209 260 301 360
#     4  10  22  40  62  91 130 159 210 259 314 370
#     4  11  21  37  66  97 124 166 217 261 312 372
#
# _framework density 9.8765429999999999
#
# number of rings (size 3 to 8) (size 9 to 14) (size 15 to 20)
#    0.000    1.333    3.333    5.500    4.667    0.000 
#    3.000    0.000    0.000    0.000    0.000    0.000 
#    0.000    0.000    0.000    0.000    0.000    0.000 
#
# Total GULP energy -133919.330341 kJ/mol
# GULP energy per Si atom -5579.972098 kJ/mol
# Density = 0.985406 g / cm^3
# Si number density = 9.876543 Si / 1000 Ang^3
#
#
#
# Elastic Constant Matrix: (Units=GPa)
#
#
# Indices 1 2 3 4 5 6 
#
# 1 131.9940 33.9092 38.2735 0.0000 0.0000 0.0000
# 2 33.9092 37.8587 25.8004 0.0000 0.0000 0.0000
# 3 38.2735 25.8004 91.4605 0.0000 0.0000 0.0000
# 4 0.0000 0.0000 0.0000 28.6569 0.0000 0.0000
# 5 0.0000 0.0000 0.0000 0.0000 32.8522 0.0000
# 6 0.0000 0.0000 0.0000 0.0000 0.0000 11.4995
#
#
#
# Elastic Compliance Matrix: (Units=1/GPa)
#
#
# Indices 1 2 3 4 5 6 
#
# 1 0.010151 -0.007672 -0.002084 0.000000 0.000000 0.000000
# 2 -0.007672 0.038499 -0.007650 0.000000 0.000000 0.000000
# 3 -0.002084 -0.007650 0.013964 0.000000 0.000000 0.000000
# 4 0.000000 0.000000 0.000000 0.034896 0.000000 0.000000
# 5 0.000000 0.000000 0.000000 0.000000 0.030439 0.000000
# 6 0.000000 0.000000 0.000000 0.000000 0.000000 0.086960
#
#
# Mechanical properties :
#
#
# Convention : Reuss Voigt Hill
#
# Bulk Modulus (GPa) = 35.96785 50.80882 43.38833
# Shear Modulus (GPa) = 19.30588 25.49038 22.39813
#
# Velocity S-wave (km/s) = 3.12967 3.59618 3.37100
# Velocity P-wave (km/s) = 5.59536 6.55905 6.09628
#
# Compressibility (1/GPa) = 0.02780261
#
# Stress axis : x y z
#
# Youngs Moduli (GPa) = 98.50942 25.97459 71.61475
#
# Poissons Ratio (x) = 0.19928 0.14923
# Poissons Ratio (y) = 0.75579 0.54783
# Poissons Ratio (z) = 0.20527 0.19870
#
# Static dielectric constant tensor:
#      x y z
#    x 1.697950 0.000000 0.000000 
#    y 0.000000 1.714250 0.000000 
#    z 0.000000 0.000000 1.716860 
# 
# From -- ./inp_files/6502.got.cif
#   From: 2010.05.17/outbox.ucp.g08.bks.cvg/sg20_4_cif.got.tgz:6502.got - 2010.06.11 15:13:06.
