data_PCOD9322587
_publ_section_title
;
Structure prediction by ZEFSAII (Michael W. Deem and Ramdas Pophale) SiO2 
 PCOD9322587
Probable space group: C 2 2 2
;
_chemical_formula_sum "Si O2"
_cell_formula_units_Z 34
_cell_length_a 14.298267
_cell_length_b 5.514358
_cell_length_c 18.465287
_cell_angle_alpha 90.000000
_cell_angle_beta 90.000000
_cell_angle_gamma 90.000000
_cell_volume 1455.909643
_symmetry_space_group_name_H-M "C 2 2 2"
_symmetry_group_IT_number 21
_symmetry_cell_setting 'orthorhombic'
loop_
_space_group_symop_operation_xyz
x,y,z
-x,-y,z
x,-y,-z
-x,y,-z
1/2+x,1/2+y,z
1/2-x,1/2-y,z
1/2+x,1/2-y,-z
1/2-x,1/2+y,-z
loop_
_atom_site_type_symbol
_atom_site_label
_atom_site_fract_x
_atom_site_fract_y
_atom_site_fract_z
Si Si1 0.000000 0.000000 0.500000
Si Si2 0.855736 0.664926 0.571308
Si Si3 0.250000 0.750000 0.743073
Si Si4 0.595851 0.363282 0.290420
Si Si5 0.348407 0.893847 0.155011
Si Si6 0.687962 0.000000 0.000000
O O1 0.070036 0.866629 0.447667
O O2 0.868107 0.500000 0.500000
O O3 0.750000 0.750000 0.568127
O O4 0.882568 0.632377 0.655896
O O5 0.313869 0.547010 0.702115
O O6 0.176006 0.626358 0.797095
O O7 0.500000 0.500000 0.306068
O O8 0.589716 0.269213 0.207898
O O9 0.250000 0.750000 0.149405
O O10 0.371720 0.958727 0.072958
O O11 0.750000 0.750000 0.010942
#
# Coordination Sequence:
#
# PCOD9322587 Si02
#       6
#     2   8   4   8   8   4
#     4  12  26  48  72 100 136 188 236 292 388 440
#     4  12  26  50  73 102 144 190 240 309 375 450
#     4  10  20  42  72 100 138 186 240 296 370 438
#     4  11  25  46  71 105 143 190 248 305 374 450
#     4   9  19  37  65 108 139 186 244 300 364 444
#     4  10  18  34  68 109 151 200 254 312 377 454
#
# _framework density 23.353095
#
# number of rings (size 3 to 8) (size 9 to 14) (size 15 to 20)
#    0.000    1.412    3.529    2.471    0.000    4.706 
#   10.588    0.000    0.000    4.235    0.000    0.000 
#    0.000    0.000    0.000    0.000    0.000    0.000 
#
# Total GULP energy -94710.168482 kJ/mol
# GULP energy per Si atom -5571.186381 kJ/mol
# Density = 2.329994 g / cm^3
# Si number density = 23.353095 Si / 1000 Ang^3
#
#
#
# Elastic Constant Matrix: (Units=GPa)
#
#
# Indices 1 2 3 4 5 6 
#
# 1 115.6657 26.1266 52.5684 0.0000 0.0000 0.0000
# 2 26.1266 74.7264 48.0048 0.0000 0.0000 0.0000
# 3 52.5684 48.0048 218.1946 0.0000 0.0000 0.0000
# 4 0.0000 0.0000 0.0000 35.8533 0.0000 0.0000
# 5 0.0000 0.0000 0.0000 0.0000 36.6825 0.0000
# 6 0.0000 0.0000 0.0000 0.0000 0.0000 25.8956
#
#
#
# Elastic Compliance Matrix: (Units=1/GPa)
#
#
# Indices 1 2 3 4 5 6 
#
# 1 0.010030 -0.002276 -0.001916 0.000000 0.000000 0.000000
# 2 -0.002276 0.016101 -0.002994 0.000000 0.000000 0.000000
# 3 -0.001916 -0.002994 0.005703 0.000000 0.000000 0.000000
# 4 0.000000 0.000000 0.000000 0.027891 0.000000 0.000000
# 5 0.000000 0.000000 0.000000 0.000000 0.027261 0.000000
# 6 0.000000 0.000000 0.000000 0.000000 0.000000 0.038617
#
#
# Mechanical properties :
#
#
# Convention : Reuss Voigt Hill
#
# Bulk Modulus (GPa) = 57.26378 73.55403 65.40890
# Shear Modulus (GPa) = 34.29415 38.47873 36.38644
#
# Velocity S-wave (km/s) = 3.83627 4.06358 3.95156
# Velocity P-wave (km/s) = 6.64806 7.31996 6.99208
#
# Compressibility (1/GPa) = 0.01746305
#
# Stress axis : x y z
#
# Youngs Moduli (GPa) = 99.69635 62.10640 175.33574
#
# Poissons Ratio (x) = 0.14137 0.33591
# Poissons Ratio (y) = 0.22693 0.52496
# Poissons Ratio (z) = 0.19100 0.18595
#
# Static dielectric constant tensor:
#      x y z
#    x 1.809920 0.000000 0.000000 
#    y 0.000000 2.037210 0.000000 
#    z 0.000000 0.000000 2.042540 
# 
# From -- ./inp_files/36485.got.cif
#   From: 2010.05.17/outbox.cif.g08.bks.cpg/sg21_19_cif.got.tgz:36485.got - 2010.06.03 23:14:55.
