data_PCOD9322757
_publ_section_title
;
Structure prediction by ZEFSAII (Michael W. Deem and Ramdas Pophale) SiO2 
 PCOD9322757
Probable space group: C 2 2 2
;
_chemical_formula_sum "Si O2"
_cell_formula_units_Z 28
_cell_length_a 19.595465
_cell_length_b 5.030603
_cell_length_c 13.493339
_cell_angle_alpha 90.000000
_cell_angle_beta 90.000000
_cell_angle_gamma 90.000000
_cell_volume 1330.132946
_symmetry_space_group_name_H-M "C 2 2 2"
_symmetry_group_IT_number 21
_symmetry_cell_setting 'orthorhombic'
loop_
_space_group_symop_operation_xyz
x,y,z
-x,-y,z
x,-y,-z
-x,y,-z
1/2+x,1/2+y,z
1/2-x,1/2-y,z
1/2+x,1/2-y,-z
1/2-x,1/2+y,-z
loop_
_atom_site_type_symbol
_atom_site_label
_atom_site_fract_x
_atom_site_fract_y
_atom_site_fract_z
Si Si1 0.750000 0.750000 0.439141
Si Si2 0.750000 0.750000 0.889769
Si Si3 0.869865 0.500000 0.000000
Si Si4 0.163339 0.965006 0.272599
Si Si5 0.922051 0.451982 0.782994
O O1 0.782399 0.500000 0.500000
O O2 0.697637 0.580478 0.371356
O O3 0.777623 0.968592 0.811775
O O4 0.814836 0.711287 0.959773
O O5 0.913746 0.549028 0.097471
O O6 0.129641 0.671559 0.264203
O O7 0.102986 0.164425 0.248242
O O8 0.000000 0.500000 0.755513
#
# Coordination Sequence:
#
# PCOD9322757 Si02
#       5
#     4   4   4   8   8
#     4  12  23  41  70 100 120 140 192 265 331 386
#     4  10  19  35  60  90 130 164 206 261 311 352
#     4  10  19  32  56  88 123 168 216 254 286 334
#     4  11  23  40  62  91 123 159 198 253 321 366
#     4  11  23  39  59  86 129 175 213 241 281 354
#
# _framework density 21.050526000000001
#
# number of rings (size 3 to 8) (size 9 to 14) (size 15 to 20)
#    0.000    1.143    0.000    9.000    0.000    3.429 
#    0.000    5.714    0.000   12.857    0.000    0.000 
#    0.000    0.000    0.000    0.000    0.000    0.000 
#
# Total GULP energy -78023.342343 kJ/mol
# GULP energy per Si atom -5573.095882 kJ/mol
# Density = 2.100261 g / cm^3
# Si number density = 21.050526 Si / 1000 Ang^3
#
#
#
# Elastic Constant Matrix: (Units=GPa)
#
#
# Indices 1 2 3 4 5 6 
#
# 1 99.0595 12.3892 10.0768 0.0000 0.0000 0.0000
# 2 12.3892 85.5833 20.1879 0.0000 0.0000 0.0000
# 3 10.0768 20.1879 78.6591 0.0000 0.0000 0.0000
# 4 0.0000 0.0000 0.0000 55.5519 0.0000 0.0000
# 5 0.0000 0.0000 0.0000 0.0000 24.4211 0.0000
# 6 0.0000 0.0000 0.0000 0.0000 0.0000 36.5738
#
#
#
# Elastic Compliance Matrix: (Units=1/GPa)
#
#
# Indices 1 2 3 4 5 6 
#
# 1 0.010355 -0.001263 -0.001002 0.000000 0.000000 0.000000
# 2 -0.001263 0.012591 -0.003070 0.000000 0.000000 0.000000
# 3 -0.001002 -0.003070 0.013629 0.000000 0.000000 0.000000
# 4 0.000000 0.000000 0.000000 0.018001 0.000000 0.000000
# 5 0.000000 0.000000 0.000000 0.000000 0.040948 0.000000
# 6 0.000000 0.000000 0.000000 0.000000 0.000000 0.027342
#
#
# Mechanical properties :
#
#
# Convention : Reuss Voigt Hill
#
# Bulk Modulus (GPa) = 38.60124 38.73440 38.66782
# Shear Modulus (GPa) = 35.16868 38.01923 36.59395
#
# Velocity S-wave (km/s) = 4.09183 4.25443 4.17392
# Velocity P-wave (km/s) = 6.37976 6.52489 6.45273
#
# Compressibility (1/GPa) = 0.02590591
#
# Stress axis : x y z
#
# Youngs Moduli (GPa) = 96.57340 79.41918 73.37086
#
# Poissons Ratio (x) = 0.10027 0.07355
# Poissons Ratio (y) = 0.12192 0.22524
# Poissons Ratio (z) = 0.09681 0.24381
#
# Static dielectric constant tensor:
#      x y z
#    x 1.676230 0.000000 0.000000 
#    y 0.000000 1.775000 0.000000 
#    z 0.000000 0.000000 1.856270 
# 
# From -- ./inp_files/26422.got.cif
#   From: 2010.05.17/outbox.cif.g08.bks.cpg/sg21_14_cif.got.tgz:26422.got - 2010.06.03 23:14:55.
