data_PCOD9322292
_publ_section_title
;
Structure prediction by ZEFSAII (Michael W. Deem and Ramdas Pophale) SiO2 
 PCOD9322292
Probable space group: C 2 2 2
;
_chemical_formula_sum "Si O2"
_cell_formula_units_Z 48
_cell_length_a 28.742440
_cell_length_b 13.811391
_cell_length_c 5.426600
_cell_angle_alpha 90.000000
_cell_angle_beta 90.000000
_cell_angle_gamma 90.000000
_cell_volume 2154.214100
_symmetry_space_group_name_H-M "C 2 2 2"
_symmetry_group_IT_number 21
_symmetry_cell_setting 'orthorhombic'
loop_
_space_group_symop_operation_xyz
x,y,z
-x,-y,z
x,-y,-z
-x,y,-z
1/2+x,1/2+y,z
1/2-x,1/2-y,z
1/2+x,1/2-y,-z
1/2-x,1/2+y,-z
loop_
_atom_site_type_symbol
_atom_site_label
_atom_site_fract_x
_atom_site_fract_y
_atom_site_fract_z
Si Si1 0.945275 0.640702 0.943738
Si Si2 0.433055 0.626239 0.062440
Si Si3 0.695597 0.728592 0.490162
Si Si4 0.547476 0.348247 0.567068
Si Si5 0.324956 0.389787 0.992695
Si Si6 0.894997 0.656938 0.441200
O O1 0.942194 0.757847 0.927210
O O2 0.921268 0.612286 0.681471
O O3 0.913562 0.612617 0.182193
O O4 0.000000 0.616026 0.000000
O O5 0.440531 0.588558 0.333943
O O6 0.380494 0.605509 0.991757
O O7 0.461392 0.599370 0.821945
O O8 0.750000 0.750000 0.513567
O O9 0.683887 0.665090 0.733824
O O10 0.660213 0.822042 0.478655
O O11 0.690338 0.670429 0.232740
O O12 0.500000 0.293291 0.500000
O O13 0.586997 0.268019 0.581363
O O14 0.306312 0.500000 0.000000
#
# Coordination Sequence:
#
# PCOD9322292 Si02
#       6
#     8   8   8   8   8   8
#     4  10  16  25  46  69  98 132 178 216 266 304
#     4  10  16  29  44  67  93 126 177 215 262 303
#     4  12  23  40  59  82 105 138 182 236 279 328
#     4  10  16  25  46  67  96 132 178 219 268 300
#     4  12  23  40  59  79 104 142 181 233 279 328
#     4  10  16  29  44  70  97 126 175 217 265 313
#
# _framework density 22.28191
#
# number of rings (size 3 to 8) (size 9 to 14) (size 15 to 20)
#    0.000    1.333    6.667    6.000    0.000    0.000 
#    0.000    0.000    0.000    5.500    0.000    0.000 
#    0.000    0.000    0.000    0.000    0.000   96.667 
#
# Total GULP energy -133719.322160 kJ/mol
# GULP energy per Si atom -5571.638423 kJ/mol
# Density = 2.223120 g / cm^3
# Si number density = 22.281910 Si / 1000 Ang^3
#
#
#
# Elastic Constant Matrix: (Units=GPa)
#
#
# Indices 1 2 3 4 5 6 
#
# 1 126.0766 -5.1881 24.6827 0.0000 0.0000 0.0000
# 2 -5.1881 52.7130 17.6850 0.0000 0.0000 0.0000
# 3 24.6827 17.6850 231.7616 0.0000 0.0000 0.0000
# 4 0.0000 0.0000 0.0000 -5.1470 0.0000 0.0000
# 5 0.0000 0.0000 0.0000 0.0000 32.8083 0.0000
# 6 0.0000 0.0000 0.0000 0.0000 0.0000 -5.1959
#
#
#
# Elastic Compliance Matrix: (Units=1/GPa)
#
#
# Indices 1 2 3 4 5 6 
#
# 1 0.008165 0.001124 -0.000955 0.000000 0.000000 0.000000
# 2 0.001124 0.019624 -0.001617 0.000000 0.000000 0.000000
# 3 -0.000955 -0.001617 0.004540 0.000000 0.000000 0.000000
# 4 0.000000 0.000000 0.000000 -0.194289 0.000000 0.000000
# 5 0.000000 0.000000 0.000000 0.000000 0.030480 0.000000
# 6 0.000000 0.000000 0.000000 0.000000 0.000000 -0.192459
#
#
# Mechanical properties :
#
#
# Convention : Reuss Voigt Hill
#
# Bulk Modulus (GPa) = 33.97665 53.87894 43.92779
# Shear Modulus (GPa) = -16.06521 29.38453 6.65966
#
# Velocity S-wave (km/s) = -2.68805 3.63542 1.73070
# Velocity P-wave (km/s) = 2.37644 6.46952 4.87351
#
# Compressibility (1/GPa) = 0.02943198
#
# Stress axis : x y z
#
# Youngs Moduli (GPa) = 122.47425 50.95845 220.26801
#
# Poissons Ratio (x) = -0.05728 0.21043
# Poissons Ratio (y) = -0.13768 0.35621
# Poissons Ratio (z) = 0.11701 0.08241
#
# Static dielectric constant tensor:
#      x y z
#    x 1.824200 0.000000 0.000000 
#    y 0.000000 1.835750 0.000000 
#    z 0.000000 0.000000 1.974870 
# 
# From -- ./inp_files/6716.got.cif
#   From: 2010.05.17/outbox.cif.g08.bks.cpg/sg21_4_cif.got.tgz:6716.got - 2010.06.03 23:14:55.
