data_PCOD9322350
_publ_section_title
;
Structure prediction by ZEFSAII (Michael W. Deem and Ramdas Pophale) SiO2 
 PCOD9322350
Probable space group: C 2 2 2
;
_chemical_formula_sum "Si O2"
_cell_formula_units_Z 46
_cell_length_a 20.130391
_cell_length_b 20.447064
_cell_length_c 6.771658
_cell_angle_alpha 90.000000
_cell_angle_beta 90.000000
_cell_angle_gamma 90.000000
_cell_volume 2787.264496
_symmetry_space_group_name_H-M "C 2 2 2"
_symmetry_group_IT_number 21
_symmetry_cell_setting 'orthorhombic'
loop_
_space_group_symop_operation_xyz
x,y,z
-x,-y,z
x,-y,-z
-x,y,-z
1/2+x,1/2+y,z
1/2-x,1/2-y,z
1/2+x,1/2-y,-z
1/2-x,1/2+y,-z
loop_
_atom_site_type_symbol
_atom_site_label
_atom_site_fract_x
_atom_site_fract_y
_atom_site_fract_z
Si Si1 0.770190 0.571299 0.987207
Si Si2 0.149733 0.640960 0.348919
Si Si3 0.000000 0.500000 0.000000
Si Si4 0.805241 0.198415 0.908913
Si Si5 0.924493 0.717501 0.985362
Si Si6 0.750000 0.250000 0.524744
Si Si7 0.398668 0.092622 0.243178
O O1 0.717615 0.627617 0.028730
O O2 0.827595 0.572840 0.153261
O O3 0.739837 0.500000 0.000000
O O4 0.809134 0.590560 0.787317
O O5 0.096142 0.677746 0.210943
O O6 0.202320 0.696845 0.420252
O O7 0.112249 0.602193 0.523676
O O8 0.953612 0.544956 0.143442
O O9 0.750000 0.250000 0.989979
O O10 0.797359 0.208938 0.674185
O O11 0.874916 0.222578 0.987151
O O12 0.911834 0.665205 0.159292
O O13 0.000000 0.737599 0.000000
#
# Coordination Sequence:
#
# PCOD9322350 Si02
#       7
#     8   8   2   8   8   4   8
#     4  11  22  38  55  84 117 144 191 241 286 334
#     4  11  20  36  61  80 108 152 194 235 282 335
#     4  12  24  40  46  72 134 152 184 226 276 336
#     4  10  17  38  61  80 116 142 188 255 275 320
#     4  11  22  38  55  84 117 144 191 241 286 334
#     4  10  16  34  64  88 102 144 202 240 290 316
#     4  11  21  38  53  77 109 158 192 227 265 342
#
# _framework density 16.503634999999999
#
# number of rings (size 3 to 8) (size 9 to 14) (size 15 to 20)
#    0.522    0.696    8.696    1.043    0.000    1.391 
#    0.000    5.217    0.000    0.522    0.000    0.000 
#    0.000    0.000    0.000    0.000    0.000    0.000 
#
# Total GULP energy -128227.635923 kJ/mol
# GULP energy per Si atom -5575.114605 kJ/mol
# Density = 1.646607 g / cm^3
# Si number density = 16.503635 Si / 1000 Ang^3
#
#
#
# Elastic Constant Matrix: (Units=GPa)
#
#
# Indices 1 2 3 4 5 6 
#
# 1 45.9591 66.1825 31.1986 0.0000 0.0000 0.0000
# 2 66.1825 135.1255 37.8785 0.0000 0.0000 0.0000
# 3 31.1986 37.8785 108.1447 0.0000 0.0000 0.0000
# 4 0.0000 0.0000 0.0000 5.5411 0.0000 0.0000
# 5 0.0000 0.0000 0.0000 0.0000 2.5066 0.0000
# 6 0.0000 0.0000 0.0000 0.0000 0.0000 27.0935
#
#
#
# Elastic Compliance Matrix: (Units=1/GPa)
#
#
# Indices 1 2 3 4 5 6 
#
# 1 0.084005 -0.038091 -0.010893 0.000000 0.000000 0.000000
# 2 -0.038091 0.025478 0.002065 0.000000 0.000000 0.000000
# 3 -0.010893 0.002065 0.011666 0.000000 0.000000 0.000000
# 4 0.000000 0.000000 0.000000 0.180468 0.000000 0.000000
# 5 0.000000 0.000000 0.000000 0.000000 0.398948 0.000000
# 6 0.000000 0.000000 0.000000 0.000000 0.000000 0.036909
#
#
# Mechanical properties :
#
#
# Convention : Reuss Voigt Hill
#
# Bulk Modulus (GPa) = 36.61481 62.19427 49.40454
# Shear Modulus (GPa) = 5.94944 17.29290 11.62117
#
# Velocity S-wave (km/s) = 1.90072 3.24052 2.65648
# Velocity P-wave (km/s) = 5.20106 7.19502 6.27771
#
# Compressibility (1/GPa) = 0.02731136
#
# Stress axis : x y z
#
# Youngs Moduli (GPa) = 11.90408 39.24959 85.71839
#
# Poissons Ratio (x) = 1.49505 0.93372
# Poissons Ratio (y) = 0.45344 -0.17700
# Poissons Ratio (z) = 0.12967 -0.08105
#
# Static dielectric constant tensor:
#      x y z
#    x 1.559100 0.000000 0.000000 
#    y 0.000000 1.560880 0.000000 
#    z 0.000000 0.000000 1.608750 
# 
# From -- ./inp_files/6738.got.cif
#   From: 2010.05.17/outbox.cif.g08.bks.cpg/sg21_4_cif.got.tgz:6738.got - 2010.06.03 23:14:55.
