data_PCOD9322603
_publ_section_title
;
Structure prediction by ZEFSAII (Michael W. Deem and Ramdas Pophale) SiO2 
 PCOD9322603
Probable space group: C 2 2 2
;
_chemical_formula_sum "Si O2"
_cell_formula_units_Z 48
_cell_length_a 20.830496
_cell_length_b 23.124508
_cell_length_c 5.699631
_cell_angle_alpha 90.000000
_cell_angle_beta 90.000000
_cell_angle_gamma 90.000000
_cell_volume 2745.483592
_symmetry_space_group_name_H-M "C 2 2 2"
_symmetry_group_IT_number 21
_symmetry_cell_setting 'orthorhombic'
loop_
_space_group_symop_operation_xyz
x,y,z
-x,-y,z
x,-y,-z
-x,y,-z
1/2+x,1/2+y,z
1/2-x,1/2-y,z
1/2+x,1/2-y,-z
1/2-x,1/2+y,-z
loop_
_atom_site_type_symbol
_atom_site_label
_atom_site_fract_x
_atom_site_fract_y
_atom_site_fract_z
Si Si1 0.435577 0.655709 0.627690
Si Si2 0.723228 0.560272 0.092108
Si Si3 0.585443 0.531059 0.251331
Si Si4 0.723452 0.835209 0.327246
Si Si5 0.315179 0.342548 0.719694
Si Si6 0.655011 0.265384 0.887188
O O1 0.500000 0.674091 0.500000
O O2 0.447134 0.593888 0.747986
O O3 0.375862 0.645707 0.448461
O O4 0.409765 0.703720 0.806446
O O5 0.662200 0.542249 0.248396
O O6 0.772996 0.600028 0.231091
O O7 0.750528 0.500000 0.000000
O O8 0.692935 0.602807 0.893476
O O9 0.570226 0.500000 0.500000
O O10 0.572483 0.500000 0.000000
O O11 0.745480 0.836279 0.596808
O O12 0.665517 0.797622 0.223376
O O13 0.786384 0.802693 0.223126
O O14 0.333177 0.281492 0.842868
#
# Coordination Sequence:
#
# PCOD9322603 Si02
#       6
#     8   8   8   8   8   8
#     4  11  22  35  49  71  97 140 186 231 271 313
#     4  10  19  29  49  74  99 134 169 207 271 322
#     4  11  22  37  52  71 104 139 186 232 268 312
#     4   9  18  30  51  71  94 124 169 213 268 326
#     4  10  18  36  50  70 101 134 170 223 261 323
#     4   9  19  33  47  74  90 129 175 218 274 316
#
# _framework density 17.483260000000001
#
# number of rings (size 3 to 8) (size 9 to 14) (size 15 to 20)
#    0.000    2.000    5.000    2.000    0.000   11.667 
#    0.000    3.333    0.000    0.000    0.000    0.000 
#    0.000    0.000    0.000   21.000    0.000    0.167 
#
# Total GULP energy -133614.101343 kJ/mol
# GULP energy per Si atom -5567.254223 kJ/mol
# Density = 1.744347 g / cm^3
# Si number density = 17.483260 Si / 1000 Ang^3
#
#
#
# Elastic Constant Matrix: (Units=GPa)
#
#
# Indices 1 2 3 4 5 6 
#
# 1 34.7218 42.7254 24.3066 0.0000 0.0000 0.0000
# 2 42.7254 113.9610 44.6878 0.0000 0.0000 0.0000
# 3 24.3066 44.6878 84.9958 0.0000 0.0000 0.0000
# 4 0.0000 0.0000 0.0000 16.8708 0.0000 0.0000
# 5 0.0000 0.0000 0.0000 0.0000 -0.9362 0.0000
# 6 0.0000 0.0000 0.0000 0.0000 0.0000 11.4384
#
#
#
# Elastic Compliance Matrix: (Units=1/GPa)
#
#
# Indices 1 2 3 4 5 6 
#
# 1 0.055997 -0.018536 -0.006268 0.000000 0.000000 0.000000
# 2 -0.018536 0.017190 -0.003737 0.000000 0.000000 0.000000
# 3 -0.006268 -0.003737 0.015523 0.000000 0.000000 0.000000
# 4 0.000000 0.000000 0.000000 0.059274 0.000000 0.000000
# 5 0.000000 0.000000 0.000000 0.000000 -1.068092 0.000000
# 6 0.000000 0.000000 0.000000 0.000000 0.000000 0.087425
#
#
# Mechanical properties :
#
#
# Convention : Reuss Voigt Hill
#
# Bulk Modulus (GPa) = 31.61848 50.79090 41.20469
# Shear Modulus (GPa) = -6.53544 13.60517 3.53487
#
# Velocity S-wave (km/s) = -1.93552 2.79262 1.42346
# Velocity P-wave (km/s) = 3.62344 6.28590 5.13039
#
# Compressibility (1/GPa) = 0.03162707
#
# Stress axis : x y z
#
# Youngs Moduli (GPa) = 17.85816 58.17456 64.42248
#
# Poissons Ratio (x) = 1.07832 0.40381
# Poissons Ratio (y) = 0.33102 0.24074
# Poissons Ratio (z) = 0.11194 0.21739
#
# Static dielectric constant tensor:
#      x y z
#    x 1.578060 0.000000 0.000000 
#    y 0.000000 1.659420 0.000000 
#    z 0.000000 0.000000 1.793600 
# 
# From -- ./inp_files/6047.got.cif
#   From: 2010.05.17/outbox.cif.g08.bks.cpg/sg21_4_cif.got.tgz:6047.got - 2010.06.03 23:14:55.
