data_PCOD9322543
_publ_section_title
;
Structure prediction by ZEFSAII (Michael W. Deem and Ramdas Pophale) SiO2 
 PCOD9322543
Probable space group: C 2 2 2
;
_chemical_formula_sum "Si O2"
_cell_formula_units_Z 58
_cell_length_a 17.122553
_cell_length_b 17.279428
_cell_length_c 9.021773
_cell_angle_alpha 90.000000
_cell_angle_beta 90.000000
_cell_angle_gamma 90.000000
_cell_volume 2669.253228
_symmetry_space_group_name_H-M "C 2 2 2"
_symmetry_group_IT_number 21
_symmetry_cell_setting 'orthorhombic'
loop_
_space_group_symop_operation_xyz
x,y,z
-x,-y,z
x,-y,-z
-x,y,-z
1/2+x,1/2+y,z
1/2-x,1/2-y,z
1/2+x,1/2-y,-z
1/2-x,1/2+y,-z
loop_
_atom_site_type_symbol
_atom_site_label
_atom_site_fract_x
_atom_site_fract_y
_atom_site_fract_z
Si Si1 0.079807 0.725025 0.070119
Si Si2 0.398813 0.621628 0.432986
Si Si3 0.689782 0.315571 0.881777
Si Si4 0.318954 0.910650 0.012879
Si Si5 0.000000 0.000000 0.000000
Si Si6 0.553408 0.601036 0.259370
Si Si7 0.923415 0.700414 0.578497
Si Si8 0.267474 0.157304 0.671139
O O1 0.107737 0.646727 0.986417
O O2 0.067352 0.709074 0.243184
O O3 0.150446 0.783848 0.034168
O O4 0.000000 0.755069 0.000000
O O5 0.461995 0.612174 0.301068
O O6 0.415938 0.572744 0.580895
O O7 0.412717 0.711808 0.477667
O O8 0.310311 0.616476 0.384144
O O9 0.750000 0.250000 0.827081
O O10 0.615245 0.332249 0.781209
O O11 0.745227 0.388645 0.910048
O O12 0.292526 0.882901 0.176225
O O13 0.338296 0.000000 0.000000
O O14 0.052483 0.049763 0.112141
O O15 0.842183 0.654892 0.561846
O O16 0.000000 0.667504 0.500000
O O17 0.250000 0.250000 0.687844
#
# Coordination Sequence:
#
# PCOD9322543 Si02
#       8
#     8   8   8   8   2   8   8   8
#     4  10  21  37  61  94 127 166 208 278 331 375
#     4  10  21  40  60  89 128 170 206 272 323 389
#     4  10  22  38  61  96 128 163 219 281 325 375
#     4  10  21  37  59  90 128 172 216 257 318 402
#     4  12  32  42  60  96 128 190 212 260 324 402
#     4  11  25  41  61  88 129 170 216 260 322 391
#     4  10  18  33  60  95 125 159 212 272 335 378
#     4   9  19  36  62  92 132 171 214 269 336 386
#
# _framework density 21.728923000000002
#
# number of rings (size 3 to 8) (size 9 to 14) (size 15 to 20)
#    0.000    1.931    1.379    3.724    5.793    3.034 
#    2.483    0.000    0.000    0.000    0.000    0.966 
#   16.552    0.000    0.000    0.000    0.000    0.000 
#
# Total GULP energy -161762.367581 kJ/mol
# GULP energy per Si atom -5578.012675 kJ/mol
# Density = 2.167947 g / cm^3
# Si number density = 21.728923 Si / 1000 Ang^3
#
#
#
# Elastic Constant Matrix: (Units=GPa)
#
#
# Indices 1 2 3 4 5 6 
#
# 1 146.3643 9.4231 54.1879 0.0000 0.0000 0.0000
# 2 9.4231 47.6957 20.5626 0.0000 0.0000 0.0000
# 3 54.1879 20.5626 95.0031 0.0000 0.0000 0.0000
# 4 0.0000 0.0000 0.0000 -10.3925 0.0000 0.0000
# 5 0.0000 0.0000 0.0000 0.0000 36.6614 0.0000
# 6 0.0000 0.0000 0.0000 0.0000 0.0000 9.9365
#
#
#
# Elastic Compliance Matrix: (Units=1/GPa)
#
#
# Indices 1 2 3 4 5 6 
#
# 1 0.008670 0.000462 -0.005046 0.000000 0.000000 0.000000
# 2 0.000462 0.023149 -0.005274 0.000000 0.000000 0.000000
# 3 -0.005046 -0.005274 0.014545 0.000000 0.000000 0.000000
# 4 0.000000 0.000000 0.000000 -0.096223 0.000000 0.000000
# 5 0.000000 0.000000 0.000000 0.000000 0.027277 0.000000
# 6 0.000000 0.000000 0.000000 0.000000 0.000000 0.100639
#
#
# Mechanical properties :
#
#
# Convention : Reuss Voigt Hill
#
# Bulk Modulus (GPa) = 37.52350 50.82336 44.17343
# Shear Modulus (GPa) = 46.88030 20.90038 33.89034
#
# Velocity S-wave (km/s) = 4.64994 3.10477 3.95357
# Velocity P-wave (km/s) = 6.79232 6.02439 6.41985
#
# Compressibility (1/GPa) = 0.02664996
#
# Stress axis : x y z
#
# Youngs Moduli (GPa) = 115.33366 43.19903 68.75053
#
# Poissons Ratio (x) = -0.01997 0.34688
# Poissons Ratio (y) = -0.05331 0.36259
# Poissons Ratio (z) = 0.58192 0.22783
#
# Static dielectric constant tensor:
#      x y z
#    x 1.826750 0.000000 0.000000 
#    y 0.000000 1.840110 0.000000 
#    z 0.000000 0.000000 1.834820 
# 
# From -- ./inp_files/16676.got.cif
#   From: 2010.05.17/outbox.cif.g08.bks.cpg/sg21_9_cif.got.tgz:16676.got - 2010.06.03 23:14:55.
