data_PCOD9322450
_publ_section_title
;
Structure prediction by ZEFSAII (Michael W. Deem and Ramdas Pophale) SiO2 
 PCOD9322450
Probable space group: C 2 2 2
;
_chemical_formula_sum "Si O2"
_cell_formula_units_Z 36
_cell_length_a 16.646184
_cell_length_b 14.732984
_cell_length_c 7.277033
_cell_angle_alpha 90.000000
_cell_angle_beta 90.000000
_cell_angle_gamma 90.000000
_cell_volume 1784.677517
_symmetry_space_group_name_H-M "C 2 2 2"
_symmetry_group_IT_number 21
_symmetry_cell_setting 'orthorhombic'
loop_
_space_group_symop_operation_xyz
x,y,z
-x,-y,z
x,-y,-z
-x,y,-z
1/2+x,1/2+y,z
1/2-x,1/2-y,z
1/2+x,1/2-y,-z
1/2-x,1/2+y,-z
loop_
_atom_site_type_symbol
_atom_site_label
_atom_site_fract_x
_atom_site_fract_y
_atom_site_fract_z
Si Si1 0.414823 0.962530 0.703904
Si Si2 0.187494 0.177496 0.888274
Si Si3 0.022626 0.099624 0.780446
Si Si4 0.717189 0.000000 0.000000
Si Si5 0.066007 0.266585 0.161645
O O1 0.419368 0.854380 0.717988
O O2 0.500000 0.000000 0.775366
O O3 0.405740 0.000000 0.500000
O O4 0.341270 0.994383 0.826381
O O5 0.250000 0.250000 0.800756
O O6 0.114580 0.133709 0.768769
O O7 0.143707 0.234679 0.048921
O O8 0.230865 0.090473 0.975776
O O9 0.966561 0.182402 0.719070
O O10 0.000000 0.000000 0.709142
O O11 0.000000 0.095672 0.000000
O O12 0.000000 0.287776 0.000000
#
# Coordination Sequence:
#
# PCOD9322450 Si02
#       5
#     8   8   8   4   8
#     4  11  24  38  57  84 115 156 204 240 287 355
#     4  10  18  29  54  92 113 146 193 240 297 352
#     4   8  15  28  49  82 117 151 196 235 282 357
#     4  12  21  36  65  84 122 152 192 244 307 346
#     4   9  17  34  58  84 117 156 194 237 292 351
#
# _framework density 20.171710999999998
#
# number of rings (size 3 to 8) (size 9 to 14) (size 15 to 20)
#    0.000    2.667    2.222    4.333    3.111    0.000 
#    0.000    0.000    4.889    0.000    0.000    3.111 
#    0.000   17.778    0.000    0.000    0.000    0.667 
#
# Total GULP energy -100371.245494 kJ/mol
# GULP energy per Si atom -5576.180305 kJ/mol
# Density = 2.012580 g / cm^3
# Si number density = 20.171711 Si / 1000 Ang^3
#
#
#
# Elastic Constant Matrix: (Units=GPa)
#
#
# Indices 1 2 3 4 5 6 
#
# 1 109.7060 62.8549 14.2555 0.0000 0.0000 0.0000
# 2 62.8549 192.9890 42.8383 0.0000 0.0000 0.0000
# 3 14.2555 42.8383 53.1285 0.0000 0.0000 0.0000
# 4 0.0000 0.0000 0.0000 -29.7925 0.0000 0.0000
# 5 0.0000 0.0000 0.0000 0.0000 7.5803 0.0000
# 6 0.0000 0.0000 0.0000 0.0000 0.0000 25.2525
#
#
#
# Elastic Compliance Matrix: (Units=1/GPa)
#
#
# Indices 1 2 3 4 5 6 
#
# 1 0.011207 -0.003633 -0.000078 0.000000 0.000000 0.000000
# 2 -0.003633 0.007489 -0.005064 0.000000 0.000000 0.000000
# 3 -0.000078 -0.005064 0.022926 0.000000 0.000000 0.000000
# 4 0.000000 0.000000 0.000000 -0.033565 0.000000 0.000000
# 5 0.000000 0.000000 0.000000 0.000000 0.131920 0.000000
# 6 0.000000 0.000000 0.000000 0.000000 0.000000 0.039600
#
#
# Mechanical properties :
#
#
# Convention : Reuss Voigt Hill
#
# Bulk Modulus (GPa) = 41.54004 66.19122 53.86563
# Shear Modulus (GPa) = 24.37255 16.33305 20.35280
#
# Velocity S-wave (km/s) = 3.47977 2.84861 3.17989
# Velocity P-wave (km/s) = 6.06489 6.61094 6.34380
#
# Compressibility (1/GPa) = 0.02407316
#
# Stress axis : x y z
#
# Youngs Moduli (GPa) = 89.23263 133.53415 43.61851
#
# Poissons Ratio (x) = 0.48508 0.00340
# Poissons Ratio (y) = 0.32415 0.22086
# Poissons Ratio (z) = 0.00696 0.67616
#
# Static dielectric constant tensor:
#      x y z
#    x 1.739100 0.000000 0.000000 
#    y 0.000000 1.761030 0.000000 
#    z 0.000000 0.000000 1.742620 
# 
# From -- ./inp_files/14395.got.cif
#   From: 2010.05.17/outbox.cif.g08.bks.cpg/sg21_8_cif.got.tgz:14395.got - 2010.06.03 23:14:55.
