data_PCOD9323278
_publ_section_title
;
Structure prediction by ZEFSAII (Michael W. Deem and Ramdas Pophale) SiO2 
 PCOD9323278
Probable space group: C 2 2 2
;
_chemical_formula_sum "Si O2"
_cell_formula_units_Z 48
_cell_length_a 15.528888
_cell_length_b 9.682321
_cell_length_c 17.517262
_cell_angle_alpha 90.000000
_cell_angle_beta 90.000000
_cell_angle_gamma 90.000000
_cell_volume 2633.819812
_symmetry_space_group_name_H-M "C 2 2 2"
_symmetry_group_IT_number 21
_symmetry_cell_setting 'orthorhombic'
loop_
_space_group_symop_operation_xyz
x,y,z
-x,-y,z
x,-y,-z
-x,y,-z
1/2+x,1/2+y,z
1/2-x,1/2-y,z
1/2+x,1/2-y,-z
1/2-x,1/2+y,-z
loop_
_atom_site_type_symbol
_atom_site_label
_atom_site_fract_x
_atom_site_fract_y
_atom_site_fract_z
Si Si1 0.395905 0.340564 0.856809
Si Si2 0.894608 0.658222 0.000000
Si Si3 0.500000 0.332200 0.412669
Si Si4 0.165881 0.834647 0.314427
Si Si5 0.665881 0.334647 0.685573
Si Si6 0.895905 0.159436 0.856809
O O1 0.367422 0.239340 0.924059
O O2 0.356713 0.308407 0.774361
O O3 0.375983 0.500000 0.876438
O O4 0.500000 0.331308 0.849767
O O5 0.866154 0.500000 0.000000
O O6 0.867422 0.739340 0.075941
O O7 0.000000 0.659467 0.000000
O O8 0.500000 0.500000 0.413622
O O9 0.500000 0.283939 0.500000
O O10 0.584981 0.291870 0.366210
O O11 0.415019 0.291870 0.366210
O O12 0.250000 0.750000 0.335855
O O13 0.178263 0.000000 0.322687
O O14 0.750000 0.250000 0.664145
O O15 0.643287 0.308407 0.774361
#
# Coordination Sequence:
#
# PCOD9323278 Si02
#       6
#     8   8   8   8   8   8
#     4   9  16  30  51  72 100 141 186 222 258 314
#     4   9  17  27  44  75 108 136 174 224 276 315
#     4   9  18  36  61  84 109 144 182 219 265 327
#     4  10  20  35  56  83 111 143 183 224 268 321
#     4  10  20  35  56  83 111 143 183 224 268 321
#     4   9  16  30  51  72 100 141 186 222 258 314
#
# _framework density 18.224481999999998
#
# number of rings (size 3 to 8) (size 9 to 14) (size 15 to 20)
#    0.000    2.667    1.667    0.500    0.000    4.000 
#    0.000    1.667    0.000    1.000    0.000    0.000 
#    0.000    0.000    0.000    0.000    0.000    0.000 
#
# Total GULP energy -133934.027703 kJ/mol
# GULP energy per Si atom -5580.584488 kJ/mol
# Density = 1.818300 g / cm^3
# Si number density = 18.224482 Si / 1000 Ang^3
#
#
#
# Elastic Constant Matrix: (Units=GPa)
#
#
# Indices 1 2 3 4 5 6 
#
# 1 111.6493 58.3212 78.0812 0.0000 0.0000 0.0000
# 2 58.3212 61.8422 73.6612 0.0000 0.0000 0.0000
# 3 78.0812 73.6612 144.7519 0.0000 0.0000 0.0000
# 4 0.0000 0.0000 0.0000 8.4750 0.0000 0.0000
# 5 0.0000 0.0000 0.0000 0.0000 -7.7668 0.0000
# 6 0.0000 0.0000 0.0000 0.0000 0.0000 25.6912
#
#
#
# Elastic Compliance Matrix: (Units=1/GPa)
#
#
# Indices 1 2 3 4 5 6 
#
# 1 0.018068 -0.013787 -0.002730 0.000000 0.000000 0.000000
# 2 -0.013787 0.051576 -0.018809 0.000000 0.000000 0.000000
# 3 -0.002730 -0.018809 0.017952 0.000000 0.000000 0.000000
# 4 0.000000 0.000000 0.000000 0.117994 0.000000 0.000000
# 5 0.000000 0.000000 0.000000 0.000000 -0.128753 0.000000
# 6 0.000000 0.000000 0.000000 0.000000 0.000000 0.038924
#
#
# Mechanical properties :
#
#
# Convention : Reuss Voigt Hill
#
# Bulk Modulus (GPa) = 59.01842 82.04118 70.52980
# Shear Modulus (GPa) = 26.03334 12.49187 19.26260
#
# Velocity S-wave (km/s) = 3.78363 2.62094 3.25462
# Velocity P-wave (km/s) = 7.17929 7.36708 7.27379
#
# Compressibility (1/GPa) = 0.01694386
#
# Stress axis : x y z
#
# Youngs Moduli (GPa) = 55.34728 19.38880 55.70309
#
# Poissons Ratio (x) = 0.26732 0.15206
# Poissons Ratio (y) = 0.76310 1.04771
# Poissons Ratio (z) = 0.15109 0.36468
#
# Static dielectric constant tensor:
#      x y z
#    x 1.627870 0.000000 0.000000 
#    y 0.000000 1.603630 0.000000 
#    z 0.000000 0.000000 1.606620 
# 
# From -- ./inp_files/35695.got.cif
#   From: 2010.05.17/outbox.cif.g08.bks.cpg/sg21_18_cif.got.tgz:35695.got - 2010.06.03 23:14:55.
