data_PCOD9323961
_publ_section_title
;
Structure prediction by ZEFSAII (Michael W. Deem and Ramdas Pophale) SiO2 
 PCOD9323961
Probable space group: C 2 2 2
;
_chemical_formula_sum "Si O2"
_cell_formula_units_Z 32
_cell_length_a 5.307627
_cell_length_b 34.924246
_cell_length_c 7.284561
_cell_angle_alpha 90.000000
_cell_angle_beta 90.000000
_cell_angle_gamma 90.000000
_cell_volume 1350.301710
_symmetry_space_group_name_H-M "C 2 2 2"
_symmetry_group_IT_number 21
_symmetry_cell_setting 'orthorhombic'
loop_
_space_group_symop_operation_xyz
x,y,z
-x,-y,z
x,-y,-z
-x,y,-z
1/2+x,1/2+y,z
1/2-x,1/2-y,z
1/2+x,1/2-y,-z
1/2-x,1/2+y,-z
loop_
_atom_site_type_symbol
_atom_site_label
_atom_site_fract_x
_atom_site_fract_y
_atom_site_fract_z
Si Si1 0.026738 0.400295 0.777228
Si Si2 0.514518 0.638681 0.214318
Si Si3 0.495576 0.728152 0.721213
Si Si4 0.743127 0.982945 0.707163
O O1 0.230959 0.368754 0.718305
O O2 0.170983 0.438430 0.707502
O O3 0.747288 0.387291 0.711701
O O4 0.000000 0.403489 0.000000
O O5 0.548246 0.683888 0.229550
O O6 0.500000 0.628266 0.000000
O O7 0.500000 0.729514 0.500000
O O8 0.250000 0.750000 0.788853
O O9 0.750000 0.750000 0.782609
O O10 0.500000 0.000000 0.803065
O O11 0.746972 0.000000 0.500000
O O12 0.000000 0.000000 0.788255
#
# Coordination Sequence:
#
# PCOD9323961 Si02
#       4
#     8   8   8   8
#     4  10  21  39  60  85 121 155 196 247 302 358
#     4  10  21  38  60  89 119 155 200 245 294 358
#     4  10  21  38  58  85 123 158 199 244 293 350
#     4  10  21  39  59  85 119 151 194 254 296 364
#
# _framework density 23.698405999999999
#
# number of rings (size 3 to 8) (size 9 to 14) (size 15 to 20)
#    0.000    2.000    0.000    3.000    0.000    1.500 
#   13.500    1.250    0.000    0.000    0.000    0.000 
#    0.000    0.000    0.000    0.000    0.000    0.000 
#
# Total GULP energy -89195.273432 kJ/mol
# GULP energy per Si atom -5574.704590 kJ/mol
# Density = 2.364447 g / cm^3
# Si number density = 23.698406 Si / 1000 Ang^3
#
#
#
# Elastic Constant Matrix: (Units=GPa)
#
#
# Indices 1 2 3 4 5 6 
#
# 1 244.0519 74.6736 20.3523 0.0000 0.0000 0.0000
# 2 74.6736 149.4562 -8.1631 0.0000 0.0000 0.0000
# 3 20.3523 -8.1631 101.3703 0.0000 0.0000 0.0000
# 4 0.0000 0.0000 0.0000 16.0755 0.0000 0.0000
# 5 0.0000 0.0000 0.0000 0.0000 -36.1120 0.0000
# 6 0.0000 0.0000 0.0000 0.0000 0.0000 50.3092
#
#
#
# Elastic Compliance Matrix: (Units=1/GPa)
#
#
# Indices 1 2 3 4 5 6 
#
# 1 0.004979 -0.002554 -0.001205 0.000000 0.000000 0.000000
# 2 -0.002554 0.008030 0.001159 0.000000 0.000000 0.000000
# 3 -0.001205 0.001159 0.010200 0.000000 0.000000 0.000000
# 4 0.000000 0.000000 0.000000 0.062207 0.000000 0.000000
# 5 0.000000 0.000000 0.000000 0.000000 -0.027692 0.000000
# 6 0.000000 0.000000 0.000000 0.000000 0.000000 0.019877
#
#
# Mechanical properties :
#
#
# Convention : Reuss Voigt Hill
#
# Bulk Modulus (GPa) = 55.52376 74.28934 64.90655
# Shear Modulus (GPa) = 56.30344 33.25559 44.77951
#
# Velocity S-wave (km/s) = 4.87954 3.75011 4.35162
# Velocity P-wave (km/s) = 7.43147 7.08286 7.25926
#
# Compressibility (1/GPa) = 0.01801031
#
# Stress axis : x y z
#
# Youngs Moduli (GPa) = 200.82833 124.53043 98.03747
#
# Poissons Ratio (x) = 0.31801 0.11817
# Poissons Ratio (y) = 0.51286 -0.11366
# Poissons Ratio (z) = 0.24207 -0.14438
#
# Static dielectric constant tensor:
#      x y z
#    x 1.948650 0.000000 0.000000 
#    y 0.000000 2.100430 0.000000 
#    z 0.000000 0.000000 1.919840 
# 
# From -- ./inp_files/9032.got.cif
#   From: 2010.05.17/outbox.cif.g08.bks.cpg/sg21_5_cif.got.tgz:9032.got - 2010.06.03 23:14:55.
