data_PCOD9323578
_publ_section_title
;
Structure prediction by ZEFSAII (Michael W. Deem and Ramdas Pophale) SiO2 
 PCOD9323578
Probable space group: C 2 2 2
;
_chemical_formula_sum "Si O2"
_cell_formula_units_Z 40
_cell_length_a 12.785232
_cell_length_b 15.143954
_cell_length_c 8.769010
_cell_angle_alpha 90.000000
_cell_angle_beta 90.000000
_cell_angle_gamma 90.000000
_cell_volume 1697.846643
_symmetry_space_group_name_H-M "C 2 2 2"
_symmetry_group_IT_number 21
_symmetry_cell_setting 'orthorhombic'
loop_
_space_group_symop_operation_xyz
x,y,z
-x,-y,z
x,-y,-z
-x,y,-z
1/2+x,1/2+y,z
1/2-x,1/2-y,z
1/2+x,1/2-y,-z
1/2-x,1/2+y,-z
loop_
_atom_site_type_symbol
_atom_site_label
_atom_site_fract_x
_atom_site_fract_y
_atom_site_fract_z
Si Si1 0.000000 0.332158 0.500000
Si Si2 0.390793 0.050273 0.707906
Si Si3 0.158714 0.025768 0.324020
Si Si4 0.686876 0.829281 0.964794
Si Si5 0.829643 0.000000 0.000000
Si Si6 0.866220 0.229819 0.726984
O O1 0.905933 0.393717 0.444871
O O2 0.958374 0.274411 0.635910
O O3 0.384016 0.118512 0.847585
O O4 0.500000 0.000000 0.727895
O O5 0.283602 0.995839 0.694625
O O6 0.125000 0.125999 0.296760
O O7 0.131233 0.000000 0.500000
O O8 0.117149 0.981197 0.164803
O O9 0.750000 0.750000 0.882597
O O10 0.636608 0.776157 0.106154
O O11 0.761220 0.909835 0.022118
O O12 0.750000 0.250000 0.663471
#
# Coordination Sequence:
#
# PCOD9323578 Si02
#       6
#     4   8   8   8   4   8
#     4  12  27  42  67 110 146 184 246 303 374 447
#     4  11  24  41  66 107 145 184 244 307 371 436
#     4  11  22  41  72 100 141 193 243 298 368 436
#     4  10  22  41  68 100 144 193 240 300 371 438
#     4  10  20  38  67 104 133 190 260 282 360 445
#     4  11  22  45  66  98 151 192 230 306 373 437
#
# _framework density 23.559253999999999
#
# number of rings (size 3 to 8) (size 9 to 14) (size 15 to 20)
#    0.000    1.200    4.000    3.900    2.800    4.800 
#    7.200    0.500    0.000    0.000    0.000    0.000 
#    0.000    0.000    0.000    0.000    0.000    0.000 
#
# Total GULP energy -111525.577903 kJ/mol
# GULP energy per Si atom -5576.278895 kJ/mol
# Density = 2.350563 g / cm^3
# Si number density = 23.559254 Si / 1000 Ang^3
#
#
#
# Elastic Constant Matrix: (Units=GPa)
#
#
# Indices 1 2 3 4 5 6 
#
# 1 73.6309 22.8680 28.1266 0.0000 0.0000 0.0000
# 2 22.8680 155.0622 68.3284 0.0000 0.0000 0.0000
# 3 28.1266 68.3284 184.1254 0.0000 0.0000 0.0000
# 4 0.0000 0.0000 0.0000 -633.5870 0.0000 0.0000
# 5 0.0000 0.0000 0.0000 0.0000 -14.6350 0.0000
# 6 0.0000 0.0000 0.0000 0.0000 0.0000 29.4577
#
#
#
# Elastic Compliance Matrix: (Units=1/GPa)
#
#
# Indices 1 2 3 4 5 6 
#
# 1 0.014675 -0.001406 -0.001720 0.000000 0.000000 0.000000
# 2 -0.001406 0.007845 -0.002696 0.000000 0.000000 0.000000
# 3 -0.001720 -0.002696 0.006694 0.000000 0.000000 0.000000
# 4 0.000000 0.000000 0.000000 -0.001578 0.000000 0.000000
# 5 0.000000 0.000000 0.000000 0.000000 -0.068329 0.000000
# 6 0.000000 0.000000 0.000000 0.000000 0.000000 0.033947
#
#
# Mechanical properties :
#
#
# Convention : Reuss Voigt Hill
#
# Bulk Modulus (GPa) = 56.91838 72.38494 64.65166
# Shear Modulus (GPa) = 464.93175 -104.18647 180.37264
#
# Velocity S-wave (km/s) = 14.06322 -6.65726 8.75942
# Velocity P-wave (km/s) = 16.96794 5.31986 11.39320
#
# Compressibility (1/GPa) = 0.01756902
#
# Stress axis : x y z
#
# Youngs Moduli (GPa) = 68.14314 127.47727 149.37933
#
# Poissons Ratio (x) = 0.17928 0.25691
# Poissons Ratio (y) = 0.09583 0.40276
# Poissons Ratio (z) = 0.11719 0.34371
#
# Static dielectric constant tensor:
#      x y z
#    x 2.900030 0.000000 0.000000 
#    y 0.000000 1.904710 0.000000 
#    z 0.000000 0.000000 1.984850 
# 
# From -- ./inp_files/14593.got.cif
#   From: 2010.05.17/outbox.cif.g08.bks.cpg/sg21_8_cif.got.tgz:14593.got - 2010.06.03 23:14:55.
