data_PCOD9323285
_publ_section_title
;
Structure prediction by ZEFSAII (Michael W. Deem and Ramdas Pophale) SiO2 
 PCOD9323285
Probable space group: C 2 2 2
;
_chemical_formula_sum "Si O2"
_cell_formula_units_Z 48
_cell_length_a 15.961665
_cell_length_b 8.794018
_cell_length_c 19.131532
_cell_angle_alpha 90.000000
_cell_angle_beta 90.000000
_cell_angle_gamma 90.000000
_cell_volume 2685.438992
_symmetry_space_group_name_H-M "C 2 2 2"
_symmetry_group_IT_number 21
_symmetry_cell_setting 'orthorhombic'
loop_
_space_group_symop_operation_xyz
x,y,z
-x,-y,z
x,-y,-z
-x,y,-z
1/2+x,1/2+y,z
1/2-x,1/2-y,z
1/2+x,1/2-y,-z
1/2-x,1/2+y,-z
loop_
_atom_site_type_symbol
_atom_site_label
_atom_site_fract_x
_atom_site_fract_y
_atom_site_fract_z
Si Si1 0.408678 0.054317 0.168816
Si Si2 0.259557 0.930273 0.077121
Si Si3 0.092443 0.927661 0.672666
Si Si4 0.168254 0.860737 0.817943
Si Si5 0.090645 0.563447 0.667115
Si Si6 0.252684 0.565429 0.577534
O O1 0.399425 0.235481 0.159867
O O2 0.394191 0.021666 0.251443
O O3 0.500000 0.000000 0.150833
O O4 0.342566 0.971505 0.120254
O O5 0.250000 0.750000 0.073968
O O6 0.189672 0.019848 0.122172
O O7 0.262630 0.000000 0.000000
O O8 0.136507 0.943730 0.748434
O O9 0.084075 0.745928 0.663819
O O10 0.160951 0.981661 0.616058
O O11 0.000000 0.000000 0.668937
O O12 0.250000 0.750000 0.803382
O O13 0.170416 0.515504 0.621213
O O14 0.000000 0.500000 0.645340
O O15 0.249730 0.500000 0.500000
O O16 0.250000 0.750000 0.576144
#
# Coordination Sequence:
#
# PCOD9323285 Si02
#       6
#     8   8   8   8   8   8
#     4   9  18  35  58  81 107 139 175 222 275 330
#     4  11  22  36  55  79 109 146 185 225 270 324
#     4  10  20  35  57  81 108 139 177 227 274 318
#     4   9  18  36  58  78 106 143 180 220 272 332
#     4   9  19  37  58  80 107 141 180 220 270 328
#     4  10  21  37  54  76 109 147 181 219 269 322
#
# _framework density 17.874172000000002
#
# number of rings (size 3 to 8) (size 9 to 14) (size 15 to 20)
#    0.000    2.333    0.000    5.000    0.000    6.333 
#    0.000    5.000    0.000    3.500    0.000    0.000 
#    0.000    0.000    0.000    0.000    0.000    0.000 
#
# Total GULP energy -133836.518654 kJ/mol
# GULP energy per Si atom -5576.521611 kJ/mol
# Density = 1.783349 g / cm^3
# Si number density = 17.874172 Si / 1000 Ang^3
#
#
#
# Elastic Constant Matrix: (Units=GPa)
#
#
# Indices 1 2 3 4 5 6 
#
# 1 125.7819 45.9912 90.9088 0.0000 0.0000 0.0000
# 2 45.9912 57.3013 58.8679 0.0000 0.0000 0.0000
# 3 90.9088 58.8679 129.0233 0.0000 0.0000 0.0000
# 4 0.0000 0.0000 0.0000 30.8823 0.0000 0.0000
# 5 0.0000 0.0000 0.0000 0.0000 -1.3963 0.0000
# 6 0.0000 0.0000 0.0000 0.0000 0.0000 37.2587
#
#
#
# Elastic Compliance Matrix: (Units=1/GPa)
#
#
# Indices 1 2 3 4 5 6 
#
# 1 0.016378 -0.002428 -0.010432 0.000000 0.000000 0.000000
# 2 -0.002428 0.033209 -0.013441 0.000000 0.000000 0.000000
# 3 -0.010432 -0.013441 0.021233 0.000000 0.000000 0.000000
# 4 0.000000 0.000000 0.000000 0.032381 0.000000 0.000000
# 5 0.000000 0.000000 0.000000 0.000000 -0.716159 0.000000
# 6 0.000000 0.000000 0.000000 0.000000 0.000000 0.026839
#
#
# Mechanical properties :
#
#
# Convention : Reuss Voigt Hill
#
# Bulk Modulus (GPa) = 54.89041 78.18247 66.53644
# Shear Modulus (GPa) = -9.47966 21.10482 5.81258
#
# Velocity S-wave (km/s) = -2.30544 3.43992 1.80527
# Velocity P-wave (km/s) = 4.86716 7.72094 6.45376
#
# Compressibility (1/GPa) = 0.01821812
#
# Stress axis : x y z
#
# Youngs Moduli (GPa) = 61.05913 30.11235 47.09611
#
# Poissons Ratio (x) = 0.07312 0.49129
# Poissons Ratio (y) = 0.14826 0.63302
# Poissons Ratio (z) = 0.63695 0.40474
#
# Static dielectric constant tensor:
#      x y z
#    x 1.632630 0.000000 0.000000 
#    y 0.000000 1.611330 0.000000 
#    z 0.000000 0.000000 1.603110 
# 
# From -- ./inp_files/36641.got.cif
#   From: 2010.05.17/outbox.cif.g08.bks.cpg/sg21_19_cif.got.tgz:36641.got - 2010.06.03 23:14:55.
