data_PCOD9323202
_publ_section_title
;
Structure prediction by ZEFSAII (Michael W. Deem and Ramdas Pophale) SiO2 
 PCOD9323202
Probable space group: C 2 2 2
;
_chemical_formula_sum "Si O2"
_cell_formula_units_Z 48
_cell_length_a 25.953830
_cell_length_b 8.746913
_cell_length_c 11.890163
_cell_angle_alpha 90.000000
_cell_angle_beta 90.000000
_cell_angle_gamma 90.000000
_cell_volume 2699.255972
_symmetry_space_group_name_H-M "C 2 2 2"
_symmetry_group_IT_number 21
_symmetry_cell_setting 'orthorhombic'
loop_
_space_group_symop_operation_xyz
x,y,z
-x,-y,z
x,-y,-z
-x,y,-z
1/2+x,1/2+y,z
1/2-x,1/2-y,z
1/2+x,1/2-y,-z
1/2-x,1/2+y,-z
loop_
_atom_site_type_symbol
_atom_site_label
_atom_site_fract_x
_atom_site_fract_y
_atom_site_fract_z
Si Si1 0.000000 0.321783 0.865506
Si Si2 0.193283 0.317003 0.631638
Si Si3 0.405128 0.681360 0.731074
Si Si4 0.806717 0.682997 0.368362
Si Si5 0.439478 0.826774 0.500000
Si Si6 0.905128 0.818640 0.731074
O O1 0.052418 0.246837 0.817333
O O2 0.000000 0.500000 0.830440
O O3 0.947582 0.246837 0.817333
O O4 0.000000 0.312028 0.000000
O O5 0.250000 0.250000 0.651310
O O6 0.179780 0.275901 0.500000
O O7 0.194436 0.500000 0.638305
O O8 0.152231 0.252229 0.721343
O O9 0.347769 0.752229 0.721343
O O10 0.426129 0.732590 0.609945
O O11 0.402139 0.500000 0.743243
O O12 0.750000 0.750000 0.348690
O O13 0.500000 0.846238 0.500000
O O14 0.426129 0.732590 0.390055
O O15 0.416469 0.000000 0.500000
#
# Coordination Sequence:
#
# PCOD9323202 Si02
#       6
#     8   8   8   8   8   8
#     4  11  25  44  63  82 109 149 195 241 290 341
#     4  10  20  34  54  81 119 158 192 231 276 336
#     4  12  23  35  57  85 117 151 188 234 286 343
#     4  10  20  34  54  81 119 158 192 231 276 336
#     4  11  21  33  52  79 115 152 188 227 279 343
#     4  12  23  35  57  85 117 151 188 234 286 343
#
# _framework density 17.782678000000001
#
# number of rings (size 3 to 8) (size 9 to 14) (size 15 to 20)
#    0.000    1.000    3.333    5.000    0.000    3.333 
#    0.000    0.000    0.000    1.000    0.000    0.000 
#    0.000    0.000    0.000    0.000    0.000    0.000 
#
# Total GULP energy -133924.029023 kJ/mol
# GULP energy per Si atom -5580.167876 kJ/mol
# Density = 1.774220 g / cm^3
# Si number density = 17.782678 Si / 1000 Ang^3
#
#
#
# Elastic Constant Matrix: (Units=GPa)
#
#
# Indices 1 2 3 4 5 6 
#
# 1 161.1037 72.4097 38.6220 0.0000 0.0000 0.0000
# 2 72.4097 145.5996 33.9430 0.0000 0.0000 0.0000
# 3 38.6220 33.9430 50.3733 0.0000 0.0000 0.0000
# 4 0.0000 0.0000 0.0000 38.6106 0.0000 0.0000
# 5 0.0000 0.0000 0.0000 0.0000 10.3759 0.0000
# 6 0.0000 0.0000 0.0000 0.0000 0.0000 38.7366
#
#
#
# Elastic Compliance Matrix: (Units=1/GPa)
#
#
# Indices 1 2 3 4 5 6 
#
# 1 0.008775 -0.003317 -0.004493 0.000000 0.000000 0.000000
# 2 -0.003317 0.009402 -0.003792 0.000000 0.000000 0.000000
# 3 -0.004493 -0.003792 0.025852 0.000000 0.000000 0.000000
# 4 0.000000 0.000000 0.000000 0.025900 0.000000 0.000000
# 5 0.000000 0.000000 0.000000 0.000000 0.096377 0.000000
# 6 0.000000 0.000000 0.000000 0.000000 0.000000 0.025815
#
#
# Mechanical properties :
#
#
# Convention : Reuss Voigt Hill
#
# Bulk Modulus (GPa) = 48.01956 71.89177 59.95567
# Shear Modulus (GPa) = 22.49551 31.68475 27.09013
#
# Velocity S-wave (km/s) = 3.56058 4.22569 3.90731
# Velocity P-wave (km/s) = 6.63067 8.02025 7.35833
#
# Compressibility (1/GPa) = 0.02082485
#
# Stress axis : x y z
#
# Youngs Moduli (GPa) = 113.96037 106.36490 38.68157
#
# Poissons Ratio (x) = 0.35276 0.17380
# Poissons Ratio (y) = 0.37795 0.14669
# Poissons Ratio (z) = 0.51204 0.40336
#
# Static dielectric constant tensor:
#      x y z
#    x 1.673000 0.000000 0.000000 
#    y 0.000000 1.601150 0.000000 
#    z 0.000000 0.000000 1.576370 
# 
# From -- ./inp_files/27720.got.cif
#   From: 2010.05.17/outbox.cif.g08.bks.cpg/sg21_14_cif.got.tgz:27720.got - 2010.06.03 23:14:55.
