data_PCOD9323916
_publ_section_title
;
Structure prediction by ZEFSAII (Michael W. Deem and Ramdas Pophale) SiO2 
 PCOD9323916
Probable space group: C 2 2 2
;
_chemical_formula_sum "Si O2"
_cell_formula_units_Z 28
_cell_length_a 24.254172
_cell_length_b 5.044621
_cell_length_c 9.258081
_cell_angle_alpha 90.000000
_cell_angle_beta 90.000000
_cell_angle_gamma 90.000000
_cell_volume 1132.754960
_symmetry_space_group_name_H-M "C 2 2 2"
_symmetry_group_IT_number 21
_symmetry_cell_setting 'orthorhombic'
loop_
_space_group_symop_operation_xyz
x,y,z
-x,-y,z
x,-y,-z
-x,y,-z
1/2+x,1/2+y,z
1/2-x,1/2-y,z
1/2+x,1/2-y,-z
1/2-x,1/2+y,-z
loop_
_atom_site_type_symbol
_atom_site_label
_atom_site_fract_x
_atom_site_fract_y
_atom_site_fract_z
Si Si1 0.938899 0.256699 0.932867
Si Si2 0.596761 0.007282 0.335886
Si Si3 0.167872 0.990097 0.668539
Si Si4 0.250000 0.750000 0.100346
O O1 0.944082 0.348346 0.769059
O O2 0.906104 0.500000 0.000000
O O3 0.000000 0.249853 0.000000
O O4 0.911324 0.000000 0.000000
O O5 0.650199 0.816104 0.314545
O O6 0.577732 0.000000 0.500000
O O7 0.614809 0.311752 0.314700
O O8 0.208287 0.102035 0.788910
O O9 0.186887 0.000000 0.500000
O O10 0.230560 0.500000 0.000000
#
# Coordination Sequence:
#
# PCOD9323916 Si02
#       4
#     8   8   8   4
#     4  10  21  37  59  89 122 159 202 257 325 381
#     4  10  21  39  63  89 120 165 218 262 309 378
#     4  10  23  41  62  88 123 171 215 259 316 377
#     4  12  26  40  60  96 132 164 212 272 324 374
#
# _framework density 24.718495000000001
#
# number of rings (size 3 to 8) (size 9 to 14) (size 15 to 20)
#    0.000    1.714    0.000    3.429    0.000   11.429 
#    0.000    2.857    0.000    6.857    0.000    0.000 
#    0.000    0.000    0.000    0.000    0.000    0.000 
#
# Total GULP energy -77978.398766 kJ/mol
# GULP energy per Si atom -5569.885626 kJ/mol
# Density = 2.466223 g / cm^3
# Si number density = 24.718495 Si / 1000 Ang^3
#
#
#
# Elastic Constant Matrix: (Units=GPa)
#
#
# Indices 1 2 3 4 5 6 
#
# 1 44.8081 -1.8985 55.1585 0.0000 0.0000 0.0000
# 2 -1.8985 200.2930 59.9705 0.0000 0.0000 0.0000
# 3 55.1585 59.9705 217.8044 0.0000 0.0000 0.0000
# 4 0.0000 0.0000 0.0000 95.0761 0.0000 0.0000
# 5 0.0000 0.0000 0.0000 0.0000 39.2118 0.0000
# 6 0.0000 0.0000 0.0000 0.0000 0.0000 4.6770
#
#
#
# Elastic Compliance Matrix: (Units=1/GPa)
#
#
# Indices 1 2 3 4 5 6 
#
# 1 0.034187 0.003178 -0.009533 0.000000 0.000000 0.000000
# 2 0.003178 0.005737 -0.002384 0.000000 0.000000 0.000000
# 3 -0.009533 -0.002384 0.007662 0.000000 0.000000 0.000000
# 4 0.000000 0.000000 0.000000 0.010518 0.000000 0.000000
# 5 0.000000 0.000000 0.000000 0.000000 0.025503 0.000000
# 6 0.000000 0.000000 0.000000 0.000000 0.000000 0.213812
#
#
# Mechanical properties :
#
#
# Convention : Reuss Voigt Hill
#
# Bulk Modulus (GPa) = 33.21413 76.59628 54.90520
# Shear Modulus (GPa) = 15.38781 51.10466 33.24623
#
# Velocity S-wave (km/s) = 2.49775 4.55187 3.67139
# Velocity P-wave (km/s) = 4.66738 7.66034 6.34292
#
# Compressibility (1/GPa) = 0.03010767
#
# Stress axis : x y z
#
# Youngs Moduli (GPa) = 29.25088 174.31455 130.51408
#
# Poissons Ratio (x) = -0.55403 1.24418
# Poissons Ratio (y) = -0.09297 0.31121
# Poissons Ratio (z) = 0.27885 0.41565
#
# Static dielectric constant tensor:
#      x y z
#    x 1.867650 0.000000 0.000000 
#    y 0.000000 1.692080 0.000000 
#    z 0.000000 0.000000 2.393690 
# 
# From -- ./inp_files/18795.got.cif
#   From: 2010.05.17/outbox.cif.g08.bks.cpg/sg21_10_cif.got.tgz:18795.got - 2010.06.03 23:14:55.
