data_PCOD9323843
_publ_section_title
;
Structure prediction by ZEFSAII (Michael W. Deem and Ramdas Pophale) SiO2 
 PCOD9323843
Probable space group: C 2 2 2
;
_chemical_formula_sum "Si O2"
_cell_formula_units_Z 48
_cell_length_a 7.853729
_cell_length_b 30.361482
_cell_length_c 10.146616
_cell_angle_alpha 90.000000
_cell_angle_beta 90.000000
_cell_angle_gamma 90.000000
_cell_volume 2419.469227
_symmetry_space_group_name_H-M "C 2 2 2"
_symmetry_group_IT_number 21
_symmetry_cell_setting 'orthorhombic'
loop_
_space_group_symop_operation_xyz
x,y,z
-x,-y,z
x,-y,-z
-x,y,-z
1/2+x,1/2+y,z
1/2-x,1/2-y,z
1/2+x,1/2-y,-z
1/2-x,1/2+y,-z
loop_
_atom_site_type_symbol
_atom_site_label
_atom_site_fract_x
_atom_site_fract_y
_atom_site_fract_z
Si Si1 0.699904 0.095067 0.727551
Si Si2 0.704732 0.499126 0.844191
Si Si3 0.097365 0.217907 0.875529
Si Si4 0.317165 0.857033 0.001867
Si Si5 0.314988 0.090989 0.736186
Si Si6 0.504267 0.653747 0.645761
O O1 0.737178 0.045211 0.771080
O O2 0.716980 0.122438 0.862384
O O3 0.504699 0.097503 0.678035
O O4 0.846609 0.119022 0.645095
O O5 0.500000 0.500000 0.849259
O O6 0.763705 0.540166 0.753808
O O7 0.762709 0.500000 0.000000
O O8 0.250000 0.250000 0.827900
O O9 0.000913 0.193549 0.753970
O O10 0.180668 0.176826 0.950414
O O11 0.000000 0.239699 0.000000
O O12 0.671346 0.894680 0.889045
O O13 0.500000 0.834926 0.000000
O O14 0.171744 0.123345 0.675588
O O15 0.500000 0.673646 0.500000
#
# Coordination Sequence:
#
# PCOD9323843 Si02
#       6
#     8   8   8   8   8   8
#     4  11  20  36  62  91 129 174 213 268 325 384
#     4  11  20  30  56  96 136 171 217 278 335 377
#     4  11  22  40  70  99 128 153 205 267 334 394
#     4   9  18  33  58  91 124 158 202 256 328 387
#     4  10  21  35  59  93 127 168 222 270 319 386
#     4  11  25  45  66  90 128 178 218 260 323 396
#
# _framework density 19.839061999999998
#
# number of rings (size 3 to 8) (size 9 to 14) (size 15 to 20)
#    0.000    1.500    5.000    1.000    0.000    1.333 
#    0.000    2.500    0.000    2.000    0.000    0.000 
#    0.000    0.000    0.000    0.000    0.000    0.000 
#
# Total GULP energy -133674.599436 kJ/mol
# GULP energy per Si atom -5569.774976 kJ/mol
# Density = 1.979391 g / cm^3
# Si number density = 19.839062 Si / 1000 Ang^3
#
#
#
# Elastic Constant Matrix: (Units=GPa)
#
#
# Indices 1 2 3 4 5 6 
#
# 1 90.9663 12.2954 16.0967 0.0000 0.0000 0.0000
# 2 12.2954 94.4295 15.8737 0.0000 0.0000 0.0000
# 3 16.0967 15.8737 86.9738 0.0000 0.0000 0.0000
# 4 0.0000 0.0000 0.0000 -17.0061 0.0000 0.0000
# 5 0.0000 0.0000 0.0000 0.0000 3.1442 0.0000
# 6 0.0000 0.0000 0.0000 0.0000 0.0000 26.3802
#
#
#
# Elastic Compliance Matrix: (Units=1/GPa)
#
#
# Indices 1 2 3 4 5 6 
#
# 1 0.011490 -0.001175 -0.001912 0.000000 0.000000 0.000000
# 2 -0.001175 0.011045 -0.001798 0.000000 0.000000 0.000000
# 3 -0.001912 -0.001798 0.012180 0.000000 0.000000 0.000000
# 4 0.000000 0.000000 0.000000 -0.058803 0.000000 0.000000
# 5 0.000000 0.000000 0.000000 0.000000 0.318046 0.000000
# 6 0.000000 0.000000 0.000000 0.000000 0.000000 0.037907
#
#
# Mechanical properties :
#
#
# Convention : Reuss Voigt Hill
#
# Bulk Modulus (GPa) = 40.08875 40.10011 40.09443
# Shear Modulus (GPa) = 14.28771 17.71058 15.99914
#
# Velocity S-wave (km/s) = 2.68653 2.99107 2.84288
# Velocity P-wave (km/s) = 5.46572 5.67321 5.57043
#
# Compressibility (1/GPa) = 0.02494466
#
# Stress axis : x y z
#
# Youngs Moduli (GPa) = 87.03058 90.53717 82.10277
#
# Poissons Ratio (x) = 0.10635 0.15699
# Poissons Ratio (y) = 0.10223 0.14766
# Poissons Ratio (z) = 0.16642 0.16283
#
# Static dielectric constant tensor:
#      x y z
#    x 1.960960 0.000000 0.000000 
#    y 0.000000 1.698400 0.000000 
#    z 0.000000 0.000000 1.714220 
# 
# From -- ./inp_files/11558.got.cif
#   From: 2010.05.17/outbox.cif.g08.bks.cpg/sg21_6_cif.got.tgz:11558.got - 2010.06.03 23:14:55.
