data_PCOD9323174
_publ_section_title
;
Structure prediction by ZEFSAII (Michael W. Deem and Ramdas Pophale) SiO2 
 PCOD9323174
Probable space group: C 2 2 2
;
_chemical_formula_sum "Si O2"
_cell_formula_units_Z 48
_cell_length_a 13.470002
_cell_length_b 28.026002
_cell_length_c 6.315998
_cell_angle_alpha 90.000000
_cell_angle_beta 90.000000
_cell_angle_gamma 90.000000
_cell_volume 2384.354319
_symmetry_space_group_name_H-M "C 2 2 2"
_symmetry_group_IT_number 21
_symmetry_cell_setting 'orthorhombic'
loop_
_space_group_symop_operation_xyz
x,y,z
-x,-y,z
x,-y,-z
-x,y,-z
1/2+x,1/2+y,z
1/2-x,1/2-y,z
1/2+x,1/2-y,-z
1/2-x,1/2+y,-z
loop_
_atom_site_type_symbol
_atom_site_label
_atom_site_fract_x
_atom_site_fract_y
_atom_site_fract_z
Si Si1 0.000000 0.769780 0.500000
Si Si2 0.783077 0.326784 0.982430
Si Si3 0.205230 0.000000 0.500000
Si Si4 0.260331 0.588639 0.242958
Si Si5 0.903263 0.941820 0.132644
Si Si6 0.599628 0.739984 0.907203
Si Si7 0.643270 0.646040 0.383009
O O1 0.936908 0.742887 0.676930
O O2 0.916610 0.805653 0.409174
O O3 0.809523 0.371646 0.131961
O O4 0.689423 0.297639 0.086724
O O5 0.866273 0.286493 0.964831
O O6 0.741592 0.344261 0.756893
O O7 0.266716 0.956800 0.390626
O O8 0.135933 0.977293 0.684718
O O9 0.329327 0.620279 0.398443
O O10 0.318581 0.566922 0.042456
O O11 0.920748 0.891744 0.250556
O O12 0.000000 0.953567 0.000000
O O13 0.500000 0.717299 0.000000
#
# Coordination Sequence:
#
# PCOD9323174 Si02
#       7
#     4   8   4   8   8   8   8
#     4  12  20  34  58  81 108 153 204 238 286 350
#     4  10  22  39  55  79 116 152 192 246 300 359
#     4  10  22  35  50  78 106 149 194 244 296 351
#     4  10  20  36  53  76 108 147 193 239 293 352
#     4  10  21  33  50  73 112 149 192 238 284 348
#     4  11  23  38  56  82 114 151 200 249 293 358
#     4  10  20  33  56  78 108 154 194 234 292 347
#
# _framework density 20.131238
#
# number of rings (size 3 to 8) (size 9 to 14) (size 15 to 20)
#    0.000    1.667    3.333    1.500    2.333    5.333 
#    0.000    1.667    0.000    0.000    0.000    0.000 
#    0.000   55.333    0.000    0.000    0.000    0.917 
#
# Total GULP energy -133744.576075 kJ/mol
# GULP energy per Si atom -5572.690670 kJ/mol
# Density = 2.008542 g / cm^3
# Si number density = 20.131238 Si / 1000 Ang^3
#
#
#
# Elastic Constant Matrix: (Units=GPa)
#
#
# Indices 1 2 3 4 5 6 
#
# 1 19.4644 3.6941 5.3922 0.0000 0.0000 0.0000
# 2 3.6941 86.6285 21.7136 0.0000 0.0000 0.0000
# 3 5.3922 21.7136 101.5008 0.0000 0.0000 0.0000
# 4 0.0000 0.0000 0.0000 34.8863 0.0000 0.0000
# 5 0.0000 0.0000 0.0000 0.0000 14.3936 0.0000
# 6 0.0000 0.0000 0.0000 0.0000 0.0000 9.0946
#
#
#
# Elastic Compliance Matrix: (Units=1/GPa)
#
#
# Indices 1 2 3 4 5 6 
#
# 1 0.052358 -0.001622 -0.002434 0.000000 0.000000 0.000000
# 2 -0.001622 0.012248 -0.002534 0.000000 0.000000 0.000000
# 3 -0.002434 -0.002534 0.010524 0.000000 0.000000 0.000000
# 4 0.000000 0.000000 0.000000 0.028665 0.000000 0.000000
# 5 0.000000 0.000000 0.000000 0.000000 0.069475 0.000000
# 6 0.000000 0.000000 0.000000 0.000000 0.000000 0.109956
#
#
# Mechanical properties :
#
#
# Convention : Reuss Voigt Hill
#
# Bulk Modulus (GPa) = 16.14261 29.91040 23.02651
# Shear Modulus (GPa) = 15.77007 23.46113 19.61560
#
# Velocity S-wave (km/s) = 2.80190 3.41751 3.12490
# Velocity P-wave (km/s) = 4.30158 5.51928 4.94803
#
# Compressibility (1/GPa) = 0.06194784
#
# Stress axis : x y z
#
# Youngs Moduli (GPa) = 19.09922 81.64686 95.02498
#
# Poissons Ratio (x) = 0.13247 0.23133
# Poissons Ratio (y) = 0.03099 0.24079
# Poissons Ratio (z) = 0.04650 0.20689
#
# Static dielectric constant tensor:
#      x y z
#    x 1.795980 0.000000 0.000000 
#    y 0.000000 1.768890 0.000000 
#    z 0.000000 0.000000 1.812140 
# 
# From -- ./inp_files/4273.got.cif
#   From: 2010.05.17/outbox.cif.g08.bks.cpg/sg21_3_cif.got.tgz:4273.got - 2010.06.03 23:14:55.
