data_PCOD9323429
_publ_section_title
;
Structure prediction by ZEFSAII (Michael W. Deem and Ramdas Pophale) SiO2 
 PCOD9323429
Probable space group: C 2 2 2
;
_chemical_formula_sum "Si O2"
_cell_formula_units_Z 50
_cell_length_a 12.645505
_cell_length_b 18.248062
_cell_length_c 9.838587
_cell_angle_alpha 90.000000
_cell_angle_beta 90.000000
_cell_angle_gamma 90.000000
_cell_volume 2270.312581
_symmetry_space_group_name_H-M "C 2 2 2"
_symmetry_group_IT_number 21
_symmetry_cell_setting 'orthorhombic'
loop_
_space_group_symop_operation_xyz
x,y,z
-x,-y,z
x,-y,-z
-x,y,-z
1/2+x,1/2+y,z
1/2-x,1/2-y,z
1/2+x,1/2-y,-z
1/2-x,1/2+y,-z
loop_
_atom_site_type_symbol
_atom_site_label
_atom_site_fract_x
_atom_site_fract_y
_atom_site_fract_z
Si Si1 0.391124 0.656512 0.425528
Si Si2 0.732897 0.935416 0.393220
Si Si3 0.000000 0.500000 0.000000
Si Si4 0.384578 0.529714 0.200192
Si Si5 0.391421 0.872306 0.832298
Si Si6 0.204325 0.850403 0.029282
Si Si7 0.500000 0.246795 0.000000
Si Si8 0.250000 0.250000 0.741638
O O1 0.500000 0.668982 0.500000
O O2 0.304652 0.623293 0.527940
O O3 0.405405 0.594298 0.310634
O O4 0.346660 0.727931 0.352449
O O5 0.635384 0.895014 0.320748
O O6 0.704487 0.000000 0.500000
O O7 0.806861 0.973240 0.276788
O O8 0.930544 0.554233 0.092068
O O9 0.500000 0.500000 0.167078
O O10 0.331650 0.569483 0.072520
O O11 0.472051 0.807507 0.874212
O O12 0.280300 0.848239 0.901179
O O13 0.268729 0.818140 0.158015
O O14 0.101064 0.799460 0.017327
#
# Coordination Sequence:
#
# PCOD9323429 Si02
#       8
#     8   8   2   8   8   8   4   4
#     4  10  20  39  64  92 134 177 222 281 351 414
#     4  10  22  41  66  99 132 175 225 286 342 415
#     4  10  24  44  74 102 130 188 218 282 370 402
#     4  10  20  36  66  94 134 164 221 281 351 400
#     4  11  23  45  68  96 138 179 228 286 352 416
#     4  11  23  43  66  96 137 175 227 288 348 417
#     4  11  24  43  67  98 137 182 228 282 353 408
#     4  10  22  42  60  90 128 180 216 280 342 410
#
# _framework density 22.023399000000001
#
# number of rings (size 3 to 8) (size 9 to 14) (size 15 to 20)
#    0.000    1.600    3.200    0.960    2.240    0.000 
#    8.640    0.400    0.000    0.000    0.000    0.000 
#    0.000    0.000    0.000    0.000    0.000    0.000 
#
# Total GULP energy -139798.406629 kJ/mol
# GULP energy per Si atom -5591.936265 kJ/mol
# Density = 2.197327 g / cm^3
# Si number density = 22.023399 Si / 1000 Ang^3
#
#
#
# Elastic Constant Matrix: (Units=GPa)
#
#
# Indices 1 2 3 4 5 6 
#
# 1 92.7191 45.9938 39.0169 0.0000 0.0000 0.0000
# 2 45.9938 106.8105 39.4623 0.0000 0.0000 0.0000
# 3 39.0169 39.4623 72.6510 0.0000 0.0000 0.0000
# 4 0.0000 0.0000 0.0000 33.8133 0.0000 0.0000
# 5 0.0000 0.0000 0.0000 0.0000 28.8960 0.0000
# 6 0.0000 0.0000 0.0000 0.0000 0.0000 44.1806
#
#
#
# Elastic Compliance Matrix: (Units=1/GPa)
#
#
# Indices 1 2 3 4 5 6 
#
# 1 0.015489 -0.004499 -0.005874 0.000000 0.000000 0.000000
# 2 -0.004499 0.013020 -0.004656 0.000000 0.000000 0.000000
# 3 -0.005874 -0.004656 0.019448 0.000000 0.000000 0.000000
# 4 0.000000 0.000000 0.000000 0.029574 0.000000 0.000000
# 5 0.000000 0.000000 0.000000 0.000000 0.034607 0.000000
# 6 0.000000 0.000000 0.000000 0.000000 0.000000 0.022634
#
#
# Mechanical properties :
#
#
# Convention : Reuss Voigt Hill
#
# Bulk Modulus (GPa) = 55.87172 57.90295 56.88734
# Shear Modulus (GPa) = 29.27431 31.22514 30.24972
#
# Velocity S-wave (km/s) = 3.64983 3.76948 3.71013
# Velocity P-wave (km/s) = 6.57160 6.73007 6.65131
#
# Compressibility (1/GPa) = 0.01789814
#
# Stress axis : x y z
#
# Youngs Moduli (GPa) = 64.56089 76.80488 51.41872
#
# Poissons Ratio (x) = 0.34558 0.30206
# Poissons Ratio (y) = 0.29049 0.23939
# Poissons Ratio (z) = 0.37926 0.35758
#
# Static dielectric constant tensor:
#      x y z
#    x 1.809720 0.000000 0.000000 
#    y 0.000000 1.809630 0.000000 
#    z 0.000000 0.000000 1.830380 
# 
# From -- ./inp_files/15051.got.cif
#   From: 2010.05.17/outbox.cif.g08.bks.cpg/sg21_8_cif.got.tgz:15051.got - 2010.06.03 23:14:55.
