data_PCOD9323558
_publ_section_title
;
Structure prediction by ZEFSAII (Michael W. Deem and Ramdas Pophale) SiO2 
 PCOD9323558
Probable space group: C 2 2 2
;
_chemical_formula_sum "Si O2"
_cell_formula_units_Z 32
_cell_length_a 5.364139
_cell_length_b 14.209486
_cell_length_c 18.684040
_cell_angle_alpha 90.000000
_cell_angle_beta 90.000000
_cell_angle_gamma 90.000000
_cell_volume 1424.128507
_symmetry_space_group_name_H-M "C 2 2 2"
_symmetry_group_IT_number 21
_symmetry_cell_setting 'orthorhombic'
loop_
_space_group_symop_operation_xyz
x,y,z
-x,-y,z
x,-y,-z
-x,y,-z
1/2+x,1/2+y,z
1/2-x,1/2-y,z
1/2+x,1/2-y,-z
1/2-x,1/2+y,-z
loop_
_atom_site_type_symbol
_atom_site_label
_atom_site_fract_x
_atom_site_fract_y
_atom_site_fract_z
Si Si1 0.239781 0.560777 0.139360
Si Si2 0.132547 0.098316 0.710721
Si Si3 0.250000 0.750000 0.680306
Si Si4 0.250000 0.750000 0.047033
Si Si5 0.604164 0.846915 0.572845
O O1 0.500000 0.500000 0.135038
O O2 0.183386 0.594356 0.221755
O O3 0.267967 0.655224 0.093904
O O4 0.000000 0.500000 0.115982
O O5 0.222143 0.099974 0.628640
O O6 0.956611 0.189640 0.721088
O O7 0.000000 0.000000 0.717663
O O8 0.381062 0.821727 0.626181
O O9 0.500000 0.756284 0.000000
O O10 0.500000 0.889200 0.500000
O O11 0.750000 0.750000 0.552940
#
# Coordination Sequence:
#
# PCOD9323558 Si02
#       5
#     8   8   4   4   8
#     4  11  27  48  76 110 151 193 240 297 357 423
#     4  10  25  41  67  98 134 180 239 292 353 431
#     4  10  22  39  65  90 126 178 230 298 354 413
#     4  12  28  49  79 118 150 192 242 282 360 443
#     4  10  20  38  64  90 128 178 228 293 364 421
#
# _framework density 22.469881999999998
#
# number of rings (size 3 to 8) (size 9 to 14) (size 15 to 20)
#    0.000    1.500    1.250    1.500   12.250    4.000 
#    0.000    3.750    0.000    0.000    0.000    0.000 
#    0.000    0.000    0.000    0.000    0.000    0.000 
#
# Total GULP energy -89310.490977 kJ/mol
# GULP energy per Si atom -5581.905686 kJ/mol
# Density = 2.241874 g / cm^3
# Si number density = 22.469882 Si / 1000 Ang^3
#
#
#
# Elastic Constant Matrix: (Units=GPa)
#
#
# Indices 1 2 3 4 5 6 
#
# 1 101.0626 43.1524 30.9555 0.0000 0.0000 0.0000
# 2 43.1524 125.0175 75.7150 0.0000 0.0000 0.0000
# 3 30.9555 75.7150 119.4352 0.0000 0.0000 0.0000
# 4 0.0000 0.0000 0.0000 33.0776 0.0000 0.0000
# 5 0.0000 0.0000 0.0000 0.0000 57.1715 0.0000
# 6 0.0000 0.0000 0.0000 0.0000 0.0000 28.3321
#
#
#
# Elastic Compliance Matrix: (Units=1/GPa)
#
#
# Indices 1 2 3 4 5 6 
#
# 1 0.011648 -0.003558 -0.000763 0.000000 0.000000 0.000000
# 2 -0.003558 0.014071 -0.007998 0.000000 0.000000 0.000000
# 3 -0.000763 -0.007998 0.013641 0.000000 0.000000 0.000000
# 4 0.000000 0.000000 0.000000 0.030232 0.000000 0.000000
# 5 0.000000 0.000000 0.000000 0.000000 0.017491 0.000000
# 6 0.000000 0.000000 0.000000 0.000000 0.000000 0.035296
#
#
# Mechanical properties :
#
#
# Convention : Reuss Voigt Hill
#
# Bulk Modulus (GPa) = 67.93088 71.68455 69.80771
# Shear Modulus (GPa) = 32.91117 36.76242 34.83679
#
# Velocity S-wave (km/s) = 3.83126 4.04923 3.94175
# Velocity P-wave (km/s) = 7.06180 7.33713 7.20078
#
# Compressibility (1/GPa) = 0.01472085
#
# Stress axis : x y z
#
# Youngs Moduli (GPa) = 85.85176 71.06861 73.30987
#
# Poissons Ratio (x) = 0.25289 0.05595
# Poissons Ratio (y) = 0.30549 0.58632
# Poissons Ratio (z) = 0.06552 0.56840
#
# Static dielectric constant tensor:
#      x y z
#    x 1.843780 0.000000 0.000000 
#    y 0.000000 1.774560 0.000000 
#    z 0.000000 0.000000 1.812230 
# 
# From -- ./inp_files/34478.got.cif
#   From: 2010.05.17/outbox.cif.g08.bks.cpg/sg21_18_cif.got.tgz:34478.got - 2010.06.03 23:14:55.
