data_PCOD9323181
_publ_section_title
;
Structure prediction by ZEFSAII (Michael W. Deem and Ramdas Pophale) SiO2 
 PCOD9323181
Probable space group: C 2 2 2
;
_chemical_formula_sum "Si O2"
_cell_formula_units_Z 56
_cell_length_a 20.185605
_cell_length_b 15.458910
_cell_length_c 7.342848
_cell_angle_alpha 90.000000
_cell_angle_beta 90.000000
_cell_angle_gamma 90.000000
_cell_volume 2291.317001
_symmetry_space_group_name_H-M "C 2 2 2"
_symmetry_group_IT_number 21
_symmetry_cell_setting 'orthorhombic'
loop_
_space_group_symop_operation_xyz
x,y,z
-x,-y,z
x,-y,-z
-x,y,-z
1/2+x,1/2+y,z
1/2-x,1/2-y,z
1/2+x,1/2-y,-z
1/2-x,1/2+y,-z
loop_
_atom_site_type_symbol
_atom_site_label
_atom_site_fract_x
_atom_site_fract_y
_atom_site_fract_z
Si Si1 0.750000 0.750000 0.926603
Si Si2 0.943977 0.741723 0.718849
Si Si3 0.124605 0.831270 0.957019
Si Si4 0.802729 0.000000 0.000000
Si Si5 0.817857 0.636056 0.628958
Si Si6 0.967240 0.411414 0.801557
Si Si7 0.512806 0.596156 0.223565
Si Si8 0.184487 0.440636 0.255808
O O1 0.809228 0.776718 0.055783
O O2 0.770354 0.674630 0.784307
O O3 0.920266 0.764742 0.925854
O O4 0.880977 0.698603 0.626643
O O5 0.003722 0.674144 0.707870
O O6 0.966474 0.837545 0.670662
O O7 0.148566 0.920917 0.057800
O O8 0.086763 0.865156 0.780291
O O9 0.750343 0.955543 0.137416
O O10 0.794350 0.619531 0.424466
O O11 0.835266 0.538984 0.689283
O O12 0.887459 0.409732 0.816617
O O13 0.000000 0.500000 0.719664
O O14 0.000000 0.408749 0.000000
O O15 0.500000 0.500000 0.284572
O O16 0.500000 0.595768 0.000000
#
# Coordination Sequence:
#
# PCOD9323181 Si02
#       8
#     4   8   8   4   8   8   8   8
#     4  10  20  40  62  88 130 186 216 266 340 406
#     4  10  20  37  61  90 128 181 216 272 345 409
#     4  10  20  33  60  92 131 169 220 270 344 389
#     4  12  22  40  64 104 130 172 228 296 326 400
#     4  10  22  43  62  91 131 186 221 265 339 427
#     4  11  21  35  58  91 130 161 205 273 341 398
#     4   9  17  33  57  93 133 165 221 286 344 391
#     4  11  24  40  64  96 133 171 225 273 341 408
#
# _framework density 24.440090000000001
#
# number of rings (size 3 to 8) (size 9 to 14) (size 15 to 20)
#    0.000    1.714    2.857    3.857    0.000    1.714 
#    0.000    3.571    0.000    0.000    0.000    1.000 
#    0.000    0.000    0.000    0.000    0.000    0.000 
#
# Total GULP energy -156211.483474 kJ/mol
# GULP energy per Si atom -5578.981553 kJ/mol
# Density = 2.438446 g / cm^3
# Si number density = 24.440090 Si / 1000 Ang^3
#
#
#
# Elastic Constant Matrix: (Units=GPa)
#
#
# Indices 1 2 3 4 5 6 
#
# 1 116.4456 41.8532 28.0197 0.0000 0.0000 0.0000
# 2 41.8532 166.4636 32.0827 0.0000 0.0000 0.0000
# 3 28.0197 32.0827 70.3357 0.0000 0.0000 0.0000
# 4 0.0000 0.0000 0.0000 16.6135 0.0000 0.0000
# 5 0.0000 0.0000 0.0000 0.0000 13.4300 0.0000
# 6 0.0000 0.0000 0.0000 0.0000 0.0000 35.5079
#
#
#
# Elastic Compliance Matrix: (Units=1/GPa)
#
#
# Indices 1 2 3 4 5 6 
#
# 1 0.010028 -0.001920 -0.003119 0.000000 0.000000 0.000000
# 2 -0.001920 0.006954 -0.002407 0.000000 0.000000 0.000000
# 3 -0.003119 -0.002407 0.016558 0.000000 0.000000 0.000000
# 4 0.000000 0.000000 0.000000 0.060192 0.000000 0.000000
# 5 0.000000 0.000000 0.000000 0.000000 0.074460 0.000000
# 6 0.000000 0.000000 0.000000 0.000000 0.000000 0.028163
#
#
# Mechanical properties :
#
#
# Convention : Reuss Voigt Hill
#
# Bulk Modulus (GPa) = 53.62596 61.90623 57.76610
# Shear Modulus (GPa) = 22.99230 29.86289 26.42759
#
# Velocity S-wave (km/s) = 3.07051 3.49933 3.29191
# Velocity P-wave (km/s) = 5.87879 6.45847 6.17544
#
# Compressibility (1/GPa) = 0.01864768
#
# Stress axis : x y z
#
# Youngs Moduli (GPa) = 99.71657 143.80154 60.39359
#
# Poissons Ratio (x) = 0.27613 0.18838
# Poissons Ratio (y) = 0.19148 0.14537
# Poissons Ratio (z) = 0.31103 0.34613
#
# Static dielectric constant tensor:
#      x y z
#    x 2.019780 0.000000 0.000000 
#    y 0.000000 1.976180 0.000000 
#    z 0.000000 0.000000 2.060510 
# 
# From -- ./inp_files/17741.got.cif
#   From: 2010.05.17/outbox.cif.g08.bks.cpg/sg21_9_cif.got.tgz:17741.got - 2010.06.03 23:14:55.
