data_PCOD9323860
_publ_section_title
;
Structure prediction by ZEFSAII (Michael W. Deem and Ramdas Pophale) SiO2 
 PCOD9323860
Probable space group: C 2 2 2
;
_chemical_formula_sum "Si O2"
_cell_formula_units_Z 64
_cell_length_a 24.628585
_cell_length_b 13.804916
_cell_length_c 9.681386
_cell_angle_alpha 90.000000
_cell_angle_beta 90.000000
_cell_angle_gamma 90.000000
_cell_volume 3291.628130
_symmetry_space_group_name_H-M "C 2 2 2"
_symmetry_group_IT_number 21
_symmetry_cell_setting 'orthorhombic'
loop_
_space_group_symop_operation_xyz
x,y,z
-x,-y,z
x,-y,-z
-x,y,-z
1/2+x,1/2+y,z
1/2-x,1/2-y,z
1/2+x,1/2-y,-z
1/2-x,1/2+y,-z
loop_
_atom_site_type_symbol
_atom_site_label
_atom_site_fract_x
_atom_site_fract_y
_atom_site_fract_z
Si Si1 0.381729 0.197149 0.508951
Si Si2 0.120767 0.694112 0.982723
Si Si3 0.924731 0.417366 0.232692
Si Si4 0.800013 0.174283 0.135198
Si Si5 0.950298 0.642094 0.258911
Si Si6 0.171489 0.900887 0.426701
Si Si7 0.269129 0.855621 0.625350
Si Si8 0.224707 0.587203 0.909342
O O1 0.391292 0.134755 0.646299
O O2 0.432208 0.185278 0.405380
O O3 0.367133 0.308503 0.541957
O O4 0.329604 0.153408 0.430233
O O5 0.098317 0.612235 0.084871
O O6 0.144150 0.775847 0.085079
O O7 0.075734 0.705974 0.864314
O O8 0.176078 0.663733 0.906348
O O9 0.925791 0.532982 0.249569
O O10 0.985771 0.374996 0.243486
O O11 0.750000 0.250000 0.174809
O O12 0.815259 0.106456 0.263858
O O13 0.775067 0.122685 0.000565
O O14 0.228460 0.880016 0.502910
O O15 0.151380 0.000000 0.500000
O O16 0.250000 0.750000 0.679452
O O17 0.262769 0.930459 0.750507
O O18 0.202705 0.500000 0.000000
#
# Coordination Sequence:
#
# PCOD9323860 Si02
#       8
#     8   8   8   8   8   8   8   8
#     4  11  22  39  60  84 121 157 198 245 300 352
#     4  11  21  37  59  85 122 155 191 234 298 355
#     4  11  23  39  60  87 121 152 199 242 297 359
#     4  10  21  37  58  84 124 159 196 241 292 351
#     4  11  23  39  60  89 117 156 195 246 294 362
#     4  11  23  39  59  87 117 155 201 245 291 353
#     4  10  21  36  56  82 117 154 194 235 289 351
#     4  11  21  34  55  87 120 157 195 237 288 357
#
# _framework density 19.443263999999999
#
# number of rings (size 3 to 8) (size 9 to 14) (size 15 to 20)
#    0.000    1.250    2.500    5.250    3.500    3.000 
#    0.000    0.000    0.000    1.500    0.000    0.000 
#    0.000    0.000    0.000    0.000    0.000    0.000 
#
# Total GULP energy -178607.935232 kJ/mol
# GULP energy per Si atom -5581.497976 kJ/mol
# Density = 1.939901 g / cm^3
# Si number density = 19.443264 Si / 1000 Ang^3
#
#
#
# Elastic Constant Matrix: (Units=GPa)
#
#
# Indices 1 2 3 4 5 6 
#
# 1 62.3313 17.2872 22.4979 0.0000 0.0000 0.0000
# 2 17.2872 51.9208 17.0138 0.0000 0.0000 0.0000
# 3 22.4979 17.0138 90.6287 0.0000 0.0000 0.0000
# 4 0.0000 0.0000 0.0000 25.0753 0.0000 0.0000
# 5 0.0000 0.0000 0.0000 0.0000 21.6121 0.0000
# 6 0.0000 0.0000 0.0000 0.0000 0.0000 22.4616
#
#
#
# Elastic Compliance Matrix: (Units=1/GPa)
#
#
# Indices 1 2 3 4 5 6 
#
# 1 0.018781 -0.005035 -0.003717 0.000000 0.000000 0.000000
# 2 -0.005035 0.021873 -0.002856 0.000000 0.000000 0.000000
# 3 -0.003717 -0.002856 0.012493 0.000000 0.000000 0.000000
# 4 0.000000 0.000000 0.000000 0.039880 0.000000 0.000000
# 5 0.000000 0.000000 0.000000 0.000000 0.046270 0.000000
# 6 0.000000 0.000000 0.000000 0.000000 0.000000 0.044520
#
#
# Mechanical properties :
#
#
# Convention : Reuss Voigt Hill
#
# Bulk Modulus (GPa) = 33.41143 35.38651 34.39897
# Shear Modulus (GPa) = 23.04028 23.70194 23.37111
#
# Velocity S-wave (km/s) = 3.44612 3.49525 3.47077
# Velocity P-wave (km/s) = 5.74941 5.87609 5.81309
#
# Compressibility (1/GPa) = 0.02992988
#
# Stress axis : x y z
#
# Youngs Moduli (GPa) = 53.24399 45.71936 80.04504
#
# Poissons Ratio (x) = 0.23021 0.29753
# Poissons Ratio (y) = 0.26810 0.22862
# Poissons Ratio (z) = 0.19791 0.13058
#
# Static dielectric constant tensor:
#      x y z
#    x 1.652370 0.000000 0.000000 
#    y 0.000000 1.795320 0.000000 
#    z 0.000000 0.000000 1.692170 
# 
# From -- ./inp_files/18647.got.cif
#   From: 2010.05.17/outbox.cif.g08.bks.cpg/sg21_10_cif.got.tgz:18647.got - 2010.06.03 23:14:55.
