data_PCOD9323656
_publ_section_title
;
Structure prediction by ZEFSAII (Michael W. Deem and Ramdas Pophale) SiO2 
 PCOD9323656
Probable space group: C 2 2 2
;
_chemical_formula_sum "Si O2"
_cell_formula_units_Z 54
_cell_length_a 12.261915
_cell_length_b 14.988606
_cell_length_c 13.984896
_cell_angle_alpha 90.000000
_cell_angle_beta 90.000000
_cell_angle_gamma 90.000000
_cell_volume 2570.270229
_symmetry_space_group_name_H-M "C 2 2 2"
_symmetry_group_IT_number 21
_symmetry_cell_setting 'orthorhombic'
loop_
_space_group_symop_operation_xyz
x,y,z
-x,-y,z
x,-y,-z
-x,y,-z
1/2+x,1/2+y,z
1/2-x,1/2-y,z
1/2+x,1/2-y,-z
1/2-x,1/2+y,-z
loop_
_atom_site_type_symbol
_atom_site_label
_atom_site_fract_x
_atom_site_fract_y
_atom_site_fract_z
Si Si1 0.000000 0.000000 0.000000
Si Si2 0.862005 0.567154 0.091909
Si Si3 0.017220 0.894794 0.727433
Si Si4 0.219491 0.146308 0.405628
Si Si5 0.867400 0.156169 0.912352
Si Si6 0.500000 0.200252 0.000000
Si Si7 0.626740 0.995318 0.306210
Si Si8 0.287643 0.649466 0.367863
O O1 0.919479 0.063588 0.944460
O O2 0.759490 0.635354 0.096652
O O3 0.969458 0.629544 0.082409
O O4 0.863072 0.518224 0.192358
O O5 0.853594 0.500000 0.000000
O O6 0.109828 0.885153 0.647134
O O7 0.066500 0.832814 0.812892
O O8 0.900924 0.864818 0.687316
O O9 0.000000 0.000000 0.752986
O O10 0.250000 0.250000 0.388517
O O11 0.315495 0.085816 0.362116
O O12 0.202082 0.133425 0.518501
O O13 0.900395 0.229963 0.991039
O O14 0.500000 0.000000 0.332165
O O15 0.695197 0.082530 0.331775
O O16 0.250000 0.750000 0.353351
#
# Coordination Sequence:
#
# PCOD9323656 Si02
#       8
#     2   8   8   8   8   4   8   8
#     4  10  20  40  58  98 124 172 218 276 332 412
#     4  12  25  48  69 100 142 186 238 294 367 425
#     4  12  23  44  74 105 139 185 240 305 363 435
#     4  11  26  45  73 106 144 192 237 303 375 449
#     4  11  23  41  71  98 138 181 233 289 360 416
#     4  11  27  41  67 104 140 182 241 293 347 439
#     4  12  27  46  72 104 149 199 242 304 377 455
#     4  11  27  47  70 107 143 188 248 306 370 440
#
# _framework density 21.009463
#
# number of rings (size 3 to 8) (size 9 to 14) (size 15 to 20)
#    0.000    0.593    4.444    2.444    4.148    2.963 
#    0.000    1.481    0.000    0.000    0.000    0.000 
#    0.000    0.000    0.000    0.000    0.000    0.000 
#
# Total GULP energy -150723.070259 kJ/mol
# GULP energy per Si atom -5582.335936 kJ/mol
# Density = 2.096164 g / cm^3
# Si number density = 21.009463 Si / 1000 Ang^3
#
#
#
# Elastic Constant Matrix: (Units=GPa)
#
#
# Indices 1 2 3 4 5 6 
#
# 1 174.6236 49.3343 50.9742 0.0000 0.0000 0.0000
# 2 49.3343 97.5863 57.1066 0.0000 0.0000 0.0000
# 3 50.9742 57.1066 83.9497 0.0000 0.0000 0.0000
# 4 0.0000 0.0000 0.0000 23.5863 0.0000 0.0000
# 5 0.0000 0.0000 0.0000 0.0000 1.0518 0.0000
# 6 0.0000 0.0000 0.0000 0.0000 0.0000 21.3674
#
#
#
# Elastic Compliance Matrix: (Units=1/GPa)
#
#
# Indices 1 2 3 4 5 6 
#
# 1 0.007142 -0.001782 -0.003124 0.000000 0.000000 0.000000
# 2 -0.001782 0.017469 -0.010801 0.000000 0.000000 0.000000
# 3 -0.003124 -0.010801 0.021156 0.000000 0.000000 0.000000
# 4 0.000000 0.000000 0.000000 0.042398 0.000000 0.000000
# 5 0.000000 0.000000 0.000000 0.000000 0.950772 0.000000
# 6 0.000000 0.000000 0.000000 0.000000 0.000000 0.046800
#
#
# Mechanical properties :
#
#
# Convention : Reuss Voigt Hill
#
# Bulk Modulus (GPa) = 69.67572 74.55443 72.11508
# Shear Modulus (GPa) = 4.45658 22.45073 13.45366
#
# Velocity S-wave (km/s) = 1.45802 3.27249 2.53328
# Velocity P-wave (km/s) = 6.00586 7.05989 6.55410
#
# Compressibility (1/GPa) = 0.01435220
#
# Stress axis : x y z
#
# Youngs Moduli (GPa) = 140.01374 57.24399 47.26729
#
# Poissons Ratio (x) = 0.10203 0.14767
# Poissons Ratio (y) = 0.24956 0.51053
# Poissons Ratio (z) = 0.43743 0.61829
#
# Static dielectric constant tensor:
#      x y z
#    x 1.815890 0.000000 0.000000 
#    y 0.000000 1.760660 0.000000 
#    z 0.000000 0.000000 1.800160 
# 
# From -- ./inp_files/31640.got.cif
#   From: 2010.05.17/outbox.cif.g08.bks.cpg/sg21_16_cif.got.tgz:31640.got - 2010.06.03 23:14:55.
