data_PCOD9323170
_publ_section_title
;
Structure prediction by ZEFSAII (Michael W. Deem and Ramdas Pophale) SiO2 
 PCOD9323170
Probable space group: C 2 2 2
;
_chemical_formula_sum "Si O2"
_cell_formula_units_Z 48
_cell_length_a 8.736975
_cell_length_b 18.203415
_cell_length_c 15.500843
_cell_angle_alpha 90.000000
_cell_angle_beta 90.000000
_cell_angle_gamma 90.000000
_cell_volume 2465.297190
_symmetry_space_group_name_H-M "C 2 2 2"
_symmetry_group_IT_number 21
_symmetry_cell_setting 'orthorhombic'
loop_
_space_group_symop_operation_xyz
x,y,z
-x,-y,z
x,-y,-z
-x,y,-z
1/2+x,1/2+y,z
1/2-x,1/2-y,z
1/2+x,1/2-y,-z
1/2-x,1/2+y,-z
loop_
_atom_site_type_symbol
_atom_site_label
_atom_site_fract_x
_atom_site_fract_y
_atom_site_fract_z
Si Si1 0.086105 0.918495 0.631836
Si Si2 0.197444 0.917758 0.145851
Si Si3 0.172139 0.078481 0.178602
Si Si4 0.669264 0.912702 0.514193
Si Si5 0.712895 0.336095 0.319949
Si Si6 0.681948 0.670907 0.018944
O O1 0.188658 0.920485 0.718304
O O2 0.189466 0.895395 0.550455
O O3 0.961784 0.856645 0.655586
O O4 0.000000 0.000000 0.621541
O O5 0.249500 0.866356 0.224600
O O6 0.012003 0.922266 0.159804
O O7 0.246505 0.001843 0.151107
O O8 0.239000 0.884833 0.054053
O O9 0.223035 0.142874 0.114794
O O10 0.500000 0.881095 0.500000
O O11 0.703826 0.886854 0.610179
O O12 0.660063 0.000000 0.500000
O O13 0.750000 0.250000 0.327775
O O14 0.750000 0.750000 0.003975
O O15 0.500000 0.674122 0.000000
#
# Coordination Sequence:
#
# PCOD9323170 Si02
#       6
#     8   8   8   8   8   8
#     4  11  19  39  66  87 115 163 213 256 316 381
#     4   9  16  33  57  85 114 151 204 254 299 356
#     4   9  16  32  59  90 108 149 214 251 286 372
#     4  11  23  38  59  89 123 162 208 255 310 380
#     4  11  22  36  60  92 122 156 211 262 317 372
#     4  10  20  33  54  84 121 155 193 249 309 359
#
# _framework density 19.470268999999998
#
# number of rings (size 3 to 8) (size 9 to 14) (size 15 to 20)
#    0.000    1.833    5.000    1.500    0.000    3.333 
#    0.000    7.500    0.000    4.000    0.000    0.000 
#    0.000    0.000    0.000    0.000    0.000    0.000 
#
# Total GULP energy -133630.295362 kJ/mol
# GULP energy per Si atom -5567.928973 kJ/mol
# Density = 1.942595 g / cm^3
# Si number density = 19.470269 Si / 1000 Ang^3
#
#
#
# Elastic Constant Matrix: (Units=GPa)
#
#
# Indices 1 2 3 4 5 6 
#
# 1 31.5413 15.4007 18.2655 0.0000 0.0000 0.0000
# 2 15.4007 96.2329 9.3464 0.0000 0.0000 0.0000
# 3 18.2655 9.3464 66.9485 0.0000 0.0000 0.0000
# 4 0.0000 0.0000 0.0000 -164.8119 0.0000 0.0000
# 5 0.0000 0.0000 0.0000 0.0000 11.7048 0.0000
# 6 0.0000 0.0000 0.0000 0.0000 0.0000 24.3345
#
#
#
# Elastic Compliance Matrix: (Units=1/GPa)
#
#
# Indices 1 2 3 4 5 6 
#
# 1 0.040293 -0.005455 -0.010232 0.000000 0.000000 0.000000
# 2 -0.005455 0.011273 -0.000086 0.000000 0.000000 0.000000
# 3 -0.010232 -0.000086 0.017740 0.000000 0.000000 0.000000
# 4 0.000000 0.000000 0.000000 -0.006068 0.000000 0.000000
# 5 0.000000 0.000000 0.000000 0.000000 0.085435 0.000000
# 6 0.000000 0.000000 0.000000 0.000000 0.000000 0.041094
#
#
# Mechanical properties :
#
#
# Convention : Reuss Voigt Hill
#
# Bulk Modulus (GPa) = 26.48135 31.19421 28.83778
# Shear Modulus (GPa) = 21.37684 -15.64052 2.86816
#
# Velocity S-wave (km/s) = 3.31709 -2.83733 1.21503
# Velocity P-wave (km/s) = 5.31989 2.30701 4.10021
#
# Compressibility (1/GPa) = 0.03776242
#
# Stress axis : x y z
#
# Youngs Moduli (GPa) = 24.81826 88.70991 56.36890
#
# Poissons Ratio (x) = 0.48388 0.57674
# Poissons Ratio (y) = 0.13537 0.00482
# Poissons Ratio (z) = 0.25393 0.00759
#
# Static dielectric constant tensor:
#      x y z
#    x 1.755210 0.000000 0.000000 
#    y 0.000000 1.662490 0.000000 
#    z 0.000000 0.000000 1.709160 
# 
# From -- ./inp_files/30509.got.cif
#   From: 2010.05.17/outbox.cif.g08.bks.cpg/sg21_16_cif.got.tgz:30509.got - 2010.06.03 23:14:55.
