data_PCOD9323566
_publ_section_title
;
Structure prediction by ZEFSAII (Michael W. Deem and Ramdas Pophale) SiO2 
 PCOD9323566
Probable space group: C 2 2 2
;
_chemical_formula_sum "Si O2"
_cell_formula_units_Z 40
_cell_length_a 7.705962
_cell_length_b 16.378227
_cell_length_c 14.441611
_cell_angle_alpha 90.000000
_cell_angle_beta 90.000000
_cell_angle_gamma 90.000000
_cell_volume 1822.675651
_symmetry_space_group_name_H-M "C 2 2 2"
_symmetry_group_IT_number 21
_symmetry_cell_setting 'orthorhombic'
loop_
_space_group_symop_operation_xyz
x,y,z
-x,-y,z
x,-y,-z
-x,y,-z
1/2+x,1/2+y,z
1/2-x,1/2-y,z
1/2+x,1/2-y,-z
1/2-x,1/2+y,-z
loop_
_atom_site_type_symbol
_atom_site_label
_atom_site_fract_x
_atom_site_fract_y
_atom_site_fract_z
Si Si1 0.801002 0.339945 0.031037
Si Si2 0.211832 0.503199 0.605477
Si Si3 0.285530 0.156909 0.276178
Si Si4 0.672862 0.551056 0.122156
Si Si5 0.330758 0.095040 0.777266
O O1 0.750000 0.250000 0.999150
O O2 0.764190 0.347081 0.140443
O O3 0.703253 0.412645 0.978677
O O4 0.000000 0.352319 0.000000
O O5 0.272141 0.500000 0.500000
O O6 0.263576 0.590684 0.646465
O O7 0.259781 0.432310 0.680269
O O8 0.000000 0.500000 0.605036
O O9 0.250000 0.250000 0.301119
O O10 0.175559 0.131178 0.186519
O O11 0.486054 0.136011 0.250722
O O12 0.500000 0.500000 0.133172
O O13 0.819747 0.491624 0.166301
#
# Coordination Sequence:
#
# PCOD9323566 Si02
#       5
#     8   8   8   8   8
#     4  12  27  41  61  91 133 176 220 274 321 380
#     4   8  16  35  64  95 121 164 219 264 325 401
#     4  10  20  38  65  95 127 169 213 274 328 377
#     4  11  24  41  66  91 125 173 224 261 316 391
#     4  10  22  39  64  89 127 170 218 264 325 387
#
# _framework density 21.94576
#
# number of rings (size 3 to 8) (size 9 to 14) (size 15 to 20)
#    0.000    1.800    2.000    3.000    2.800    1.600 
#    0.000    1.000    0.000   21.600    0.000    0.000 
#    0.000    0.000    0.000    0.000    0.000    0.000 
#
# Total GULP energy -111545.549204 kJ/mol
# GULP energy per Si atom -5577.277460 kJ/mol
# Density = 2.189581 g / cm^3
# Si number density = 21.945760 Si / 1000 Ang^3
#
#
#
# Elastic Constant Matrix: (Units=GPa)
#
#
# Indices 1 2 3 4 5 6 
#
# 1 82.1216 35.6573 22.6323 0.0000 0.0000 0.0000
# 2 35.6573 145.2710 48.8046 0.0000 0.0000 0.0000
# 3 22.6323 48.8046 170.8760 0.0000 0.0000 0.0000
# 4 0.0000 0.0000 0.0000 24.4383 0.0000 0.0000
# 5 0.0000 0.0000 0.0000 0.0000 7.1404 0.0000
# 6 0.0000 0.0000 0.0000 0.0000 0.0000 26.8205
#
#
#
# Elastic Compliance Matrix: (Units=1/GPa)
#
#
# Indices 1 2 3 4 5 6 
#
# 1 0.013768 -0.003060 -0.000949 0.000000 0.000000 0.000000
# 2 -0.003060 0.008295 -0.001964 0.000000 0.000000 0.000000
# 3 -0.000949 -0.001964 0.006539 0.000000 0.000000 0.000000
# 4 0.000000 0.000000 0.000000 0.040919 0.000000 0.000000
# 5 0.000000 0.000000 0.000000 0.000000 0.140049 0.000000
# 6 0.000000 0.000000 0.000000 0.000000 0.000000 0.037285
#
#
# Mechanical properties :
#
#
# Convention : Reuss Voigt Hill
#
# Bulk Modulus (GPa) = 60.04567 68.05078 64.04822
# Shear Modulus (GPa) = 18.91416 31.09146 25.00281
#
# Velocity S-wave (km/s) = 2.93893 3.76805 3.37901
# Velocity P-wave (km/s) = 6.23993 7.07155 6.66872
#
# Compressibility (1/GPa) = 0.01665399
#
# Stress axis : x y z
#
# Youngs Moduli (GPa) = 72.63472 120.56073 152.93306
#
# Poissons Ratio (x) = 0.36896 0.14520
# Poissons Ratio (y) = 0.22229 0.30032
# Poissons Ratio (z) = 0.06896 0.23675
#
# Static dielectric constant tensor:
#      x y z
#    x 1.890810 0.000000 0.000000 
#    y 0.000000 1.821420 0.000000 
#    z 0.000000 0.000000 1.879470 
# 
# From -- ./inp_files/30164.got.cif
#   From: 2010.05.17/outbox.cif.g08.bks.cpg/sg21_16_cif.got.tgz:30164.got - 2010.06.03 23:14:55.
