data_PCOD9323680
_publ_section_title
;
Structure prediction by ZEFSAII (Michael W. Deem and Ramdas Pophale) SiO2 
 PCOD9323680
Probable space group: C 2 2 2
;
_chemical_formula_sum "Si O2"
_cell_formula_units_Z 48
_cell_length_a 10.239694
_cell_length_b 28.331849
_cell_length_c 8.860906
_cell_angle_alpha 90.000000
_cell_angle_beta 90.000000
_cell_angle_gamma 90.000000
_cell_volume 2570.632692
_symmetry_space_group_name_H-M "C 2 2 2"
_symmetry_group_IT_number 21
_symmetry_cell_setting 'orthorhombic'
loop_
_space_group_symop_operation_xyz
x,y,z
-x,-y,z
x,-y,-z
-x,y,-z
1/2+x,1/2+y,z
1/2-x,1/2-y,z
1/2+x,1/2-y,-z
1/2-x,1/2+y,-z
loop_
_atom_site_type_symbol
_atom_site_label
_atom_site_fract_x
_atom_site_fract_y
_atom_site_fract_z
Si Si1 0.512689 0.160531 0.680012
Si Si2 0.595546 0.253620 0.856750
Si Si3 0.742177 0.895003 0.701596
Si Si4 0.483967 0.651846 0.680291
Si Si5 0.653450 0.005399 0.179280
Si Si6 0.739645 0.912725 0.342249
O O1 0.500000 0.167545 0.500000
O O2 0.559727 0.208057 0.757180
O O3 0.372727 0.142128 0.734205
O O4 0.617361 0.119166 0.709615
O O5 0.750000 0.250000 0.894490
O O6 0.562379 0.300754 0.762255
O O7 0.500000 0.253538 0.000000
O O8 0.879041 0.869831 0.734734
O O9 0.737349 0.909640 0.524292
O O10 0.710799 0.943412 0.784879
O O11 0.500000 0.660677 0.500000
O O12 0.372616 0.612812 0.704344
O O13 0.725885 0.964471 0.273022
O O14 0.500000 0.000000 0.220975
O O15 0.663812 0.000000 0.000000
#
# Coordination Sequence:
#
# PCOD9323680 Si02
#       6
#     8   8   8   8   8   8
#     4  10  21  40  67  91 117 162 212 260 310 359
#     4  12  27  43  62  92 130 169 206 255 313 380
#     4  10  22  38  65  94 118 156 207 260 309 364
#     4  10  23  44  66  91 124 162 208 263 315 365
#     4  11  23  37  59  91 126 164 204 250 308 375
#     4  10  20  40  64  89 121 159 207 258 308 361
#
# _framework density 18.672446000000001
#
# number of rings (size 3 to 8) (size 9 to 14) (size 15 to 20)
#    0.000    1.500    3.333    1.000    2.333    4.000 
#    0.000    3.333    0.000    0.000    0.000    0.000 
#    0.000    0.000    0.000    0.000    0.000    0.000 
#
# Total GULP energy -134066.641871 kJ/mol
# GULP energy per Si atom -5586.110078 kJ/mol
# Density = 1.862995 g / cm^3
# Si number density = 18.672446 Si / 1000 Ang^3
#
#
#
# Elastic Constant Matrix: (Units=GPa)
#
#
# Indices 1 2 3 4 5 6 
#
# 1 177.4931 63.7708 40.6305 0.0000 0.0000 0.0000
# 2 63.7708 120.9078 38.1201 0.0000 0.0000 0.0000
# 3 40.6305 38.1201 24.8049 0.0000 0.0000 0.0000
# 4 0.0000 0.0000 0.0000 -53.1717 0.0000 0.0000
# 5 0.0000 0.0000 0.0000 0.0000 19.3601 0.0000
# 6 0.0000 0.0000 0.0000 0.0000 0.0000 32.0921
#
#
#
# Elastic Compliance Matrix: (Units=1/GPa)
#
#
# Indices 1 2 3 4 5 6 
#
# 1 0.009016 -0.000192 -0.014473 0.000000 0.000000 0.000000
# 2 -0.000192 0.016049 -0.024349 0.000000 0.000000 0.000000
# 3 -0.014473 -0.024349 0.101440 0.000000 0.000000 0.000000
# 4 0.000000 0.000000 0.000000 -0.018807 0.000000 0.000000
# 5 0.000000 0.000000 0.000000 0.000000 0.051653 0.000000
# 6 0.000000 0.000000 0.000000 0.000000 0.000000 0.031160
#
#
# Mechanical properties :
#
#
# Convention : Reuss Voigt Hill
#
# Bulk Modulus (GPa) = 20.62824 67.58319 44.10571
# Shear Modulus (GPa) = 17.56244 11.70173 14.63208
#
# Velocity S-wave (km/s) = 3.07017 2.50608 2.80236
# Velocity P-wave (km/s) = 4.86203 6.68181 5.84320
#
# Compressibility (1/GPa) = 0.04847724
#
# Stress axis : x y z
#
# Youngs Moduli (GPa) = 110.91180 62.30911 9.85802
#
# Poissons Ratio (x) = 0.01199 0.14267
# Poissons Ratio (y) = 0.02134 0.24003
# Poissons Ratio (z) = 1.60521 1.51716
#
# Static dielectric constant tensor:
#      x y z
#    x 1.652550 0.000000 0.000000 
#    y 0.000000 1.601940 0.000000 
#    z 0.000000 0.000000 1.648410 
# 
# From -- ./inp_files/11514.got.cif
#   From: 2010.05.17/outbox.cif.g08.bks.cpg/sg21_6_cif.got.tgz:11514.got - 2010.06.03 23:14:55.
