data_PCOD9323282
_publ_section_title
;
Structure prediction by ZEFSAII (Michael W. Deem and Ramdas Pophale) SiO2 
 PCOD9323282
Probable space group: C 2 2 2
;
_chemical_formula_sum "Si O2"
_cell_formula_units_Z 36
_cell_length_a 20.849143
_cell_length_b 5.089194
_cell_length_c 15.758958
_cell_angle_alpha 90.000000
_cell_angle_beta 90.000000
_cell_angle_gamma 90.000000
_cell_volume 1672.109494
_symmetry_space_group_name_H-M "C 2 2 2"
_symmetry_group_IT_number 21
_symmetry_cell_setting 'orthorhombic'
loop_
_space_group_symop_operation_xyz
x,y,z
-x,-y,z
x,-y,-z
-x,y,-z
1/2+x,1/2+y,z
1/2-x,1/2-y,z
1/2+x,1/2-y,-z
1/2-x,1/2+y,-z
loop_
_atom_site_type_symbol
_atom_site_label
_atom_site_fract_x
_atom_site_fract_y
_atom_site_fract_z
Si Si1 0.457564 0.238713 0.753506
Si Si2 0.678819 0.611395 0.683549
Si Si3 0.795978 0.000000 0.500000
Si Si4 0.290737 0.488095 0.142496
Si Si5 0.413378 0.265534 0.944179
O O1 0.500000 0.500000 0.738738
O O2 0.385741 0.238288 0.713612
O O3 0.448482 0.209648 0.855444
O O4 0.500000 0.000000 0.720883
O O5 0.750000 0.750000 0.676628
O O6 0.666361 0.511119 0.588692
O O7 0.686417 0.407983 0.762440
O O8 0.750000 0.250000 0.507377
O O9 0.250000 0.750000 0.153961
O O10 0.348255 0.594446 0.087362
O O11 0.250000 0.250000 0.104984
O O12 0.440623 0.500000 0.000000
O O13 0.406703 0.000000 0.000000
#
# Coordination Sequence:
#
# PCOD9323282 Si02
#       5
#     8   8   4   8   8
#     4  11  25  43  65  94 130 171 214 265 325 384
#     4   9  21  41  68  97 129 170 215 260 315 383
#     4  10  20  36  65 102 131 162 212 268 312 370
#     4  10  20  35  56  85 123 165 205 253 315 375
#     4  11  23  38  58  86 121 165 219 271 317 373
#
# _framework density 21.529688
#
# number of rings (size 3 to 8) (size 9 to 14) (size 15 to 20)
#    0.000    1.778    0.000    3.333    0.000   16.889 
#    0.000    0.556    0.000    1.333    0.000    0.000 
#    0.000    0.000    0.000    0.000    0.000    0.000 
#
# Total GULP energy -100336.934649 kJ/mol
# GULP energy per Si atom -5574.274147 kJ/mol
# Density = 2.148069 g / cm^3
# Si number density = 21.529688 Si / 1000 Ang^3
#
#
#
# Elastic Constant Matrix: (Units=GPa)
#
#
# Indices 1 2 3 4 5 6 
#
# 1 149.2350 58.7116 54.2891 0.0000 0.0000 0.0000
# 2 58.7116 148.0297 34.7020 0.0000 0.0000 0.0000
# 3 54.2891 34.7020 144.2847 0.0000 0.0000 0.0000
# 4 0.0000 0.0000 0.0000 14.8007 0.0000 0.0000
# 5 0.0000 0.0000 0.0000 0.0000 23.3924 0.0000
# 6 0.0000 0.0000 0.0000 0.0000 0.0000 54.2108
#
#
#
# Elastic Compliance Matrix: (Units=1/GPa)
#
#
# Indices 1 2 3 4 5 6 
#
# 1 0.008781 -0.002870 -0.002614 0.000000 0.000000 0.000000
# 2 -0.002870 0.008097 -0.000868 0.000000 0.000000 0.000000
# 3 -0.002614 -0.000868 0.008123 0.000000 0.000000 0.000000
# 4 0.000000 0.000000 0.000000 0.067564 0.000000 0.000000
# 5 0.000000 0.000000 0.000000 0.000000 0.042749 0.000000
# 6 0.000000 0.000000 0.000000 0.000000 0.000000 0.018447
#
#
# Mechanical properties :
#
#
# Convention : Reuss Voigt Hill
#
# Bulk Modulus (GPa) = 81.31170 81.88385 81.59778
# Shear Modulus (GPa) = 29.31487 38.07056 33.69272
#
# Velocity S-wave (km/s) = 3.69399 4.20966 3.96023
# Velocity P-wave (km/s) = 7.48621 7.85772 7.67422
#
# Compressibility (1/GPa) = 0.01229835
#
# Stress axis : x y z
#
# Youngs Moduli (GPa) = 113.88616 123.50179 123.11007
#
# Poissons Ratio (x) = 0.35444 0.32176
# Poissons Ratio (y) = 0.32684 0.10681
# Poissons Ratio (z) = 0.29765 0.10715
#
# Static dielectric constant tensor:
#      x y z
#    x 1.880070 0.000000 0.000000 
#    y 0.000000 1.749510 0.000000 
#    z 0.000000 0.000000 1.849490 
# 
# From -- ./inp_files/33081.got.cif
#   From: 2010.05.17/outbox.cif.g08.bks.cpg/sg21_17_cif.got.tgz:33081.got - 2010.06.03 23:14:55.
