data_PCOD9324239
_publ_section_title
;
Structure prediction by ZEFSAII (Michael W. Deem and Ramdas Pophale) SiO2 
 PCOD9324239
Probable space group: C 2 2 2
;
_chemical_formula_sum "Si O2"
_cell_formula_units_Z 40
_cell_length_a 16.892443
_cell_length_b 9.626685
_cell_length_c 9.454581
_cell_angle_alpha 90.000000
_cell_angle_beta 90.000000
_cell_angle_gamma 90.000000
_cell_volume 1537.487205
_symmetry_space_group_name_H-M "C 2 2 2"
_symmetry_group_IT_number 21
_symmetry_cell_setting 'orthorhombic'
loop_
_space_group_symop_operation_xyz
x,y,z
-x,-y,z
x,-y,-z
-x,y,-z
1/2+x,1/2+y,z
1/2-x,1/2-y,z
1/2+x,1/2-y,-z
1/2-x,1/2+y,-z
loop_
_atom_site_type_symbol
_atom_site_label
_atom_site_fract_x
_atom_site_fract_y
_atom_site_fract_z
Si Si1 0.870659 0.503575 0.198585
Si Si2 0.005887 0.730424 0.151015
Si Si3 0.662866 0.777091 0.393823
Si Si4 0.686171 0.467019 0.840245
Si Si5 0.419447 0.381859 0.620307
O O1 0.913405 0.357910 0.174703
O O2 0.855446 0.566238 0.352215
O O3 0.780798 0.514260 0.145420
O O4 0.936083 0.615711 0.144600
O O5 0.006986 0.838210 0.280440
O O6 0.000000 0.802727 0.000000
O O7 0.750000 0.750000 0.453454
O O8 0.667311 0.677774 0.248186
O O9 0.603546 0.742634 0.518629
O O10 0.648057 0.575875 0.731554
O O11 0.655627 0.500000 0.000000
O O12 0.423397 0.500000 0.500000
#
# Coordination Sequence:
#
# PCOD9324239 Si02
#       5
#     8   8   8   8   8
#     4  10  22  43  68 106 151 190 244 306 378 440
#     4  11  24  42  71 108 151 193 241 305 379 454
#     4   9  21  41  66 100 146 189 247 313 360 440
#     4  10  21  41  71 105 138 191 253 312 371 432
#     4  10  24  45  71 106 144 195 253 300 374 455
#
# _framework density 26.016476999999998
#
# number of rings (size 3 to 8) (size 9 to 14) (size 15 to 20)
#    0.000    2.000    0.000    2.400    5.600    1.600 
#    3.600    9.000    0.000    0.000    0.000    0.000 
#    0.000    0.000    0.000    0.000    0.000    0.000 
#
# Total GULP energy -111542.798229 kJ/mol
# GULP energy per Si atom -5577.139911 kJ/mol
# Density = 2.595726 g / cm^3
# Si number density = 26.016477 Si / 1000 Ang^3
#
#
#
# Elastic Constant Matrix: (Units=GPa)
#
#
# Indices 1 2 3 4 5 6 
#
# 1 145.0965 34.1752 66.2565 0.0000 0.0000 0.0000
# 2 34.1752 92.6335 61.3892 0.0000 0.0000 0.0000
# 3 66.2565 61.3892 248.3975 0.0000 0.0000 0.0000
# 4 0.0000 0.0000 0.0000 150.4142 0.0000 0.0000
# 5 0.0000 0.0000 0.0000 0.0000 -135.2396 0.0000
# 6 0.0000 0.0000 0.0000 0.0000 0.0000 42.5482
#
#
#
# Elastic Compliance Matrix: (Units=1/GPa)
#
#
# Indices 1 2 3 4 5 6 
#
# 1 0.008108 -0.001863 -0.001702 0.000000 0.000000 0.000000
# 2 -0.001863 0.013338 -0.002799 0.000000 0.000000 0.000000
# 3 -0.001702 -0.002799 0.005172 0.000000 0.000000 0.000000
# 4 0.000000 0.000000 0.000000 0.006648 0.000000 0.000000
# 5 0.000000 0.000000 0.000000 0.000000 -0.007394 0.000000
# 6 0.000000 0.000000 0.000000 0.000000 0.000000 0.023503
#
#
# Mechanical properties :
#
#
# Convention : Reuss Voigt Hill
#
# Bulk Modulus (GPa) = 72.00466 89.97436 80.98951
# Shear Modulus (GPa) = 74.92517 33.16500 54.04508
#
# Velocity S-wave (km/s) = 5.37230 3.57426 4.56273
# Velocity P-wave (km/s) = 8.13750 7.18975 7.67826
#
# Compressibility (1/GPa) = 0.01388799
#
# Stress axis : x y z
#
# Youngs Moduli (GPa) = 123.33306 74.97510 193.36072
#
# Poissons Ratio (x) = 0.13970 0.32915
# Poissons Ratio (y) = 0.22980 0.54128
# Poissons Ratio (z) = 0.20994 0.20988
#
# Static dielectric constant tensor:
#      x y z
#    x 2.049750 0.000000 0.000000 
#    y 0.000000 2.119730 0.000000 
#    z 0.000000 0.000000 2.095520 
# 
# From -- ./inp_files/16117.got.cif
#   From: 2010.05.17/outbox.cif.g08.bks.cpg/sg21_9_cif.got.tgz:16117.got - 2010.06.03 23:14:55.
