data_PCOD9324482
_publ_section_title
;
Structure prediction by ZEFSAII (Michael W. Deem and Ramdas Pophale) SiO2 
 PCOD9324482
Probable space group: C 2 2 2
;
_chemical_formula_sum "Si O2"
_cell_formula_units_Z 26
_cell_length_a 7.150513
_cell_length_b 28.856618
_cell_length_c 7.367146
_cell_angle_alpha 90.000000
_cell_angle_beta 90.000000
_cell_angle_gamma 90.000000
_cell_volume 1520.134122
_symmetry_space_group_name_H-M "C 2 2 2"
_symmetry_group_IT_number 21
_symmetry_cell_setting 'orthorhombic'
loop_
_space_group_symop_operation_xyz
x,y,z
-x,-y,z
x,-y,-z
-x,y,-z
1/2+x,1/2+y,z
1/2-x,1/2-y,z
1/2+x,1/2-y,-z
1/2-x,1/2+y,-z
loop_
_atom_site_type_symbol
_atom_site_label
_atom_site_fract_x
_atom_site_fract_y
_atom_site_fract_z
Si Si1 0.000000 0.635992 0.500000
Si Si2 0.650938 0.090305 0.144235
Si Si3 0.500000 0.353780 0.000000
Si Si4 0.835632 0.199059 0.652190
Si Si5 0.500000 0.000000 0.000000
O O1 0.912330 0.604994 0.657867
O O2 0.833632 0.667265 0.419884
O O3 0.629021 0.035096 0.115037
O O4 0.500000 0.110060 0.000000
O O5 0.845626 0.112982 0.090586
O O6 0.585538 0.322310 0.839333
O O7 0.750000 0.250000 0.680381
O O8 0.000000 0.200518 0.500000
#
# Coordination Sequence:
#
# PCOD9324482 Si02
#       5
#     4   8   4   8   2
#     4  12  22  41  66  88 128 170 208 259 320 366
#     4  10  22  40  64  94 125 163 205 263 313 376
#     4  12  24  41  67  94 128 172 209 257 324 364
#     4  12  25  39  63  94 128 167 218 262 302 374
#     4   8  20  44  62  96 128 164 202 268 312 380
#
# _framework density 17.103753999999999
#
# number of rings (size 3 to 8) (size 9 to 14) (size 15 to 20)
#    0.923    0.000    7.692    0.000    0.000    4.923 
#    0.000    0.000    0.000    0.000    0.000    0.000 
#    0.000    0.000    0.000    0.000    0.000    0.000 
#
# Total GULP energy -72486.983785 kJ/mol
# GULP energy per Si atom -5575.921830 kJ/mol
# Density = 1.706483 g / cm^3
# Si number density = 17.103754 Si / 1000 Ang^3
#
#
#
# Elastic Constant Matrix: (Units=GPa)
#
#
# Indices 1 2 3 4 5 6 
#
# 1 132.7323 81.8380 81.5809 0.0000 0.0000 0.0000
# 2 81.8380 171.1327 96.2926 0.0000 0.0000 0.0000
# 3 81.5809 96.2926 160.9548 0.0000 0.0000 0.0000
# 4 0.0000 0.0000 0.0000 3.5503 0.0000 0.0000
# 5 0.0000 0.0000 0.0000 0.0000 42.0411 0.0000
# 6 0.0000 0.0000 0.0000 0.0000 0.0000 21.7991
#
#
#
# Elastic Compliance Matrix: (Units=1/GPa)
#
#
# Indices 1 2 3 4 5 6 
#
# 1 0.012229 -0.003558 -0.004070 0.000000 0.000000 0.000000
# 2 -0.003558 0.009844 -0.004086 0.000000 0.000000 0.000000
# 3 -0.004070 -0.004086 0.010720 0.000000 0.000000 0.000000
# 4 0.000000 0.000000 0.000000 0.281669 0.000000 0.000000
# 5 0.000000 0.000000 0.000000 0.000000 0.023786 0.000000
# 6 0.000000 0.000000 0.000000 0.000000 0.000000 0.045874
#
#
# Mechanical properties :
#
#
# Convention : Reuss Voigt Hill
#
# Bulk Modulus (GPa) = 106.77097 109.36029 108.06563
# Shear Modulus (GPa) = 12.17518 27.15199 19.66359
#
# Velocity S-wave (km/s) = 2.67093 3.98865 3.39435
# Velocity P-wave (km/s) = 8.48957 9.23529 8.87027
#
# Compressibility (1/GPa) = 0.00936584
#
# Stress axis : x y z
#
# Youngs Moduli (GPa) = 81.77158 101.58513 93.28372
#
# Poissons Ratio (x) = 0.36146 0.37964
# Poissons Ratio (y) = 0.29096 0.38113
# Poissons Ratio (z) = 0.33278 0.41505
#
# Static dielectric constant tensor:
#      x y z
#    x 1.620190 0.000000 0.000000 
#    y 0.000000 1.556380 0.000000 
#    z 0.000000 0.000000 1.566670 
# 
# From -- ./inp_files/1432.got.cif
#   From: 2010.05.17/outbox.cif.g08.bks.cpg/sg21_1_cif.got.tgz:1432.got - 2010.06.03 23:14:55.
