data_PCOD9324035
_publ_section_title
;
Structure prediction by ZEFSAII (Michael W. Deem and Ramdas Pophale) SiO2 
 PCOD9324035
Probable space group: C 2 2 2
;
_chemical_formula_sum "Si O2"
_cell_formula_units_Z 40
_cell_length_a 12.314852
_cell_length_b 7.998776
_cell_length_c 18.192620
_cell_angle_alpha 90.000000
_cell_angle_beta 90.000000
_cell_angle_gamma 90.000000
_cell_volume 1792.041158
_symmetry_space_group_name_H-M "C 2 2 2"
_symmetry_group_IT_number 21
_symmetry_cell_setting 'orthorhombic'
loop_
_space_group_symop_operation_xyz
x,y,z
-x,-y,z
x,-y,-z
-x,y,-z
1/2+x,1/2+y,z
1/2-x,1/2-y,z
1/2+x,1/2-y,-z
1/2-x,1/2+y,-z
loop_
_atom_site_type_symbol
_atom_site_label
_atom_site_fract_x
_atom_site_fract_y
_atom_site_fract_z
Si Si1 0.694480 0.587988 0.697652
Si Si2 0.484980 0.805550 0.670348
Si Si3 0.907260 0.144370 0.809862
Si Si4 0.625103 0.693724 0.022710
Si Si5 0.824056 0.111062 0.564028
O O1 0.750000 0.750000 0.730253
O O2 0.584256 0.674237 0.669167
O O3 0.681828 0.451840 0.760846
O O4 0.740440 0.502195 0.624137
O O5 0.446651 0.788978 0.755023
O O6 0.403966 0.716396 0.614570
O O7 0.500000 0.000000 0.652834
O O8 0.874663 0.207132 0.889092
O O9 0.000000 0.000000 0.819334
O O10 0.750000 0.750000 0.997590
O O11 0.621496 0.500000 0.000000
O O12 0.500000 0.759902 0.000000
O O13 0.750000 0.250000 0.526236
O O14 0.872496 0.000000 0.500000
#
# Coordination Sequence:
#
# PCOD9324035 Si02
#       5
#     8   8   8   8   8
#     4  10  21  38  65  96 126 167 221 271 329 397
#     4  10  22  40  64  97 129 166 219 273 328 403
#     4   9  19  41  64  91 131 181 218 280 342 401
#     4  11  24  45  69  98 145 187 234 292 362 429
#     4  11  23  40  61  88 128 167 214 270 337 395
#
# _framework density 22.320914999999999
#
# number of rings (size 3 to 8) (size 9 to 14) (size 15 to 20)
#    0.000    1.800    2.000    3.600    0.000    7.600 
#    3.600    1.000    0.000    0.000    0.000    0.000 
#    0.000    0.000    0.000    0.000    0.000    0.000 
#
# Total GULP energy -111347.372856 kJ/mol
# GULP energy per Si atom -5567.368643 kJ/mol
# Density = 2.227011 g / cm^3
# Si number density = 22.320915 Si / 1000 Ang^3
#
#
#
# Elastic Constant Matrix: (Units=GPa)
#
#
# Indices 1 2 3 4 5 6 
#
# 1 103.0738 25.4796 20.5294 0.0000 0.0000 0.0000
# 2 25.4796 86.8754 26.0957 0.0000 0.0000 0.0000
# 3 20.5294 26.0957 116.4657 0.0000 0.0000 0.0000
# 4 0.0000 0.0000 0.0000 24.6219 0.0000 0.0000
# 5 0.0000 0.0000 0.0000 0.0000 12.3432 0.0000
# 6 0.0000 0.0000 0.0000 0.0000 0.0000 29.4045
#
#
#
# Elastic Compliance Matrix: (Units=1/GPa)
#
#
# Indices 1 2 3 4 5 6 
#
# 1 0.010630 -0.002739 -0.001260 0.000000 0.000000 0.000000
# 2 -0.002739 0.013047 -0.002441 0.000000 0.000000 0.000000
# 3 -0.001260 -0.002441 0.009355 0.000000 0.000000 0.000000
# 4 0.000000 0.000000 0.000000 0.040614 0.000000 0.000000
# 5 0.000000 0.000000 0.000000 0.000000 0.081017 0.000000
# 6 0.000000 0.000000 0.000000 0.000000 0.000000 0.034008
#
#
# Mechanical properties :
#
#
# Convention : Reuss Voigt Hill
#
# Bulk Modulus (GPa) = 49.62085 50.06936 49.84511
# Shear Modulus (GPa) = 24.00748 28.89459 26.45103
#
# Velocity S-wave (km/s) = 3.28313 3.60183 3.44617
# Velocity P-wave (km/s) = 6.05399 6.30697 6.18178
#
# Compressibility (1/GPa) = 0.02015282
#
# Stress axis : x y z
#
# Youngs Moduli (GPa) = 94.07470 76.64486 106.89288
#
# Poissons Ratio (x) = 0.20994 0.13468
# Poissons Ratio (y) = 0.25768 0.26088
# Poissons Ratio (z) = 0.11853 0.18706
#
# Static dielectric constant tensor:
#      x y z
#    x 1.633910 0.000000 0.000000 
#    y 0.000000 1.611980 0.000000 
#    z 0.000000 0.000000 1.773530 
# 
# From -- ./inp_files/36045.got.cif
#   From: 2010.05.17/outbox.cif.g08.bks.cpg/sg21_19_cif.got.tgz:36045.got - 2010.06.03 23:14:55.
