data_PCOD9324206
_publ_section_title
;
Structure prediction by ZEFSAII (Michael W. Deem and Ramdas Pophale) SiO2 
 PCOD9324206
Probable space group: C 2 2 2
;
_chemical_formula_sum "Si O2"
_cell_formula_units_Z 36
_cell_length_a 16.579168
_cell_length_b 7.942548
_cell_length_c 13.333781
_cell_angle_alpha 90.000000
_cell_angle_beta 90.000000
_cell_angle_gamma 90.000000
_cell_volume 1755.803451
_symmetry_space_group_name_H-M "C 2 2 2"
_symmetry_group_IT_number 21
_symmetry_cell_setting 'orthorhombic'
loop_
_space_group_symop_operation_xyz
x,y,z
-x,-y,z
x,-y,-z
-x,y,-z
1/2+x,1/2+y,z
1/2-x,1/2-y,z
1/2+x,1/2-y,-z
1/2-x,1/2+y,-z
loop_
_atom_site_type_symbol
_atom_site_label
_atom_site_fract_x
_atom_site_fract_y
_atom_site_fract_z
Si Si1 0.750000 0.250000 0.270221
Si Si2 0.580843 0.309700 0.776607
Si Si3 0.907653 0.814894 0.852073
Si Si4 0.660003 0.182611 0.955675
Si Si5 0.194769 0.081867 0.392801
O O1 0.828931 0.261910 0.200720
O O2 0.736264 0.424026 0.332943
O O3 0.488468 0.258558 0.793967
O O4 0.594194 0.485450 0.835146
O O5 0.634776 0.182496 0.839992
O O6 0.615948 0.352557 0.667829
O O7 0.901265 0.779055 0.969943
O O8 0.750000 0.250000 0.964105
O O9 0.659359 0.000000 0.000000
O O10 0.250000 0.250000 0.402143
O O11 0.174974 0.000000 0.500000
#
# Coordination Sequence:
#
# PCOD9324206 Si02
#       5
#     4   8   8   8   8
#     4  10  22  42  66  96 128 176 228 272 342 412
#     4  10  23  40  64  95 130 177 216 277 338 400
#     4  10  21  41  63  92 132 176 218 267 335 410
#     4  12  24  37  60  95 134 178 223 268 330 418
#     4  11  23  43  71  97 129 176 231 284 343 403
#
# _framework density 20.503433999999999
#
# number of rings (size 3 to 8) (size 9 to 14) (size 15 to 20)
#    0.000    1.333    2.222    3.333    6.222    3.556 
#    0.000    8.889    0.000    1.333    0.000    0.000 
#    0.000    0.000    0.000    0.000    0.000    0.000 
#
# Total GULP energy -100466.275679 kJ/mol
# GULP energy per Si atom -5581.459760 kJ/mol
# Density = 2.045677 g / cm^3
# Si number density = 20.503434 Si / 1000 Ang^3
#
#
#
# Elastic Constant Matrix: (Units=GPa)
#
#
# Indices 1 2 3 4 5 6 
#
# 1 141.3986 26.0964 68.5947 0.0000 0.0000 0.0000
# 2 26.0964 66.5588 32.4669 0.0000 0.0000 0.0000
# 3 68.5947 32.4669 136.4459 0.0000 0.0000 0.0000
# 4 0.0000 0.0000 0.0000 39.5947 0.0000 0.0000
# 5 0.0000 0.0000 0.0000 0.0000 14.8461 0.0000
# 6 0.0000 0.0000 0.0000 0.0000 0.0000 20.1852
#
#
#
# Elastic Compliance Matrix: (Units=1/GPa)
#
#
# Indices 1 2 3 4 5 6 
#
# 1 0.009498 -0.001578 -0.004399 0.000000 0.000000 0.000000
# 2 -0.001578 0.017259 -0.003314 0.000000 0.000000 0.000000
# 3 -0.004399 -0.003314 0.010329 0.000000 0.000000 0.000000
# 4 0.000000 0.000000 0.000000 0.025256 0.000000 0.000000
# 5 0.000000 0.000000 0.000000 0.000000 0.067358 0.000000
# 6 0.000000 0.000000 0.000000 0.000000 0.000000 0.049541
#
#
# Mechanical properties :
#
#
# Convention : Reuss Voigt Hill
#
# Bulk Modulus (GPa) = 54.04091 66.52435 60.28263
# Shear Modulus (GPa) = 24.51101 29.40823 26.95962
#
# Velocity S-wave (km/s) = 3.46129 3.79133 3.63007
# Velocity P-wave (km/s) = 6.51063 7.18899 6.85820
#
# Compressibility (1/GPa) = 0.01850450
#
# Stress axis : x y z
#
# Youngs Moduli (GPa) = 105.29052 57.93980 96.81542
#
# Poissons Ratio (x) = 0.09142 0.42591
# Poissons Ratio (y) = 0.16614 0.32080
# Poissons Ratio (z) = 0.46319 0.19199
#
# Static dielectric constant tensor:
#      x y z
#    x 1.749040 0.000000 0.000000 
#    y 0.000000 1.780890 0.000000 
#    z 0.000000 0.000000 1.753260 
# 
# From -- ./inp_files/32014.got.cif
#   From: 2010.05.17/outbox.cif.g08.bks.cpg/sg21_17_cif.got.tgz:32014.got - 2010.06.03 23:14:55.
