data_PCOD9324123
_publ_section_title
;
Structure prediction by ZEFSAII (Michael W. Deem and Ramdas Pophale) SiO2 
 PCOD9324123
Probable space group: C 2 2 2
;
_chemical_formula_sum "Si O2"
_cell_formula_units_Z 46
_cell_length_a 14.466457
_cell_length_b 31.032311
_cell_length_c 5.130585
_cell_angle_alpha 90.000000
_cell_angle_beta 90.000000
_cell_angle_gamma 90.000000
_cell_volume 2303.261173
_symmetry_space_group_name_H-M "C 2 2 2"
_symmetry_group_IT_number 21
_symmetry_cell_setting 'orthorhombic'
loop_
_space_group_symop_operation_xyz
x,y,z
-x,-y,z
x,-y,-z
-x,y,-z
1/2+x,1/2+y,z
1/2-x,1/2-y,z
1/2+x,1/2-y,-z
1/2-x,1/2+y,-z
loop_
_atom_site_type_symbol
_atom_site_label
_atom_site_fract_x
_atom_site_fract_y
_atom_site_fract_z
Si Si1 0.650699 0.043438 0.866875
Si Si2 0.886163 0.662762 0.722004
Si Si3 0.000000 0.500000 0.500000
Si Si4 0.142818 0.758354 0.421384
Si Si5 0.271339 0.131466 0.227564
Si Si6 0.399017 0.687144 0.914037
Si Si7 0.000000 0.604540 0.000000
O O1 0.572662 0.028693 0.661357
O O2 0.723267 0.079261 0.777825
O O3 0.585459 0.072500 0.049373
O O4 0.686575 0.000000 0.000000
O O5 0.899052 0.713095 0.670781
O O6 0.820342 0.645242 0.494297
O O7 0.982793 0.637752 0.765170
O O8 0.831279 0.652971 0.993038
O O9 0.250000 0.750000 0.495643
O O10 0.095055 0.779021 0.674605
O O11 0.141602 0.789796 0.171649
O O12 0.169714 0.150384 0.188902
O O13 0.500000 0.671716 0.000000
#
# Coordination Sequence:
#
# PCOD9324123 Si02
#       7
#     8   8   2   8   8   8   4
#     4  11  22  37  60  89 126 166 206 259 323 399
#     4  11  23  38  62  90 129 172 217 260 317 392
#     4  12  18  36  64  90 132 162 206 256 318 400
#     4  12  22  42  66  89 125 170 216 273 328 382
#     4  11  23  41  62  89 122 173 218 264 329 388
#     4  12  25  43  63  92 127 172 225 278 328 382
#     4  10  21  40  54  92 134 170 206 258 323 384
#
# _framework density 19.971681
#
# number of rings (size 3 to 8) (size 9 to 14) (size 15 to 20)
#    0.000    0.696    5.217    3.130    3.652    2.087 
#    6.261    0.000    0.000    0.522    0.000    0.000 
#    0.000    0.000    0.000    0.000    0.000    0.000 
#
# Total GULP energy -128351.082032 kJ/mol
# GULP energy per Si atom -5580.481827 kJ/mol
# Density = 1.992622 g / cm^3
# Si number density = 19.971681 Si / 1000 Ang^3
#
#
#
# Elastic Constant Matrix: (Units=GPa)
#
#
# Indices 1 2 3 4 5 6 
#
# 1 96.6144 48.1140 33.7480 0.0000 0.0000 0.0000
# 2 48.1140 145.8532 31.6976 0.0000 0.0000 0.0000
# 3 33.7480 31.6976 128.5252 0.0000 0.0000 0.0000
# 4 0.0000 0.0000 0.0000 15.8271 0.0000 0.0000
# 5 0.0000 0.0000 0.0000 0.0000 28.4634 0.0000
# 6 0.0000 0.0000 0.0000 0.0000 0.0000 20.0739
#
#
#
# Elastic Compliance Matrix: (Units=1/GPa)
#
#
# Indices 1 2 3 4 5 6 
#
# 1 0.013109 -0.003779 -0.002510 0.000000 0.000000 0.000000
# 2 -0.003779 0.008334 -0.001063 0.000000 0.000000 0.000000
# 3 -0.002510 -0.001063 0.008702 0.000000 0.000000 0.000000
# 4 0.000000 0.000000 0.000000 0.063183 0.000000 0.000000
# 5 0.000000 0.000000 0.000000 0.000000 0.035133 0.000000
# 6 0.000000 0.000000 0.000000 0.000000 0.000000 0.049816
#
#
# Mechanical properties :
#
#
# Convention : Reuss Voigt Hill
#
# Bulk Modulus (GPa) = 64.76484 66.45690 65.61087
# Shear Modulus (GPa) = 25.23629 30.03511 27.63570
#
# Velocity S-wave (km/s) = 3.55858 3.88220 3.72391
# Velocity P-wave (km/s) = 7.02733 7.31048 7.17030
#
# Compressibility (1/GPa) = 0.01544048
#
# Stress axis : x y z
#
# Youngs Moduli (GPa) = 76.28256 119.99287 114.91765
#
# Poissons Ratio (x) = 0.45344 0.28847
# Poissons Ratio (y) = 0.28827 0.12217
# Poissons Ratio (z) = 0.19148 0.12756
#
# Static dielectric constant tensor:
#      x y z
#    x 1.779200 0.000000 0.000000 
#    y 0.000000 1.767900 0.000000 
#    z 0.000000 0.000000 1.782990 
# 
# From -- ./inp_files/4063.got.cif
#   From: 2010.05.17/outbox.cif.g08.bks.cpg/sg21_3_cif.got.tgz:4063.got - 2010.06.03 23:14:55.
