data_PCOD9324301
_publ_section_title
;
Structure prediction by ZEFSAII (Michael W. Deem and Ramdas Pophale) SiO2 
 PCOD9324301
Probable space group: C 2 2 2
;
_chemical_formula_sum "Si O2"
_cell_formula_units_Z 40
_cell_length_a 15.003459
_cell_length_b 8.929548
_cell_length_c 13.558362
_cell_angle_alpha 90.000000
_cell_angle_beta 90.000000
_cell_angle_gamma 90.000000
_cell_volume 1816.469445
_symmetry_space_group_name_H-M "C 2 2 2"
_symmetry_group_IT_number 21
_symmetry_cell_setting 'orthorhombic'
loop_
_space_group_symop_operation_xyz
x,y,z
-x,-y,z
x,-y,-z
-x,y,-z
1/2+x,1/2+y,z
1/2-x,1/2-y,z
1/2+x,1/2-y,-z
1/2-x,1/2+y,-z
loop_
_atom_site_type_symbol
_atom_site_label
_atom_site_fract_x
_atom_site_fract_y
_atom_site_fract_z
Si Si1 0.156713 0.500000 0.000000
Si Si2 0.843486 0.662670 0.630637
Si Si3 0.148397 0.690333 0.589035
Si Si4 0.750000 0.750000 0.133035
Si Si5 0.051041 0.643795 0.176963
Si Si6 0.426515 0.633695 0.765804
O O1 0.209014 0.377300 0.063309
O O2 0.101060 0.590982 0.080847
O O3 0.750000 0.750000 0.632110
O O4 0.841212 0.481585 0.624964
O O5 0.884722 0.701414 0.523923
O O6 0.889598 0.703756 0.733461
O O7 0.250000 0.750000 0.589918
O O8 0.084763 0.783495 0.660855
O O9 0.676768 0.652880 0.196430
O O10 0.000000 0.500000 0.218847
O O11 0.976589 0.764255 0.153900
O O12 0.500000 0.500000 0.754863
#
# Coordination Sequence:
#
# PCOD9324301 Si02
#       6
#     4   8   8   4   8   8
#     4  12  29  50  77 106 146 200 257 326 394 461
#     4  10  23  41  75 105 144 207 254 306 388 476
#     4  10  21  44  69 107 156 195 247 315 386 464
#     4  12  28  50  76 112 152 202 258 332 394 478
#     4  12  25  48  70 102 144 192 250 320 382 453
#     4  12  28  47  78 113 155 201 252 330 392 476
#
# _framework density 22.02074
#
# number of rings (size 3 to 8) (size 9 to 14) (size 15 to 20)
#    0.000    0.800    5.000    0.300    7.000    0.800 
#    0.000    1.000    0.000    0.000    0.000    0.000 
#    0.000    0.000    0.000    0.000    0.000    0.000 
#
# Total GULP energy -111438.136121 kJ/mol
# GULP energy per Si atom -5571.906806 kJ/mol
# Density = 2.197062 g / cm^3
# Si number density = 22.020740 Si / 1000 Ang^3
#
#
#
# Elastic Constant Matrix: (Units=GPa)
#
#
# Indices 1 2 3 4 5 6 
#
# 1 114.9982 55.2601 81.3558 0.0000 0.0000 0.0000
# 2 55.2601 91.9820 39.4281 0.0000 0.0000 0.0000
# 3 81.3558 39.4281 148.0950 0.0000 0.0000 0.0000
# 4 0.0000 0.0000 0.0000 18.7980 0.0000 0.0000
# 5 0.0000 0.0000 0.0000 0.0000 15.6089 0.0000
# 6 0.0000 0.0000 0.0000 0.0000 0.0000 37.2239
#
#
#
# Elastic Compliance Matrix: (Units=1/GPa)
#
#
# Indices 1 2 3 4 5 6 
#
# 1 0.017715 -0.007305 -0.007787 0.000000 0.000000 0.000000
# 2 -0.007305 0.015284 -0.000056 0.000000 0.000000 0.000000
# 3 -0.007787 -0.000056 0.011045 0.000000 0.000000 0.000000
# 4 0.000000 0.000000 0.000000 0.053197 0.000000 0.000000
# 5 0.000000 0.000000 0.000000 0.000000 0.064066 0.000000
# 6 0.000000 0.000000 0.000000 0.000000 0.000000 0.026864
#
#
# Mechanical properties :
#
#
# Convention : Reuss Voigt Hill
#
# Bulk Modulus (GPa) = 72.73586 78.57368 75.65477
# Shear Modulus (GPa) = 22.41646 26.26156 24.33901
#
# Velocity S-wave (km/s) = 3.19403 3.45713 3.32818
# Velocity P-wave (km/s) = 6.83409 7.18991 7.01425
#
# Compressibility (1/GPa) = 0.01374838
#
# Stress axis : x y z
#
# Youngs Moduli (GPa) = 56.45043 65.42663 90.53790
#
# Poissons Ratio (x) = 0.47792 0.70500
# Poissons Ratio (y) = 0.41235 0.00511
# Poissons Ratio (z) = 0.43957 0.00369
#
# Static dielectric constant tensor:
#      x y z
#    x 1.895930 0.000000 0.000000 
#    y 0.000000 1.780160 0.000000 
#    z 0.000000 0.000000 1.820700 
# 
# From -- ./inp_files/32136.got.cif
#   From: 2010.05.17/outbox.cif.g08.bks.cpg/sg21_17_cif.got.tgz:32136.got - 2010.06.03 23:14:55.
