data_PCOD9324584
_publ_section_title
;
Structure prediction by ZEFSAII (Michael W. Deem and Ramdas Pophale) SiO2 
 PCOD9324584
Probable space group: C 2 2 2
;
_chemical_formula_sum "Si O2"
_cell_formula_units_Z 48
_cell_length_a 17.898514
_cell_length_b 8.573396
_cell_length_c 14.810743
_cell_angle_alpha 90.000000
_cell_angle_beta 90.000000
_cell_angle_gamma 90.000000
_cell_volume 2272.724040
_symmetry_space_group_name_H-M "C 2 2 2"
_symmetry_group_IT_number 21
_symmetry_cell_setting 'orthorhombic'
loop_
_space_group_symop_operation_xyz
x,y,z
-x,-y,z
x,-y,-z
-x,y,-z
1/2+x,1/2+y,z
1/2-x,1/2-y,z
1/2+x,1/2-y,-z
1/2-x,1/2+y,-z
loop_
_atom_site_type_symbol
_atom_site_label
_atom_site_fract_x
_atom_site_fract_y
_atom_site_fract_z
Si Si1 0.037058 0.843558 0.299112
Si Si2 0.211629 0.585109 0.908029
Si Si3 0.102690 0.564695 0.403626
Si Si4 0.804261 0.101165 0.234334
Si Si5 0.233629 0.935503 0.588368
Si Si6 0.566250 0.107017 0.783954
O O1 0.067372 0.730719 0.378716
O O2 0.109448 0.851464 0.233867
O O3 0.971200 0.770232 0.238810
O O4 0.000000 0.000000 0.335551
O O5 0.250000 0.750000 0.927045
O O6 0.271145 0.479943 0.853647
O O7 0.140109 0.606945 0.843140
O O8 0.189797 0.500000 0.000000
O O9 0.077138 0.500000 0.500000
O O10 0.192009 0.544646 0.409789
O O11 0.083435 0.462891 0.315531
O O12 0.750000 0.250000 0.252285
O O13 0.802620 0.977048 0.316611
O O14 0.250000 0.750000 0.582295
O O15 0.191139 0.000000 0.500000
O O16 0.500000 0.000000 0.823945
#
# Coordination Sequence:
#
# PCOD9324584 Si02
#       6
#     8   8   8   8   8   8
#     4  11  24  40  68  99 137 178 228 282 348 405
#     4  12  26  45  72 100 131 168 224 278 342 411
#     4  10  22  42  65  93 138 186 230 279 335 403
#     4  12  22  44  70 102 136 173 225 289 339 408
#     4  11  23  38  66  99 136 185 240 289 340 400
#     4  10  22  45  66  95 134 184 216 267 343 414
#
# _framework density 21.120028999999999
#
# number of rings (size 3 to 8) (size 9 to 14) (size 15 to 20)
#    0.000    1.000    3.333    3.500    4.667    3.333 
#    0.000    3.333    0.000    3.500    0.000    0.000 
#    0.000    0.000    0.000    0.000    0.000    0.000 
#
# Total GULP energy -134027.725706 kJ/mol
# GULP energy per Si atom -5584.488571 kJ/mol
# Density = 2.107196 g / cm^3
# Si number density = 21.120029 Si / 1000 Ang^3
#
#
#
# Elastic Constant Matrix: (Units=GPa)
#
#
# Indices 1 2 3 4 5 6 
#
# 1 111.7580 37.3401 47.6197 0.0000 0.0000 0.0000
# 2 37.3401 130.7932 52.0547 0.0000 0.0000 0.0000
# 3 47.6197 52.0547 117.8412 0.0000 0.0000 0.0000
# 4 0.0000 0.0000 0.0000 11.0428 0.0000 0.0000
# 5 0.0000 0.0000 0.0000 0.0000 -9.8569 0.0000
# 6 0.0000 0.0000 0.0000 0.0000 0.0000 26.0525
#
#
#
# Elastic Compliance Matrix: (Units=1/GPa)
#
#
# Indices 1 2 3 4 5 6 
#
# 1 0.011105 -0.001680 -0.003746 0.000000 0.000000 0.000000
# 2 -0.001680 0.009531 -0.003531 0.000000 0.000000 0.000000
# 3 -0.003746 -0.003531 0.011559 0.000000 0.000000 0.000000
# 4 0.000000 0.000000 0.000000 0.090557 0.000000 0.000000
# 5 0.000000 0.000000 0.000000 0.000000 -0.101451 0.000000
# 6 0.000000 0.000000 0.000000 0.000000 0.000000 0.038384
#
#
# Mechanical properties :
#
#
# Convention : Reuss Voigt Hill
#
# Bulk Modulus (GPa) = 70.01761 70.49126 70.25443
# Shear Modulus (GPa) = 60.71031 20.33955 40.52493
#
# Velocity S-wave (km/s) = 5.36729 3.10666 4.38515
# Velocity P-wave (km/s) = 8.46372 6.80569 7.67958
#
# Compressibility (1/GPa) = 0.01428212
#
# Stress axis : x y z
#
# Youngs Moduli (GPa) = 90.04874 104.92530 86.50912
#
# Poissons Ratio (x) = 0.17624 0.32403
# Poissons Ratio (y) = 0.15125 0.30549
# Poissons Ratio (z) = 0.33729 0.37052
#
# Static dielectric constant tensor:
#      x y z
#    x 1.844080 0.000000 0.000000 
#    y 0.000000 1.778370 0.000000 
#    z 0.000000 0.000000 1.755140 
# 
# From -- ./inp_files/32794.got.cif
#   From: 2010.05.17/outbox.cif.g08.bks.cpg/sg21_17_cif.got.tgz:32794.got - 2010.06.03 23:14:55.
