data_PCOD9324733
_publ_section_title
;
Structure prediction by ZEFSAII (Michael W. Deem and Ramdas Pophale) SiO2 
 PCOD9324733
Probable space group: C 2 2 2
;
_chemical_formula_sum "Si O2"
_cell_formula_units_Z 56
_cell_length_a 18.710255
_cell_length_b 14.066708
_cell_length_c 9.313849
_cell_angle_alpha 90.000000
_cell_angle_beta 90.000000
_cell_angle_gamma 90.000000
_cell_volume 2451.327693
_symmetry_space_group_name_H-M "C 2 2 2"
_symmetry_group_IT_number 21
_symmetry_cell_setting 'orthorhombic'
loop_
_space_group_symop_operation_xyz
x,y,z
-x,-y,z
x,-y,-z
-x,y,-z
1/2+x,1/2+y,z
1/2-x,1/2-y,z
1/2+x,1/2-y,-z
1/2-x,1/2+y,-z
loop_
_atom_site_type_symbol
_atom_site_label
_atom_site_fract_x
_atom_site_fract_y
_atom_site_fract_z
Si Si1 0.132229 0.899512 0.964686
Si Si2 0.178025 0.592901 0.435097
Si Si3 0.099484 0.693767 0.020750
Si Si4 0.075350 0.744963 0.533056
Si Si5 0.707097 0.655735 0.321829
Si Si6 0.019496 0.608646 0.776978
Si Si7 0.271917 0.914976 0.113858
O O1 0.180560 0.901535 0.818564
O O2 0.089177 0.801261 0.965955
O O3 0.189327 0.891333 0.093331
O O4 0.094810 0.000000 0.000000
O O5 0.139914 0.500000 0.500000
O O6 0.124688 0.682616 0.425504
O O7 0.240771 0.615229 0.552677
O O8 0.208009 0.567241 0.278899
O O9 0.179416 0.673088 0.066817
O O10 0.045556 0.664074 0.146383
O O11 0.082029 0.620259 0.893301
O O12 0.132842 0.813190 0.605530
O O13 0.046477 0.664108 0.640311
O O14 0.000000 0.795927 0.500000
O O15 0.750000 0.750000 0.269758
O O16 0.000000 0.500000 0.753177
O O17 0.287092 0.000000 0.000000
#
# Coordination Sequence:
#
# PCOD9324733 Si02
#       7
#     8   8   8   8   8   8   8
#     4  11  23  40  68  96 128 178 236 291 338 404
#     4  11  25  40  66 101 137 183 228 284 348 426
#     4  11  22  39  63  92 135 177 220 280 347 409
#     4  11  25  40  68  98 141 183 228 275 352 425
#     4  10  22  46  68  93 141 185 230 287 355 415
#     4  11  24  40  62  98 135 176 215 273 347 424
#     4  11  23  38  65 100 133 172 226 283 343 410
#
# _framework density 22.844763
#
# number of rings (size 3 to 8) (size 9 to 14) (size 15 to 20)
#    0.000    1.143    1.429    5.571    8.000    4.571 
#    0.000    1.429    0.000    2.143    0.000    0.000 
#    0.000    0.000    0.000    0.000    0.000    0.000 
#
# Total GULP energy -156353.897181 kJ/mol
# GULP energy per Si atom -5584.067756 kJ/mol
# Density = 2.279277 g / cm^3
# Si number density = 22.844763 Si / 1000 Ang^3
#
#
#
# Elastic Constant Matrix: (Units=GPa)
#
#
# Indices 1 2 3 4 5 6 
#
# 1 84.9761 6.9065 -2.5084 0.0000 0.0000 0.0000
# 2 6.9065 81.1281 6.6992 0.0000 0.0000 0.0000
# 3 -2.5084 6.6992 106.3843 0.0000 0.0000 0.0000
# 4 0.0000 0.0000 0.0000 23.9532 0.0000 0.0000
# 5 0.0000 0.0000 0.0000 0.0000 5.1876 0.0000
# 6 0.0000 0.0000 0.0000 0.0000 0.0000 36.2887
#
#
#
# Elastic Compliance Matrix: (Units=1/GPa)
#
#
# Indices 1 2 3 4 5 6 
#
# 1 0.011863 -0.001038 0.000345 0.000000 0.000000 0.000000
# 2 -0.001038 0.012482 -0.000810 0.000000 0.000000 0.000000
# 3 0.000345 -0.000810 0.009459 0.000000 0.000000 0.000000
# 4 0.000000 0.000000 0.000000 0.041748 0.000000 0.000000
# 5 0.000000 0.000000 0.000000 0.000000 0.192769 0.000000
# 6 0.000000 0.000000 0.000000 0.000000 0.000000 0.027557
#
#
# Mechanical properties :
#
#
# Convention : Reuss Voigt Hill
#
# Bulk Modulus (GPa) = 32.47208 32.74255 32.60732
# Shear Modulus (GPa) = 16.17341 30.51197 23.34269
#
# Velocity S-wave (km/s) = 2.66366 3.65858 3.20002
# Velocity P-wave (km/s) = 4.86880 5.67545 5.28753
#
# Compressibility (1/GPa) = 0.03079569
#
# Stress axis : x y z
#
# Youngs Moduli (GPa) = 84.29855 80.11850 105.71876
#
# Poissons Ratio (x) = 0.08319 -0.03648
# Poissons Ratio (y) = 0.08753 0.08568
# Poissons Ratio (z) = -0.02909 0.06493
#
# Static dielectric constant tensor:
#      x y z
#    x 1.922180 0.000000 0.000000 
#    y 0.000000 1.903960 0.000000 
#    z 0.000000 0.000000 1.903670 
# 
# From -- ./inp_files/17686.got.cif
#   From: 2010.05.17/outbox.cif.g08.bks.cpg/sg21_9_cif.got.tgz:17686.got - 2010.06.03 23:14:55.
