data_PCOD9324140
_publ_section_title
;
Structure prediction by ZEFSAII (Michael W. Deem and Ramdas Pophale) SiO2 
 PCOD9324140
Probable space group: C 2 2 2
;
_chemical_formula_sum "Si O2"
_cell_formula_units_Z 48
_cell_length_a 15.770129
_cell_length_b 8.841438
_cell_length_c 18.836716
_cell_angle_alpha 90.000000
_cell_angle_beta 90.000000
_cell_angle_gamma 90.000000
_cell_volume 2626.414949
_symmetry_space_group_name_H-M "C 2 2 2"
_symmetry_group_IT_number 21
_symmetry_cell_setting 'orthorhombic'
loop_
_space_group_symop_operation_xyz
x,y,z
-x,-y,z
x,-y,-z
-x,y,-z
1/2+x,1/2+y,z
1/2-x,1/2-y,z
1/2+x,1/2-y,-z
1/2-x,1/2+y,-z
loop_
_atom_site_type_symbol
_atom_site_label
_atom_site_fract_x
_atom_site_fract_y
_atom_site_fract_z
Si Si1 0.405736 0.571423 0.331891
Si Si2 0.240417 0.428372 0.077647
Si Si3 0.746683 0.568575 0.421332
Si Si4 0.407995 0.069937 0.660493
Si Si5 0.333490 0.640234 0.179487
Si Si6 0.091435 0.559767 0.170104
O O1 0.500000 0.500000 0.333078
O O2 0.338993 0.486277 0.382115
O O3 0.410004 0.749435 0.351687
O O4 0.365173 0.569728 0.252916
O O5 0.250000 0.250000 0.072523
O O6 0.313680 0.514006 0.121742
O O7 0.158979 0.469032 0.124753
O O8 0.233737 0.500000 0.000000
O O9 0.747113 0.500000 0.500000
O O10 0.750000 0.750000 0.423018
O O11 0.829527 0.504338 0.380593
O O12 0.394199 0.044090 0.745021
O O13 0.500000 0.000000 0.641885
O O14 0.250000 0.750000 0.190513
O O15 0.401374 0.762573 0.153780
O O16 0.000000 0.500000 0.153442
#
# Coordination Sequence:
#
# PCOD9324140 Si02
#       6
#     8   8   8   8   8   8
#     4  11  22  38  62  90 120 153 192 240 288 343
#     4  11  22  36  56  80 112 152 195 238 287 344
#     4  12  25  41  61  86 118 156 196 239 291 348
#     4  10  21  40  63  90 120 152 192 239 289 343
#     4   9  19  37  59  83 114 151 191 235 285 344
#     4   9  19  36  59  84 114 147 183 232 288 342
#
# _framework density 18.275863999999999
#
# number of rings (size 3 to 8) (size 9 to 14) (size 15 to 20)
#    0.000    1.667    0.000    7.000    0.000    7.667 
#    0.000    3.333    0.000    3.500    0.000    0.000 
#    0.000    0.000    0.000    0.000    0.000    0.000 
#
# Total GULP energy -134005.248746 kJ/mol
# GULP energy per Si atom -5583.552031 kJ/mol
# Density = 1.823427 g / cm^3
# Si number density = 18.275864 Si / 1000 Ang^3
#
#
#
# Elastic Constant Matrix: (Units=GPa)
#
#
# Indices 1 2 3 4 5 6 
#
# 1 124.1175 85.7244 79.4460 0.0000 0.0000 0.0000
# 2 85.7244 174.3997 92.5014 0.0000 0.0000 0.0000
# 3 79.4460 92.5014 86.0450 0.0000 0.0000 0.0000
# 4 0.0000 0.0000 0.0000 31.6156 0.0000 0.0000
# 5 0.0000 0.0000 0.0000 0.0000 -16.0135 0.0000
# 6 0.0000 0.0000 0.0000 0.0000 0.0000 40.0097
#
#
#
# Elastic Compliance Matrix: (Units=1/GPa)
#
#
# Indices 1 2 3 4 5 6 
#
# 1 0.019699 -0.000083 -0.018099 0.000000 0.000000 0.000000
# 2 -0.000083 0.013341 -0.014265 0.000000 0.000000 0.000000
# 3 -0.018099 -0.014265 0.043669 0.000000 0.000000 0.000000
# 4 0.000000 0.000000 0.000000 0.031630 0.000000 0.000000
# 5 0.000000 0.000000 0.000000 0.000000 -0.062447 0.000000
# 6 0.000000 0.000000 0.000000 0.000000 0.000000 0.024994
#
#
# Mechanical properties :
#
#
# Convention : Reuss Voigt Hill
#
# Bulk Modulus (GPa) = 84.64702 99.98954 92.31828
# Shear Modulus (GPa) = 35.78601 19.58171 27.68386
#
# Velocity S-wave (km/s) = 4.42985 3.27686 3.89624
# Velocity P-wave (km/s) = 8.51948 8.31547 8.41809
#
# Compressibility (1/GPa) = 0.01181377
#
# Stress axis : x y z
#
# Youngs Moduli (GPa) = 50.76298 74.95543 22.89975
#
# Poissons Ratio (x) = 0.00625 0.41446
# Poissons Ratio (y) = 0.00423 0.32667
# Poissons Ratio (z) = 0.91876 1.06927
#
# Static dielectric constant tensor:
#      x y z
#    x 1.670800 0.000000 0.000000 
#    y 0.000000 1.638550 0.000000 
#    z 0.000000 0.000000 1.612920 
# 
# From -- ./inp_files/36647.got.cif
#   From: 2010.05.17/outbox.cif.g08.bks.cpg/sg21_19_cif.got.tgz:36647.got - 2010.06.03 23:14:55.
