data_PCOD9324296
_publ_section_title
;
Structure prediction by ZEFSAII (Michael W. Deem and Ramdas Pophale) SiO2 
 PCOD9324296
Probable space group: C 2 2 2
;
_chemical_formula_sum "Si O2"
_cell_formula_units_Z 30
_cell_length_a 5.521391
_cell_length_b 14.216273
_cell_length_c 17.620307
_cell_angle_alpha 90.000000
_cell_angle_beta 90.000000
_cell_angle_gamma 90.000000
_cell_volume 1383.081361
_symmetry_space_group_name_H-M "C 2 2 2"
_symmetry_group_IT_number 21
_symmetry_cell_setting 'orthorhombic'
loop_
_space_group_symop_operation_xyz
x,y,z
-x,-y,z
x,-y,-z
-x,y,-z
1/2+x,1/2+y,z
1/2-x,1/2-y,z
1/2+x,1/2-y,-z
1/2-x,1/2+y,-z
loop_
_atom_site_type_symbol
_atom_site_label
_atom_site_fract_x
_atom_site_fract_y
_atom_site_fract_z
Si Si1 0.000000 0.301251 0.000000
Si Si2 0.750000 0.750000 0.239126
Si Si3 0.000000 0.000000 0.000000
Si Si4 0.643179 0.912717 0.126042
Si Si5 0.749795 0.390617 0.467471
Si Si6 0.750000 0.250000 0.333155
O O1 0.250000 0.250000 0.018541
O O2 0.942803 0.358406 0.076153
O O3 0.755355 0.842801 0.186405
O O4 0.500651 0.752084 0.286368
O O5 0.828689 0.944487 0.059555
O O6 0.500000 0.000000 0.161567
O O7 0.749812 0.500000 0.500000
O O8 0.500000 0.352835 0.500000
O O9 0.748030 0.347735 0.382498
O O10 0.000000 0.353027 0.500000
#
# Coordination Sequence:
#
# PCOD9324296 Si02
#       6
#     4   4   2   8   8   4
#     4  12  24  42  76 100 134 184 265 329 359 423
#     4  12  32  47  71 106 162 206 230 300 400 482
#     4  12  24  48  74 106 138 186 288 338 352 428
#     4  12  27  45  72 106 143 199 262 323 383 436
#     4  10  21  43  79 110 138 184 250 306 348 420
#     4  12  26  51  69 110 158 190 240 296 382 466
#
# _framework density 21.6907
#
# number of rings (size 3 to 8) (size 9 to 14) (size 15 to 20)
#    0.000    0.533    4.000    3.200    5.600    0.000 
#   14.400    0.000    0.000    0.000    0.000    0.000 
#    0.000    0.000    0.000    0.000    0.000    0.000 
#
# Total GULP energy -83512.036269 kJ/mol
# GULP energy per Si atom -5567.469085 kJ/mol
# Density = 2.164133 g / cm^3
# Si number density = 21.690700 Si / 1000 Ang^3
#
#
#
# Elastic Constant Matrix: (Units=GPa)
#
#
# Indices 1 2 3 4 5 6 
#
# 1 185.5494 49.4901 79.5626 0.0000 0.0000 0.0000
# 2 49.4901 156.6367 68.7541 0.0000 0.0000 0.0000
# 3 79.5626 68.7541 138.6896 0.0000 0.0000 0.0000
# 4 0.0000 0.0000 0.0000 56.0081 0.0000 0.0000
# 5 0.0000 0.0000 0.0000 0.0000 36.8193 0.0000
# 6 0.0000 0.0000 0.0000 0.0000 0.0000 -28.3164
#
#
#
# Elastic Compliance Matrix: (Units=1/GPa)
#
#
# Indices 1 2 3 4 5 6 
#
# 1 0.007190 -0.000589 -0.003832 0.000000 0.000000 0.000000
# 2 -0.000589 0.008208 -0.003731 0.000000 0.000000 0.000000
# 3 -0.003832 -0.003731 0.011259 0.000000 0.000000 0.000000
# 4 0.000000 0.000000 0.000000 0.017855 0.000000 0.000000
# 5 0.000000 0.000000 0.000000 0.000000 0.027160 0.000000
# 6 0.000000 0.000000 0.000000 0.000000 0.000000 -0.035315
#
#
# Mechanical properties :
#
#
# Convention : Reuss Voigt Hill
#
# Bulk Modulus (GPa) = 96.61057 97.38768 96.99913
# Shear Modulus (GPa) = 89.10820 31.77347 60.44083
#
# Velocity S-wave (km/s) = 6.41642 3.83148 5.28444
# Velocity P-wave (km/s) = 9.97651 8.03551 9.05815
#
# Compressibility (1/GPa) = 0.01035083
#
# Stress axis : x y z
#
# Youngs Moduli (GPa) = 139.08271 121.83087 88.82175
#
# Poissons Ratio (x) = 0.07182 0.34041
# Poissons Ratio (y) = 0.08199 0.33139
# Poissons Ratio (z) = 0.53303 0.45454
#
# Static dielectric constant tensor:
#      x y z
#    x 1.779140 0.000000 0.000000 
#    y 0.000000 1.929220 0.000000 
#    z 0.000000 0.000000 1.763440 
# 
# From -- ./inp_files/34385.got.cif
#   From: 2010.05.17/outbox.cif.g08.bks.cpg/sg21_18_cif.got.tgz:34385.got - 2010.06.03 23:14:55.
