data_PCOD9324313
_publ_section_title
;
Structure prediction by ZEFSAII (Michael W. Deem and Ramdas Pophale) SiO2 
 PCOD9324313
Probable space group: C 2 2 2
;
_chemical_formula_sum "Si O2"
_cell_formula_units_Z 64
_cell_length_a 26.954963
_cell_length_b 13.922004
_cell_length_c 9.552412
_cell_angle_alpha 90.000000
_cell_angle_beta 90.000000
_cell_angle_gamma 90.000000
_cell_volume 3584.705975
_symmetry_space_group_name_H-M "C 2 2 2"
_symmetry_group_IT_number 21
_symmetry_cell_setting 'orthorhombic'
loop_
_space_group_symop_operation_xyz
x,y,z
-x,-y,z
x,-y,-z
-x,y,-z
1/2+x,1/2+y,z
1/2-x,1/2-y,z
1/2+x,1/2-y,-z
1/2-x,1/2+y,-z
loop_
_atom_site_type_symbol
_atom_site_label
_atom_site_fract_x
_atom_site_fract_y
_atom_site_fract_z
Si Si1 0.645062 0.739676 0.249717
Si Si2 0.752244 0.029069 0.359039
Si Si3 0.302499 0.201331 0.529362
Si Si4 0.164845 0.831452 0.230734
Si Si5 0.698194 0.611472 0.044880
Si Si6 0.694996 0.917904 0.109096
Si Si7 0.448192 0.622936 0.671412
Si Si8 0.440723 0.603300 0.335367
O O1 0.660742 0.770735 0.406214
O O2 0.679244 0.650909 0.193884
O O3 0.657469 0.835321 0.159191
O O4 0.590252 0.694815 0.256262
O O5 0.710757 0.092863 0.437628
O O6 0.793139 0.089987 0.273909
O O7 0.782312 0.000000 0.500000
O O8 0.722725 0.963796 0.247037
O O9 0.250000 0.250000 0.490427
O O10 0.320041 0.241630 0.677198
O O11 0.109065 0.856528 0.270150
O O12 0.169701 0.823289 0.066057
O O13 0.756892 0.627391 0.033263
O O14 0.688084 0.500000 0.000000
O O15 0.676510 0.000000 0.000000
O O16 0.440206 0.622665 0.502764
O O17 0.440055 0.510017 0.701792
O O18 0.505490 0.643586 0.708562
#
# Coordination Sequence:
#
# PCOD9324313 Si02
#       8
#     8   8   8   8   8   8   8   8
#     4  12  22  37  57  81 118 160 202 241 299 354
#     4  11  22  35  54  81 115 151 202 245 281 343
#     4  10  22  33  51  82 109 151 197 248 284 347
#     4  11  21  34  55  76 114 155 194 237 291 339
#     4  11  23  36  50  81 116 163 196 228 287 364
#     4  11  23  38  54  81 121 163 198 241 291 357
#     4   9  19  33  55  87 114 149 188 245 294 343
#     4   9  18  34  56  83 118 146 191 241 294 345
#
# _framework density 17.853626999999999
#
# number of rings (size 3 to 8) (size 9 to 14) (size 15 to 20)
#    0.000    1.500    5.000    2.625    5.250    1.000 
#    0.000    0.625    0.000    2.250    0.000    0.875 
#    0.000    0.000    0.000    0.000    0.000    0.000 
#
# Total GULP energy -178217.421384 kJ/mol
# GULP energy per Si atom -5569.294418 kJ/mol
# Density = 1.781299 g / cm^3
# Si number density = 17.853627 Si / 1000 Ang^3
#
#
#
# Elastic Constant Matrix: (Units=GPa)
#
#
# Indices 1 2 3 4 5 6 
#
# 1 104.2543 42.6589 13.6492 0.0000 0.0000 0.0000
# 2 42.6589 77.0810 20.3090 0.0000 0.0000 0.0000
# 3 13.6492 20.3090 53.1473 0.0000 0.0000 0.0000
# 4 0.0000 0.0000 0.0000 28.8281 0.0000 0.0000
# 5 0.0000 0.0000 0.0000 0.0000 16.1434 0.0000
# 6 0.0000 0.0000 0.0000 0.0000 0.0000 25.6209
#
#
#
# Elastic Compliance Matrix: (Units=1/GPa)
#
#
# Indices 1 2 3 4 5 6 
#
# 1 0.012419 -0.006708 -0.000626 0.000000 0.000000 0.000000
# 2 -0.006708 0.018049 -0.005174 0.000000 0.000000 0.000000
# 3 -0.000626 -0.005174 0.020954 0.000000 0.000000 0.000000
# 4 0.000000 0.000000 0.000000 0.034688 0.000000 0.000000
# 5 0.000000 0.000000 0.000000 0.000000 0.061945 0.000000
# 6 0.000000 0.000000 0.000000 0.000000 0.000000 0.039031
#
#
# Mechanical properties :
#
#
# Convention : Reuss Voigt Hill
#
# Bulk Modulus (GPa) = 37.87192 43.07964 40.47578
# Shear Modulus (GPa) = 22.63433 24.64284 23.63858
#
# Velocity S-wave (km/s) = 3.56444 3.71923 3.64266
# Velocity P-wave (km/s) = 6.18052 6.52881 6.35705
#
# Compressibility (1/GPa) = 0.02640479
#
# Stress axis : x y z
#
# Youngs Moduli (GPa) = 80.52408 55.40464 47.72439
#
# Poissons Ratio (x) = 0.37165 0.02988
# Poissons Ratio (y) = 0.54015 0.24694
# Poissons Ratio (z) = 0.05041 0.28668
#
# Static dielectric constant tensor:
#      x y z
#    x 1.614890 0.000000 0.000000 
#    y 0.000000 1.697300 0.000000 
#    z 0.000000 0.000000 1.761080 
# 
# From -- ./inp_files/18637.got.cif
#   From: 2010.05.17/outbox.cif.g08.bks.cpg/sg21_10_cif.got.tgz:18637.got - 2010.06.03 23:14:55.
