data_PCOD9324742
_publ_section_title
;
Structure prediction by ZEFSAII (Michael W. Deem and Ramdas Pophale) SiO2 
 PCOD9324742
Probable space group: C 2 2 2
;
_chemical_formula_sum "Si O2"
_cell_formula_units_Z 30
_cell_length_a 6.864256
_cell_length_b 21.656868
_cell_length_c 7.448518
_cell_angle_alpha 90.000000
_cell_angle_beta 90.000000
_cell_angle_gamma 90.000000
_cell_volume 1107.283920
_symmetry_space_group_name_H-M "C 2 2 2"
_symmetry_group_IT_number 21
_symmetry_cell_setting 'orthorhombic'
loop_
_space_group_symop_operation_xyz
x,y,z
-x,-y,z
x,-y,-z
-x,y,-z
1/2+x,1/2+y,z
1/2-x,1/2-y,z
1/2+x,1/2-y,-z
1/2-x,1/2+y,-z
loop_
_atom_site_type_symbol
_atom_site_label
_atom_site_fract_x
_atom_site_fract_y
_atom_site_fract_z
Si Si1 0.804499 0.073654 0.251202
Si Si2 0.281902 0.393709 0.151540
Si Si3 0.000000 0.500000 0.500000
Si Si4 0.500000 0.722966 0.000000
Si Si5 0.058649 0.680277 0.310875
O O1 0.659925 0.032035 0.366938
O O2 0.760425 0.143712 0.316501
O O3 0.958988 0.929265 0.250116
O O4 0.748508 0.072335 0.038642
O O5 0.351851 0.325608 0.088189
O O6 0.095643 0.375070 0.266210
O O7 0.444245 0.769223 0.158469
O O8 0.000000 0.707861 0.500000
#
# Coordination Sequence:
#
# PCOD9324742 Si02
#       5
#     8   8   2   4   8
#     4  10  23  46  80 102 153 199 264 325 397 462
#     4  10  24  48  77 110 160 216 254 317 400 504
#     4  12  24  52  84 124 144 208 276 364 396 446
#     4  10  22  46  74 111 163 210 250 300 406 476
#     4  12  23  43  74 112 156 207 257 329 378 487
#
# _framework density 27.093321
#
# number of rings (size 3 to 8) (size 9 to 14) (size 15 to 20)
#    0.000    1.600    4.000    0.800    3.733    1.067 
#   19.200    5.333   11.733    6.400    0.000    0.000 
#    0.000    0.000    0.000    0.000    0.000    0.000 
#
# Total GULP energy -83958.030804 kJ/mol
# GULP energy per Si atom -5597.202054 kJ/mol
# Density = 2.703166 g / cm^3
# Si number density = 27.093321 Si / 1000 Ang^3
#
#
#
# Elastic Constant Matrix: (Units=GPa)
#
#
# Indices 1 2 3 4 5 6 
#
# 1 162.9856 59.9085 76.7348 0.0000 0.0000 0.0000
# 2 59.9085 131.8040 69.1035 0.0000 0.0000 0.0000
# 3 76.7348 69.1035 164.9373 0.0000 0.0000 0.0000
# 4 0.0000 0.0000 0.0000 -9.2662 0.0000 0.0000
# 5 0.0000 0.0000 0.0000 0.0000 49.2016 0.0000
# 6 0.0000 0.0000 0.0000 0.0000 0.0000 39.5144
#
#
#
# Elastic Compliance Matrix: (Units=1/GPa)
#
#
# Indices 1 2 3 4 5 6 
#
# 1 0.008348 -0.002253 -0.002940 0.000000 0.000000 0.000000
# 2 -0.002253 0.010331 -0.003280 0.000000 0.000000 0.000000
# 3 -0.002940 -0.003280 0.008805 0.000000 0.000000 0.000000
# 4 0.000000 0.000000 0.000000 -0.107919 0.000000 0.000000
# 5 0.000000 0.000000 0.000000 0.000000 0.020325 0.000000
# 6 0.000000 0.000000 0.000000 0.000000 0.000000 0.025307
#
#
# Mechanical properties :
#
#
# Convention : Reuss Voigt Hill
#
# Bulk Modulus (GPa) = 94.89740 96.80229 95.84985
# Shear Modulus (GPa) = -348.53191 32.82196 -157.85498
#
# Velocity S-wave (km/s) = -11.35432 3.48435 -7.64133
# Velocity P-wave (km/s) = 11.69581 7.21071 6.51143
#
# Compressibility (1/GPa) = 0.01053770
#
# Stress axis : x y z
#
# Youngs Moduli (GPa) = 119.79381 96.79801 113.57403
#
# Poissons Ratio (x) = 0.21808 0.33388
# Poissons Ratio (y) = 0.26989 0.37253
# Poissons Ratio (z) = 0.35216 0.31751
#
# Static dielectric constant tensor:
#      x y z
#    x 2.422070 0.000000 0.000000 
#    y 0.000000 2.088350 0.000000 
#    z 0.000000 0.000000 2.109470 
# 
# From -- ./inp_files/10505.got.cif
#   From: 2010.05.17/outbox.cif.g08.bks.cpg/sg21_6_cif.got.tgz:10505.got - 2010.06.03 23:14:55.
