data_PCOD9324933
_publ_section_title
;
Structure prediction by ZEFSAII (Michael W. Deem and Ramdas Pophale) SiO2 
 PCOD9324933
Probable space group: C 2 2 2
;
_chemical_formula_sum "Si O2"
_cell_formula_units_Z 30
_cell_length_a 19.378514
_cell_length_b 6.289723
_cell_length_c 11.962422
_cell_angle_alpha 90.000000
_cell_angle_beta 90.000000
_cell_angle_gamma 90.000000
_cell_volume 1458.045610
_symmetry_space_group_name_H-M "C 2 2 2"
_symmetry_group_IT_number 21
_symmetry_cell_setting 'orthorhombic'
loop_
_space_group_symop_operation_xyz
x,y,z
-x,-y,z
x,-y,-z
-x,y,-z
1/2+x,1/2+y,z
1/2-x,1/2-y,z
1/2+x,1/2-y,-z
1/2-x,1/2+y,-z
loop_
_atom_site_type_symbol
_atom_site_label
_atom_site_fract_x
_atom_site_fract_y
_atom_site_fract_z
Si Si1 0.830319 0.734331 0.802876
Si Si2 0.069988 0.601562 0.877098
Si Si3 0.500000 0.000000 0.500000
Si Si4 0.429349 0.381956 0.614070
Si Si5 0.889405 0.000000 0.000000
O O1 0.750000 0.750000 0.777684
O O2 0.864372 0.497705 0.812839
O O3 0.873427 0.860802 0.709514
O O4 0.843907 0.847779 0.921967
O O5 0.000000 0.500000 0.826216
O O6 0.069893 0.849484 0.911170
O O7 0.072669 0.500000 0.000000
O O8 0.547219 0.849962 0.574815
O O9 0.500000 0.500000 0.651124
O O10 0.406075 0.500000 0.500000
#
# Coordination Sequence:
#
# PCOD9324933 Si02
#       5
#     8   8   2   8   4
#     4  11  25  39  64  96 132 175 219 270 337 396
#     4   9  21  38  61  92 123 172 219 264 326 382
#     4   8  18  40  68  90 126 156 220 276 320 408
#     4   9  21  42  68  95 124 169 216 278 335 386
#     4  10  24  41  64  90 143 170 222 274 323 406
#
# _framework density 20.575488
#
# number of rings (size 3 to 8) (size 9 to 14) (size 15 to 20)
#    0.000    2.667    0.000    0.000   11.200    9.600 
#    2.400    0.000    0.000    0.000    0.000    0.000 
#    0.000    0.000    0.000    0.000    0.000    0.000 
#
# Total GULP energy -83619.989306 kJ/mol
# GULP energy per Si atom -5574.665954 kJ/mol
# Density = 2.052866 g / cm^3
# Si number density = 20.575488 Si / 1000 Ang^3
#
#
#
# Elastic Constant Matrix: (Units=GPa)
#
#
# Indices 1 2 3 4 5 6 
#
# 1 165.1784 56.2293 59.7321 0.0000 0.0000 0.0000
# 2 56.2293 114.0694 25.5602 0.0000 0.0000 0.0000
# 3 59.7321 25.5602 108.0274 0.0000 0.0000 0.0000
# 4 0.0000 0.0000 0.0000 -6.4478 0.0000 0.0000
# 5 0.0000 0.0000 0.0000 0.0000 21.7178 0.0000
# 6 0.0000 0.0000 0.0000 0.0000 0.0000 16.7334
#
#
#
# Elastic Compliance Matrix: (Units=1/GPa)
#
#
# Indices 1 2 3 4 5 6 
#
# 1 0.008640 -0.003367 -0.003981 0.000000 0.000000 0.000000
# 2 -0.003367 0.010569 -0.000639 0.000000 0.000000 0.000000
# 3 -0.003981 -0.000639 0.011609 0.000000 0.000000 0.000000
# 4 0.000000 0.000000 0.000000 -0.155091 0.000000 0.000000
# 5 0.000000 0.000000 0.000000 0.000000 0.046045 0.000000
# 6 0.000000 0.000000 0.000000 0.000000 0.000000 0.059761
#
#
# Mechanical properties :
#
#
# Convention : Reuss Voigt Hill
#
# Bulk Modulus (GPa) = 67.36232 74.47982 70.92107
# Shear Modulus (GPa) = 2037.35225 22.78425 1030.06825
#
# Velocity S-wave (km/s) = 31.50133 3.33130 22.39901
# Velocity P-wave (km/s) = 36.82284 7.14658 26.52353
#
# Compressibility (1/GPa) = 0.01484509
#
# Stress axis : x y z
#
# Youngs Moduli (GPa) = 115.74551 94.61208 86.13919
#
# Poissons Ratio (x) = 0.31855 0.34288
# Poissons Ratio (y) = 0.38970 0.05506
# Poissons Ratio (z) = 0.46073 0.06047
#
# Static dielectric constant tensor:
#      x y z
#    x 1.745930 0.000000 0.000000 
#    y 0.000000 1.853860 0.000000 
#    z 0.000000 0.000000 1.747730 
# 
# From -- ./inp_files/20673.got.cif
#   From: 2010.05.17/outbox.cif.g08.bks.cpg/sg21_11_cif.got.tgz:20673.got - 2010.06.03 23:14:55.
