data_PCOD9324446
_publ_section_title
;
Structure prediction by ZEFSAII (Michael W. Deem and Ramdas Pophale) SiO2 
 PCOD9324446
Probable space group: C 2 2 2
;
_chemical_formula_sum "Si O2"
_cell_formula_units_Z 32
_cell_length_a 13.672985
_cell_length_b 13.538498
_cell_length_c 6.729956
_cell_angle_alpha 90.000000
_cell_angle_beta 90.000000
_cell_angle_gamma 90.000000
_cell_volume 1245.793462
_symmetry_space_group_name_H-M "C 2 2 2"
_symmetry_group_IT_number 21
_symmetry_cell_setting 'orthorhombic'
loop_
_space_group_symop_operation_xyz
x,y,z
-x,-y,z
x,-y,-z
-x,y,-z
1/2+x,1/2+y,z
1/2-x,1/2-y,z
1/2+x,1/2-y,-z
1/2-x,1/2+y,-z
loop_
_atom_site_type_symbol
_atom_site_label
_atom_site_fract_x
_atom_site_fract_y
_atom_site_fract_z
Si Si1 0.850932 0.537269 0.731728
Si Si2 0.021069 0.732807 0.228849
Si Si3 0.811515 0.671539 0.237644
Si Si4 0.841170 0.895302 0.580242
O O1 0.868189 0.500000 0.500000
O O2 0.730286 0.646922 0.405750
O O3 0.849057 0.567250 0.153140
O O4 0.740688 0.422494 0.256886
O O5 0.081806 0.820819 0.327053
O O6 0.912794 0.716957 0.315975
O O7 0.076410 0.627754 0.237137
O O8 0.000000 0.757701 0.000000
O O9 0.750000 0.750000 0.106607
O O10 0.881872 0.000000 0.500000
#
# Coordination Sequence:
#
# PCOD9324446 Si02
#       4
#     8   8   8   8
#     4   9  20  40  69 103 144 194 247 298 361 457
#     4  12  25  42  70 111 150 187 246 327 390 435
#     4  10  22  39  65 101 143 198 250 292 363 454
#     4   9  21  44  72  99 139 194 248 298 363 463
#
# _framework density 25.686440999999999
#
# number of rings (size 3 to 8) (size 9 to 14) (size 15 to 20)
#    0.000    2.500    0.000    4.500    0.000   17.000 
#    0.000   15.000    0.000    6.000    0.000    1.750 
#    0.000    0.000    0.000    0.000    0.000    0.000 
#
# Total GULP energy -89426.748434 kJ/mol
# GULP energy per Si atom -5589.171777 kJ/mol
# Density = 2.562798 g / cm^3
# Si number density = 25.686441 Si / 1000 Ang^3
#
#
#
# Elastic Constant Matrix: (Units=GPa)
#
#
# Indices 1 2 3 4 5 6 
#
# 1 224.4876 159.7831 40.7684 0.0000 0.0000 0.0000
# 2 159.7831 243.7243 76.0707 0.0000 0.0000 0.0000
# 3 40.7684 76.0707 93.9634 0.0000 0.0000 0.0000
# 4 0.0000 0.0000 0.0000 49.9033 0.0000 0.0000
# 5 0.0000 0.0000 0.0000 0.0000 26.3089 0.0000
# 6 0.0000 0.0000 0.0000 0.0000 0.0000 48.6513
#
#
#
# Elastic Compliance Matrix: (Units=1/GPa)
#
#
# Indices 1 2 3 4 5 6 
#
# 1 0.008435 -0.005871 0.001093 0.000000 0.000000 0.000000
# 2 -0.005871 0.009577 -0.005206 0.000000 0.000000 0.000000
# 3 0.001093 -0.005206 0.014383 0.000000 0.000000 0.000000
# 4 0.000000 0.000000 0.000000 0.020039 0.000000 0.000000
# 5 0.000000 0.000000 0.000000 0.000000 0.038010 0.000000
# 6 0.000000 0.000000 0.000000 0.000000 0.000000 0.020554
#
#
# Mechanical properties :
#
#
# Convention : Reuss Voigt Hill
#
# Bulk Modulus (GPa) = 80.46852 123.93551 102.20202
# Shear Modulus (GPa) = 37.00770 44.00959 40.50864
#
# Velocity S-wave (km/s) = 3.79984 4.14374 3.97551
# Velocity P-wave (km/s) = 7.11667 8.44087 7.80689
#
# Compressibility (1/GPa) = 0.01242722
#
# Stress axis : x y z
#
# Youngs Moduli (GPa) = 118.55536 104.41810 69.52838
#
# Poissons Ratio (x) = 0.61305 -0.07602
# Poissons Ratio (y) = 0.69605 0.36196
# Poissons Ratio (z) = -0.12963 0.54359
#
# Static dielectric constant tensor:
#      x y z
#    x 1.955360 0.000000 0.000000 
#    y 0.000000 2.260390 0.000000 
#    z 0.000000 0.000000 2.256150 
# 
# From -- ./inp_files/14292.got.cif
#   From: 2010.05.17/outbox.cif.g08.bks.cpg/sg21_8_cif.got.tgz:14292.got - 2010.06.03 23:14:55.
