data_PCOD9324786
_publ_section_title
;
Structure prediction by ZEFSAII (Michael W. Deem and Ramdas Pophale) SiO2 
 PCOD9324786
Probable space group: C 2 2 2
;
_chemical_formula_sum "Si O2"
_cell_formula_units_Z 30
_cell_length_a 16.921106
_cell_length_b 16.283671
_cell_length_c 5.410715
_cell_angle_alpha 90.000000
_cell_angle_beta 90.000000
_cell_angle_gamma 90.000000
_cell_volume 1490.856091
_symmetry_space_group_name_H-M "C 2 2 2"
_symmetry_group_IT_number 21
_symmetry_cell_setting 'orthorhombic'
loop_
_space_group_symop_operation_xyz
x,y,z
-x,-y,z
x,-y,-z
-x,y,-z
1/2+x,1/2+y,z
1/2-x,1/2-y,z
1/2+x,1/2-y,-z
1/2-x,1/2+y,-z
loop_
_atom_site_type_symbol
_atom_site_label
_atom_site_fract_x
_atom_site_fract_y
_atom_site_fract_z
Si Si1 0.879596 0.414419 0.857358
Si Si2 0.208829 0.055007 0.250274
Si Si3 0.500000 0.000000 0.500000
Si Si4 0.460917 0.629186 0.749627
Si Si5 0.500000 0.789201 0.000000
O O1 0.791807 0.395901 0.763446
O O2 0.942798 0.439569 0.650514
O O3 0.871046 0.500000 0.000000
O O4 0.922850 0.346156 0.021818
O O5 0.131688 0.111659 0.255717
O O6 0.210554 0.000000 0.500000
O O7 0.202185 0.000000 0.000000
O O8 0.500000 0.597275 0.500000
O O9 0.500000 0.593589 0.000000
O O10 0.481501 0.725807 0.779483
#
# Coordination Sequence:
#
# PCOD9324786 Si02
#       5
#     8   8   2   8   4
#     4  11  22  38  65  98 124 171 214 274 327 391
#     4  11  24  42  67  98 129 166 228 280 325 388
#     4  12  18  36  64  98 118 164 220 256 346 380
#     4  10  24  43  64  96 127 180 218 266 341 387
#     4  10  23  40  63  92 138 168 216 264 329 418
#
# _framework density 20.122665999999999
#
# number of rings (size 3 to 8) (size 9 to 14) (size 15 to 20)
#    0.800    0.533    4.000    1.600    1.867    4.267 
#    0.000    0.000    5.867    0.000    0.000    0.000 
#    0.000    0.000    0.000    0.000    0.000    0.000 
#
# Total GULP energy -83606.851495 kJ/mol
# GULP energy per Si atom -5573.790100 kJ/mol
# Density = 2.007687 g / cm^3
# Si number density = 20.122666 Si / 1000 Ang^3
#
#
#
# Elastic Constant Matrix: (Units=GPa)
#
#
# Indices 1 2 3 4 5 6 
#
# 1 235.0277 56.4838 64.8949 0.0000 0.0000 0.0000
# 2 56.4838 87.7309 24.1477 0.0000 0.0000 0.0000
# 3 64.8949 24.1477 114.5004 0.0000 0.0000 0.0000
# 4 0.0000 0.0000 0.0000 -129.7235 0.0000 0.0000
# 5 0.0000 0.0000 0.0000 0.0000 65.9548 0.0000
# 6 0.0000 0.0000 0.0000 0.0000 0.0000 -215.2898
#
#
#
# Elastic Compliance Matrix: (Units=1/GPa)
#
#
# Indices 1 2 3 4 5 6 
#
# 1 0.005679 -0.002941 -0.002598 0.000000 0.000000 0.000000
# 2 -0.002941 0.013624 -0.001206 0.000000 0.000000 0.000000
# 3 -0.002598 -0.001206 0.010461 0.000000 0.000000 0.000000
# 4 0.000000 0.000000 0.000000 -0.007709 0.000000 0.000000
# 5 0.000000 0.000000 0.000000 0.000000 0.015162 0.000000
# 6 0.000000 0.000000 0.000000 0.000000 0.000000 -0.004645
#
#
# Mechanical properties :
#
#
# Convention : Reuss Voigt Hill
#
# Bulk Modulus (GPa) = 61.45490 80.92352 71.18921
# Shear Modulus (GPa) = 97.10952 -36.36287 30.37332
#
# Velocity S-wave (km/s) = 6.95439 -4.25556 3.88933
# Velocity P-wave (km/s) = 9.75147 4.01945 7.45812
#
# Compressibility (1/GPa) = 0.01627210
#
# Stress axis : x y z
#
# Youngs Moduli (GPa) = 176.08285 73.39908 95.59572
#
# Poissons Ratio (x) = 0.21588 0.24840
# Poissons Ratio (y) = 0.51789 0.11532
# Poissons Ratio (z) = 0.45754 0.08854
#
# Static dielectric constant tensor:
#      x y z
#    x 1.723200 0.000000 0.000000 
#    y 0.000000 1.742390 0.000000 
#    z 0.000000 0.000000 1.830170 
# 
# From -- ./inp_files/3416.got.cif
#   From: 2010.05.17/outbox.cif.g08.bks.cpg/sg21_2_cif.got.tgz:3416.got - 2010.06.03 23:14:55.
