data_PCOD9324362
_publ_section_title
;
Structure prediction by ZEFSAII (Michael W. Deem and Ramdas Pophale) SiO2 
 PCOD9324362
Probable space group: C 2 2 2
;
_chemical_formula_sum "Si O2"
_cell_formula_units_Z 48
_cell_length_a 8.151803
_cell_length_b 30.657605
_cell_length_c 8.856123
_cell_angle_alpha 90.000000
_cell_angle_beta 90.000000
_cell_angle_gamma 90.000000
_cell_volume 2213.275822
_symmetry_space_group_name_H-M "C 2 2 2"
_symmetry_group_IT_number 21
_symmetry_cell_setting 'orthorhombic'
loop_
_space_group_symop_operation_xyz
x,y,z
-x,-y,z
x,-y,-z
-x,y,-z
1/2+x,1/2+y,z
1/2-x,1/2-y,z
1/2+x,1/2-y,-z
1/2-x,1/2+y,-z
loop_
_atom_site_type_symbol
_atom_site_label
_atom_site_fract_x
_atom_site_fract_y
_atom_site_fract_z
Si Si1 0.815998 0.456722 0.930794
Si Si2 0.621313 0.714617 0.881805
Si Si3 0.386783 0.717671 0.619490
Si Si4 0.683422 0.043181 0.570377
Si Si5 0.179365 0.360052 0.424745
Si Si6 0.685363 0.859990 0.060699
O O1 0.827161 0.461693 0.750555
O O2 0.745238 0.408967 0.966474
O O3 0.735009 0.500000 0.000000
O O4 0.000000 0.455240 0.000000
O O5 0.750000 0.750000 0.824196
O O6 0.502863 0.699364 0.749158
O O7 0.500000 0.738200 0.000000
O O8 0.709208 0.675835 0.972225
O O9 0.500000 0.742851 0.500000
O O10 0.250000 0.750000 0.683939
O O11 0.297273 0.679101 0.529833
O O12 0.500000 0.044582 0.500000
O O13 0.749548 0.091764 0.539112
O O14 0.764750 0.000000 0.500000
O O15 0.171799 0.354995 0.242169
O O16 0.000000 0.356516 0.500000
O O17 0.500000 0.857863 0.000000
#
# Coordination Sequence:
#
# PCOD9324362 Si02
#       6
#     8   8   8   8   8   8
#     4   9  16  29  50  85 127 158 200 261 312 365
#     4  12  25  43  68  94 126 168 215 267 318 388
#     4  12  27  46  65  93 127 168 215 266 329 393
#     4   9  16  29  52  85 120 161 209 255 306 369
#     4  10  22  39  62  92 130 168 210 265 320 378
#     4  10  22  37  62  97 128 164 215 264 318 381
#
# _framework density 21.687311999999999
#
# number of rings (size 3 to 8) (size 9 to 14) (size 15 to 20)
#    0.000    1.667    1.667    4.000    4.667    1.333 
#    0.000    0.000    0.000    1.000    0.000    0.000 
#    0.000    0.000    0.000    0.000    0.000    0.000 
#
# Total GULP energy -133945.533225 kJ/mol
# GULP energy per Si atom -5581.063884 kJ/mol
# Density = 2.163795 g / cm^3
# Si number density = 21.687312 Si / 1000 Ang^3
#
#
#
# Elastic Constant Matrix: (Units=GPa)
#
#
# Indices 1 2 3 4 5 6 
#
# 1 68.6957 50.9891 34.1632 0.0000 0.0000 0.0000
# 2 50.9891 163.7574 45.9421 0.0000 0.0000 0.0000
# 3 34.1632 45.9421 84.5525 0.0000 0.0000 0.0000
# 4 0.0000 0.0000 0.0000 67.5810 0.0000 0.0000
# 5 0.0000 0.0000 0.0000 0.0000 30.7041 0.0000
# 6 0.0000 0.0000 0.0000 0.0000 0.0000 15.6595
#
#
#
# Elastic Compliance Matrix: (Units=1/GPa)
#
#
# Indices 1 2 3 4 5 6 
#
# 1 0.021134 -0.004938 -0.005856 0.000000 0.000000 0.000000
# 2 -0.004938 0.008358 -0.002547 0.000000 0.000000 0.000000
# 3 -0.005856 -0.002547 0.015577 0.000000 0.000000 0.000000
# 4 0.000000 0.000000 0.000000 0.014797 0.000000 0.000000
# 5 0.000000 0.000000 0.000000 0.000000 0.032569 0.000000
# 6 0.000000 0.000000 0.000000 0.000000 0.000000 0.063859
#
#
# Mechanical properties :
#
#
# Convention : Reuss Voigt Hill
#
# Bulk Modulus (GPa) = 54.38162 64.35490 59.36826
# Shear Modulus (GPa) = 26.44031 35.18300 30.81166
#
# Velocity S-wave (km/s) = 3.49544 4.03213 3.77334
# Velocity P-wave (km/s) = 6.43588 7.17048 6.81309
#
# Compressibility (1/GPa) = 0.01838856
#
# Stress axis : x y z
#
# Youngs Moduli (GPa) = 47.31651 119.63944 64.19744
#
# Poissons Ratio (x) = 0.59073 0.37596
# Poissons Ratio (y) = 0.23363 0.16349
# Poissons Ratio (z) = 0.27710 0.30467
#
# Static dielectric constant tensor:
#      x y z
#    x 1.766810 0.000000 0.000000 
#    y 0.000000 1.843600 0.000000 
#    z 0.000000 0.000000 1.804430 
# 
# From -- ./inp_files/11539.got.cif
#   From: 2010.05.17/outbox.cif.g08.bks.cpg/sg21_6_cif.got.tgz:11539.got - 2010.06.03 23:14:55.
