data_PCOD9324281
_publ_section_title
;
Structure prediction by ZEFSAII (Michael W. Deem and Ramdas Pophale) SiO2 
 PCOD9324281
Probable space group: C 2 2 2
;
_chemical_formula_sum "Si O2"
_cell_formula_units_Z 40
_cell_length_a 11.516569
_cell_length_b 20.633662
_cell_length_c 7.489227
_cell_angle_alpha 90.000000
_cell_angle_beta 90.000000
_cell_angle_gamma 90.000000
_cell_volume 1779.657464
_symmetry_space_group_name_H-M "C 2 2 2"
_symmetry_group_IT_number 21
_symmetry_cell_setting 'orthorhombic'
loop_
_space_group_symop_operation_xyz
x,y,z
-x,-y,z
x,-y,-z
-x,y,-z
1/2+x,1/2+y,z
1/2-x,1/2-y,z
1/2+x,1/2-y,-z
1/2-x,1/2+y,-z
loop_
_atom_site_type_symbol
_atom_site_label
_atom_site_fract_x
_atom_site_fract_y
_atom_site_fract_z
Si Si1 0.145969 0.034853 0.673307
Si Si2 0.629091 0.092150 0.507244
Si Si3 0.874720 0.259044 0.420893
Si Si4 0.888694 0.154917 0.122357
Si Si5 0.767430 0.561026 0.106075
O O1 0.276545 0.057051 0.616167
O O2 0.081481 0.098337 0.736217
O O3 0.105600 0.000000 0.500000
O O4 0.157164 0.979409 0.820049
O O5 0.500000 0.065814 0.500000
O O6 0.619195 0.163568 0.420953
O O7 0.670361 0.088321 0.715149
O O8 0.750000 0.250000 0.521428
O O9 0.861796 0.218642 0.237758
O O10 0.000000 0.237265 0.500000
O O11 0.782345 0.120261 0.013430
O O12 0.000000 0.167064 0.000000
O O13 0.829471 0.500000 0.000000
#
# Coordination Sequence:
#
# PCOD9324281 Si02
#       5
#     8   8   8   8   8
#     4   9  19  39  67  95 131 176 227 285 347 431
#     4  10  21  43  68  98 135 182 239 287 346 432
#     4  11  25  47  74 102 138 188 246 282 352 434
#     4  11  24  43  64 100 139 182 229 298 357 413
#     4   9  21  41  68 101 135 172 226 297 357 406
#
# _framework density 22.476237000000001
#
# number of rings (size 3 to 8) (size 9 to 14) (size 15 to 20)
#    0.000    2.000    2.000    0.000    2.800    7.200 
#    7.200   10.000    0.000    0.000    0.000    0.000 
#    0.000    0.000    0.000    0.000    0.000    0.000 
#
# Total GULP energy -111341.325741 kJ/mol
# GULP energy per Si atom -5567.066287 kJ/mol
# Density = 2.242508 g / cm^3
# Si number density = 22.476237 Si / 1000 Ang^3
#
#
#
# Elastic Constant Matrix: (Units=GPa)
#
#
# Indices 1 2 3 4 5 6 
#
# 1 151.4045 44.0431 35.2218 0.0000 0.0000 0.0000
# 2 44.0431 163.9073 69.6146 0.0000 0.0000 0.0000
# 3 35.2218 69.6146 147.1326 0.0000 0.0000 0.0000
# 4 0.0000 0.0000 0.0000 31.3143 0.0000 0.0000
# 5 0.0000 0.0000 0.0000 0.0000 17.3204 0.0000
# 6 0.0000 0.0000 0.0000 0.0000 0.0000 43.9616
#
#
#
# Elastic Compliance Matrix: (Units=1/GPa)
#
#
# Indices 1 2 3 4 5 6 
#
# 1 0.007286 -0.001523 -0.001024 0.000000 0.000000 0.000000
# 2 -0.001523 0.007954 -0.003399 0.000000 0.000000 0.000000
# 3 -0.001024 -0.003399 0.008650 0.000000 0.000000 0.000000
# 4 0.000000 0.000000 0.000000 0.031934 0.000000 0.000000
# 5 0.000000 0.000000 0.000000 0.000000 0.057736 0.000000
# 6 0.000000 0.000000 0.000000 0.000000 0.000000 0.022747
#
#
# Mechanical properties :
#
#
# Convention : Reuss Voigt Hill
#
# Bulk Modulus (GPa) = 83.34129 84.46703 83.90416
# Shear Modulus (GPa) = 32.85225 39.42356 36.13791
#
# Velocity S-wave (km/s) = 3.82729 4.19263 4.01412
# Velocity P-wave (km/s) = 7.52935 7.81663 7.67434
#
# Compressibility (1/GPa) = 0.01199886
#
# Stress axis : x y z
#
# Youngs Moduli (GPa) = 137.24960 125.72702 115.61153
#
# Poissons Ratio (x) = 0.19149 0.11833
# Poissons Ratio (y) = 0.20904 0.39292
# Poissons Ratio (z) = 0.14048 0.42730
#
# Static dielectric constant tensor:
#      x y z
#    x 1.939520 0.000000 0.000000 
#    y 0.000000 1.787540 0.000000 
#    z 0.000000 0.000000 1.807210 
# 
# From -- ./inp_files/13048.got.cif
#   From: 2010.05.17/outbox.cif.g08.bks.cpg/sg21_7_cif.got.tgz:13048.got - 2010.06.03 23:14:55.
