data_PCOD9325589
_publ_section_title
;
Structure prediction by ZEFSAII (Michael W. Deem and Ramdas Pophale) SiO2 
 PCOD9325589
Probable space group: C 2 2 2
;
_chemical_formula_sum "Si O2"
_cell_formula_units_Z 38
_cell_length_a 24.487731
_cell_length_b 9.417981
_cell_length_c 7.908161
_cell_angle_alpha 90.000000
_cell_angle_beta 90.000000
_cell_angle_gamma 90.000000
_cell_volume 1823.819514
_symmetry_space_group_name_H-M "C 2 2 2"
_symmetry_group_IT_number 21
_symmetry_cell_setting 'orthorhombic'
loop_
_space_group_symop_operation_xyz
x,y,z
-x,-y,z
x,-y,-z
-x,y,-z
1/2+x,1/2+y,z
1/2-x,1/2-y,z
1/2+x,1/2-y,-z
1/2-x,1/2+y,-z
loop_
_atom_site_type_symbol
_atom_site_label
_atom_site_fract_x
_atom_site_fract_y
_atom_site_fract_z
Si Si1 0.907271 0.669164 0.675503
Si Si2 0.185788 0.520046 0.814679
Si Si3 0.063516 0.982449 0.202011
Si Si4 0.500000 0.000000 0.500000
Si Si5 0.351748 0.290530 0.354604
Si Si6 0.263088 0.500000 0.500000
O O1 0.869141 0.573243 0.793862
O O2 0.877796 0.689433 0.495426
O O3 0.963324 0.594631 0.624251
O O4 0.916950 0.825224 0.749411
O O5 0.171033 0.685171 0.787133
O O6 0.225800 0.472849 0.663622
O O7 0.210068 0.500000 0.000000
O O8 0.103199 0.097962 0.288873
O O9 0.000000 0.000000 0.254713
O O10 0.066296 0.000000 0.000000
O O11 0.302672 0.372903 0.445020
#
# Coordination Sequence:
#
# PCOD9325589 Si02
#       6
#     8   8   8   2   8   4
#     4  12  23  45  72 102 141 186 237 288 349 430
#     4  12  27  48  72 105 144 186 239 297 358 421
#     4  11  25  43  68 106 145 185 236 290 354 429
#     4  12  22  40  80 104 140 196 242 276 364 428
#     4  12  23  47  72 101 142 185 235 295 356 415
#     4  12  25  48  73 101 140 191 240 294 356 422
#
# _framework density 20.835394999999998
#
# number of rings (size 3 to 8) (size 9 to 14) (size 15 to 20)
#    0.000    0.211    6.316    3.158    0.000    1.684 
#    7.579    0.000    0.000    0.000    0.000    0.000 
#    0.000    0.000    0.000    0.000    0.000    0.000 
#
# Total GULP energy -106349.628282 kJ/mol
# GULP energy per Si atom -5597.348857 kJ/mol
# Density = 2.078797 g / cm^3
# Si number density = 20.835395 Si / 1000 Ang^3
#
#
#
# Elastic Constant Matrix: (Units=GPa)
#
#
# Indices 1 2 3 4 5 6 
#
# 1 114.4660 42.5346 42.2540 0.0000 0.0000 0.0000
# 2 42.5346 119.0372 31.4015 0.0000 0.0000 0.0000
# 3 42.2540 31.4015 122.7746 0.0000 0.0000 0.0000
# 4 0.0000 0.0000 0.0000 35.9757 0.0000 0.0000
# 5 0.0000 0.0000 0.0000 0.0000 -30.9350 0.0000
# 6 0.0000 0.0000 0.0000 0.0000 0.0000 44.8659
#
#
#
# Elastic Compliance Matrix: (Units=1/GPa)
#
#
# Indices 1 2 3 4 5 6 
#
# 1 0.011006 -0.003146 -0.002983 0.000000 0.000000 0.000000
# 2 -0.003146 0.009908 -0.001451 0.000000 0.000000 0.000000
# 3 -0.002983 -0.001451 0.009543 0.000000 0.000000 0.000000
# 4 0.000000 0.000000 0.000000 0.027797 0.000000 0.000000
# 5 0.000000 0.000000 0.000000 0.000000 -0.032326 0.000000
# 6 0.000000 0.000000 0.000000 0.000000 0.000000 0.022289
#
#
# Mechanical properties :
#
#
# Convention : Reuss Voigt Hill
#
# Bulk Modulus (GPa) = 65.37684 65.40643 65.39164
# Shear Modulus (GPa) = 73.01804 25.98719 49.50261
#
# Velocity S-wave (km/s) = 5.92632 3.53549 4.87960
# Velocity P-wave (km/s) = 8.84727 6.93732 7.94986
#
# Compressibility (1/GPa) = 0.01529594
#
# Stress axis : x y z
#
# Youngs Moduli (GPa) = 90.85564 100.93179 104.78916
#
# Poissons Ratio (x) = 0.31752 0.31263
# Poissons Ratio (y) = 0.28582 0.15209
# Poissons Ratio (z) = 0.27106 0.14649
#
# Static dielectric constant tensor:
#      x y z
#    x 1.783460 0.000000 0.000000 
#    y 0.000000 1.864210 0.000000 
#    z 0.000000 0.000000 1.742430 
# 
# From -- ./inp_files/18250.got.cif
#   From: 2010.05.17/outbox.cif.g08.bks.cpg/sg21_10_cif.got.tgz:18250.got - 2010.06.03 23:14:55.
