data_PCOD9325431
_publ_section_title
;
Structure prediction by ZEFSAII (Michael W. Deem and Ramdas Pophale) SiO2 
 PCOD9325431
Probable space group: C 2 2 2
;
_chemical_formula_sum "Si O2"
_cell_formula_units_Z 26
_cell_length_a 9.882926
_cell_length_b 21.994779
_cell_length_c 4.771900
_cell_angle_alpha 90.000000
_cell_angle_beta 90.000000
_cell_angle_gamma 90.000000
_cell_volume 1037.281137
_symmetry_space_group_name_H-M "C 2 2 2"
_symmetry_group_IT_number 21
_symmetry_cell_setting 'orthorhombic'
loop_
_space_group_symop_operation_xyz
x,y,z
-x,-y,z
x,-y,-z
-x,y,-z
1/2+x,1/2+y,z
1/2-x,1/2-y,z
1/2+x,1/2-y,-z
1/2-x,1/2+y,-z
loop_
_atom_site_type_symbol
_atom_site_label
_atom_site_fract_x
_atom_site_fract_y
_atom_site_fract_z
Si Si1 0.358378 0.568836 0.625579
Si Si2 0.800173 0.599974 0.845757
Si Si3 0.000000 0.500000 0.000000
Si Si4 0.096093 0.726738 0.226330
O O1 0.345044 0.500000 0.500000
O O2 0.500000 0.590089 0.500000
O O3 0.248950 0.608981 0.468501
O O4 0.321259 0.576984 0.949726
O O5 0.866857 0.662850 0.926128
O O6 0.905443 0.545113 0.831655
O O7 0.250000 0.750000 0.287112
O O8 0.000000 0.721057 0.500000
O O9 0.000000 0.762108 0.000000
#
# Coordination Sequence:
#
# PCOD9325431 Si02
#       4
#     8   8   2   8
#     4  11  23  41  64 101 144 188 238 296 373 454
#     4  12  25  42  72 103 142 192 240 305 374 438
#     4  12  24  42  70 106 144 182 248 294 376 434
#     4  12  28  51  78 110 151 201 263 319 377 450
#
# _framework density 25.065525999999998
#
# number of rings (size 3 to 8) (size 9 to 14) (size 15 to 20)
#    0.000    0.308    4.615    3.692    0.000    7.385 
#    0.000    0.000    0.000    0.000    0.000    0.000 
#    0.000    0.000    0.000    0.000    0.000    0.000 
#
# Total GULP energy -72554.665721 kJ/mol
# GULP energy per Si atom -5581.128132 kJ/mol
# Density = 2.500848 g / cm^3
# Si number density = 25.065526 Si / 1000 Ang^3
#
#
#
# Elastic Constant Matrix: (Units=GPa)
#
#
# Indices 1 2 3 4 5 6 
#
# 1 185.0556 40.4890 52.9942 0.0000 0.0000 0.0000
# 2 40.4890 75.6813 5.6072 0.0000 0.0000 0.0000
# 3 52.9942 5.6072 136.2477 0.0000 0.0000 0.0000
# 4 0.0000 0.0000 0.0000 16.8821 0.0000 0.0000
# 5 0.0000 0.0000 0.0000 0.0000 37.2817 0.0000
# 6 0.0000 0.0000 0.0000 0.0000 0.0000 95.8173
#
#
#
# Elastic Compliance Matrix: (Units=1/GPa)
#
#
# Indices 1 2 3 4 5 6 
#
# 1 0.006897 -0.003502 -0.002538 0.000000 0.000000 0.000000
# 2 -0.003502 0.015032 0.000743 0.000000 0.000000 0.000000
# 3 -0.002538 0.000743 0.008296 0.000000 0.000000 0.000000
# 4 0.000000 0.000000 0.000000 0.059234 0.000000 0.000000
# 5 0.000000 0.000000 0.000000 0.000000 0.026823 0.000000
# 6 0.000000 0.000000 0.000000 0.000000 0.000000 0.010437
#
#
# Mechanical properties :
#
#
# Convention : Reuss Voigt Hill
#
# Bulk Modulus (GPa) = 50.93917 66.12948 58.53433
# Shear Modulus (GPa) = 34.75705 49.85585 42.30645
#
# Velocity S-wave (km/s) = 3.72781 4.46468 4.11278
# Velocity P-wave (km/s) = 6.23661 7.28133 6.77912
#
# Compressibility (1/GPa) = 0.01963126
#
# Stress axis : x y z
#
# Youngs Moduli (GPa) = 144.99340 66.52647 120.53527
#
# Poissons Ratio (x) = 0.23296 0.30597
# Poissons Ratio (y) = 0.50772 -0.08960
# Poissons Ratio (z) = 0.36806 -0.04945
#
# Static dielectric constant tensor:
#      x y z
#    x 2.118540 0.000000 0.000000 
#    y 0.000000 2.112720 0.000000 
#    z 0.000000 0.000000 1.826080 
# 
# From -- ./inp_files/1136.got.cif
#   From: 2010.05.17/outbox.cif.g08.bks.cpg/sg21_1_cif.got.tgz:1136.got - 2010.06.03 23:14:55.
