data_PCOD9325385
_publ_section_title
;
Structure prediction by ZEFSAII (Michael W. Deem and Ramdas Pophale) SiO2 
 PCOD9325385
Probable space group: C 2 2 2
;
_chemical_formula_sum "Si O2"
_cell_formula_units_Z 58
_cell_length_a 11.396708
_cell_length_b 27.392818
_cell_length_c 8.167676
_cell_angle_alpha 90.000000
_cell_angle_beta 90.000000
_cell_angle_gamma 90.000000
_cell_volume 2549.850011
_symmetry_space_group_name_H-M "C 2 2 2"
_symmetry_group_IT_number 21
_symmetry_cell_setting 'orthorhombic'
loop_
_space_group_symop_operation_xyz
x,y,z
-x,-y,z
x,-y,-z
-x,y,-z
1/2+x,1/2+y,z
1/2-x,1/2-y,z
1/2+x,1/2-y,-z
1/2-x,1/2+y,-z
loop_
_atom_site_type_symbol
_atom_site_label
_atom_site_fract_x
_atom_site_fract_y
_atom_site_fract_z
Si Si1 0.471060 0.242375 0.678501
Si Si2 0.178683 0.108227 0.330807
Si Si3 0.634607 0.497726 0.701724
Si Si4 0.685809 0.074162 0.343617
Si Si5 0.311205 0.168637 0.802959
Si Si6 0.500000 0.000000 0.500000
Si Si7 0.685578 0.197904 0.827090
Si Si8 0.535674 0.345882 0.183050
O O1 0.500000 0.261866 0.500000
O O2 0.349700 0.213010 0.686496
O O3 0.566327 0.202343 0.727686
O O4 0.487483 0.287911 0.798184
O O5 0.186151 0.054708 0.250256
O O6 0.245058 0.099558 0.503022
O O7 0.239537 0.152925 0.239146
O O8 0.040991 0.123556 0.313941
O O9 0.500000 0.500000 0.755043
O O10 0.634688 0.500000 0.500000
O O11 0.716237 0.542487 0.752031
O O12 0.628061 0.117951 0.243053
O O13 0.587845 0.035800 0.402164
O O14 0.174792 0.153996 0.793844
O O15 0.337600 0.188380 0.982776
O O16 0.750000 0.250000 0.808236
O O17 0.500000 0.361636 0.000000
#
# Coordination Sequence:
#
# PCOD9325385 Si02
#       8
#     8   8   8   8   8   2   8   8
#     4  12  27  43  66 103 146 194 254 314 358 445
#     4  11  22  42  75 101 138 190 242 293 372 442
#     4   9  18  39  65  99 136 172 229 300 367 422
#     4  11  25  44  74 107 138 190 247 313 376 441
#     4  12  26  43  72 102 143 194 252 298 387 451
#     4  12  24  52  74 102 152 184 238 322 396 444
#     4  12  24  47  69 100 151 201 245 306 377 452
#     4  12  24  46  69 102 149 194 237 303 380 450
#
# _framework density 22.746435999999999
#
# number of rings (size 3 to 8) (size 9 to 14) (size 15 to 20)
#    0.000    0.690    4.828    4.138    4.828    2.207 
#    0.000    0.690    0.000    0.828    0.000    0.000 
#    0.000    0.000    0.000    0.000    0.000    0.000 
#
# Total GULP energy -162095.757710 kJ/mol
# GULP energy per Si atom -5589.508887 kJ/mol
# Density = 2.269466 g / cm^3
# Si number density = 22.746436 Si / 1000 Ang^3
#
#
#
# Elastic Constant Matrix: (Units=GPa)
#
#
# Indices 1 2 3 4 5 6 
#
# 1 76.9647 28.3531 21.8148 0.0000 0.0000 0.0000
# 2 28.3531 148.2899 24.5806 0.0000 0.0000 0.0000
# 3 21.8148 24.5806 56.9289 0.0000 0.0000 0.0000
# 4 0.0000 0.0000 0.0000 0.1862 0.0000 0.0000
# 5 0.0000 0.0000 0.0000 0.0000 11.7131 0.0000
# 6 0.0000 0.0000 0.0000 0.0000 0.0000 43.8529
#
#
#
# Elastic Compliance Matrix: (Units=1/GPa)
#
#
# Indices 1 2 3 4 5 6 
#
# 1 0.015151 -0.002084 -0.004906 0.000000 0.000000 0.000000
# 2 -0.002084 0.007550 -0.002461 0.000000 0.000000 0.000000
# 3 -0.004906 -0.002461 0.020509 0.000000 0.000000 0.000000
# 4 0.000000 0.000000 0.000000 5.371780 0.000000 0.000000
# 5 0.000000 0.000000 0.000000 0.000000 0.085375 0.000000
# 6 0.000000 0.000000 0.000000 0.000000 0.000000 0.022804
#
#
# Mechanical properties :
#
#
# Convention : Reuss Voigt Hill
#
# Bulk Modulus (GPa) = 41.14014 47.96449 44.55231
# Shear Modulus (GPa) = 0.90087 24.97941 12.94014
#
# Velocity S-wave (km/s) = 0.63001 3.31746 2.38772
# Velocity P-wave (km/s) = 4.31913 5.98385 5.21830
#
# Compressibility (1/GPa) = 0.02430716
#
# Stress axis : x y z
#
# Youngs Moduli (GPa) = 66.00146 132.45109 48.76008
#
# Poissons Ratio (x) = 0.27598 0.23922
# Poissons Ratio (y) = 0.13752 0.12002
# Poissons Ratio (z) = 0.32381 0.32602
#
# Static dielectric constant tensor:
#      x y z
#    x 2.032430 0.000000 0.000000 
#    y 0.000000 1.846920 0.000000 
#    z 0.000000 0.000000 1.849700 
# 
# From -- ./inp_files/13538.got.cif
#   From: 2010.05.17/outbox.cif.g08.bks.cpg/sg21_7_cif.got.tgz:13538.got - 2010.06.03 23:14:55.
