data_PCOD9325328
_publ_section_title
;
Structure prediction by ZEFSAII (Michael W. Deem and Ramdas Pophale) SiO2 
 PCOD9325328
Probable space group: C 2 2 2
;
_chemical_formula_sum "Si O2"
_cell_formula_units_Z 38
_cell_length_a 5.908310
_cell_length_b 24.623281
_cell_length_c 11.443917
_cell_angle_alpha 90.000000
_cell_angle_beta 90.000000
_cell_angle_gamma 90.000000
_cell_volume 1664.883674
_symmetry_space_group_name_H-M "C 2 2 2"
_symmetry_group_IT_number 21
_symmetry_cell_setting 'orthorhombic'
loop_
_space_group_symop_operation_xyz
x,y,z
-x,-y,z
x,-y,-z
-x,y,-z
1/2+x,1/2+y,z
1/2-x,1/2-y,z
1/2+x,1/2-y,-z
1/2-x,1/2+y,-z
loop_
_atom_site_type_symbol
_atom_site_label
_atom_site_fract_x
_atom_site_fract_y
_atom_site_fract_z
Si Si1 0.124678 0.200250 0.115548
Si Si2 0.250000 0.750000 0.441922
Si Si3 0.701239 0.355733 0.295275
Si Si4 0.352187 0.446686 0.330386
Si Si5 0.924108 0.404230 0.875773
Si Si6 0.500000 0.000000 0.500000
O O1 0.250000 0.250000 0.174939
O O2 0.298465 0.151939 0.089909
O O3 0.938660 0.176488 0.198685
O O4 0.000000 0.220841 0.000000
O O5 0.500000 0.739894 0.500000
O O6 0.204423 0.692553 0.375026
O O7 0.519314 0.396146 0.355018
O O8 0.882755 0.389807 0.219549
O O9 0.500000 0.500000 0.333181
O O10 0.251200 0.438682 0.200702
O O11 0.152579 0.460019 0.420931
O O12 0.000000 0.428407 0.000000
#
# Coordination Sequence:
#
# PCOD9325328 Si02
#       6
#     8   4   8   8   8   2
#     4  11  22  36  68 107 148 196 246 301 366 457
#     4  12  32  52  74 114 160 214 270 334 400 468
#     4  11  26  49  73 107 153 202 254 316 394 467
#     4  11  27  49  79 110 147 193 259 325 391 467
#     4  11  23  45  74 109 152 196 245 309 387 474
#     4  12  26  56  78 110 136 200 274 330 402 454
#
# _framework density 22.824417
#
# number of rings (size 3 to 8) (size 9 to 14) (size 15 to 20)
#    0.000    0.842    2.105    3.474    8.842    3.368 
#    1.895    7.895    0.000    0.000    0.000    0.000 
#    0.000    0.000    0.000    0.000    0.000    0.000 
#
# Total GULP energy -106202.200299 kJ/mol
# GULP energy per Si atom -5589.589489 kJ/mol
# Density = 2.277247 g / cm^3
# Si number density = 22.824417 Si / 1000 Ang^3
#
#
#
# Elastic Constant Matrix: (Units=GPa)
#
#
# Indices 1 2 3 4 5 6 
#
# 1 101.1598 17.5602 41.2861 0.0000 0.0000 0.0000
# 2 17.5602 73.9784 33.6055 0.0000 0.0000 0.0000
# 3 41.2861 33.6055 91.9745 0.0000 0.0000 0.0000
# 4 0.0000 0.0000 0.0000 -12.8873 0.0000 0.0000
# 5 0.0000 0.0000 0.0000 0.0000 31.6784 0.0000
# 6 0.0000 0.0000 0.0000 0.0000 0.0000 24.2975
#
#
#
# Elastic Compliance Matrix: (Units=1/GPa)
#
#
# Indices 1 2 3 4 5 6 
#
# 1 0.012117 -0.000486 -0.005262 0.000000 0.000000 0.000000
# 2 -0.000486 0.016227 -0.005711 0.000000 0.000000 0.000000
# 3 -0.005262 -0.005711 0.015321 0.000000 0.000000 0.000000
# 4 0.000000 0.000000 0.000000 -0.077596 0.000000 0.000000
# 5 0.000000 0.000000 0.000000 0.000000 0.031567 0.000000
# 6 0.000000 0.000000 0.000000 0.000000 0.000000 0.041156
#
#
# Mechanical properties :
#
#
# Convention : Reuss Voigt Hill
#
# Bulk Modulus (GPa) = 48.19694 50.22402 49.21048
# Shear Modulus (GPa) = 72.85857 20.26179 46.56018
#
# Velocity S-wave (km/s) = 5.65603 2.98270 4.52146
# Velocity P-wave (km/s) = 7.98852 5.82360 6.99038
#
# Compressibility (1/GPa) = 0.02074821
#
# Stress axis : x y z
#
# Youngs Moduli (GPa) = 82.52771 61.62557 65.26966
#
# Poissons Ratio (x) = 0.02996 0.34342
# Poissons Ratio (y) = 0.04012 0.37274
# Poissons Ratio (z) = 0.43423 0.35193
#
# Static dielectric constant tensor:
#      x y z
#    x 1.888850 0.000000 0.000000 
#    y 0.000000 1.830400 0.000000 
#    z 0.000000 0.000000 1.853970 
# 
# From -- ./inp_files/21240.got.cif
#   From: 2010.05.17/outbox.cif.g08.bks.cpg/sg21_11_cif.got.tgz:21240.got - 2010.06.03 23:14:55.
