data_PCOD9325799
_publ_section_title
;
Structure prediction by ZEFSAII (Michael W. Deem and Ramdas Pophale) SiO2 
 PCOD9325799
Probable space group: C 2 2 2
;
_chemical_formula_sum "Si O2"
_cell_formula_units_Z 26
_cell_length_a 8.375405
_cell_length_b 5.242663
_cell_length_c 24.351993
_cell_angle_alpha 90.000000
_cell_angle_beta 90.000000
_cell_angle_gamma 90.000000
_cell_volume 1069.282032
_symmetry_space_group_name_H-M "C 2 2 2"
_symmetry_group_IT_number 21
_symmetry_cell_setting 'orthorhombic'
loop_
_space_group_symop_operation_xyz
x,y,z
-x,-y,z
x,-y,-z
-x,y,-z
1/2+x,1/2+y,z
1/2-x,1/2-y,z
1/2+x,1/2-y,-z
1/2-x,1/2+y,-z
loop_
_atom_site_type_symbol
_atom_site_label
_atom_site_fract_x
_atom_site_fract_y
_atom_site_fract_z
Si Si1 0.000000 0.500000 0.500000
Si Si2 0.250000 0.750000 0.421581
Si Si3 0.000000 0.500000 0.112082
Si Si4 0.750000 0.750000 0.806740
Si Si5 0.500000 0.500000 0.726199
Si Si6 0.750000 0.750000 0.346028
Si Si7 0.750000 0.750000 0.037140
O O1 0.895948 0.315731 0.461586
O O2 0.258379 0.501778 0.383254
O O3 0.135335 0.601034 0.152367
O O4 0.092352 0.297735 0.073889
O O5 0.639263 0.592540 0.765943
O O6 0.588282 0.283040 0.689918
O O7 0.731869 0.500000 0.000000
#
# Coordination Sequence:
#
# PCOD9325799 Si02
#       7
#     2   4   4   4   4   4   4
#     4  12  28  52  78 114 156 202 256 314 380 456
#     4  12  28  50  78 113 153 202 254 314 380 452
#     4  12  27  48  77 112 154 201 254 315 380 454
#     4  12  26  48  76 111 151 200 252 312 380 452
#     4  12  26  48  78 113 153 200 254 314 380 454
#     4  12  27  49  78 113 153 200 253 315 380 452
#     4  12  29  51  80 115 155 204 257 317 382 454
#
# _framework density 24.315380999999999
#
# number of rings (size 3 to 8) (size 9 to 14) (size 15 to 20)
#    0.000    0.000    0.000    8.769    0.000   14.154 
#    0.000    0.000    0.000    0.000    0.000    0.000 
#    0.000    0.000    0.000    0.000    0.000    0.000 
#
# Total GULP energy -72934.457210 kJ/mol
# GULP energy per Si atom -5610.342862 kJ/mol
# Density = 2.426004 g / cm^3
# Si number density = 24.315381 Si / 1000 Ang^3
#
#
#
# Elastic Constant Matrix: (Units=GPa)
#
#
# Indices 1 2 3 4 5 6 
#
# 1 198.6758 94.7620 107.7471 0.0000 0.0000 0.0000
# 2 94.7620 195.2251 117.5046 0.0000 0.0000 0.0000
# 3 107.7471 117.5046 184.3806 0.0000 0.0000 0.0000
# 4 0.0000 0.0000 0.0000 18.9884 0.0000 0.0000
# 5 0.0000 0.0000 0.0000 0.0000 89.1614 0.0000
# 6 0.0000 0.0000 0.0000 0.0000 0.0000 64.1098
#
#
#
# Elastic Compliance Matrix: (Units=1/GPa)
#
#
# Indices 1 2 3 4 5 6 
#
# 1 0.007689 -0.001667 -0.003431 0.000000 0.000000 0.000000
# 2 -0.001667 0.008671 -0.004552 0.000000 0.000000 0.000000
# 3 -0.003431 -0.004552 0.010329 0.000000 0.000000 0.000000
# 4 0.000000 0.000000 0.000000 0.052664 0.000000 0.000000
# 5 0.000000 0.000000 0.000000 0.000000 0.011216 0.000000
# 6 0.000000 0.000000 0.000000 0.000000 0.000000 0.015598
#
#
# Mechanical properties :
#
#
# Convention : Reuss Voigt Hill
#
# Bulk Modulus (GPa) = 135.32004 135.36765 135.34385
# Shear Modulus (GPa) = 39.08369 51.66977 45.37673
#
# Velocity S-wave (km/s) = 4.01355 4.61475 4.32461
# Velocity P-wave (km/s) = 8.78925 9.17535 8.98438
#
# Compressibility (1/GPa) = 0.00738989
#
# Stress axis : x y z
#
# Youngs Moduli (GPa) = 130.05253 115.32237 96.81247
#
# Poissons Ratio (x) = 0.19229 0.33214
# Poissons Ratio (y) = 0.21685 0.44067
# Poissons Ratio (z) = 0.44618 0.52493
#
# Static dielectric constant tensor:
#      x y z
#    x 1.864200 0.000000 0.000000 
#    y 0.000000 1.881550 0.000000 
#    z 0.000000 0.000000 1.944220 
# 
# From -- ./inp_files/38039.got.cif
#   From: 2010.05.17/outbox.cif.g08.bks.cpg/sg21_20_cif.got.tgz:38039.got - 2010.06.03 23:14:55.
