data_PCOD9325435
_publ_section_title
;
Structure prediction by ZEFSAII (Michael W. Deem and Ramdas Pophale) SiO2 
 PCOD9325435
Probable space group: C 2 2 2
;
_chemical_formula_sum "Si O2"
_cell_formula_units_Z 48
_cell_length_a 9.625159
_cell_length_b 16.490290
_cell_length_c 14.064820
_cell_angle_alpha 90.000000
_cell_angle_beta 90.000000
_cell_angle_gamma 90.000000
_cell_volume 2232.391623
_symmetry_space_group_name_H-M "C 2 2 2"
_symmetry_group_IT_number 21
_symmetry_cell_setting 'orthorhombic'
loop_
_space_group_symop_operation_xyz
x,y,z
-x,-y,z
x,-y,-z
-x,y,-z
1/2+x,1/2+y,z
1/2-x,1/2-y,z
1/2+x,1/2-y,-z
1/2-x,1/2+y,-z
loop_
_atom_site_type_symbol
_atom_site_label
_atom_site_fract_x
_atom_site_fract_y
_atom_site_fract_z
Si Si1 0.995878 0.156050 0.892379
Si Si2 0.597439 0.917178 0.604677
Si Si3 0.732773 0.121838 0.791132
Si Si4 0.221713 0.066298 0.791913
Si Si5 0.047166 0.339888 0.895420
Si Si6 0.320015 0.835665 0.580293
O O1 0.069926 0.100414 0.813731
O O2 0.068229 0.243583 0.894521
O O3 0.839395 0.170106 0.857032
O O4 0.000000 0.122365 0.000000
O O5 0.705525 0.917529 0.690427
O O6 0.485281 0.843027 0.606390
O O7 0.682301 0.899425 0.507363
O O8 0.500000 0.000000 0.608817
O O9 0.575573 0.138055 0.822499
O O10 0.751545 0.140077 0.679534
O O11 0.766555 0.028456 0.808502
O O12 0.316693 0.112736 0.867331
O O13 0.000000 0.364038 0.000000
O O14 0.250000 0.750000 0.552403
#
# Coordination Sequence:
#
# PCOD9325435 Si02
#       6
#     8   8   8   8   8   8
#     4  11  26  45  65  94 143 185 218 285 356 404
#     4  11  23  46  74 100 136 184 229 283 340 412
#     4  12  24  42  67  98 134 179 228 281 344 405
#     4  12  24  42  68 102 129 180 232 277 344 406
#     4  11  23  41  66  96 130 176 236 286 335 410
#     4  11  23  41  70 101 133 173 223 277 346 406
#
# _framework density 21.501604
#
# number of rings (size 3 to 8) (size 9 to 14) (size 15 to 20)
#    0.000    0.667    3.333    5.000    0.000    8.000 
#    3.000    0.000    0.000    2.000    0.000    0.000 
#    0.000    0.000    0.000    0.000    0.000    0.000 
#
# Total GULP energy -134037.084134 kJ/mol
# GULP energy per Si atom -5584.878506 kJ/mol
# Density = 2.145267 g / cm^3
# Si number density = 21.501604 Si / 1000 Ang^3
#
#
#
# Elastic Constant Matrix: (Units=GPa)
#
#
# Indices 1 2 3 4 5 6 
#
# 1 65.0323 26.2633 13.2653 0.0000 0.0000 0.0000
# 2 26.2633 79.6905 18.2503 0.0000 0.0000 0.0000
# 3 13.2653 18.2503 122.6994 0.0000 0.0000 0.0000
# 4 0.0000 0.0000 0.0000 25.1332 0.0000 0.0000
# 5 0.0000 0.0000 0.0000 0.0000 35.8461 0.0000
# 6 0.0000 0.0000 0.0000 0.0000 0.0000 45.3929
#
#
#
# Elastic Compliance Matrix: (Units=1/GPa)
#
#
# Indices 1 2 3 4 5 6 
#
# 1 0.017878 -0.005642 -0.001094 0.000000 0.000000 0.000000
# 2 -0.005642 0.014771 -0.001587 0.000000 0.000000 0.000000
# 3 -0.001094 -0.001587 0.008504 0.000000 0.000000 0.000000
# 4 0.000000 0.000000 0.000000 0.039788 0.000000 0.000000
# 5 0.000000 0.000000 0.000000 0.000000 0.027897 0.000000
# 6 0.000000 0.000000 0.000000 0.000000 0.000000 0.022030
#
#
# Mechanical properties :
#
#
# Convention : Reuss Voigt Hill
#
# Bulk Modulus (GPa) = 40.80134 42.55334 41.67734
# Shear Modulus (GPa) = 32.11636 35.25065 33.68350
#
# Velocity S-wave (km/s) = 3.86900 4.05340 3.96227
# Velocity P-wave (km/s) = 6.24308 6.46068 6.35281
#
# Compressibility (1/GPa) = 0.02450900
#
# Stress axis : x y z
#
# Youngs Moduli (GPa) = 55.93322 67.69867 117.58733
#
# Poissons Ratio (x) = 0.38193 0.12861
# Poissons Ratio (y) = 0.31556 0.18663
# Poissons Ratio (z) = 0.06118 0.10745
#
# Static dielectric constant tensor:
#      x y z
#    x 1.772630 0.000000 0.000000 
#    y 0.000000 1.788350 0.000000 
#    z 0.000000 0.000000 1.812840 
# 
# From -- ./inp_files/30507.got.cif
#   From: 2010.05.17/outbox.cif.g08.bks.cpg/sg21_16_cif.got.tgz:30507.got - 2010.06.03 23:14:55.
