data_PCOD9325927
_publ_section_title
;
Structure prediction by ZEFSAII (Michael W. Deem and Ramdas Pophale) SiO2 
 PCOD9325927
Probable space group: F 2 2 2
;
_chemical_formula_sum "Si O2"
_cell_formula_units_Z 64
_cell_length_a 34.372537
_cell_length_b 14.529130
_cell_length_c 5.395526
_cell_angle_alpha 90.000000
_cell_angle_beta 90.000000
_cell_angle_gamma 90.000000
_cell_volume 2694.542187
_symmetry_space_group_name_H-M "F 2 2 2"
_symmetry_group_IT_number 22
_symmetry_cell_setting 'orthorhombic'
loop_
_space_group_symop_operation_xyz
x,y,z
-x,-y,z
x,-y,-z
-x,y,-z
x,1/2+y,1/2+z
-x,1/2-y,1/2+z
x,1/2-y,1/2-z
-x,1/2+y,1/2-z
1/2+x,y,1/2+z
1/2-x,-y,1/2+z
1/2+x,-y,1/2-z
1/2-x,y,1/2-z
1/2+x,1/2+y,z
1/2-x,1/2-y,z
1/2+x,1/2-y,-z
1/2-x,1/2+y,-z
loop_
_atom_site_type_symbol
_atom_site_label
_atom_site_fract_x
_atom_site_fract_y
_atom_site_fract_z
Si Si1 0.856897 0.112257 0.521954
Si Si2 0.516789 0.894420 0.741213
Si Si3 0.895592 0.107723 0.033567
Si Si4 0.733483 0.645824 0.493637
O O1 0.869460 0.147351 0.251431
O O2 0.812609 0.143348 0.545821
O O3 0.858227 0.000000 0.500000
O O4 0.884751 0.141742 0.754653
O O5 0.500000 0.846029 0.500000
O O6 0.562132 0.891745 0.670930
O O7 0.500000 0.000000 0.741453
O O8 0.500000 0.858462 0.000000
O O9 0.887294 0.000000 0.000000
O O10 0.750000 0.606537 0.750000
O O11 0.750000 0.750000 0.494318
O O12 0.750000 0.598360 0.250000
#
# Coordination Sequence:
#
# PCOD9325927 Si02
#       4
#    16  16  16  16
#     4  10  21  32  50  75 107 143 180 225 284 327
#     4  10  17  24  41  63  95 147 198 207 245 310
#     4  10  18  30  43  69 108 145 188 219 263 323
#     4  10  21  38  58  77  99 135 182 238 280 336
#
# _framework density 23.751715000000001
#
# number of rings (size 3 to 8) (size 9 to 14) (size 15 to 20)
#    0.000    2.000    2.500    3.000    7.000    1.000 
#    0.000    0.000    0.000    0.000    0.000    0.000 
#    0.000    0.000    0.000  252.000    0.000    0.000 
#
# Total GULP energy -89084.042700 kJ/mol
# GULP energy per Si atom -5567.752669 kJ/mol
# Density = 2.369766 g / cm^3
# Si number density = 23.751715 Si / 1000 Ang^3
#
#
#
# Elastic Constant Matrix: (Units=GPa)
#
#
# Indices 1 2 3 4 5 6 
#
# 1 150.0984 14.3067 80.1800 0.0001 0.0001 0.0001
# 2 14.3067 116.3849 18.6763 0.0002 0.0001 0.0001
# 3 80.1800 18.6763 282.8921 0.0004 0.0004 0.0004
# 4 0.0001 0.0002 0.0004 -33.8462 0.0002 0.0003
# 5 0.0001 0.0001 0.0004 0.0002 50.4018 0.0000
# 6 0.0001 0.0001 0.0004 0.0003 0.0000 38.4829
#
#
#
# Elastic Compliance Matrix: (Units=1/GPa)
#
#
# Indices 1 2 3 4 5 6 
#
# 1 0.007895 -0.000618 -0.002197 0.000000 0.000000 0.000000
# 2 -0.000618 0.008733 -0.000401 0.000000 0.000000 0.000000
# 3 -0.002197 -0.000401 0.004184 0.000000 0.000000 0.000000
# 4 0.000000 0.000000 0.000000 -0.029545 0.000000 0.000000
# 5 0.000000 0.000000 0.000000 0.000000 0.019841 0.000000
# 6 0.000000 0.000000 0.000000 0.000000 0.000000 0.025986
#
#
# Mechanical properties :
#
#
# Convention : Reuss Voigt Hill
#
# Bulk Modulus (GPa) = 69.54551 86.18904 77.86728
# Shear Modulus (GPa) = 103.48273 40.08853 71.78563
#
# Velocity S-wave (km/s) = 6.60781 4.11276 5.50354
# Velocity P-wave (km/s) = 9.35742 7.67589 8.55805
#
# Compressibility (1/GPa) = 0.01437907
#
# Stress axis : x y z
#
# Youngs Moduli (GPa) = 126.66753 114.51413 239.00287
#
# Poissons Ratio (x) = 0.07076 0.52504
# Poissons Ratio (y) = 0.07827 0.09593
# Poissons Ratio (z) = 0.27826 0.04596
#
# Static dielectric constant tensor:
#      x y z
#    x 2.081820 0.000000 0.000000 
#    y 0.000000 1.863670 0.000000 
#    z 0.000000 0.000000 1.933490 
# 
# From -- ./inp_files/6230.got.cif
#   From: 2010.05.17/outbox.cif.g08.bks.cpg/sg22_4_cif.got.tgz:6230.got - 2010.06.03 23:40:54.
