data_PCOD9325514
_publ_section_title
;
Structure prediction by ZEFSAII (Michael W. Deem and Ramdas Pophale) SiO2 
 PCOD9325514
Probable space group: C 2 2 2
;
_chemical_formula_sum "Si O2"
_cell_formula_units_Z 56
_cell_length_a 8.398679
_cell_length_b 21.608118
_cell_length_c 15.345250
_cell_angle_alpha 90.000000
_cell_angle_beta 90.000000
_cell_angle_gamma 90.000000
_cell_volume 2784.850551
_symmetry_space_group_name_H-M "C 2 2 2"
_symmetry_group_IT_number 21
_symmetry_cell_setting 'orthorhombic'
loop_
_space_group_symop_operation_xyz
x,y,z
-x,-y,z
x,-y,-z
-x,y,-z
1/2+x,1/2+y,z
1/2-x,1/2-y,z
1/2+x,1/2-y,-z
1/2-x,1/2+y,-z
loop_
_atom_site_type_symbol
_atom_site_label
_atom_site_fract_x
_atom_site_fract_y
_atom_site_fract_z
Si Si1 0.894202 0.624487 0.681762
Si Si2 0.429000 0.066668 0.151729
Si Si3 0.693326 0.004563 0.400621
Si Si4 0.750000 0.750000 0.907771
Si Si5 0.087746 0.185693 0.750444
Si Si6 0.434640 0.767131 0.596779
Si Si7 0.000000 0.337540 0.000000
Si Si8 0.613101 0.441188 0.748872
O O1 0.786047 0.574345 0.632295
O O2 0.767143 0.671277 0.721018
O O3 0.981577 0.590199 0.760954
O O4 0.017161 0.662008 0.621098
O O5 0.452348 0.117949 0.079147
O O6 0.245683 0.059593 0.176580
O O7 0.500000 0.000000 0.127172
O O8 0.500000 0.000000 0.395636
O O9 0.743338 0.000000 0.500000
O O10 0.787985 0.956601 0.340081
O O11 0.881715 0.782890 0.844500
O O12 0.851233 0.703177 0.967056
O O13 0.009269 0.227615 0.675712
O O14 0.985020 0.122479 0.752344
O O15 0.500000 0.753496 0.500000
O O16 0.250000 0.750000 0.596147
O O17 0.500000 0.500000 0.760566
#
# Coordination Sequence:
#
# PCOD9325514 Si02
#       8
#     8   8   8   4   8   8   4   8
#     4  12  21  46  69  95 146 190 236 293 359 424
#     4  12  23  47  75 103 141 185 233 292 371 434
#     4  11  24  41  66 103 140 188 237 291 350 421
#     4  12  28  52  74 110 142 186 240 298 374 430
#     4  12  24  46  73  99 145 193 236 300 357 429
#     4  12  27  43  67 103 142 198 255 300 348 414
#     4  12  29  48  78 106 141 178 238 300 360 452
#     4  12  24  42  72 105 141 186 240 291 359 436
#
# _framework density 20.108799000000001
#
# number of rings (size 3 to 8) (size 9 to 14) (size 15 to 20)
#    0.000    0.143    7.143    1.929    4.000    1.429 
#    1.286    0.000    0.000    0.000    0.000    0.000 
#    0.000    0.000    0.000    0.000    0.000    0.000 
#
# Total GULP energy -156486.846365 kJ/mol
# GULP energy per Si atom -5588.815942 kJ/mol
# Density = 2.006303 g / cm^3
# Si number density = 20.108799 Si / 1000 Ang^3
#
#
#
# Elastic Constant Matrix: (Units=GPa)
#
#
# Indices 1 2 3 4 5 6 
#
# 1 107.1980 61.3277 50.4319 0.0000 0.0000 0.0000
# 2 61.3277 139.9531 79.8158 0.0000 0.0000 0.0000
# 3 50.4319 79.8158 136.1387 0.0000 0.0000 0.0000
# 4 0.0000 0.0000 0.0000 43.7687 0.0000 0.0000
# 5 0.0000 0.0000 0.0000 0.0000 22.4220 0.0000
# 6 0.0000 0.0000 0.0000 0.0000 0.0000 26.4339
#
#
#
# Elastic Compliance Matrix: (Units=1/GPa)
#
#
# Indices 1 2 3 4 5 6 
#
# 1 0.012872 -0.004388 -0.002196 0.000000 0.000000 0.000000
# 2 -0.004388 0.012231 -0.005545 0.000000 0.000000 0.000000
# 3 -0.002196 -0.005545 0.011410 0.000000 0.000000 0.000000
# 4 0.000000 0.000000 0.000000 0.022847 0.000000 0.000000
# 5 0.000000 0.000000 0.000000 0.000000 0.044599 0.000000
# 6 0.000000 0.000000 0.000000 0.000000 0.000000 0.037830
#
#
# Mechanical properties :
#
#
# Convention : Reuss Voigt Hill
#
# Bulk Modulus (GPa) = 81.60241 85.16008 83.38124
# Shear Modulus (GPa) = 29.38907 31.30589 30.34748
#
# Velocity S-wave (km/s) = 3.82711 3.94994 3.88901
# Velocity P-wave (km/s) = 7.75871 7.95263 7.85627
#
# Compressibility (1/GPa) = 0.01225454
#
# Stress axis : x y z
#
# Youngs Moduli (GPa) = 77.68779 81.76254 87.64516
#
# Poissons Ratio (x) = 0.35881 0.19243
# Poissons Ratio (y) = 0.34093 0.48598
# Poissons Ratio (z) = 0.17057 0.45336
#
# Static dielectric constant tensor:
#      x y z
#    x 1.722970 0.000000 0.000000 
#    y 0.000000 1.765520 0.000000 
#    z 0.000000 0.000000 1.733890 
# 
# From -- ./inp_files/30811.got.cif
#   From: 2010.05.17/outbox.cif.g08.bks.cpg/sg21_16_cif.got.tgz:30811.got - 2010.06.03 23:14:55.
