data_PCOD9325350
_publ_section_title
;
Structure prediction by ZEFSAII (Michael W. Deem and Ramdas Pophale) SiO2 
 PCOD9325350
Probable space group: C 2 2 2
;
_chemical_formula_sum "Si O2"
_cell_formula_units_Z 64
_cell_length_a 17.504386
_cell_length_b 11.471983
_cell_length_c 16.305599
_cell_angle_alpha 90.000000
_cell_angle_beta 90.000000
_cell_angle_gamma 90.000000
_cell_volume 3274.327639
_symmetry_space_group_name_H-M "C 2 2 2"
_symmetry_group_IT_number 21
_symmetry_cell_setting 'orthorhombic'
loop_
_space_group_symop_operation_xyz
x,y,z
-x,-y,z
x,-y,-z
-x,y,-z
1/2+x,1/2+y,z
1/2-x,1/2-y,z
1/2+x,1/2-y,-z
1/2-x,1/2+y,-z
loop_
_atom_site_type_symbol
_atom_site_label
_atom_site_fract_x
_atom_site_fract_y
_atom_site_fract_z
Si Si1 0.798800 0.543396 0.732374
Si Si2 0.875688 0.034528 0.279942
Si Si3 0.177875 0.333015 0.157400
Si Si4 0.914294 0.549996 0.586855
Si Si5 0.887349 0.255292 0.184550
Si Si6 0.088917 0.359538 0.992594
Si Si7 0.033787 0.810549 0.413862
Si Si8 0.947191 0.216772 0.736832
O O1 0.713546 0.523081 0.698141
O O2 0.803518 0.463487 0.813898
O O3 0.859662 0.515032 0.661257
O O4 0.827636 0.670747 0.761362
O O5 0.871756 0.120014 0.201146
O O6 0.920516 0.098480 0.355324
O O7 0.920902 0.918181 0.254420
O O8 0.250000 0.250000 0.160510
O O9 0.138038 0.318998 0.069776
O O10 0.119199 0.291276 0.225846
O O11 0.887611 0.500000 0.500000
O O12 0.918996 0.690700 0.577613
O O13 0.000000 0.500000 0.600803
O O14 0.974542 0.261318 0.219615
O O15 0.884058 0.305317 0.093228
O O16 0.092184 0.500000 0.000000
O O17 0.000000 0.326010 0.000000
O O18 0.000000 0.853231 0.500000
O O19 0.961513 0.771840 0.359206
#
# Coordination Sequence:
#
# PCOD9325350 Si02
#       8
#     8   8   8   8   8   8   8   8
#     4  12  24  42  69  99 132 181 226 289 340 412
#     4  11  25  44  68  99 138 178 235 273 348 418
#     4  12  25  43  66  97 141 174 222 287 360 401
#     4  11  22  39  65  98 130 165 221 276 337 395
#     4  11  22  41  72  96 129 176 231 280 333 411
#     4  11  23  41  67 101 130 165 227 289 338 409
#     4  11  22  42  70  96 129 176 225 281 330 404
#     4  11  23  44  68  96 131 183 229 276 334 424
#
# _framework density 19.545995999999999
#
# number of rings (size 3 to 8) (size 9 to 14) (size 15 to 20)
#    0.000    0.750    7.500    2.625    0.000    2.000 
#    2.250    0.625    0.000    0.000    0.000    0.000 
#    0.000    0.000    0.000    0.000    0.000    0.000 
#
# Total GULP energy -178473.252182 kJ/mol
# GULP energy per Si atom -5577.289131 kJ/mol
# Density = 1.950151 g / cm^3
# Si number density = 19.545996 Si / 1000 Ang^3
#
#
#
# Elastic Constant Matrix: (Units=GPa)
#
#
# Indices 1 2 3 4 5 6 
#
# 1 96.8831 6.8306 31.7235 0.0000 0.0000 0.0000
# 2 6.8306 79.0985 10.2599 0.0000 0.0000 0.0000
# 3 31.7235 10.2599 130.8878 0.0000 0.0000 0.0000
# 4 0.0000 0.0000 0.0000 23.9045 0.0000 0.0000
# 5 0.0000 0.0000 0.0000 0.0000 21.7746 0.0000
# 6 0.0000 0.0000 0.0000 0.0000 0.0000 31.5806
#
#
#
# Elastic Compliance Matrix: (Units=1/GPa)
#
#
# Indices 1 2 3 4 5 6 
#
# 1 0.011242 -0.000624 -0.002676 0.000000 0.000000 0.000000
# 2 -0.000624 0.012807 -0.000853 0.000000 0.000000 0.000000
# 3 -0.002676 -0.000853 0.008356 0.000000 0.000000 0.000000
# 4 0.000000 0.000000 0.000000 0.041833 0.000000 0.000000
# 5 0.000000 0.000000 0.000000 0.000000 0.045925 0.000000
# 6 0.000000 0.000000 0.000000 0.000000 0.000000 0.031665
#
#
# Mechanical properties :
#
#
# Convention : Reuss Voigt Hill
#
# Bulk Modulus (GPa) = 41.49411 44.94413 43.21912
# Shear Modulus (GPa) = 29.73265 32.65564 31.19414
#
# Velocity S-wave (km/s) = 3.90444 4.09186 3.99925
# Velocity P-wave (km/s) = 6.44990 6.73561 6.59430
#
# Compressibility (1/GPa) = 0.02409981
#
# Stress axis : x y z
#
# Youngs Moduli (GPa) = 88.95322 78.08267 119.68141
#
# Poissons Ratio (x) = 0.04870 0.32025
# Poissons Ratio (y) = 0.05548 0.10206
# Poissons Ratio (z) = 0.23802 0.06658
#
# Static dielectric constant tensor:
#      x y z
#    x 1.712320 0.000000 0.000000 
#    y 0.000000 1.738360 0.000000 
#    z 0.000000 0.000000 1.660660 
# 
# From -- ./inp_files/32968.got.cif
#   From: 2010.05.17/outbox.cif.g08.bks.cpg/sg21_17_cif.got.tgz:32968.got - 2010.06.03 23:14:55.
