data_PCOD9325631
_publ_section_title
;
Structure prediction by ZEFSAII (Michael W. Deem and Ramdas Pophale) SiO2 
 PCOD9325631
Probable space group: C 2 2 2
;
_chemical_formula_sum "Si O2"
_cell_formula_units_Z 24
_cell_length_a 13.061541
_cell_length_b 13.371455
_cell_length_c 5.223331
_cell_angle_alpha 90.000000
_cell_angle_beta 90.000000
_cell_angle_gamma 90.000000
_cell_volume 912.264201
_symmetry_space_group_name_H-M "C 2 2 2"
_symmetry_group_IT_number 21
_symmetry_cell_setting 'orthorhombic'
loop_
_space_group_symop_operation_xyz
x,y,z
-x,-y,z
x,-y,-z
-x,y,-z
1/2+x,1/2+y,z
1/2-x,1/2-y,z
1/2+x,1/2-y,-z
1/2-x,1/2+y,-z
loop_
_atom_site_type_symbol
_atom_site_label
_atom_site_fract_x
_atom_site_fract_y
_atom_site_fract_z
Si Si1 0.288249 0.112759 0.485159
Si Si2 0.385941 0.792890 0.014821
Si Si3 0.395750 0.432096 0.796534
O O1 0.166309 0.098670 0.541059
O O2 0.329836 0.000000 0.500000
O O3 0.330823 0.168481 0.732584
O O4 0.175114 0.329447 0.234556
O O5 0.500000 0.836277 0.000000
O O6 0.400518 0.674164 0.057824
O O7 0.500000 0.500000 0.759929
O O8 0.332337 0.500000 0.000000
#
# Coordination Sequence:
#
# PCOD9325631 Si02
#       3
#     8   8   8
#     4  12  29  51  82 124 172 229 294 363 446 537
#     4  12  27  55  83 124 170 232 287 370 449 534
#     4  11  25  53  87 126 175 231 304 377 448 528
#
# _framework density 26.308164999999999
#
# number of rings (size 3 to 8) (size 9 to 14) (size 15 to 20)
#    0.000    0.333    3.333    5.000    0.000   15.333 
#    6.000    3.333    0.000    0.000    0.000    0.000 
#    0.000    0.000    0.000    0.000    0.000    0.000 
#
# Total GULP energy -67112.049874 kJ/mol
# GULP energy per Si atom -5592.670823 kJ/mol
# Density = 2.624829 g / cm^3
# Si number density = 26.308165 Si / 1000 Ang^3
#
#
#
# Elastic Constant Matrix: (Units=GPa)
#
#
# Indices 1 2 3 4 5 6 
#
# 1 197.7893 78.6432 97.0715 0.0000 0.0000 0.0000
# 2 78.6432 246.8292 114.2315 0.0000 0.0000 0.0000
# 3 97.0715 114.2315 266.4615 0.0000 0.0000 0.0000
# 4 0.0000 0.0000 0.0000 25.5319 0.0000 0.0000
# 5 0.0000 0.0000 0.0000 0.0000 16.1277 0.0000
# 6 0.0000 0.0000 0.0000 0.0000 0.0000 57.0455
#
#
#
# Elastic Compliance Matrix: (Units=1/GPa)
#
#
# Indices 1 2 3 4 5 6 
#
# 1 0.006431 -0.001204 -0.001827 0.000000 0.000000 0.000000
# 2 -0.001204 0.005279 -0.001825 0.000000 0.000000 0.000000
# 3 -0.001827 -0.001825 0.005201 0.000000 0.000000 0.000000
# 4 0.000000 0.000000 0.000000 0.039167 0.000000 0.000000
# 5 0.000000 0.000000 0.000000 0.000000 0.062005 0.000000
# 6 0.000000 0.000000 0.000000 0.000000 0.000000 0.017530
#
#
# Mechanical properties :
#
#
# Convention : Reuss Voigt Hill
#
# Bulk Modulus (GPa) = 138.87595 143.44136 141.15866
# Shear Modulus (GPa) = 33.84701 47.81660 40.83181
#
# Velocity S-wave (km/s) = 3.59075 4.26791 3.94389
# Velocity P-wave (km/s) = 8.37222 8.88418 8.63200
#
# Compressibility (1/GPa) = 0.00720067
#
# Stress axis : x y z
#
# Youngs Moduli (GPa) = 155.49644 189.41676 192.28213
#
# Poissons Ratio (x) = 0.22797 0.35127
# Poissons Ratio (y) = 0.18715 0.35088
# Poissons Ratio (z) = 0.28407 0.34565
#
# Static dielectric constant tensor:
#      x y z
#    x 2.218580 0.000000 0.000000 
#    y 0.000000 2.151750 0.000000 
#    z 0.000000 0.000000 2.195610 
# 
# From -- ./inp_files/3238.got.cif
#   From: 2010.05.17/outbox.cif.g08.bks.cpg/sg21_2_cif.got.tgz:3238.got - 2010.06.03 23:14:55.
