data_PCOD9325686
_publ_section_title
;
Structure prediction by ZEFSAII (Michael W. Deem and Ramdas Pophale) SiO2 
 PCOD9325686
Probable space group: C 2 2 2
;
_chemical_formula_sum "Si O2"
_cell_formula_units_Z 26
_cell_length_a 31.186133
_cell_length_b 7.149841
_cell_length_c 5.415788
_cell_angle_alpha 90.000000
_cell_angle_beta 90.000000
_cell_angle_gamma 90.000000
_cell_volume 1207.590162
_symmetry_space_group_name_H-M "C 2 2 2"
_symmetry_group_IT_number 21
_symmetry_cell_setting 'orthorhombic'
loop_
_space_group_symop_operation_xyz
x,y,z
-x,-y,z
x,-y,-z
-x,y,-z
1/2+x,1/2+y,z
1/2-x,1/2-y,z
1/2+x,1/2-y,-z
1/2-x,1/2+y,-z
loop_
_atom_site_type_symbol
_atom_site_label
_atom_site_fract_x
_atom_site_fract_y
_atom_site_fract_z
Si Si1 0.292046 0.123777 0.249527
Si Si2 0.078422 0.693132 0.263224
Si Si3 0.500000 0.000000 0.500000
Si Si4 0.614157 0.227566 0.762422
O O1 0.250000 0.250000 0.270788
O O2 0.335043 0.248137 0.221670
O O3 0.296208 0.000000 0.500000
O O4 0.289285 0.000000 0.000000
O O5 0.030422 0.626639 0.327470
O O6 0.095974 0.796611 0.503200
O O7 0.104840 0.497241 0.248525
O O8 0.088151 0.788852 0.004130
#
# Coordination Sequence:
#
# PCOD9325686 Si02
#       4
#     8   8   2   8
#     4  12  22  37  55  78 103 141 193 226 267 319
#     4   9  15  24  42  57  99 121 173 183 264 309
#     4   8  16  22  36  70  84 142 162 206 224 338
#     4   9  15  28  42  60  89 133 162 193 257 315
#
# _framework density 21.530484999999999
#
# number of rings (size 3 to 8) (size 9 to 14) (size 15 to 20)
#    0.000    2.462    6.154    0.923    0.000    9.846 
#    0.000    0.000    0.000    0.000    0.000    0.000 
#    0.000    0.000    0.000  144.000    3.692    0.000 
#
# Total GULP energy -72487.818971 kJ/mol
# GULP energy per Si atom -5575.986075 kJ/mol
# Density = 2.148148 g / cm^3
# Si number density = 21.530485 Si / 1000 Ang^3
#
#
#
# Elastic Constant Matrix: (Units=GPa)
#
#
# Indices 1 2 3 4 5 6 
#
# 1 193.3797 15.7387 65.0640 0.0000 0.0000 0.0000
# 2 15.7387 58.4918 24.7217 0.0000 0.0000 0.0000
# 3 65.0640 24.7217 258.1052 0.0000 0.0000 0.0000
# 4 0.0000 0.0000 0.0000 -16.4157 0.0000 0.0000
# 5 0.0000 0.0000 0.0000 0.0000 42.1265 0.0000
# 6 0.0000 0.0000 0.0000 0.0000 0.0000 -1.3342
#
#
#
# Elastic Compliance Matrix: (Units=1/GPa)
#
#
# Indices 1 2 3 4 5 6 
#
# 1 0.005702 -0.000966 -0.001345 0.000000 0.000000 0.000000
# 2 -0.000966 0.017981 -0.001479 0.000000 0.000000 0.000000
# 3 -0.001345 -0.001479 0.004355 0.000000 0.000000 0.000000
# 4 0.000000 0.000000 0.000000 -0.060917 0.000000 0.000000
# 5 0.000000 0.000000 0.000000 0.000000 0.023738 0.000000
# 6 0.000000 0.000000 0.000000 0.000000 0.000000 -0.749506
#
#
# Mechanical properties :
#
#
# Convention : Reuss Voigt Hill
#
# Bulk Modulus (GPa) = 48.87721 80.11392 64.49556
# Shear Modulus (GPa) = -6.71819 31.83881 12.56031
#
# Velocity S-wave (km/s) = -1.76836 3.84966 2.41793
# Velocity P-wave (km/s) = 4.31059 7.55316 6.14945
#
# Compressibility (1/GPa) = 0.02045943
#
# Stress axis : x y z
#
# Youngs Moduli (GPa) = 175.36789 55.61325 229.61768
#
# Poissons Ratio (x) = 0.05372 0.30882
# Poissons Ratio (y) = 0.16939 0.33956
# Poissons Ratio (z) = 0.23586 0.08224
#
# Static dielectric constant tensor:
#      x y z
#    x 1.753510 0.000000 0.000000 
#    y 0.000000 1.667300 0.000000 
#    z 0.000000 0.000000 1.939120 
# 
# From -- ./inp_files/1417.got.cif
#   From: 2010.05.17/outbox.cif.g08.bks.cpg/sg21_1_cif.got.tgz:1417.got - 2010.06.03 23:14:55.
