data_PCOD9325451
_publ_section_title
;
Structure prediction by ZEFSAII (Michael W. Deem and Ramdas Pophale) SiO2 
 PCOD9325451
Probable space group: C 2 2 2
;
_chemical_formula_sum "Si O2"
_cell_formula_units_Z 56
_cell_length_a 5.022712
_cell_length_b 29.406980
_cell_length_c 16.886782
_cell_angle_alpha 90.000000
_cell_angle_beta 90.000000
_cell_angle_gamma 90.000000
_cell_volume 2494.224838
_symmetry_space_group_name_H-M "C 2 2 2"
_symmetry_group_IT_number 21
_symmetry_cell_setting 'orthorhombic'
loop_
_space_group_symop_operation_xyz
x,y,z
-x,-y,z
x,-y,-z
-x,y,-z
1/2+x,1/2+y,z
1/2-x,1/2-y,z
1/2+x,1/2-y,-z
1/2-x,1/2+y,-z
loop_
_atom_site_type_symbol
_atom_site_label
_atom_site_fract_x
_atom_site_fract_y
_atom_site_fract_z
Si Si1 0.015517 0.112169 0.408661
Si Si2 0.842188 0.700109 0.575714
Si Si3 0.757293 0.348945 0.049214
Si Si4 0.464378 0.905100 0.820974
Si Si5 0.506295 0.281944 0.179551
Si Si6 0.162707 0.334574 0.298640
Si Si7 0.560106 0.447373 0.256843
O O1 0.873753 0.161474 0.408397
O O2 0.000000 0.096248 0.500000
O O3 0.291209 0.126990 0.366409
O O4 0.911772 0.077138 0.342547
O O5 0.750000 0.750000 0.554162
O O6 0.000000 0.682761 0.500000
O O7 0.022025 0.704616 0.653011
O O8 0.614250 0.313338 0.108296
O O9 0.926599 0.388314 0.094574
O O10 0.500000 0.366658 0.000000
O O11 0.000000 0.325884 0.000000
O O12 0.505768 0.859686 0.768114
O O13 0.166965 0.921847 0.797252
O O14 0.664360 0.942473 0.788848
O O15 0.750000 0.250000 0.202175
O O16 0.409335 0.314407 0.250626
O O17 0.250000 0.250000 0.159473
O O18 0.500000 0.500000 0.268126
#
# Coordination Sequence:
#
# PCOD9325451 Si02
#       7
#     8   8   8   8   8   8   8
#     4  11  23  42  65  94 141 191 241 302 365 419
#     4  12  26  41  59  95 138 195 256 300 360 410
#     4  12  25  47  74 103 140 188 238 286 364 449
#     4  11  23  46  73 104 138 181 233 286 359 438
#     4  12  28  44  65 103 143 189 251 310 360 413
#     4  11  25  42  64  90 135 191 246 298 349 416
#     4  11  24  44  75 110 144 182 236 299 370 444
#
# _framework density 22.451864
#
# number of rings (size 3 to 8) (size 9 to 14) (size 15 to 20)
#    0.000    0.571    2.857    6.000    4.000    1.429 
#    0.000    1.429    0.000    8.143    0.000    0.000 
#    0.000    0.000    0.000    0.000    0.000    0.000 
#
# Total GULP energy -156373.527650 kJ/mol
# GULP energy per Si atom -5584.768845 kJ/mol
# Density = 2.240076 g / cm^3
# Si number density = 22.451864 Si / 1000 Ang^3
#
#
#
# Elastic Constant Matrix: (Units=GPa)
#
#
# Indices 1 2 3 4 5 6 
#
# 1 101.9155 7.0211 35.1855 0.0000 0.0000 0.0000
# 2 7.0211 76.9927 18.4862 0.0000 0.0000 0.0000
# 3 35.1855 18.4862 116.9515 0.0000 0.0000 0.0000
# 4 0.0000 0.0000 0.0000 3.3886 0.0000 0.0000
# 5 0.0000 0.0000 0.0000 0.0000 49.5164 0.0000
# 6 0.0000 0.0000 0.0000 0.0000 0.0000 38.6964
#
#
#
# Elastic Compliance Matrix: (Units=1/GPa)
#
#
# Indices 1 2 3 4 5 6 
#
# 1 0.010953 -0.000216 -0.003261 0.000000 0.000000 0.000000
# 2 -0.000216 0.013505 -0.002070 0.000000 0.000000 0.000000
# 3 -0.003261 -0.002070 0.009859 0.000000 0.000000 0.000000
# 4 0.000000 0.000000 0.000000 0.295107 0.000000 0.000000
# 5 0.000000 0.000000 0.000000 0.000000 0.020195 0.000000
# 6 0.000000 0.000000 0.000000 0.000000 0.000000 0.025842
#
#
# Mechanical properties :
#
#
# Convention : Reuss Voigt Hill
#
# Bulk Modulus (GPa) = 43.06037 46.36056 44.71047
# Shear Modulus (GPa) = 12.68084 33.99807 23.33945
#
# Velocity S-wave (km/s) = 2.37913 3.89558 3.22768
# Velocity P-wave (km/s) = 5.17375 6.39748 5.81788
#
# Compressibility (1/GPa) = 0.02322321
#
# Stress axis : x y z
#
# Youngs Moduli (GPa) = 91.30099 74.04729 101.43196
#
# Poissons Ratio (x) = 0.01598 0.33078
# Poissons Ratio (y) = 0.01970 0.20994
# Poissons Ratio (z) = 0.29774 0.15326
#
# Static dielectric constant tensor:
#      x y z
#    x 1.930980 0.000000 0.000000 
#    y 0.000000 1.815590 0.000000 
#    z 0.000000 0.000000 1.877610 
# 
# From -- ./inp_files/29581.got.cif
#   From: 2010.05.17/outbox.cif.g08.bks.cpg/sg21_15_cif.got.tgz:29581.got - 2010.06.03 23:14:55.
