data_PCOD9325657
_publ_section_title
;
Structure prediction by ZEFSAII (Michael W. Deem and Ramdas Pophale) SiO2 
 PCOD9325657
Probable space group: C 2 2 2
;
_chemical_formula_sum "Si O2"
_cell_formula_units_Z 40
_cell_length_a 15.127806
_cell_length_b 14.053236
_cell_length_c 9.057124
_cell_angle_alpha 90.000000
_cell_angle_beta 90.000000
_cell_angle_gamma 90.000000
_cell_volume 1925.495906
_symmetry_space_group_name_H-M "C 2 2 2"
_symmetry_group_IT_number 21
_symmetry_cell_setting 'orthorhombic'
loop_
_space_group_symop_operation_xyz
x,y,z
-x,-y,z
x,-y,-z
-x,y,-z
1/2+x,1/2+y,z
1/2-x,1/2-y,z
1/2+x,1/2-y,-z
1/2-x,1/2+y,-z
loop_
_atom_site_type_symbol
_atom_site_label
_atom_site_fract_x
_atom_site_fract_y
_atom_site_fract_z
Si Si1 0.251708 0.636688 0.380057
Si Si2 0.012424 0.234949 0.829436
Si Si3 0.414547 0.377796 0.391711
Si Si4 0.555874 0.902800 0.631625
Si Si5 0.370647 0.455895 0.835514
O O1 0.250000 0.750000 0.353108
O O2 0.327949 0.625028 0.504640
O O3 0.156712 0.594515 0.422896
O O4 0.278757 0.581043 0.231179
O O5 0.057067 0.327941 0.762854
O O6 0.069440 0.138181 0.827025
O O7 0.929347 0.209095 0.723653
O O8 0.000000 0.253816 0.000000
O O9 0.500000 0.381608 0.500000
O O10 0.404454 0.467085 0.282358
O O11 0.500000 0.856666 0.500000
O O12 0.500000 0.000000 0.663137
O O13 0.370089 0.500000 0.000000
#
# Coordination Sequence:
#
# PCOD9325657 Si02
#       5
#     8   8   8   8   8
#     4  12  25  47  74 104 148 195 249 313 368 441
#     4  12  24  45  74 106 151 190 237 304 378 451
#     4  12  25  40  74 110 141 184 242 306 376 435
#     4  11  27  51  75 104 143 200 259 310 363 447
#     4  12  26  43  69 111 150 184 235 304 379 439
#
# _framework density 20.773866999999999
#
# number of rings (size 3 to 8) (size 9 to 14) (size 15 to 20)
#    0.000    0.200    6.000    3.000    8.400    0.400 
#    3.600    1.000    0.000    0.000    0.000    0.000 
#    0.000    0.000    0.000    0.000    0.000    0.000 
#
# Total GULP energy -111664.863190 kJ/mol
# GULP energy per Si atom -5583.243159 kJ/mol
# Density = 2.072658 g / cm^3
# Si number density = 20.773867 Si / 1000 Ang^3
#
#
#
# Elastic Constant Matrix: (Units=GPa)
#
#
# Indices 1 2 3 4 5 6 
#
# 1 162.1325 44.7496 60.8228 0.0000 0.0000 0.0000
# 2 44.7496 118.1533 63.5847 0.0000 0.0000 0.0000
# 3 60.8228 63.5847 171.8122 0.0000 0.0000 0.0000
# 4 0.0000 0.0000 0.0000 47.9150 0.0000 0.0000
# 5 0.0000 0.0000 0.0000 0.0000 21.0444 0.0000
# 6 0.0000 0.0000 0.0000 0.0000 0.0000 26.6791
#
#
#
# Elastic Compliance Matrix: (Units=1/GPa)
#
#
# Indices 1 2 3 4 5 6 
#
# 1 0.007387 -0.001736 -0.001972 0.000000 0.000000 0.000000
# 2 -0.001736 0.010976 -0.003448 0.000000 0.000000 0.000000
# 3 -0.001972 -0.003448 0.007794 0.000000 0.000000 0.000000
# 4 0.000000 0.000000 0.000000 0.020870 0.000000 0.000000
# 5 0.000000 0.000000 0.000000 0.000000 0.047519 0.000000
# 6 0.000000 0.000000 0.000000 0.000000 0.000000 0.037483
#
#
# Mechanical properties :
#
#
# Convention : Reuss Voigt Hill
#
# Bulk Modulus (GPa) = 84.42148 87.82359 86.12254
# Shear Modulus (GPa) = 33.26892 37.99043 35.62967
#
# Velocity S-wave (km/s) = 4.00619 4.28104 4.14589
# Velocity P-wave (km/s) = 7.88200 8.17338 8.02901
#
# Compressibility (1/GPa) = 0.01184533
#
# Stress axis : x y z
#
# Youngs Moduli (GPa) = 135.37340 91.10384 128.29623
#
# Poissons Ratio (x) = 0.15818 0.25306
# Poissons Ratio (y) = 0.23504 0.44231
# Poissons Ratio (z) = 0.26702 0.31409
#
# Static dielectric constant tensor:
#      x y z
#    x 1.813740 0.000000 0.000000 
#    y 0.000000 1.793310 0.000000 
#    z 0.000000 0.000000 1.748090 
# 
# From -- ./inp_files/14537.got.cif
#   From: 2010.05.17/outbox.cif.g08.bks.cpg/sg21_8_cif.got.tgz:14537.got - 2010.06.03 23:14:55.
