data_PCOD9325588
_publ_section_title
;
Structure prediction by ZEFSAII (Michael W. Deem and Ramdas Pophale) SiO2 
 PCOD9325588
Probable space group: C 2 2 2
;
_chemical_formula_sum "Si O2"
_cell_formula_units_Z 30
_cell_length_a 10.958316
_cell_length_b 11.686651
_cell_length_c 11.338203
_cell_angle_alpha 90.000000
_cell_angle_beta 90.000000
_cell_angle_gamma 90.000000
_cell_volume 1452.038471
_symmetry_space_group_name_H-M "C 2 2 2"
_symmetry_group_IT_number 21
_symmetry_cell_setting 'orthorhombic'
loop_
_space_group_symop_operation_xyz
x,y,z
-x,-y,z
x,-y,-z
-x,y,-z
1/2+x,1/2+y,z
1/2-x,1/2-y,z
1/2+x,1/2-y,-z
1/2-x,1/2+y,-z
loop_
_atom_site_type_symbol
_atom_site_label
_atom_site_fract_x
_atom_site_fract_y
_atom_site_fract_z
Si Si1 0.137764 0.470377 0.638750
Si Si2 0.250000 0.250000 0.742328
Si Si3 0.000000 0.000000 0.500000
Si Si4 0.981743 0.862339 0.863595
Si Si5 0.170494 0.853714 0.671545
O O1 0.150855 0.500000 0.500000
O O2 0.175923 0.341097 0.664173
O O3 0.231670 0.550779 0.708260
O O4 0.000000 0.500000 0.672269
O O5 0.148959 0.181769 0.818265
O O6 0.082540 0.917445 0.579614
O O7 0.086551 0.811874 0.778724
O O8 0.000000 0.000000 0.851212
O O9 0.000000 0.832672 0.000000
O O10 0.250000 0.750000 0.621063
#
# Coordination Sequence:
#
# PCOD9325588 Si02
#       5
#     8   4   2   8   8
#     4  11  25  43  67 105 142 186 230 282 348 426
#     4  12  24  50  72 100 148 184 232 296 354 408
#     4  12  24  48  64 110 140 192 220 292 354 424
#     4  11  25  48  75 102 137 187 240 295 350 413
#     4  12  25  44  72 102 145 185 236 286 355 422
#
# _framework density 20.660608
#
# number of rings (size 3 to 8) (size 9 to 14) (size 15 to 20)
#    0.000    0.533    5.333    1.600    3.733    2.133 
#    0.000    0.000    0.000    0.000    0.000    0.000 
#    0.000    0.000    0.000    0.000    0.000    0.000 
#
# Total GULP energy -83901.863166 kJ/mol
# GULP energy per Si atom -5593.457544 kJ/mol
# Density = 2.061358 g / cm^3
# Si number density = 20.660608 Si / 1000 Ang^3
#
#
#
# Elastic Constant Matrix: (Units=GPa)
#
#
# Indices 1 2 3 4 5 6 
#
# 1 191.8362 72.0599 77.8527 0.0000 0.0000 0.0000
# 2 72.0599 136.6252 50.6609 0.0000 0.0000 0.0000
# 3 77.8527 50.6609 120.2094 0.0000 0.0000 0.0000
# 4 0.0000 0.0000 0.0000 8.1887 0.0000 0.0000
# 5 0.0000 0.0000 0.0000 0.0000 13.0812 0.0000
# 6 0.0000 0.0000 0.0000 0.0000 0.0000 50.1154
#
#
#
# Elastic Compliance Matrix: (Units=1/GPa)
#
#
# Indices 1 2 3 4 5 6 
#
# 1 0.007809 -0.002659 -0.003937 0.000000 0.000000 0.000000
# 2 -0.002659 0.009580 -0.002315 0.000000 0.000000 0.000000
# 3 -0.003937 -0.002315 0.011844 0.000000 0.000000 0.000000
# 4 0.000000 0.000000 0.000000 0.122119 0.000000 0.000000
# 5 0.000000 0.000000 0.000000 0.000000 0.076446 0.000000
# 6 0.000000 0.000000 0.000000 0.000000 0.000000 0.019954
#
#
# Mechanical properties :
#
#
# Convention : Reuss Voigt Hill
#
# Bulk Modulus (GPa) = 87.63395 94.42421 91.02908
# Shear Modulus (GPa) = 18.56119 30.81688 24.68904
#
# Velocity S-wave (km/s) = 3.00056 3.86628 3.46060
# Velocity P-wave (km/s) = 7.38326 8.10757 7.75387
#
# Compressibility (1/GPa) = 0.01141110
#
# Stress axis : x y z
#
# Youngs Moduli (GPa) = 128.05141 104.38096 84.42782
#
# Poissons Ratio (x) = 0.27755 0.33240
# Poissons Ratio (y) = 0.34049 0.19549
# Poissons Ratio (z) = 0.50415 0.24169
#
# Static dielectric constant tensor:
#      x y z
#    x 1.757760 0.000000 0.000000 
#    y 0.000000 1.783600 0.000000 
#    z 0.000000 0.000000 1.721330 
# 
# From -- ./inp_files/23390.got.cif
#   From: 2010.05.17/outbox.cif.g08.bks.cpg/sg21_12_cif.got.tgz:23390.got - 2010.06.03 23:14:55.
