data_PCOD9325618
_publ_section_title
;
Structure prediction by ZEFSAII (Michael W. Deem and Ramdas Pophale) SiO2 
 PCOD9325618
Probable space group: C 2 2 2
;
_chemical_formula_sum "Si O2"
_cell_formula_units_Z 28
_cell_length_a 22.976159
_cell_length_b 7.087835
_cell_length_c 7.307038
_cell_angle_alpha 90.000000
_cell_angle_beta 90.000000
_cell_angle_gamma 90.000000
_cell_volume 1189.960082
_symmetry_space_group_name_H-M "C 2 2 2"
_symmetry_group_IT_number 21
_symmetry_cell_setting 'orthorhombic'
loop_
_space_group_symop_operation_xyz
x,y,z
-x,-y,z
x,-y,-z
-x,y,-z
1/2+x,1/2+y,z
1/2-x,1/2-y,z
1/2+x,1/2-y,-z
1/2-x,1/2+y,-z
loop_
_atom_site_type_symbol
_atom_site_label
_atom_site_fract_x
_atom_site_fract_y
_atom_site_fract_z
Si Si1 0.250000 0.250000 0.447031
Si Si2 0.658763 0.158847 0.239414
Si Si3 0.166864 0.217396 0.152720
Si Si4 0.934132 0.958666 0.715989
O O1 0.301031 0.189866 0.584243
O O2 0.213870 0.129549 0.294746
O O3 0.594976 0.252617 0.260788
O O4 0.656610 0.935581 0.207375
O O5 0.683719 0.265777 0.059374
O O6 0.108217 0.103382 0.181831
O O7 0.930654 0.000000 0.500000
O O8 0.000000 0.000000 0.773680
#
# Coordination Sequence:
#
# PCOD9325618 Si02
#       4
#     4   8   8   8
#     4  12  24  44  66  98 142 180 228 282 334 416
#     4  11  26  45  69 103 139 183 231 284 348 411
#     4  11  26  45  69 103 139 183 231 284 348 411
#     4  11  25  47  75 104 139 185 234 289 348 412
#
# _framework density 23.530199
#
# number of rings (size 3 to 8) (size 9 to 14) (size 15 to 20)
#    0.000    0.857    2.857    2.571    8.000    3.429 
#    0.000    5.714    0.000    0.000    0.000    0.000 
#    0.000    0.000    0.000    0.000    0.000    0.000 
#
# Total GULP energy -78261.607024 kJ/mol
# GULP energy per Si atom -5590.114787 kJ/mol
# Density = 2.347664 g / cm^3
# Si number density = 23.530199 Si / 1000 Ang^3
#
#
#
# Elastic Constant Matrix: (Units=GPa)
#
#
# Indices 1 2 3 4 5 6 
#
# 1 196.9414 58.7162 51.6764 0.0000 0.0000 0.0000
# 2 58.7162 108.8272 43.4513 0.0000 0.0000 0.0000
# 3 51.6764 43.4513 188.2703 0.0000 0.0000 0.0000
# 4 0.0000 0.0000 0.0000 31.8168 0.0000 0.0000
# 5 0.0000 0.0000 0.0000 0.0000 5.4144 0.0000
# 6 0.0000 0.0000 0.0000 0.0000 0.0000 30.6340
#
#
#
# Elastic Compliance Matrix: (Units=1/GPa)
#
#
# Indices 1 2 3 4 5 6 
#
# 1 0.006227 -0.002949 -0.001029 0.000000 0.000000 0.000000
# 2 -0.002949 0.011518 -0.001849 0.000000 0.000000 0.000000
# 3 -0.001029 -0.001849 0.006021 0.000000 0.000000 0.000000
# 4 0.000000 0.000000 0.000000 0.031430 0.000000 0.000000
# 5 0.000000 0.000000 0.000000 0.000000 0.184691 0.000000
# 6 0.000000 0.000000 0.000000 0.000000 0.000000 0.032643
#
#
# Mechanical properties :
#
#
# Convention : Reuss Voigt Hill
#
# Bulk Modulus (GPa) = 82.55748 89.08076 85.81912
# Shear Modulus (GPa) = 17.34785 36.25272 26.80028
#
# Velocity S-wave (km/s) = 2.71820 3.92942 3.37853
# Velocity P-wave (km/s) = 6.70920 7.65032 7.19516
#
# Compressibility (1/GPa) = 0.01211277
#
# Stress axis : x y z
#
# Youngs Moduli (GPa) = 160.59830 86.81984 166.09836
#
# Poissons Ratio (x) = 0.25602 0.17084
# Poissons Ratio (y) = 0.47359 0.30710
# Poissons Ratio (z) = 0.16518 0.16052
#
# Static dielectric constant tensor:
#      x y z
#    x 1.897680 0.000000 0.000000 
#    y 0.000000 2.004260 0.000000 
#    z 0.000000 0.000000 1.951950 
# 
# From -- ./inp_files/17020.got.cif
#   From: 2010.05.17/outbox.cif.g08.bks.cpg/sg21_9_cif.got.tgz:17020.got - 2010.06.03 23:14:55.
