data_PCOD9325602
_publ_section_title
;
Structure prediction by ZEFSAII (Michael W. Deem and Ramdas Pophale) SiO2 
 PCOD9325602
Probable space group: C 2 2 2
;
_chemical_formula_sum "Si O2"
_cell_formula_units_Z 28
_cell_length_a 28.493617
_cell_length_b 5.027763
_cell_length_c 8.931683
_cell_angle_alpha 90.000000
_cell_angle_beta 90.000000
_cell_angle_gamma 90.000000
_cell_volume 1279.545344
_symmetry_space_group_name_H-M "C 2 2 2"
_symmetry_group_IT_number 21
_symmetry_cell_setting 'orthorhombic'
loop_
_space_group_symop_operation_xyz
x,y,z
-x,-y,z
x,-y,-z
-x,y,-z
1/2+x,1/2+y,z
1/2-x,1/2-y,z
1/2+x,1/2-y,-z
1/2-x,1/2+y,-z
loop_
_atom_site_type_symbol
_atom_site_label
_atom_site_fract_x
_atom_site_fract_y
_atom_site_fract_z
Si Si1 0.250000 0.750000 0.897080
Si Si2 0.444884 0.074534 0.166739
Si Si3 0.595645 0.593214 0.671885
Si Si4 0.296140 0.429537 0.673621
O O1 0.291536 0.679099 0.784266
O O2 0.239689 0.500000 0.000000
O O3 0.427844 0.367574 0.220008
O O4 0.500000 0.000000 0.158656
O O5 0.427709 0.871830 0.292626
O O6 0.425918 0.000000 0.000000
O O7 0.590435 0.500000 0.500000
O O8 0.650807 0.657488 0.698343
O O9 0.291764 0.500000 0.500000
O O10 0.250000 0.250000 0.705551
#
# Coordination Sequence:
#
# PCOD9325602 Si02
#       4
#     4   8   8   8
#     4  12  26  42  64  98 132 174 228 284 328 378
#     4  11  25  47  71 100 139 180 218 277 355 415
#     4  11  26  43  71 104 133 177 233 281 334 399
#     4  11  25  45  71  95 140 189 229 273 340 405
#
# _framework density 21.882771000000002
#
# number of rings (size 3 to 8) (size 9 to 14) (size 15 to 20)
#    0.000    0.857    2.857    2.571    4.000    9.143 
#    0.000    0.000    0.000    0.000    0.000    0.000 
#    0.000    0.000    0.000    0.000    0.000    0.000 
#
# Total GULP energy -78089.428535 kJ/mol
# GULP energy per Si atom -5577.816324 kJ/mol
# Density = 2.183296 g / cm^3
# Si number density = 21.882771 Si / 1000 Ang^3
#
#
#
# Elastic Constant Matrix: (Units=GPa)
#
#
# Indices 1 2 3 4 5 6 
#
# 1 103.6115 14.1134 18.8930 0.0000 0.0000 0.0000
# 2 14.1134 86.0698 7.1014 0.0000 0.0000 0.0000
# 3 18.8930 7.1014 95.6494 0.0000 0.0000 0.0000
# 4 0.0000 0.0000 0.0000 -2.7499 0.0000 0.0000
# 5 0.0000 0.0000 0.0000 0.0000 -785.7631 0.0000
# 6 0.0000 0.0000 0.0000 0.0000 0.0000 32.5314
#
#
#
# Elastic Compliance Matrix: (Units=1/GPa)
#
#
# Indices 1 2 3 4 5 6 
#
# 1 0.010205 -0.001516 -0.001903 0.000000 0.000000 0.000000
# 2 -0.001516 0.011915 -0.000585 0.000000 0.000000 0.000000
# 3 -0.001903 -0.000585 0.010874 0.000000 0.000000 0.000000
# 4 0.000000 0.000000 0.000000 -0.363655 0.000000 0.000000
# 5 0.000000 0.000000 0.000000 0.000000 -0.001273 0.000000
# 6 0.000000 0.000000 0.000000 0.000000 0.000000 0.030740
#
#
# Mechanical properties :
#
#
# Convention : Reuss Voigt Hill
#
# Bulk Modulus (GPa) = 40.02345 40.61625 40.31985
# Shear Modulus (GPa) = -17.55274 -134.84812 -76.20043
#
# Velocity S-wave (km/s) = -2.83526 -7.85855 -5.90743
# Velocity P-wave (km/s) = 2.75888 7.98381 5.29763
#
# Compressibility (1/GPa) = 0.02498535
#
# Stress axis : x y z
#
# Youngs Moduli (GPa) = 97.99103 83.92497 91.96068
#
# Poissons Ratio (x) = 0.12726 0.17502
# Poissons Ratio (y) = 0.14859 0.05381
# Poissons Ratio (z) = 0.18649 0.04911
#
# Static dielectric constant tensor:
#      x y z
#    x 2.134100 0.000000 0.000000 
#    y 0.000000 4.906270 0.000000 
#    z 0.000000 0.000000 2.068340 
# 
# From -- ./inp_files/18790.got.cif
#   From: 2010.05.17/outbox.cif.g08.bks.cpg/sg21_10_cif.got.tgz:18790.got - 2010.06.03 23:14:55.
