data_PCOD9325163
_publ_section_title
;
Structure prediction by ZEFSAII (Michael W. Deem and Ramdas Pophale) SiO2 
 PCOD9325163
Probable space group: C 2 2 2
;
_chemical_formula_sum "Si O2"
_cell_formula_units_Z 24
_cell_length_a 8.608013
_cell_length_b 4.976186
_cell_length_c 22.940557
_cell_angle_alpha 90.000000
_cell_angle_beta 90.000000
_cell_angle_gamma 90.000000
_cell_volume 982.660452
_symmetry_space_group_name_H-M "C 2 2 2"
_symmetry_group_IT_number 21
_symmetry_cell_setting 'orthorhombic'
loop_
_space_group_symop_operation_xyz
x,y,z
-x,-y,z
x,-y,-z
-x,y,-z
1/2+x,1/2+y,z
1/2-x,1/2-y,z
1/2+x,1/2-y,-z
1/2-x,1/2+y,-z
loop_
_atom_site_type_symbol
_atom_site_label
_atom_site_fract_x
_atom_site_fract_y
_atom_site_fract_z
Si Si1 0.500000 0.500000 0.500000
Si Si2 0.000000 0.000000 0.750804
Si Si3 0.500000 0.000000 0.082988
Si Si4 0.250000 0.250000 0.413540
Si Si5 0.000000 0.000000 0.000000
Si Si6 0.000000 0.500000 0.666625
Si Si7 0.250000 0.750000 0.833073
O O1 0.384549 0.349990 0.456383
O O2 0.974426 0.750869 0.708448
O O3 0.145345 0.935614 0.791905
O O4 0.361215 0.086848 0.124355
O O5 0.554735 0.264595 0.045866
O O6 0.153918 0.451597 0.372204
#
# Coordination Sequence:
#
# PCOD9325163 Si02
#       7
#     2   4   4   4   2   4   4
#     4  12  26  48  76 112 152 200 254 314 380 454
#     4  12  30  52  80 116 156 204 258 318 384 458
#     4  11  27  50  79 114 155 204 257 317 384 458
#     4  12  27  48  78 112 154 202 255 316 382 456
#     4  10  26  50  80 114 156 202 258 316 384 456
#     4  12  29  51  79 114 155 203 257 318 384 458
#     4  12  29  52  80 114 156 204 257 318 384 458
#
# _framework density 24.423494000000002
#
# number of rings (size 3 to 8) (size 9 to 14) (size 15 to 20)
#    0.000    0.333    0.000    6.000    0.000   26.667 
#    0.000    0.000    0.000    0.000    0.000    0.000 
#    0.000    0.000    0.000    0.000    0.000    0.000 
#
# Total GULP energy -67171.084199 kJ/mol
# GULP energy per Si atom -5597.590350 kJ/mol
# Density = 2.436790 g / cm^3
# Si number density = 24.423494 Si / 1000 Ang^3
#
#
#
# Elastic Constant Matrix: (Units=GPa)
#
#
# Indices 1 2 3 4 5 6 
#
# 1 211.0811 91.7659 118.4636 0.0000 0.0000 0.0000
# 2 91.7659 204.6740 123.0002 0.0000 0.0000 0.0000
# 3 118.4636 123.0002 215.3196 0.0000 0.0000 0.0000
# 4 0.0000 0.0000 0.0000 9.9376 0.0000 0.0000
# 5 0.0000 0.0000 0.0000 0.0000 24.0843 0.0000
# 6 0.0000 0.0000 0.0000 0.0000 0.0000 52.7654
#
#
#
# Elastic Compliance Matrix: (Units=1/GPa)
#
#
# Indices 1 2 3 4 5 6 
#
# 1 0.007063 -0.001266 -0.003163 0.000000 0.000000 0.000000
# 2 -0.001266 0.007667 -0.003683 0.000000 0.000000 0.000000
# 3 -0.003163 -0.003683 0.008488 0.000000 0.000000 0.000000
# 4 0.000000 0.000000 0.000000 0.100628 0.000000 0.000000
# 5 0.000000 0.000000 0.000000 0.000000 0.041521 0.000000
# 6 0.000000 0.000000 0.000000 0.000000 0.000000 0.018952
#
#
# Mechanical properties :
#
#
# Convention : Reuss Voigt Hill
#
# Bulk Modulus (GPa) = 142.97134 144.17046 143.57090
# Shear Modulus (GPa) = 24.64594 37.21379 30.92987
#
# Velocity S-wave (km/s) = 3.18009 3.90768 3.56251
# Velocity P-wave (km/s) = 8.49409 8.91726 8.70824
#
# Compressibility (1/GPa) = 0.00699441
#
# Stress axis : x y z
#
# Youngs Moduli (GPa) = 141.58625 130.43198 117.81112
#
# Poissons Ratio (x) = 0.16514 0.37259
# Poissons Ratio (y) = 0.17926 0.43391
# Poissons Ratio (z) = 0.44778 0.48039
#
# Static dielectric constant tensor:
#      x y z
#    x 1.879860 0.000000 0.000000 
#    y 0.000000 1.925290 0.000000 
#    z 0.000000 0.000000 1.918200 
# 
# From -- ./inp_files/38382.got.cif
#   From: 2010.05.17/outbox.cif.g08.bks.cpg/sg21_20_cif.got.tgz:38382.got - 2010.06.03 23:14:55.
