data_PCOD9325554
_publ_section_title
;
Structure prediction by ZEFSAII (Michael W. Deem and Ramdas Pophale) SiO2 
 PCOD9325554
Probable space group: C 2 2 2
;
_chemical_formula_sum "Si O2"
_cell_formula_units_Z 40
_cell_length_a 7.795999
_cell_length_b 26.493313
_cell_length_c 10.092542
_cell_angle_alpha 90.000000
_cell_angle_beta 90.000000
_cell_angle_gamma 90.000000
_cell_volume 2084.532212
_symmetry_space_group_name_H-M "C 2 2 2"
_symmetry_group_IT_number 21
_symmetry_cell_setting 'orthorhombic'
loop_
_space_group_symop_operation_xyz
x,y,z
-x,-y,z
x,-y,-z
-x,y,-z
1/2+x,1/2+y,z
1/2-x,1/2-y,z
1/2+x,1/2-y,-z
1/2-x,1/2+y,-z
loop_
_atom_site_type_symbol
_atom_site_label
_atom_site_fract_x
_atom_site_fract_y
_atom_site_fract_z
Si Si1 0.299831 0.370334 0.231516
Si Si2 0.998633 0.440320 0.339638
Si Si3 0.313232 0.370676 0.723450
Si Si4 0.203204 0.692370 0.521204
Si Si5 0.202706 0.308938 0.977732
O O1 0.159855 0.412526 0.270666
O O2 0.493630 0.388501 0.252831
O O3 0.257466 0.324988 0.333351
O O4 0.284941 0.345721 0.087165
O O5 0.000000 0.500000 0.316342
O O6 0.000000 0.432340 0.500000
O O7 0.827408 0.414675 0.282202
O O8 0.300769 0.342403 0.583398
O O9 0.258685 0.330247 0.835277
O O10 0.250000 0.750000 0.498127
O O11 0.000000 0.685588 0.500000
O O12 0.250000 0.250000 0.992522
O O13 0.000000 0.313138 0.000000
#
# Coordination Sequence:
#
# PCOD9325554 Si02
#       5
#     8   8   8   8   8
#     4  12  23  42  64  95 132 169 218 273 323 391
#     4  11  24  45  71  99 131 173 223 283 338 377
#     4  12  23  42  64  95 132 169 218 273 323 391
#     4  12  22  38  60  92 129 171 216 266 324 391
#     4  12  24  42  64  96 137 179 216 262 326 397
#
# _framework density 19.188956999999998
#
# number of rings (size 3 to 8) (size 9 to 14) (size 15 to 20)
#    0.000    0.200    6.000    4.800    0.000    0.800 
#    0.000    4.000    0.000    2.400    0.000    0.000 
#    0.000    0.000    0.000    0.000    0.000    0.000 
#
# Total GULP energy -111887.252661 kJ/mol
# GULP energy per Si atom -5594.362633 kJ/mol
# Density = 1.914528 g / cm^3
# Si number density = 19.188957 Si / 1000 Ang^3
#
#
#
# Elastic Constant Matrix: (Units=GPa)
#
#
# Indices 1 2 3 4 5 6 
#
# 1 163.6923 45.6721 -5.7292 0.0000 0.0000 0.0000
# 2 45.6721 132.8806 1.2744 0.0000 0.0000 0.0000
# 3 -5.7292 1.2744 42.9668 0.0000 0.0000 0.0000
# 4 0.0000 0.0000 0.0000 28.9371 0.0000 0.0000
# 5 0.0000 0.0000 0.0000 0.0000 26.8463 0.0000
# 6 0.0000 0.0000 0.0000 0.0000 0.0000 16.4470
#
#
#
# Elastic Compliance Matrix: (Units=1/GPa)
#
#
# Indices 1 2 3 4 5 6 
#
# 1 0.006798 -0.002346 0.000976 0.000000 0.000000 0.000000
# 2 -0.002346 0.008337 -0.000560 0.000000 0.000000 0.000000
# 3 0.000976 -0.000560 0.023421 0.000000 0.000000 0.000000
# 4 0.000000 0.000000 0.000000 0.034558 0.000000 0.000000
# 5 0.000000 0.000000 0.000000 0.000000 0.037249 0.000000
# 6 0.000000 0.000000 0.000000 0.000000 0.000000 0.060801
#
#
# Mechanical properties :
#
#
# Convention : Reuss Voigt Hill
#
# Bulk Modulus (GPa) = 28.82202 46.88601 37.85402
# Shear Modulus (GPa) = 26.79692 34.33424 30.56558
#
# Velocity S-wave (km/s) = 3.74100 4.23457 3.99541
# Velocity P-wave (km/s) = 5.80627 6.95670 6.40736
#
# Compressibility (1/GPa) = 0.03469569
#
# Stress axis : x y z
#
# Youngs Moduli (GPa) = 147.10897 119.94458 42.69758
#
# Poissons Ratio (x) = 0.28136 -0.04167
# Poissons Ratio (y) = 0.34508 0.02391
# Poissons Ratio (z) = -0.14358 0.06718
#
# Static dielectric constant tensor:
#      x y z
#    x 1.592260 0.000000 0.000000 
#    y 0.000000 1.622620 0.000000 
#    z 0.000000 0.000000 1.654660 
# 
# From -- ./inp_files/11331.got.cif
#   From: 2010.05.17/outbox.cif.g08.bks.cpg/sg21_6_cif.got.tgz:11331.got - 2010.06.03 23:14:55.
