data_PCOD9325399
_publ_section_title
;
Structure prediction by ZEFSAII (Michael W. Deem and Ramdas Pophale) SiO2 
 PCOD9325399
Probable space group: C 2 2 2
;
_chemical_formula_sum "Si O2"
_cell_formula_units_Z 36
_cell_length_a 12.618984
_cell_length_b 14.329710
_cell_length_c 8.774886
_cell_angle_alpha 90.000000
_cell_angle_beta 90.000000
_cell_angle_gamma 90.000000
_cell_volume 1586.730881
_symmetry_space_group_name_H-M "C 2 2 2"
_symmetry_group_IT_number 21
_symmetry_cell_setting 'orthorhombic'
loop_
_space_group_symop_operation_xyz
x,y,z
-x,-y,z
x,-y,-z
-x,y,-z
1/2+x,1/2+y,z
1/2-x,1/2-y,z
1/2+x,1/2-y,-z
1/2-x,1/2+y,-z
loop_
_atom_site_type_symbol
_atom_site_label
_atom_site_fract_x
_atom_site_fract_y
_atom_site_fract_z
Si Si1 0.778244 0.938903 0.131087
Si Si2 0.644021 0.312046 0.624283
Si Si3 0.250000 0.250000 0.957144
Si Si4 0.584991 0.254977 0.305365
Si Si5 0.381178 0.039002 0.658943
O O1 0.844307 0.905023 0.276724
O O2 0.685454 0.002757 0.199175
O O3 0.735525 0.842904 0.056598
O O4 0.833471 0.000000 0.000000
O O5 0.750000 0.250000 0.637095
O O6 0.621909 0.321323 0.444018
O O7 0.541747 0.260895 0.696999
O O8 0.350855 0.271135 0.848880
O O9 0.614916 0.149864 0.351898
O O10 0.500000 0.000000 0.672890
O O11 0.336836 0.000000 0.500000
#
# Coordination Sequence:
#
# PCOD9325399 Si02
#       5
#     8   8   4   8   8
#     4  12  26  45  70 106 151 196 235 308 362 447
#     4  11  22  45  77 106 144 195 245 299 372 434
#     4  12  26  46  68 104 158 192 238 294 376 428
#     4  11  24  45  76 107 142 198 246 303 363 445
#     4  11  23  42  71 110 142 181 253 311 363 435
#
# _framework density 22.688158000000001
#
# number of rings (size 3 to 8) (size 9 to 14) (size 15 to 20)
#    0.000    0.667    4.444    5.333    0.000    1.333 
#    4.000    2.222    0.000    5.333    0.000    0.000 
#    0.000    0.000    0.000    0.000    0.000    0.000 
#
# Total GULP energy -100707.039311 kJ/mol
# GULP energy per Si atom -5594.835517 kJ/mol
# Density = 2.263652 g / cm^3
# Si number density = 22.688158 Si / 1000 Ang^3
#
#
#
# Elastic Constant Matrix: (Units=GPa)
#
#
# Indices 1 2 3 4 5 6 
#
# 1 104.5868 7.0532 23.6487 0.0000 0.0000 0.0000
# 2 7.0532 88.2478 40.9358 0.0000 0.0000 0.0000
# 3 23.6487 40.9358 97.7431 0.0000 0.0000 0.0000
# 4 0.0000 0.0000 0.0000 46.6954 0.0000 0.0000
# 5 0.0000 0.0000 0.0000 0.0000 0.2740 0.0000
# 6 0.0000 0.0000 0.0000 0.0000 0.0000 23.1962
#
#
#
# Elastic Compliance Matrix: (Units=1/GPa)
#
#
# Indices 1 2 3 4 5 6 
#
# 1 0.010127 0.000406 -0.002620 0.000000 0.000000 0.000000
# 2 0.000406 0.014080 -0.005995 0.000000 0.000000 0.000000
# 3 -0.002620 -0.005995 0.013376 0.000000 0.000000 0.000000
# 4 0.000000 0.000000 0.000000 0.021415 0.000000 0.000000
# 5 0.000000 0.000000 0.000000 0.000000 3.649100 0.000000
# 6 0.000000 0.000000 0.000000 0.000000 0.000000 0.043111
#
#
# Mechanical properties :
#
#
# Convention : Reuss Voigt Hill
#
# Bulk Modulus (GPa) = 47.25029 48.20589 47.72809
# Shear Modulus (GPa) = 1.32461 28.62912 14.97687
#
# Velocity S-wave (km/s) = 0.76492 3.55611 2.57206
# Velocity P-wave (km/s) = 4.65310 6.17693 5.46836
#
# Compressibility (1/GPa) = 0.02116389
#
# Stress axis : x y z
#
# Youngs Moduli (GPa) = 98.75079 71.02129 74.76247
#
# Poissons Ratio (x) = -0.02884 0.19589
# Poissons Ratio (y) = -0.04010 0.44822
# Poissons Ratio (z) = 0.25874 0.42579
#
# Static dielectric constant tensor:
#      x y z
#    x 1.839010 0.000000 0.000000 
#    y 0.000000 1.829180 0.000000 
#    z 0.000000 0.000000 1.896300 
# 
# From -- ./inp_files/14406.got.cif
#   From: 2010.05.17/outbox.cif.g08.bks.cpg/sg21_8_cif.got.tgz:14406.got - 2010.06.03 23:14:55.
