data_PCOD9325117
_publ_section_title
;
Structure prediction by ZEFSAII (Michael W. Deem and Ramdas Pophale) SiO2 
 PCOD9325117
Probable space group: C 2 2 2
;
_chemical_formula_sum "Si O2"
_cell_formula_units_Z 22
_cell_length_a 16.042223
_cell_length_b 5.068235
_cell_length_c 11.412677
_cell_angle_alpha 90.000000
_cell_angle_beta 90.000000
_cell_angle_gamma 90.000000
_cell_volume 927.916332
_symmetry_space_group_name_H-M "C 2 2 2"
_symmetry_group_IT_number 21
_symmetry_cell_setting 'orthorhombic'
loop_
_space_group_symop_operation_xyz
x,y,z
-x,-y,z
x,-y,-z
-x,y,-z
1/2+x,1/2+y,z
1/2-x,1/2-y,z
1/2+x,1/2-y,-z
1/2-x,1/2+y,-z
loop_
_atom_site_type_symbol
_atom_site_label
_atom_site_fract_x
_atom_site_fract_y
_atom_site_fract_z
Si Si1 0.000000 0.000000 0.500000
Si Si2 0.811466 0.995245 0.868006
Si Si3 0.191842 0.500000 0.500000
Si Si4 0.419051 0.158595 0.694953
O O1 0.053094 0.183675 0.581244
O O2 0.750000 0.250000 0.848087
O O3 0.750000 0.750000 0.868633
O O4 0.881100 0.883195 0.779117
O O5 0.847754 0.000000 0.000000
O O6 0.250000 0.750000 0.480043
O O7 0.144473 0.537050 0.626250
O O8 0.500000 0.000000 0.742850
#
# Coordination Sequence:
#
# PCOD9325117 Si02
#       4
#     2   8   4   8
#     4  12  24  44  70 108 164 186 250 300 410 458
#     4  10  25  50  81 110 149 204 268 321 380 460
#     4  12  26  44  71 113 154 200 258 304 396 470
#     4  12  26  45  75 113 161 201 251 329 388 467
#
# _framework density 23.709035
#
# number of rings (size 3 to 8) (size 9 to 14) (size 15 to 20)
#    0.000    0.727    3.636    2.182    5.091    5.818 
#    0.000    0.909    0.000    0.000    0.000    0.000 
#    0.000    0.000    0.000    0.000    0.000    0.000 
#
# Total GULP energy -61368.194990 kJ/mol
# GULP energy per Si atom -5578.926817 kJ/mol
# Density = 2.365507 g / cm^3
# Si number density = 23.709035 Si / 1000 Ang^3
#
#
#
# Elastic Constant Matrix: (Units=GPa)
#
#
# Indices 1 2 3 4 5 6 
#
# 1 95.0934 40.5250 78.8135 0.0000 0.0000 0.0000
# 2 40.5250 135.9380 58.0837 0.0000 0.0000 0.0000
# 3 78.8135 58.0837 172.2085 0.0000 0.0000 0.0000
# 4 0.0000 0.0000 0.0000 42.7545 0.0000 0.0000
# 5 0.0000 0.0000 0.0000 0.0000 12.7750 0.0000
# 6 0.0000 0.0000 0.0000 0.0000 0.0000 -30.6923
#
#
#
# Elastic Compliance Matrix: (Units=1/GPa)
#
#
# Indices 1 2 3 4 5 6 
#
# 1 0.017436 -0.002089 -0.007275 0.000000 0.000000 0.000000
# 2 -0.002089 0.008845 -0.002027 0.000000 0.000000 0.000000
# 3 -0.007275 -0.002027 0.009820 0.000000 0.000000 0.000000
# 4 0.000000 0.000000 0.000000 0.023389 0.000000 0.000000
# 5 0.000000 0.000000 0.000000 0.000000 0.078278 0.000000
# 6 0.000000 0.000000 0.000000 0.000000 0.000000 -0.032582
#
#
# Mechanical properties :
#
#
# Convention : Reuss Voigt Hill
#
# Bulk Modulus (GPa) = 75.08522 84.23160 79.65841
# Shear Modulus (GPa) = 37.76151 20.02196 28.89174
#
# Velocity S-wave (km/s) = 3.99520 2.90916 3.49463
# Velocity P-wave (km/s) = 7.28151 6.84753 7.06785
#
# Compressibility (1/GPa) = 0.01331820
#
# Stress axis : x y z
#
# Youngs Moduli (GPa) = 57.35260 113.05377 101.83100
#
# Poissons Ratio (x) = 0.23622 0.74083
# Poissons Ratio (y) = 0.11983 0.20643
# Poissons Ratio (z) = 0.41725 0.22918
#
# Static dielectric constant tensor:
#      x y z
#    x 2.639620 0.000000 0.000000 
#    y 0.000000 1.920330 0.000000 
#    z 0.000000 0.000000 2.132760 
# 
# From -- ./inp_files/24564.got.cif
#   From: 2010.05.17/outbox.cif.g08.bks.cpg/sg21_13_cif.got.tgz:24564.got - 2010.06.03 23:14:55.
