data_PCOD9325772
_publ_section_title
;
Structure prediction by ZEFSAII (Michael W. Deem and Ramdas Pophale) SiO2 
 PCOD9325772
Probable space group: C 2 2 2
;
_chemical_formula_sum "Si O2"
_cell_formula_units_Z 32
_cell_length_a 14.215646
_cell_length_b 14.424537
_cell_length_c 6.729188
_cell_angle_alpha 90.000000
_cell_angle_beta 90.000000
_cell_angle_gamma 90.000000
_cell_volume 1379.847668
_symmetry_space_group_name_H-M "C 2 2 2"
_symmetry_group_IT_number 21
_symmetry_cell_setting 'orthorhombic'
loop_
_space_group_symop_operation_xyz
x,y,z
-x,-y,z
x,-y,-z
-x,y,-z
1/2+x,1/2+y,z
1/2-x,1/2-y,z
1/2+x,1/2-y,-z
1/2-x,1/2+y,-z
loop_
_atom_site_type_symbol
_atom_site_label
_atom_site_fract_x
_atom_site_fract_y
_atom_site_fract_z
Si Si1 0.106121 0.275316 0.561822
Si Si2 0.750000 0.250000 0.784570
Si Si3 0.350730 0.031086 0.722733
Si Si4 0.000000 0.500000 0.000000
Si Si5 0.331888 0.621575 0.131187
Si Si6 0.500000 0.500000 0.000000
O O1 0.170404 0.288822 0.365770
O O2 0.103422 0.366364 0.702191
O O3 0.154508 0.195517 0.692869
O O4 0.000000 0.251697 0.500000
O O5 0.700709 0.324653 0.931274
O O6 0.249465 0.049525 0.812990
O O7 0.340828 0.000000 0.500000
O O8 0.421002 0.964690 0.844155
O O9 0.429402 0.567368 0.115011
#
# Coordination Sequence:
#
# PCOD9325772 Si02
#       6
#     8   4   8   2   8   2
#     4  12  26  46  78 109 149 202 259 322 390 472
#     4  12  24  50  76 106 156 204 254 320 392 478
#     4  12  27  46  71 111 150 199 259 327 395 462
#     4  12  28  42  68 104 148 194 248 324 384 466
#     4  12  27  51  74 114 153 207 260 317 407 468
#     4  12  30  46  82 118 156 212 266 328 394 484
#
# _framework density 23.190964000000001
#
# number of rings (size 3 to 8) (size 9 to 14) (size 15 to 20)
#    0.000    0.000    5.000    4.125   10.500    3.000 
#    0.000    1.250    0.000    0.000    0.000    0.000 
#    0.000    0.000    0.000    0.000    0.000    0.000 
#
# Total GULP energy -89437.391634 kJ/mol
# GULP energy per Si atom -5589.836977 kJ/mol
# Density = 2.313818 g / cm^3
# Si number density = 23.190964 Si / 1000 Ang^3
#
#
#
# Elastic Constant Matrix: (Units=GPa)
#
#
# Indices 1 2 3 4 5 6 
#
# 1 207.9444 39.8856 74.3900 0.0000 0.0000 0.0000
# 2 39.8856 76.9007 41.6032 0.0000 0.0000 0.0000
# 3 74.3900 41.6032 147.1694 0.0000 0.0000 0.0000
# 4 0.0000 0.0000 0.0000 7.4249 0.0000 0.0000
# 5 0.0000 0.0000 0.0000 0.0000 37.6654 0.0000
# 6 0.0000 0.0000 0.0000 0.0000 0.0000 44.1570
#
#
#
# Elastic Compliance Matrix: (Units=1/GPa)
#
#
# Indices 1 2 3 4 5 6 
#
# 1 0.006065 -0.001756 -0.002569 0.000000 0.000000 0.000000
# 2 -0.001756 0.015860 -0.003596 0.000000 0.000000 0.000000
# 3 -0.002569 -0.003596 0.009110 0.000000 0.000000 0.000000
# 4 0.000000 0.000000 0.000000 0.134682 0.000000 0.000000
# 5 0.000000 0.000000 0.000000 0.000000 0.026550 0.000000
# 6 0.000000 0.000000 0.000000 0.000000 0.000000 0.022646
#
#
# Mechanical properties :
#
#
# Convention : Reuss Voigt Hill
#
# Bulk Modulus (GPa) = 65.81992 82.64133 74.23062
# Shear Modulus (GPa) = 21.20270 36.25850 28.73060
#
# Velocity S-wave (km/s) = 3.02696 3.95837 3.52358
# Velocity P-wave (km/s) = 6.37652 7.52357 6.97367
#
# Compressibility (1/GPa) = 0.01519297
#
# Stress axis : x y z
#
# Youngs Moduli (GPa) = 164.88394 63.05254 109.76764
#
# Poissons Ratio (x) = 0.11070 0.28203
# Poissons Ratio (y) = 0.28948 0.39472
# Poissons Ratio (z) = 0.42364 0.22673
#
# Static dielectric constant tensor:
#      x y z
#    x 2.042100 0.000000 0.000000 
#    y 0.000000 1.963390 0.000000 
#    z 0.000000 0.000000 1.852590 
# 
# From -- ./inp_files/3475.got.cif
#   From: 2010.05.17/outbox.cif.g08.bks.cpg/sg21_2_cif.got.tgz:3475.got - 2010.06.03 23:14:55.
