data_PCOD9325360
_publ_section_title
;
Structure prediction by ZEFSAII (Michael W. Deem and Ramdas Pophale) SiO2 
 PCOD9325360
Probable space group: C 2 2 2
;
_chemical_formula_sum "Si O2"
_cell_formula_units_Z 56
_cell_length_a 10.531204
_cell_length_b 16.357887
_cell_length_c 16.192888
_cell_angle_alpha 90.000000
_cell_angle_beta 90.000000
_cell_angle_gamma 90.000000
_cell_volume 2789.520397
_symmetry_space_group_name_H-M "C 2 2 2"
_symmetry_group_IT_number 21
_symmetry_cell_setting 'orthorhombic'
loop_
_space_group_symop_operation_xyz
x,y,z
-x,-y,z
x,-y,-z
-x,y,-z
1/2+x,1/2+y,z
1/2-x,1/2-y,z
1/2+x,1/2-y,-z
1/2-x,1/2+y,-z
loop_
_atom_site_type_symbol
_atom_site_label
_atom_site_fract_x
_atom_site_fract_y
_atom_site_fract_z
Si Si1 0.389798 0.853520 0.438041
Si Si2 0.198224 0.592698 0.002965
Si Si3 0.013259 0.344942 0.115926
Si Si4 0.900253 0.571727 0.740391
Si Si5 0.100337 0.073365 0.748069
Si Si6 0.103467 0.157593 0.568074
Si Si7 0.066556 0.837572 0.079176
O O1 0.500000 0.878936 0.500000
O O2 0.404311 0.903224 0.354402
O O3 0.243909 0.864192 0.465719
O O4 0.404731 0.756005 0.423277
O O5 0.151855 0.625587 0.913811
O O6 0.247252 0.500000 0.000000
O O7 0.078849 0.594568 0.064859
O O8 0.290204 0.656453 0.047454
O O9 0.960399 0.353835 0.207531
O O10 0.990759 0.252543 0.087760
O O11 0.751719 0.553473 0.759774
O O12 0.000000 0.500000 0.758144
O O13 0.090973 0.120967 0.660327
O O14 0.061208 0.121927 0.831010
O O15 0.000000 0.000000 0.742234
O O16 0.000000 0.131299 0.500000
O O17 0.000000 0.879912 0.000000
#
# Coordination Sequence:
#
# PCOD9325360 Si02
#       7
#     8   8   8   8   8   8   8
#     4   9  19  37  64  97 121 154 205 257 310 376
#     4  11  23  39  62  90 121 159 211 264 317 374
#     4  11  22  40  65  87 116 164 218 256 307 381
#     4  11  23  40  65  89 124 166 208 262 314 372
#     4  11  26  42  60  91 128 165 211 256 319 387
#     4   9  19  40  67  91 122 163 202 252 316 382
#     4  12  26  40  63  90 125 168 210 268 319 377
#
# _framework density 20.075135
#
# number of rings (size 3 to 8) (size 9 to 14) (size 15 to 20)
#    0.000    1.429    2.857    3.000    2.000    2.857 
#    0.000    2.857    0.000    5.143    0.000    0.000 
#    0.000    0.000    0.000    0.000    0.000    0.000 
#
# Total GULP energy -156067.639868 kJ/mol
# GULP energy per Si atom -5573.844281 kJ/mol
# Density = 2.002944 g / cm^3
# Si number density = 20.075135 Si / 1000 Ang^3
#
#
#
# Elastic Constant Matrix: (Units=GPa)
#
#
# Indices 1 2 3 4 5 6 
#
# 1 100.1579 49.5322 75.3850 0.0000 0.0000 0.0000
# 2 49.5322 69.8226 33.9976 0.0000 0.0000 0.0000
# 3 75.3850 33.9976 115.9403 0.0000 0.0000 0.0000
# 4 0.0000 0.0000 0.0000 229.4447 0.0000 0.0000
# 5 0.0000 0.0000 0.0000 0.0000 40.6951 0.0000
# 6 0.0000 0.0000 0.0000 0.0000 0.0000 15.9349
#
#
#
# Elastic Compliance Matrix: (Units=1/GPa)
#
#
# Indices 1 2 3 4 5 6 
#
# 1 0.025924 -0.011879 -0.013373 0.000000 0.000000 0.000000
# 2 -0.011879 0.022151 0.001229 0.000000 0.000000 0.000000
# 3 -0.013373 0.001229 0.016960 0.000000 0.000000 0.000000
# 4 0.000000 0.000000 0.000000 0.004358 0.000000 0.000000
# 5 0.000000 0.000000 0.000000 0.000000 0.024573 0.000000
# 6 0.000000 0.000000 0.000000 0.000000 0.000000 0.062755
#
#
# Mechanical properties :
#
#
# Convention : Reuss Voigt Hill
#
# Bulk Modulus (GPa) = 58.86417 67.08340 62.97379
# Shear Modulus (GPa) = 23.76083 65.68202 44.72142
#
# Velocity S-wave (km/s) = 3.44407 5.72618 4.72497
# Velocity P-wave (km/s) = 6.72318 8.78678 7.82332
#
# Compressibility (1/GPa) = 0.01698826
#
# Stress axis : x y z
#
# Youngs Moduli (GPa) = 38.57431 45.14481 58.96307
#
# Poissons Ratio (x) = 0.53629 0.78849
# Poissons Ratio (y) = 0.45823 -0.07244
# Poissons Ratio (z) = 0.51584 -0.05546
#
# Static dielectric constant tensor:
#      x y z
#    x 0.976530 0.000000 0.000000 
#    y 0.000000 1.717660 0.000000 
#    z 0.000000 0.000000 1.765250 
# 
# From -- ./inp_files/31587.got.cif
#   From: 2010.05.17/outbox.cif.g08.bks.cpg/sg21_16_cif.got.tgz:31587.got - 2010.06.03 23:14:55.
