data_PCOD9325064
_publ_section_title
;
Structure prediction by ZEFSAII (Michael W. Deem and Ramdas Pophale) SiO2 
 PCOD9325064
Probable space group: C 2 2 2
;
_chemical_formula_sum "Si O2"
_cell_formula_units_Z 42
_cell_length_a 9.026745
_cell_length_b 18.773608
_cell_length_c 11.893563
_cell_angle_alpha 90.000000
_cell_angle_beta 90.000000
_cell_angle_gamma 90.000000
_cell_volume 2015.537565
_symmetry_space_group_name_H-M "C 2 2 2"
_symmetry_group_IT_number 21
_symmetry_cell_setting 'orthorhombic'
loop_
_space_group_symop_operation_xyz
x,y,z
-x,-y,z
x,-y,-z
-x,y,-z
1/2+x,1/2+y,z
1/2-x,1/2-y,z
1/2+x,1/2-y,-z
1/2-x,1/2+y,-z
loop_
_atom_site_type_symbol
_atom_site_label
_atom_site_fract_x
_atom_site_fract_y
_atom_site_fract_z
Si Si1 0.640207 0.315123 0.685798
Si Si2 0.235087 0.432222 0.661896
Si Si3 0.602245 0.786586 0.612010
Si Si4 0.753002 0.057015 0.844343
Si Si5 0.500000 0.000000 0.500000
Si Si6 0.500000 0.000000 0.000000
Si Si7 0.500000 0.405701 0.500000
Si Si8 0.000000 0.000000 0.000000
O O1 0.750000 0.250000 0.680763
O O2 0.483871 0.271358 0.689703
O O3 0.710050 0.371909 0.773441
O O4 0.615533 0.360907 0.573645
O O5 0.169969 0.352956 0.682683
O O6 0.244973 0.487525 0.763624
O O7 0.391310 0.438384 0.594603
O O8 0.108271 0.457411 0.578591
O O9 0.500000 0.802826 0.500000
O O10 0.750000 0.750000 0.567208
O O11 0.605980 0.049132 0.921301
O O12 0.893680 0.047203 0.924088
#
# Coordination Sequence:
#
# PCOD9325064 Si02
#       8
#     8   8   8   8   2   2   4   2
#     4  12  26  42  67 105 148 194 233 271 346 430
#     4  12  25  41  67 106 143 193 234 275 342 420
#     4  12  23  42  63 100 158 202 226 267 330 424
#     4  11  26  48  75 100 131 182 241 311 361 420
#     4  12  26  36  64 104 148 178 244 268 316 422
#     4  10  26  54  74  96 128 174 246 336 388 400
#     4  12  24  42  64 103 163 192 216 268 329 437
#     4  10  24  50  78  92 124 166 250 306 372 392
#
# _framework density 20.838114000000001
#
# number of rings (size 3 to 8) (size 9 to 14) (size 15 to 20)
#    0.000    0.381    3.810    4.571    5.333    2.667 
#    0.000    0.952    0.000    0.000    0.000    0.000 
#    0.000    0.000    0.000    0.000    0.000    0.000 
#
# Total GULP energy -117045.072663 kJ/mol
# GULP energy per Si atom -5573.574889 kJ/mol
# Density = 2.079069 g / cm^3
# Si number density = 20.838114 Si / 1000 Ang^3
#
#
#
# Elastic Constant Matrix: (Units=GPa)
#
#
# Indices 1 2 3 4 5 6 
#
# 1 165.5525 65.2447 66.3903 0.0000 0.0000 0.0000
# 2 65.2447 131.6198 72.0393 0.0000 0.0000 0.0000
# 3 66.3903 72.0393 116.9370 0.0000 0.0000 0.0000
# 4 0.0000 0.0000 0.0000-2041.0160 0.0000 0.0000
# 5 0.0000 0.0000 0.0000 0.0000 18.8134 0.0000
# 6 0.0000 0.0000 0.0000 0.0000 0.0000 32.7268
#
#
#
# Elastic Compliance Matrix: (Units=1/GPa)
#
#
# Indices 1 2 3 4 5 6 
#
# 1 0.008260 -0.002305 -0.003270 0.000000 0.000000 0.000000
# 2 -0.002305 0.012106 -0.006149 0.000000 0.000000 0.000000
# 3 -0.003270 -0.006149 0.014196 0.000000 0.000000 0.000000
# 4 0.000000 0.000000 0.000000 -0.000490 0.000000 0.000000
# 5 0.000000 0.000000 0.000000 0.000000 0.053154 0.000000
# 6 0.000000 0.000000 0.000000 0.000000 0.000000 0.030556
#
#
# Mechanical properties :
#
#
# Convention : Reuss Voigt Hill
#
# Bulk Modulus (GPa) = 89.97293 91.27309 90.62301
# Shear Modulus (GPa) = 34.49849 -383.86616 -174.68384
#
# Velocity S-wave (km/s) = 4.07326 -13.58725 -9.16575
# Velocity P-wave (km/s) = 8.08658 14.22164 8.27231
#
# Compressibility (1/GPa) = 0.01111445
#
# Stress axis : x y z
#
# Youngs Moduli (GPa) = 121.06625 82.60447 70.44182
#
# Poissons Ratio (x) = 0.19040 0.23031
# Poissons Ratio (y) = 0.27906 0.43316
# Poissons Ratio (z) = 0.39583 0.50795
#
# Static dielectric constant tensor:
#      x y z
#    x 5.675560 0.000000 0.000000 
#    y 0.000000 1.918170 0.000000 
#    z 0.000000 0.000000 1.767800 
# 
# From -- ./inp_files/22645.got.cif
#   From: 2010.05.17/outbox.cif.g08.bks.cpg/sg21_12_cif.got.tgz:22645.got - 2010.06.03 23:14:55.
