data_PCOD9325065
_publ_section_title
;
Structure prediction by ZEFSAII (Michael W. Deem and Ramdas Pophale) SiO2 
 PCOD9325065
Probable space group: C 2 2 2
;
_chemical_formula_sum "Si O2"
_cell_formula_units_Z 26
_cell_length_a 23.400788
_cell_length_b 7.948897
_cell_length_c 5.500009
_cell_angle_alpha 90.000000
_cell_angle_beta 90.000000
_cell_angle_gamma 90.000000
_cell_volume 1023.059169
_symmetry_space_group_name_H-M "C 2 2 2"
_symmetry_group_IT_number 21
_symmetry_cell_setting 'orthorhombic'
loop_
_space_group_symop_operation_xyz
x,y,z
-x,-y,z
x,-y,-z
-x,y,-z
1/2+x,1/2+y,z
1/2-x,1/2-y,z
1/2+x,1/2-y,-z
1/2-x,1/2+y,-z
loop_
_atom_site_type_symbol
_atom_site_label
_atom_site_fract_x
_atom_site_fract_y
_atom_site_fract_z
Si Si1 0.332792 0.271398 0.159193
Si Si2 0.500000 0.500000 0.500000
Si Si3 0.379060 0.000000 0.500000
Si Si4 0.754315 0.500000 0.000000
Si Si5 0.442589 0.761007 0.144026
O O1 0.291231 0.429690 0.197177
O O2 0.342362 0.151714 0.388605
O O3 0.297989 0.153902 0.966572
O O4 0.393954 0.303184 0.040523
O O5 0.460287 0.618388 0.335895
O O6 0.418160 0.920468 0.289552
O O7 0.500000 0.800128 0.000000
#
# Coordination Sequence:
#
# PCOD9325065 Si02
#       5
#     8   2   4   4   8
#     4  11  25  50  77 113 156 205 258 327 379 466
#     4  12  30  46  78 114 146 206 258 316 418 464
#     4  12  26  49  79 120 149 216 259 308 412 466
#     4  10  24  52  74 106 166 202 254 334 374 438
#     4  12  28  49  76 113 155 198 258 330 389 469
#
# _framework density 25.413975000000001
#
# number of rings (size 3 to 8) (size 9 to 14) (size 15 to 20)
#    0.000    0.615    3.077    2.308    8.615    9.231 
#   11.077    0.000    0.000    0.000    0.000    0.000 
#    0.000    0.000    0.000    0.000    0.000    0.000 
#
# Total GULP energy -72783.148626 kJ/mol
# GULP energy per Si atom -5598.703740 kJ/mol
# Density = 2.535613 g / cm^3
# Si number density = 25.413975 Si / 1000 Ang^3
#
#
#
# Elastic Constant Matrix: (Units=GPa)
#
#
# Indices 1 2 3 4 5 6 
#
# 1 195.7098 39.0738 56.4940 0.0000 0.0000 0.0000
# 2 39.0738 78.6424 37.4625 0.0000 0.0000 0.0000
# 3 56.4940 37.4625 106.9308 0.0000 0.0000 0.0000
# 4 0.0000 0.0000 0.0000 36.5802 0.0000 0.0000
# 5 0.0000 0.0000 0.0000 0.0000 -9.9622 0.0000
# 6 0.0000 0.0000 0.0000 0.0000 0.0000 58.8281
#
#
#
# Elastic Compliance Matrix: (Units=1/GPa)
#
#
# Indices 1 2 3 4 5 6 
#
# 1 0.006243 -0.001837 -0.002654 0.000000 0.000000 0.000000
# 2 -0.001837 0.015804 -0.004566 0.000000 0.000000 0.000000
# 3 -0.002654 -0.004566 0.012354 0.000000 0.000000 0.000000
# 4 0.000000 0.000000 0.000000 0.027337 0.000000 0.000000
# 5 0.000000 0.000000 0.000000 0.000000 -0.100379 0.000000
# 6 0.000000 0.000000 0.000000 0.000000 0.000000 0.016999
#
#
# Mechanical properties :
#
#
# Convention : Reuss Voigt Hill
#
# Bulk Modulus (GPa) = 61.40696 71.92707 66.66701
# Shear Modulus (GPa) = 2630.28951 33.63939 1331.96445
#
# Velocity S-wave (km/s) = 32.20597 3.64216 22.91822
# Velocity P-wave (km/s) = 37.51241 6.78607 26.95581
#
# Compressibility (1/GPa) = 0.01628480
#
# Stress axis : x y z
#
# Youngs Moduli (GPa) = 160.18827 63.27618 80.94552
#
# Poissons Ratio (x) = 0.11625 0.21487
# Poissons Ratio (y) = 0.29429 0.36961
# Poissons Ratio (z) = 0.42522 0.28893
#
# Static dielectric constant tensor:
#      x y z
#    x 1.966410 0.000000 0.000000 
#    y 0.000000 2.067140 0.000000 
#    z 0.000000 0.000000 2.010730 
# 
# From -- ./inp_files/6337.got.cif
#   From: 2010.05.17/outbox.cif.g08.bks.cpg/sg21_4_cif.got.tgz:6337.got - 2010.06.03 23:14:55.
