data_PCOD9325449
_publ_section_title
;
Structure prediction by ZEFSAII (Michael W. Deem and Ramdas Pophale) SiO2 
 PCOD9325449
Probable space group: C 2 2 2
;
_chemical_formula_sum "Si O2"
_cell_formula_units_Z 40
_cell_length_a 13.788058
_cell_length_b 11.924892
_cell_length_c 11.231525
_cell_angle_alpha 90.000000
_cell_angle_beta 90.000000
_cell_angle_gamma 90.000000
_cell_volume 1846.699724
_symmetry_space_group_name_H-M "C 2 2 2"
_symmetry_group_IT_number 21
_symmetry_cell_setting 'orthorhombic'
loop_
_space_group_symop_operation_xyz
x,y,z
-x,-y,z
x,-y,-z
-x,y,-z
1/2+x,1/2+y,z
1/2-x,1/2-y,z
1/2+x,1/2-y,-z
1/2-x,1/2+y,-z
loop_
_atom_site_type_symbol
_atom_site_label
_atom_site_fract_x
_atom_site_fract_y
_atom_site_fract_z
Si Si1 0.694262 0.086109 0.823186
Si Si2 0.610055 0.745608 0.983708
Si Si3 0.000000 0.500000 0.297985
Si Si4 0.750000 0.750000 0.763173
Si Si5 0.152126 0.618832 0.437555
Si Si6 0.671589 0.500000 0.000000
Si Si7 0.750000 0.750000 0.372575
O O1 0.754145 0.145595 0.717813
O O2 0.590907 0.044471 0.776124
O O3 0.670572 0.175949 0.927014
O O4 0.757607 0.991546 0.886541
O O5 0.657460 0.748499 0.852346
O O6 0.500000 0.784403 0.000000
O O7 0.614480 0.614461 0.018583
O O8 0.952526 0.402827 0.378940
O O9 0.774409 0.650425 0.669057
O O10 0.176719 0.500000 0.500000
O O11 0.163792 0.714911 0.537531
#
# Coordination Sequence:
#
# PCOD9325449 Si02
#       7
#     8   8   4   4   8   4   4
#     4  12  25  42  70 103 138 177 228 294 348 407
#     4  12  25  43  67 103 139 181 227 278 352 427
#     4  12  25  43  72 106 134 173 239 300 332 410
#     4  11  23  46  64  98 145 177 218 290 342 403
#     4  11  24  41  67  99 133 181 228 282 344 393
#     4  12  23  43  64  98 142 184 213 270 365 426
#     4  11  23  42  64  94 139 181 220 284 344 395
#
# _framework density 21.660263
#
# number of rings (size 3 to 8) (size 9 to 14) (size 15 to 20)
#    0.000    0.400    6.000    3.000    2.800    0.000 
#    0.000    0.000    0.000    0.000    0.000    0.000 
#    0.000    0.000    0.000    0.000    0.000    0.000 
#
# Total GULP energy -111626.059911 kJ/mol
# GULP energy per Si atom -5581.302996 kJ/mol
# Density = 2.161096 g / cm^3
# Si number density = 21.660263 Si / 1000 Ang^3
#
#
#
# Elastic Constant Matrix: (Units=GPa)
#
#
# Indices 1 2 3 4 5 6 
#
# 1 101.8365 19.6518 40.4507 0.0000 0.0000 0.0000
# 2 19.6518 61.8650 25.2084 0.0000 0.0000 0.0000
# 3 40.4507 25.2084 133.3517 0.0000 0.0000 0.0000
# 4 0.0000 0.0000 0.0000 35.0636 0.0000 0.0000
# 5 0.0000 0.0000 0.0000 0.0000 42.6165 0.0000
# 6 0.0000 0.0000 0.0000 0.0000 0.0000 32.2450
#
#
#
# Elastic Compliance Matrix: (Units=1/GPa)
#
#
# Indices 1 2 3 4 5 6 
#
# 1 0.011489 -0.002415 -0.003028 0.000000 0.000000 0.000000
# 2 -0.002415 0.018021 -0.002674 0.000000 0.000000 0.000000
# 3 -0.003028 -0.002674 0.008923 0.000000 0.000000 0.000000
# 4 0.000000 0.000000 0.000000 0.028520 0.000000 0.000000
# 5 0.000000 0.000000 0.000000 0.000000 0.023465 0.000000
# 6 0.000000 0.000000 0.000000 0.000000 0.000000 0.031013
#
#
# Mechanical properties :
#
#
# Convention : Reuss Voigt Hill
#
# Bulk Modulus (GPa) = 45.05056 51.96390 48.50723
# Shear Modulus (GPa) = 34.46738 36.10117 35.28428
#
# Velocity S-wave (km/s) = 3.99340 4.08695 4.04045
# Velocity P-wave (km/s) = 6.48898 6.80540 6.64907
#
# Compressibility (1/GPa) = 0.02219728
#
# Stress axis : x y z
#
# Youngs Moduli (GPa) = 87.04220 55.49061 112.06926
#
# Poissons Ratio (x) = 0.13404 0.33938
# Poissons Ratio (y) = 0.21025 0.29967
# Poissons Ratio (z) = 0.26359 0.14838
#
# Static dielectric constant tensor:
#      x y z
#    x 1.800640 0.000000 0.000000 
#    y 0.000000 1.831770 0.000000 
#    z 0.000000 0.000000 1.849290 
# 
# From -- ./inp_files/25044.got.cif
#   From: 2010.05.17/outbox.cif.g08.bks.cpg/sg21_13_cif.got.tgz:25044.got - 2010.06.03 23:14:55.
