data_PCOD9325734
_publ_section_title
;
Structure prediction by ZEFSAII (Michael W. Deem and Ramdas Pophale) SiO2 
 PCOD9325734
Probable space group: C 2 2 2
;
_chemical_formula_sum "Si O2"
_cell_formula_units_Z 26
_cell_length_a 24.374866
_cell_length_b 4.769605
_cell_length_c 10.586832
_cell_angle_alpha 90.000000
_cell_angle_beta 90.000000
_cell_angle_gamma 90.000000
_cell_volume 1230.809025
_symmetry_space_group_name_H-M "C 2 2 2"
_symmetry_group_IT_number 21
_symmetry_cell_setting 'orthorhombic'
loop_
_space_group_symop_operation_xyz
x,y,z
-x,-y,z
x,-y,-z
-x,y,-z
1/2+x,1/2+y,z
1/2-x,1/2-y,z
1/2+x,1/2-y,-z
1/2-x,1/2+y,-z
loop_
_atom_site_type_symbol
_atom_site_label
_atom_site_fract_x
_atom_site_fract_y
_atom_site_fract_z
Si Si1 0.351826 0.304167 0.252051
Si Si2 0.250000 0.750000 0.908815
Si Si3 0.095090 0.659060 0.128079
Si Si4 0.000000 0.000000 0.000000
Si Si5 0.290802 0.500000 0.500000
O O1 0.299930 0.167320 0.181255
O O2 0.368784 0.583528 0.177183
O O3 0.329678 0.386230 0.388891
O O4 0.400899 0.080562 0.235160
O O5 0.266377 0.500000 0.000000
O O6 0.114005 0.500000 0.000000
O O7 0.038107 0.802183 0.086423
O O8 0.250000 0.750000 0.456654
#
# Coordination Sequence:
#
# PCOD9325734 Si02
#       5
#     8   4   8   2   4
#     4  12  25  42  67 100 147 184 244 278 340 431
#     4  12  24  36  60  96 144 182 210 290 338 412
#     4  12  24  43  69 109 134 180 228 300 370 422
#     4  12  26  44  78 102 150 176 230 312 388 438
#     4  12  26  48  68  97 148 211 242 276 332 410
#
# _framework density 21.124317000000001
#
# number of rings (size 3 to 8) (size 9 to 14) (size 15 to 20)
#    0.000    0.000    4.615    6.923    2.154    0.000 
#    0.000    0.000    0.000    0.923    8.000    0.000 
#    0.000    0.000    0.000    0.000    0.000    0.000 
#
# Total GULP energy -72680.132764 kJ/mol
# GULP energy per Si atom -5590.779443 kJ/mol
# Density = 2.107624 g / cm^3
# Si number density = 21.124317 Si / 1000 Ang^3
#
#
#
# Elastic Constant Matrix: (Units=GPa)
#
#
# Indices 1 2 3 4 5 6 
#
# 1 96.0726 49.0848 75.4817 0.0000 0.0000 0.0000
# 2 49.0848 139.5227 43.8204 0.0000 0.0000 0.0000
# 3 75.4817 43.8204 128.7848 0.0000 0.0000 0.0000
# 4 0.0000 0.0000 0.0000 28.2417 0.0000 0.0000
# 5 0.0000 0.0000 0.0000 0.0000 80.2122 0.0000
# 6 0.0000 0.0000 0.0000 0.0000 0.0000 51.8905
#
#
#
# Elastic Compliance Matrix: (Units=1/GPa)
#
#
# Indices 1 2 3 4 5 6 
#
# 1 0.021080 -0.003959 -0.011008 0.000000 0.000000 0.000000
# 2 -0.003959 0.008768 -0.000663 0.000000 0.000000 0.000000
# 3 -0.011008 -0.000663 0.014443 0.000000 0.000000 0.000000
# 4 0.000000 0.000000 0.000000 0.035409 0.000000 0.000000
# 5 0.000000 0.000000 0.000000 0.000000 0.012467 0.000000
# 6 0.000000 0.000000 0.000000 0.000000 0.000000 0.019271
#
#
# Mechanical properties :
#
#
# Convention : Reuss Voigt Hill
#
# Bulk Modulus (GPa) = 76.74241 77.90599 77.32420
# Shear Modulus (GPa) = 34.00385 45.13511 39.56948
#
# Velocity S-wave (km/s) = 4.01646 4.62740 4.33271
# Velocity P-wave (km/s) = 7.61033 8.09384 7.85580
#
# Compressibility (1/GPa) = 0.01303060
#
# Stress axis : x y z
#
# Youngs Moduli (GPa) = 47.43772 114.04710 69.23954
#
# Poissons Ratio (x) = 0.45148 0.76221
# Poissons Ratio (y) = 0.18779 0.04592
# Poissons Ratio (z) = 0.52221 0.07564
#
# Static dielectric constant tensor:
#      x y z
#    x 1.766690 0.000000 0.000000 
#    y 0.000000 1.640580 0.000000 
#    z 0.000000 0.000000 1.753970 
# 
# From -- ./inp_files/18054.got.cif
#   From: 2010.05.17/outbox.cif.g08.bks.cpg/sg21_10_cif.got.tgz:18054.got - 2010.06.03 23:14:55.
