data_PCOD9325421
_publ_section_title
;
Structure prediction by ZEFSAII (Michael W. Deem and Ramdas Pophale) SiO2 
 PCOD9325421
Probable space group: C 2 2 2
;
_chemical_formula_sum "Si O2"
_cell_formula_units_Z 48
_cell_length_a 27.400405
_cell_length_b 9.013036
_cell_length_c 8.945268
_cell_angle_alpha 90.000000
_cell_angle_beta 90.000000
_cell_angle_gamma 90.000000
_cell_volume 2209.130870
_symmetry_space_group_name_H-M "C 2 2 2"
_symmetry_group_IT_number 21
_symmetry_cell_setting 'orthorhombic'
loop_
_space_group_symop_operation_xyz
x,y,z
-x,-y,z
x,-y,-z
-x,y,-z
1/2+x,1/2+y,z
1/2-x,1/2-y,z
1/2+x,1/2-y,-z
1/2-x,1/2+y,-z
loop_
_atom_site_type_symbol
_atom_site_label
_atom_site_fract_x
_atom_site_fract_y
_atom_site_fract_z
Si Si1 0.282647 0.000000 0.500000
Si Si2 0.572886 0.643108 0.894773
Si Si3 0.393209 0.429469 0.346956
Si Si4 0.333824 0.823426 0.031512
Si Si5 0.306920 0.761044 0.701536
Si Si6 0.491239 0.321441 0.330627
Si Si7 0.750000 0.250000 0.275213
O O1 0.317854 0.911374 0.613547
O O2 0.252232 0.891931 0.387741
O O3 0.605846 0.558054 0.772826
O O4 0.610649 0.764325 0.955457
O O5 0.527694 0.718427 0.804994
O O6 0.558345 0.500000 0.000000
O O7 0.410846 0.500000 0.500000
O O8 0.340737 0.362278 0.368559
O O9 0.433619 0.307584 0.298803
O O10 0.297222 0.772494 0.165733
O O11 0.315045 0.753565 0.877091
O O12 0.331486 0.000000 0.000000
O O13 0.250000 0.750000 0.676172
O O14 0.500000 0.500000 0.332672
O O15 0.500000 0.263829 0.500000
#
# Coordination Sequence:
#
# PCOD9325421 Si02
#       7
#     4   8   8   8   8   8   4
#     4  12  28  44  70 104 137 191 260 314 360 438
#     4  11  23  39  71 109 138 183 244 301 374 437
#     4  11  23  40  71 106 146 185 240 306 377 431
#     4  12  27  47  68 102 147 200 240 299 377 456
#     4  12  27  44  66 103 147 191 246 302 366 446
#     4   9  17  38  64 105 139 176 229 309 362 429
#     4  12  28  46  74 100 146 200 256 316 372 444
#
# _framework density 21.728002
#
# number of rings (size 3 to 8) (size 9 to 14) (size 15 to 20)
#    0.000    0.833    8.333    0.000    5.833    3.667 
#    0.000    0.000    0.000    2.000    4.333    1.167 
#    0.000    0.000    0.000    0.000    0.000    0.000 
#
# Total GULP energy -133723.451712 kJ/mol
# GULP energy per Si atom -5571.810488 kJ/mol
# Density = 2.167855 g / cm^3
# Si number density = 21.728002 Si / 1000 Ang^3
#
#
#
# Elastic Constant Matrix: (Units=GPa)
#
#
# Indices 1 2 3 4 5 6 
#
# 1 144.4710 22.4292 43.3043 0.0000 0.0000 0.0000
# 2 22.4292 45.5574 23.7632 0.0000 0.0000 0.0000
# 3 43.3043 23.7632 134.1638 0.0000 0.0000 0.0000
# 4 0.0000 0.0000 0.0000 20.8042 0.0000 0.0000
# 5 0.0000 0.0000 0.0000 0.0000 74.7513 0.0000
# 6 0.0000 0.0000 0.0000 0.0000 0.0000 16.0560
#
#
#
# Elastic Compliance Matrix: (Units=1/GPa)
#
#
# Indices 1 2 3 4 5 6 
#
# 1 0.007986 -0.002850 -0.002073 0.000000 0.000000 0.000000
# 2 -0.002850 0.025202 -0.003544 0.000000 0.000000 0.000000
# 3 -0.002073 -0.003544 0.008750 0.000000 0.000000 0.000000
# 4 0.000000 0.000000 0.000000 0.048067 0.000000 0.000000
# 5 0.000000 0.000000 0.000000 0.000000 0.013378 0.000000
# 6 0.000000 0.000000 0.000000 0.000000 0.000000 0.062282
#
#
# Mechanical properties :
#
#
# Convention : Reuss Voigt Hill
#
# Bulk Modulus (GPa) = 39.99318 55.90953 47.95135
# Shear Modulus (GPa) = 26.18714 37.96866 32.07790
#
# Velocity S-wave (km/s) = 3.47540 4.18479 3.84648
# Velocity P-wave (km/s) = 5.87799 7.00981 6.46870
#
# Compressibility (1/GPa) = 0.02500426
#
# Stress axis : x y z
#
# Youngs Moduli (GPa) = 125.22542 39.67914 114.28239
#
# Poissons Ratio (x) = 0.11310 0.23687
# Poissons Ratio (y) = 0.35694 0.40499
# Poissons Ratio (z) = 0.25955 0.14061
#
# Static dielectric constant tensor:
#      x y z
#    x 1.879520 0.000000 0.000000 
#    y 0.000000 1.895180 0.000000 
#    z 0.000000 0.000000 1.864290 
# 
# From -- ./inp_files/19699.got.cif
#   From: 2010.05.17/outbox.cif.g08.bks.cpg/sg21_10_cif.got.tgz:19699.got - 2010.06.03 23:14:55.
