data_PCOD9326760
_publ_section_title
;
Structure prediction by ZEFSAII (Michael W. Deem and Ramdas Pophale) SiO2 
 PCOD9326760
Probable space group: F 2 2 2
;
_chemical_formula_sum "Si O2"
_cell_formula_units_Z 64
_cell_length_a 9.919224
_cell_length_b 13.888486
_cell_length_c 21.502408
_cell_angle_alpha 90.000000
_cell_angle_beta 90.000000
_cell_angle_gamma 90.000000
_cell_volume 2962.236312
_symmetry_space_group_name_H-M "F 2 2 2"
_symmetry_group_IT_number 22
_symmetry_cell_setting 'orthorhombic'
loop_
_space_group_symop_operation_xyz
x,y,z
-x,-y,z
x,-y,-z
-x,y,-z
x,1/2+y,1/2+z
-x,1/2-y,1/2+z
x,1/2-y,1/2-z
-x,1/2+y,1/2-z
1/2+x,y,1/2+z
1/2-x,-y,1/2+z
1/2+x,-y,1/2-z
1/2-x,y,1/2-z
1/2+x,1/2+y,z
1/2-x,1/2-y,z
1/2+x,1/2-y,-z
1/2-x,1/2+y,-z
loop_
_atom_site_type_symbol
_atom_site_label
_atom_site_fract_x
_atom_site_fract_y
_atom_site_fract_z
Si Si1 0.540762 0.613303 0.931616
Si Si2 0.174515 0.649967 0.668607
Si Si3 0.943510 0.636738 0.754416
Si Si4 0.760661 0.942057 0.650043
O O1 0.500000 0.500000 0.928171
O O2 0.447545 0.664394 0.880725
O O3 0.697143 0.610408 0.910340
O O4 0.500000 0.647305 0.000000
O O5 0.250000 0.750000 0.673187
O O6 0.257039 0.557329 0.645062
O O7 0.097236 0.624259 0.732966
O O8 0.914340 0.750000 0.750000
O O9 0.898179 0.598149 0.821275
O O10 0.851285 0.583979 0.703023
#
# Coordination Sequence:
#
# PCOD9326760 Si02
#       4
#    16  16  16  16
#     4   8  15  32  57  80 106 145 190 232 273 325
#     4  10  21  34  51  80 113 147 185 225 279 337
#     4  10  20  34  51  75 108 144 184 228 277 333
#     4   9  18  34  53  77 108 144 184 224 276 335
#
# _framework density 21.605297
#
# number of rings (size 3 to 8) (size 9 to 14) (size 15 to 20)
#    0.000    2.750    0.000    3.750    0.000    6.500 
#    0.000    5.000    0.000    0.000    0.000    0.000 
#    0.000    2.000    0.000    1.000    0.000    0.000 
#
# Total GULP energy -89317.764265 kJ/mol
# GULP energy per Si atom -5582.360267 kJ/mol
# Density = 2.155612 g / cm^3
# Si number density = 21.605297 Si / 1000 Ang^3
#
#
#
# Elastic Constant Matrix: (Units=GPa)
#
#
# Indices 1 2 3 4 5 6 
#
# 1 94.1967 34.1240 45.3972 0.0000 0.0000 0.0000
# 2 34.1240 111.6467 15.4320 0.0000 0.0000 0.0000
# 3 45.3972 15.4320 110.8944 0.0000 0.0000 0.0000
# 4 0.0000 0.0000 0.0000 13.1461 0.0000 0.0000
# 5 0.0000 0.0000 0.0000 0.0000 29.4654 0.0000
# 6 0.0000 0.0000 0.0000 0.0000 0.0000 31.6568
#
#
#
# Elastic Compliance Matrix: (Units=1/GPa)
#
#
# Indices 1 2 3 4 5 6 
#
# 1 0.014588 -0.003704 -0.005456 0.000000 0.000000 0.000000
# 2 -0.003704 0.010073 0.000115 0.000000 0.000000 0.000000
# 3 -0.005456 0.000115 0.011235 0.000000 0.000000 0.000000
# 4 0.000000 0.000000 0.000000 0.076068 0.000000 0.000000
# 5 0.000000 0.000000 0.000000 0.000000 0.033938 0.000000
# 6 0.000000 0.000000 0.000000 0.000000 0.000000 0.031589
#
#
# Mechanical properties :
#
#
# Convention : Reuss Voigt Hill
#
# Bulk Modulus (GPa) = 56.16675 56.29381 56.23028
# Shear Modulus (GPa) = 24.81168 29.63929 27.22549
#
# Velocity S-wave (km/s) = 3.39249 3.70787 3.55368
# Velocity P-wave (km/s) = 6.43417 6.66657 6.55140
#
# Compressibility (1/GPa) = 0.01780413
#
# Stress axis : x y z
#
# Youngs Moduli (GPa) = 68.55097 99.27326 89.00524
#
# Poissons Ratio (x) = 0.36775 0.48564
# Poissons Ratio (y) = 0.25394 -0.01021
# Poissons Ratio (z) = 0.37404 -0.01139
#
# Static dielectric constant tensor:
#      x y z
#    x 1.895660 0.000000 0.000000 
#    y 0.000000 1.781760 0.000000 
#    z 0.000000 0.000000 1.851790 
# 
# From -- ./inp_files/47884.got.cif
#   From: 2010.05.17/outbox.cif.g08.bks.cpg/sg22_24_cif.got.tgz:47884.got - 2010.06.03 23:40:54.
