data_PCOD9326833
_publ_section_title
;
Structure prediction by ZEFSAII (Michael W. Deem and Ramdas Pophale) SiO2 
 PCOD9326833
Probable space group: F 2 2 2
;
_chemical_formula_sum "Si O2"
_cell_formula_units_Z 112
_cell_length_a 15.455960
_cell_length_b 11.132056
_cell_length_c 29.060737
_cell_angle_alpha 90.000000
_cell_angle_beta 90.000000
_cell_angle_gamma 90.000000
_cell_volume 5000.091958
_symmetry_space_group_name_H-M "F 2 2 2"
_symmetry_group_IT_number 22
_symmetry_cell_setting 'orthorhombic'
loop_
_space_group_symop_operation_xyz
x,y,z
-x,-y,z
x,-y,-z
-x,y,-z
x,1/2+y,1/2+z
-x,1/2-y,1/2+z
x,1/2-y,1/2-z
-x,1/2+y,1/2-z
1/2+x,y,1/2+z
1/2-x,-y,1/2+z
1/2+x,-y,1/2-z
1/2-x,y,1/2-z
1/2+x,1/2+y,z
1/2-x,1/2-y,z
1/2+x,1/2-y,-z
1/2-x,1/2+y,-z
loop_
_atom_site_type_symbol
_atom_site_label
_atom_site_fract_x
_atom_site_fract_y
_atom_site_fract_z
Si Si1 0.407116 0.634350 0.026118
Si Si2 0.500018 0.133926 0.161057
Si Si3 0.156543 0.937962 0.606355
Si Si4 0.065657 0.111761 0.153731
Si Si5 0.758373 0.104480 0.802576
Si Si6 0.669505 0.377332 0.938620
Si Si7 0.653419 0.800743 0.896975
O O1 0.363665 0.511526 0.045621
O O2 0.404144 0.717189 0.070629
O O3 0.500000 0.624142 0.000000
O O4 0.347690 0.690555 0.986097
O O5 0.440512 0.106168 0.115549
O O6 0.462294 0.262317 0.178116
O O7 0.596956 0.173142 0.148223
O O8 0.500000 0.000000 0.184586
O O9 0.192433 0.943054 0.659098
O O10 0.232946 0.870803 0.579749
O O11 0.158980 0.066687 0.582344
O O12 0.147735 0.064278 0.181269
O O13 0.105782 0.147491 0.104052
O O14 0.000000 0.000000 0.149154
O O15 0.750000 0.067850 0.750000
O O16 0.750000 0.250000 0.805015
O O17 0.750000 0.750000 0.890447
#
# Coordination Sequence:
#
# PCOD9326833 Si02
#       7
#    16  16  16  16  16  16  16
#     4  11  21  38  56  91 127 171 226 301 341 386
#     4  10  22  39  61  91 131 176 218 272 340 416
#     4  10  21  41  64  95 127 179 223 274 347 427
#     4  11  21  38  68 106 127 172 233 279 339 417
#     4  10  21  41  72 104 137 167 219 288 357 430
#     4  10  20  35  62  90 129 164 227 286 339 394
#     4  11  22  40  61  88 129 185 234 277 345 416
#
# _framework density 22.399588000000001
#
# number of rings (size 3 to 8) (size 9 to 14) (size 15 to 20)
#    0.000    1.571    2.857    3.429    2.000    0.000 
#    5.143    2.143    0.000    1.286    0.000    1.000 
#    0.000    0.000    0.000    0.000    0.000    0.000 
#
# Total GULP energy -155904.436981 kJ/mol
# GULP energy per Si atom -5568.015606 kJ/mol
# Density = 2.234861 g / cm^3
# Si number density = 22.399588 Si / 1000 Ang^3
#
#
#
# Elastic Constant Matrix: (Units=GPa)
#
#
# Indices 1 2 3 4 5 6 
#
# 1 117.4495 -1.6764 -6.4464 0.0000 0.0000 0.0000
# 2 -1.6764 79.3470 -17.6414 0.0000 0.0000 0.0000
# 3 -6.4464 -17.6414 55.6408 0.0000 0.0000 0.0000
# 4 0.0000 0.0000 0.0000 7.4167 0.0000 0.0000
# 5 0.0000 0.0000 0.0000 0.0000 2.4816 0.0000
# 6 0.0000 0.0000 0.0000 0.0000 0.0000 32.8268
#
#
#
# Elastic Compliance Matrix: (Units=1/GPa)
#
#
# Indices 1 2 3 4 5 6 
#
# 1 0.008583 0.000433 0.001132 0.000000 0.000000 0.000000
# 2 0.000433 0.013580 0.004356 0.000000 0.000000 0.000000
# 3 0.001132 0.004356 0.019485 0.000000 0.000000 0.000000
# 4 0.000000 0.000000 0.000000 0.134830 0.000000 0.000000
# 5 0.000000 0.000000 0.000000 0.000000 0.402971 0.000000
# 6 0.000000 0.000000 0.000000 0.000000 0.000000 0.030463
#
#
# Mechanical properties :
#
#
# Convention : Reuss Voigt Hill
#
# Bulk Modulus (GPa) = 18.69551 22.32320 20.50936
# Shear Modulus (GPa) = 8.11819 27.09179 17.60499
#
# Velocity S-wave (km/s) = 1.90581 3.48153 2.80652
# Velocity P-wave (km/s) = 3.63419 5.11360 4.43600
#
# Compressibility (1/GPa) = 0.05348876
#
# Stress axis : x y z
#
# Youngs Moduli (GPa) = 116.51501 73.63504 51.32247
#
# Poissons Ratio (x) = -0.03188 -0.05808
# Poissons Ratio (y) = -0.05044 -0.22356
# Poissons Ratio (z) = -0.13185 -0.32075
#
# Static dielectric constant tensor:
#      x y z
#    x 1.904320 0.000000 0.000000 
#    y 0.000000 1.964900 0.000000 
#    z 0.000000 0.000000 1.856610 
# 
# From -- ./inp_files/56467.got.cif
#   From: 2010.05.17/outbox.cif.g08.bks.cpg/sg22_29_cif.got.tgz:56467.got - 2010.06.03 23:40:54.
