data_PCOD9326566
_publ_section_title
;
Structure prediction by ZEFSAII (Michael W. Deem and Ramdas Pophale) SiO2 
 PCOD9326566
Probable space group: F 2 2 2
;
_chemical_formula_sum "Si O2"
_cell_formula_units_Z 104
_cell_length_a 8.903425
_cell_length_b 19.384816
_cell_length_c 29.292915
_cell_angle_alpha 90.000000
_cell_angle_beta 90.000000
_cell_angle_gamma 90.000000
_cell_volume 5055.700974
_symmetry_space_group_name_H-M "F 2 2 2"
_symmetry_group_IT_number 22
_symmetry_cell_setting 'orthorhombic'
loop_
_space_group_symop_operation_xyz
x,y,z
-x,-y,z
x,-y,-z
-x,y,-z
x,1/2+y,1/2+z
-x,1/2-y,1/2+z
x,1/2-y,1/2-z
-x,1/2+y,1/2-z
1/2+x,y,1/2+z
1/2-x,-y,1/2+z
1/2+x,-y,1/2-z
1/2-x,y,1/2-z
1/2+x,1/2+y,z
1/2-x,1/2-y,z
1/2+x,1/2-y,-z
1/2-x,1/2+y,-z
loop_
_atom_site_type_symbol
_atom_site_label
_atom_site_fract_x
_atom_site_fract_y
_atom_site_fract_z
Si Si1 0.687109 0.921521 0.143067
Si Si2 0.383629 0.796397 0.614938
Si Si3 0.335518 0.128107 0.600452
Si Si4 0.639539 0.039506 0.314564
Si Si5 0.750000 0.342488 0.250000
Si Si6 0.574774 0.318193 0.336546
Si Si7 0.178668 0.508640 0.050901
O O1 0.801674 0.857302 0.142642
O O2 0.525602 0.887667 0.155094
O O3 0.729753 0.983425 0.177282
O O4 0.707746 0.954494 0.092260
O O5 0.250000 0.750000 0.592812
O O6 0.518395 0.829231 0.584876
O O7 0.471827 0.745031 0.648441
O O8 0.397183 0.070405 0.635706
O O9 0.217511 0.172978 0.629931
O O10 0.236740 0.083937 0.565685
O O11 0.668904 0.105150 0.284143
O O12 0.500000 0.000000 0.294580
O O13 0.634337 0.307385 0.285139
O O14 0.000000 0.500000 0.047332
O O15 0.243105 0.500000 0.000000
#
# Coordination Sequence:
#
# PCOD9326566 Si02
#       7
#    16  16  16  16   8  16  16
#     4  10  20  38  63  92 123 167 211 254 331 401
#     4  10  21  38  63  84 118 168 223 260 304 389
#     4  10  19  37  61  89 121 164 208 249 323 394
#     4  10  20  34  57  83 121 155 199 263 325 385
#     4  10  24  34  59  88 119 156 214 274 318 370
#     4  10  21  39  61  86 119 169 219 260 314 383
#     4  10  20  36  66 104 135 161 202 274 333 392
#
# _framework density 20.570837000000001
#
# number of rings (size 3 to 8) (size 9 to 14) (size 15 to 20)
#    0.000    2.000    3.077    0.462    2.154    0.000 
#    0.000    7.692    0.000   12.923    0.000    0.000 
#    0.000    0.000    0.000    0.000    0.000    0.000 
#
# Total GULP energy -144798.812268 kJ/mol
# GULP energy per Si atom -5569.185087 kJ/mol
# Density = 2.052402 g / cm^3
# Si number density = 20.570837 Si / 1000 Ang^3
#
#
#
# Elastic Constant Matrix: (Units=GPa)
#
#
# Indices 1 2 3 4 5 6 
#
# 1 119.6089 49.7972 20.7741 0.0000 0.0000 0.0000
# 2 49.7972 96.9292 30.1013 0.0000 0.0000 0.0000
# 3 20.7741 30.1013 91.6144 0.0000 0.0000 0.0000
# 4 0.0000 0.0000 0.0000 -42.0367 0.0000 0.0000
# 5 0.0000 0.0000 0.0000 0.0000 3.4590 0.0000
# 6 0.0000 0.0000 0.0000 0.0000 0.0000 53.9005
#
#
#
# Elastic Compliance Matrix: (Units=1/GPa)
#
#
# Indices 1 2 3 4 5 6 
#
# 1 0.010674 -0.005270 -0.000689 0.000000 0.000000 0.000000
# 2 -0.005270 0.014091 -0.003435 0.000000 0.000000 0.000000
# 3 -0.000689 -0.003435 0.012200 0.000000 0.000000 0.000000
# 4 0.000000 0.000000 0.000000 -0.023789 0.000000 0.000000
# 5 0.000000 0.000000 0.000000 0.000000 0.289098 0.000000
# 6 0.000000 0.000000 0.000000 0.000000 0.000000 0.018553
#
#
# Mechanical properties :
#
#
# Convention : Reuss Voigt Hill
#
# Bulk Modulus (GPa) = 55.01173 56.61084 55.81129
# Shear Modulus (GPa) = 14.46448 16.89656 15.68052
#
# Velocity S-wave (km/s) = 2.65458 2.86909 2.76392
# Velocity P-wave (km/s) = 6.01634 6.20929 6.11358
#
# Compressibility (1/GPa) = 0.01817794
#
# Stress axis : x y z
#
# Youngs Moduli (GPa) = 93.68303 70.96778 81.96668
#
# Poissons Ratio (x) = 0.37400 0.05647
# Poissons Ratio (y) = 0.49370 0.28154
# Poissons Ratio (z) = 0.06454 0.24376
#
# Static dielectric constant tensor:
#      x y z
#    x 1.816730 0.000000 0.000000 
#    y 0.000000 1.819700 0.000000 
#    z 0.000000 0.000000 1.786690 
# 
# From -- ./inp_files/13072.got.cif
#   From: 2010.05.17/outbox.cif.g08.bks.cpg/sg22_7_cif.got.tgz:13072.got - 2010.06.03 23:40:54.
