data_PCOD9326852
_publ_section_title
;
Structure prediction by ZEFSAII (Michael W. Deem and Ramdas Pophale) SiO2 
 PCOD9326852
Probable space group: F 2 2 2
;
_chemical_formula_sum "Si O2"
_cell_formula_units_Z 88
_cell_length_a 7.034017
_cell_length_b 26.898992
_cell_length_c 18.433541
_cell_angle_alpha 90.000000
_cell_angle_beta 90.000000
_cell_angle_gamma 90.000000
_cell_volume 3487.772817
_symmetry_space_group_name_H-M "F 2 2 2"
_symmetry_group_IT_number 22
_symmetry_cell_setting 'orthorhombic'
loop_
_space_group_symop_operation_xyz
x,y,z
-x,-y,z
x,-y,-z
-x,y,-z
x,1/2+y,1/2+z
-x,1/2-y,1/2+z
x,1/2-y,1/2-z
-x,1/2+y,1/2-z
1/2+x,y,1/2+z
1/2-x,-y,1/2+z
1/2+x,-y,1/2-z
1/2-x,y,1/2-z
1/2+x,1/2+y,z
1/2-x,1/2-y,z
1/2+x,1/2-y,-z
1/2-x,1/2+y,-z
loop_
_atom_site_type_symbol
_atom_site_label
_atom_site_fract_x
_atom_site_fract_y
_atom_site_fract_z
Si Si1 0.527994 0.444318 0.768041
Si Si2 0.523494 0.336436 0.742915
Si Si3 0.502454 0.705470 0.409344
Si Si4 0.389995 0.921800 0.431829
Si Si5 0.930786 0.689684 0.597470
Si Si6 0.000000 0.884904 0.500000
O O1 0.500000 0.500000 0.738731
O O2 0.750000 0.438357 0.750000
O O3 0.450480 0.393225 0.732072
O O4 0.445378 0.443521 0.851677
O O5 0.750000 0.338299 0.750000
O O6 0.496795 0.301219 0.675764
O O7 0.435838 0.314728 0.815693
O O8 0.281100 0.699523 0.430037
O O9 0.554672 0.762649 0.424471
O O10 0.589406 0.654747 0.441981
O O11 0.500000 0.945497 0.500000
O O12 0.475251 0.865994 0.425408
O O13 0.167157 0.915391 0.457575
#
# Coordination Sequence:
#
# PCOD9326852 Si02
#       6
#    16  16  16  16  16   8
#     4  10  24  45  71 106 135 180 245 319 388 451
#     4  10  21  36  58  91 127 172 225 297 366 426
#     4  10  20  36  56  89 134 173 244 279 341 432
#     4  10  23  44  68  99 150 191 236 302 363 440
#     4   9  20  36  55  90 127 184 230 292 346 412
#     4  10  24  38  64 101 132 202 231 282 362 438
#
# _framework density 25.231000000000002
#
# number of rings (size 3 to 8) (size 9 to 14) (size 15 to 20)
#    0.000    2.182    0.000    1.091    8.909    7.636 
#    0.000    0.000    0.000    1.091    0.000    0.000 
#    0.000    0.000    0.000    0.000    0.000    0.000 
#
# Total GULP energy -122556.842053 kJ/mol
# GULP energy per Si atom -5570.765548 kJ/mol
# Density = 2.517357 g / cm^3
# Si number density = 25.231000 Si / 1000 Ang^3
#
#
#
# Elastic Constant Matrix: (Units=GPa)
#
#
# Indices 1 2 3 4 5 6 
#
# 1 130.9958 15.9410 -8.8678 0.0000 0.0000 0.0000
# 2 15.9410 140.9743 2.7041 0.0000 0.0000 0.0000
# 3 -8.8678 2.7041 124.7600 0.0000 0.0000 0.0000
# 4 0.0000 0.0000 0.0000 -152.0436 0.0000 0.0000
# 5 0.0000 0.0000 0.0000 0.0000 35.8170 0.0000
# 6 0.0000 0.0000 0.0000 0.0000 0.0000 44.7493
#
#
#
# Elastic Compliance Matrix: (Units=1/GPa)
#
#
# Indices 1 2 3 4 5 6 
#
# 1 0.007781 -0.000891 0.000572 0.000000 0.000000 0.000000
# 2 -0.000891 0.007198 -0.000219 0.000000 0.000000 0.000000
# 3 0.000572 -0.000219 0.008061 0.000000 0.000000 0.000000
# 4 0.000000 0.000000 0.000000 -0.006577 0.000000 0.000000
# 5 0.000000 0.000000 0.000000 0.000000 0.027920 0.000000
# 6 0.000000 0.000000 0.000000 0.000000 0.000000 0.022347
#
#
# Mechanical properties :
#
#
# Convention : Reuss Voigt Hill
#
# Bulk Modulus (GPa) = 45.52772 46.25386 45.89079
# Shear Modulus (GPa) = 66.55420 11.50140 39.02780
#
# Velocity S-wave (km/s) = 5.14152 2.13737 3.93723
# Velocity P-wave (km/s) = 7.30277 4.94602 6.23673
#
# Compressibility (1/GPa) = 0.02196464
#
# Stress axis : x y z
#
# Youngs Moduli (GPa) = 128.51847 138.91916 124.05673
#
# Poissons Ratio (x) = 0.12375 -0.07101
# Poissons Ratio (y) = 0.11449 0.02721
# Poissons Ratio (z) = -0.07356 0.03047
#
# Static dielectric constant tensor:
#      x y z
#    x 2.468760 0.000000 0.000000 
#    y 0.000000 1.995380 0.000000 
#    z 0.000000 0.000000 1.890570 
# 
# From -- ./inp_files/35266.got.cif
#   From: 2010.05.17/outbox.cif.g08.bks.cpg/sg22_18_cif.got.tgz:35266.got - 2010.06.03 23:40:54.
