data_PCOD9326565
_publ_section_title
;
Structure prediction by ZEFSAII (Michael W. Deem and Ramdas Pophale) SiO2 
 PCOD9326565
Probable space group: F 2 2 2
;
_chemical_formula_sum "Si O2"
_cell_formula_units_Z 92
_cell_length_a 13.484318
_cell_length_b 20.195439
_cell_length_c 17.118403
_cell_angle_alpha 90.000000
_cell_angle_beta 90.000000
_cell_angle_gamma 90.000000
_cell_volume 4661.712976
_symmetry_space_group_name_H-M "F 2 2 2"
_symmetry_group_IT_number 22
_symmetry_cell_setting 'orthorhombic'
loop_
_space_group_symop_operation_xyz
x,y,z
-x,-y,z
x,-y,-z
-x,y,-z
x,1/2+y,1/2+z
-x,1/2-y,1/2+z
x,1/2-y,1/2-z
-x,1/2+y,1/2-z
1/2+x,y,1/2+z
1/2-x,-y,1/2+z
1/2+x,-y,1/2-z
1/2-x,y,1/2-z
1/2+x,1/2+y,z
1/2-x,1/2-y,z
1/2+x,1/2-y,-z
1/2-x,1/2+y,-z
loop_
_atom_site_type_symbol
_atom_site_label
_atom_site_fract_x
_atom_site_fract_y
_atom_site_fract_z
Si Si1 0.932829 0.416998 0.638181
Si Si2 0.648529 0.226306 0.661281
Si Si3 0.363931 0.384609 0.660598
Si Si4 0.450583 0.266414 0.582428
Si Si5 0.500000 0.500000 0.000000
Si Si6 0.643782 0.147327 0.337611
Si Si7 0.500000 0.500000 0.276555
O O1 0.866350 0.351908 0.647237
O O2 0.929257 0.457429 0.557811
O O3 0.047280 0.393070 0.637604
O O4 0.927329 0.460765 0.716634
O O5 0.655788 0.250000 0.750000
O O6 0.750000 0.250000 0.620625
O O7 0.547125 0.260426 0.635930
O O8 0.407006 0.339301 0.592053
O O9 0.368067 0.344397 0.743730
O O10 0.246034 0.391433 0.648141
O O11 0.431729 0.449020 0.675138
O O12 0.500000 0.248962 0.500000
O O13 0.368235 0.215133 0.614268
#
# Coordination Sequence:
#
# PCOD9326565 Si02
#       7
#    16  16  16  16   4  16   8
#     4   9  19  36  59  88 122 158 202 249 302 367
#     4  10  21  38  59  87 114 157 206 255 312 355
#     4  10  19  37  60  90 118 154 204 248 302 362
#     4  11  22  35  55  87 120 157 194 258 311 357
#     4  10  20  36  56  84 126 166 190 234 302 368
#     4   9  19  35  63  88 113 150 206 255 301 354
#     4   9  18  35  61  88 121 160 200 252 291 362
#
# _framework density 19.735234999999999
#
# number of rings (size 3 to 8) (size 9 to 14) (size 15 to 20)
#    0.000    2.261    0.000    4.174    4.870    2.783 
#    0.000   19.565    0.000    0.000    0.000    0.000 
#    0.000    0.000    0.000    0.000    0.000    0.000 
#
# Total GULP energy -128113.341423 kJ/mol
# GULP energy per Si atom -5570.145279 kJ/mol
# Density = 1.969032 g / cm^3
# Si number density = 19.735235 Si / 1000 Ang^3
#
#
#
# Elastic Constant Matrix: (Units=GPa)
#
#
# Indices 1 2 3 4 5 6 
#
# 1 91.4080 40.9854 21.3743 0.0000 0.0000 0.0000
# 2 40.9854 103.2318 16.0513 0.0000 0.0000 0.0000
# 3 21.3743 16.0513 46.8147 0.0000 0.0000 0.0000
# 4 0.0000 0.0000 0.0000 23.3922 0.0000 0.0000
# 5 0.0000 0.0000 0.0000 0.0000 5.7999 0.0000
# 6 0.0000 0.0000 0.0000 0.0000 0.0000 23.5693
#
#
#
# Elastic Compliance Matrix: (Units=1/GPa)
#
#
# Indices 1 2 3 4 5 6 
#
# 1 0.014274 -0.004916 -0.004832 0.000000 0.000000 0.000000
# 2 -0.004916 0.011925 -0.001844 0.000000 0.000000 0.000000
# 3 -0.004832 -0.001844 0.024199 0.000000 0.000000 0.000000
# 4 0.000000 0.000000 0.000000 0.042749 0.000000 0.000000
# 5 0.000000 0.000000 0.000000 0.000000 0.172416 0.000000
# 6 0.000000 0.000000 0.000000 0.000000 0.000000 0.042428
#
#
# Mechanical properties :
#
#
# Convention : Reuss Voigt Hill
#
# Bulk Modulus (GPa) = 36.74468 44.25293 40.49880
# Shear Modulus (GPa) = 14.69520 21.42187 18.05854
#
# Velocity S-wave (km/s) = 2.73173 3.29821 3.02825
# Velocity P-wave (km/s) = 5.34874 6.08081 5.72649
#
# Compressibility (1/GPa) = 0.02721483
#
# Stress axis : x y z
#
# Youngs Moduli (GPa) = 70.05800 83.85458 41.32377
#
# Poissons Ratio (x) = 0.41221 0.19966
# Poissons Ratio (y) = 0.34439 0.07622
# Poissons Ratio (z) = 0.33849 0.15466
#
# Static dielectric constant tensor:
#      x y z
#    x 1.812570 0.000000 0.000000 
#    y 0.000000 1.771030 0.000000 
#    z 0.000000 0.000000 1.721060 
# 
# From -- ./inp_files/29434.got.cif
#   From: 2010.05.17/outbox.cif.g08.bks.cpg/sg22_15_cif.got.tgz:29434.got - 2010.06.03 23:40:54.
