data_PCOD9326615
_publ_section_title
;
Structure prediction by ZEFSAII (Michael W. Deem and Ramdas Pophale) SiO2 
 PCOD9326615
Probable space group: F 2 2 2
;
_chemical_formula_sum "Si O2"
_cell_formula_units_Z 64
_cell_length_a 11.816908
_cell_length_b 24.345224
_cell_length_c 11.055900
_cell_angle_alpha 90.000000
_cell_angle_beta 90.000000
_cell_angle_gamma 90.000000
_cell_volume 3180.619601
_symmetry_space_group_name_H-M "F 2 2 2"
_symmetry_group_IT_number 22
_symmetry_cell_setting 'orthorhombic'
loop_
_space_group_symop_operation_xyz
x,y,z
-x,-y,z
x,-y,-z
-x,y,-z
x,1/2+y,1/2+z
-x,1/2-y,1/2+z
x,1/2-y,1/2-z
-x,1/2+y,1/2-z
1/2+x,y,1/2+z
1/2-x,-y,1/2+z
1/2+x,-y,1/2-z
1/2-x,y,1/2-z
1/2+x,1/2+y,z
1/2-x,1/2-y,z
1/2+x,1/2-y,-z
1/2-x,1/2+y,-z
loop_
_atom_site_type_symbol
_atom_site_label
_atom_site_fract_x
_atom_site_fract_y
_atom_site_fract_z
Si Si1 0.655189 0.203657 0.909708
Si Si2 0.713712 0.660414 0.873416
Si Si3 0.953608 0.750000 0.750000
Si Si4 0.130882 0.559252 0.532850
Si Si5 0.750000 0.392625 0.750000
O O1 0.750000 0.250000 0.883552
O O2 0.538656 0.226264 0.854030
O O3 0.680603 0.148217 0.836446
O O4 0.684627 0.188501 0.049580
O O5 0.750000 0.631738 0.750000
O O6 0.624408 0.705505 0.821675
O O7 0.667389 0.613536 0.960002
O O8 0.183694 0.500000 0.500000
O O9 0.164149 0.571979 0.670402
O O10 0.000000 0.555324 0.500000
#
# Coordination Sequence:
#
# PCOD9326615 Si02
#       5
#    16  16   8  16   8
#     4  11  21  38  62  93 130 168 206 245 316 392
#     4  11  26  40  60 101 129 163 217 259 320 391
#     4  12  22  42  64  92 140 174 196 268 316 388
#     4  10  23  42  67  91 120 168 218 267 322 374
#     4  10  19  38  64  96 120 163 218 258 310 390
#
# _framework density 20.121865
#
# number of rings (size 3 to 8) (size 9 to 14) (size 15 to 20)
#    0.000    1.250    2.500    3.375    5.250    3.000 
#    0.000    0.000    0.000    0.000    0.000    0.000 
#    0.000    0.000    0.000    0.000    0.000    0.000 
#
# Total GULP energy -89165.923613 kJ/mol
# GULP energy per Si atom -5572.870226 kJ/mol
# Density = 2.007607 g / cm^3
# Si number density = 20.121865 Si / 1000 Ang^3
#
#
#
# Elastic Constant Matrix: (Units=GPa)
#
#
# Indices 1 2 3 4 5 6 
#
# 1 98.7126 33.9666 51.1912 0.0000 0.0000 0.0000
# 2 33.9666 111.9974 44.8718 0.0000 0.0000 0.0000
# 3 51.1912 44.8718 155.0605 0.0000 0.0000 0.0000
# 4 0.0000 0.0000 0.0000 -7.9624 0.0000 0.0000
# 5 0.0000 0.0000 0.0000 0.0000 30.9984 0.0000
# 6 0.0000 0.0000 0.0000 0.0000 0.0000 39.7209
#
#
#
# Elastic Compliance Matrix: (Units=1/GPa)
#
#
# Indices 1 2 3 4 5 6 
#
# 1 0.012803 -0.002477 -0.003510 0.000000 0.000000 0.000000
# 2 -0.002477 0.010579 -0.002244 0.000000 0.000000 0.000000
# 3 -0.003510 -0.002244 0.008257 0.000000 0.000000 0.000000
# 4 0.000000 0.000000 0.000000 -0.125590 0.000000 0.000000
# 5 0.000000 0.000000 0.000000 0.000000 0.032260 0.000000
# 6 0.000000 0.000000 0.000000 0.000000 0.000000 0.025176
#
#
# Mechanical properties :
#
#
# Convention : Reuss Voigt Hill
#
# Bulk Modulus (GPa) = 65.88376 69.53660 67.71018
# Shear Modulus (GPa) = -333.42241 28.26743 -152.57749
#
# Velocity S-wave (km/s) = -12.88648 3.75215 -8.71730
# Velocity P-wave (km/s) = 13.73323 7.30782 8.22184
#
# Compressibility (1/GPa) = 0.01517825
#
# Stress axis : x y z
#
# Youngs Moduli (GPa) = 78.10762 94.52851 121.10681
#
# Poissons Ratio (x) = 0.23411 0.42509
# Poissons Ratio (y) = 0.19344 0.27173
# Poissons Ratio (z) = 0.27416 0.21210
#
# Static dielectric constant tensor:
#      x y z
#    x 1.732990 0.000000 0.000000 
#    y 0.000000 1.741130 0.000000 
#    z 0.000000 0.000000 1.769410 
# 
# From -- ./inp_files/17945.got.cif
#   From: 2010.05.17/outbox.cif.g08.bks.cpg/sg22_9_cif.got.tgz:17945.got - 2010.06.03 23:40:54.
