data_PCOD9326535
_publ_section_title
;
Structure prediction by ZEFSAII (Michael W. Deem and Ramdas Pophale) SiO2 
 PCOD9326535
Probable space group: F 2 2 2
;
_chemical_formula_sum "Si O2"
_cell_formula_units_Z 108
_cell_length_a 14.746811
_cell_length_b 11.573784
_cell_length_c 26.608045
_cell_angle_alpha 90.000000
_cell_angle_beta 90.000000
_cell_angle_gamma 90.000000
_cell_volume 4541.365470
_symmetry_space_group_name_H-M "F 2 2 2"
_symmetry_group_IT_number 22
_symmetry_cell_setting 'orthorhombic'
loop_
_space_group_symop_operation_xyz
x,y,z
-x,-y,z
x,-y,-z
-x,y,-z
x,1/2+y,1/2+z
-x,1/2-y,1/2+z
x,1/2-y,1/2-z
-x,1/2+y,1/2-z
1/2+x,y,1/2+z
1/2-x,-y,1/2+z
1/2+x,-y,1/2-z
1/2-x,y,1/2-z
1/2+x,1/2+y,z
1/2-x,1/2-y,z
1/2+x,1/2-y,-z
1/2-x,1/2+y,-z
loop_
_atom_site_type_symbol
_atom_site_label
_atom_site_fract_x
_atom_site_fract_y
_atom_site_fract_z
Si Si1 0.898052 0.825352 0.512347
Si Si2 0.895696 0.909468 0.302922
Si Si3 0.174494 0.068325 0.102194
Si Si4 0.648283 0.698244 0.889063
Si Si5 0.250000 0.750000 0.750000
Si Si6 0.590132 0.666786 0.707853
Si Si7 0.747617 0.000000 0.500000
Si Si8 0.866369 0.806014 0.395839
O O1 0.895902 0.729858 0.556303
O O2 0.819574 0.916068 0.528005
O O3 0.868339 0.797374 0.455626
O O4 0.000000 0.867321 0.500000
O O5 0.815828 0.827372 0.284082
O O6 0.925287 0.889040 0.361297
O O7 0.987773 0.869228 0.275949
O O8 0.865592 0.040760 0.296353
O O9 0.111720 0.173836 0.119959
O O10 0.270498 0.129306 0.114638
O O11 0.153366 0.939807 0.120368
O O12 0.183962 0.054101 0.042000
O O13 0.750000 0.750000 0.890068
O O14 0.598490 0.764645 0.844269
O O15 0.630088 0.750000 0.750000
#
# Coordination Sequence:
#
# PCOD9326535 Si02
#       8
#    16  16  16  16   4  16   8  16
#     4  11  23  38  61  97 142 188 236 291 362 427
#     4  11  25  48  76 109 142 186 245 307 367 455
#     4  10  20  37  62  98 133 179 236 291 341 421
#     4  12  24  42  68 104 141 189 243 300 359 444
#     4  12  24  48  82 104 138 188 252 294 354 448
#     4  11  27  50  72 104 149 188 235 317 385 426
#     4  10  19  36  62  92 139 188 236 296 345 422
#     4  10  22  40  65  99 140 182 232 293 354 430
#
# _framework density 23.781395
#
# number of rings (size 3 to 8) (size 9 to 14) (size 15 to 20)
#    0.000    1.185    2.222    3.778    4.148    3.852 
#    0.000    2.963    0.000    0.000    0.000    0.000 
#    0.000    0.000    0.000    0.000    0.000    0.000 
#
# Total GULP energy -150488.579341 kJ/mol
# GULP energy per Si atom -5573.651087 kJ/mol
# Density = 2.372727 g / cm^3
# Si number density = 23.781395 Si / 1000 Ang^3
#
#
#
# Elastic Constant Matrix: (Units=GPa)
#
#
# Indices 1 2 3 4 5 6 
#
# 1 56.8004 32.2830 17.2588 0.0000 0.0000 0.0000
# 2 32.2830 227.8538 68.6088 0.0000 0.0000 0.0000
# 3 17.2588 68.6088 114.3099 0.0000 0.0000 0.0000
# 4 0.0000 0.0000 0.0000 32.6581 0.0000 0.0000
# 5 0.0000 0.0000 0.0000 0.0000 15.9753 0.0000
# 6 0.0000 0.0000 0.0000 0.0000 0.0000 30.6264
#
#
#
# Elastic Compliance Matrix: (Units=1/GPa)
#
#
# Indices 1 2 3 4 5 6 
#
# 1 0.019372 -0.002275 -0.001559 0.000000 0.000000 0.000000
# 2 -0.002275 0.005624 -0.003032 0.000000 0.000000 0.000000
# 3 -0.001559 -0.003032 0.010803 0.000000 0.000000 0.000000
# 4 0.000000 0.000000 0.000000 0.030620 0.000000 0.000000
# 5 0.000000 0.000000 0.000000 0.000000 0.062596 0.000000
# 6 0.000000 0.000000 0.000000 0.000000 0.000000 0.032652
#
#
# Mechanical properties :
#
#
# Convention : Reuss Voigt Hill
#
# Bulk Modulus (GPa) = 45.31698 70.58501 57.95100
# Shear Modulus (GPa) = 27.35872 34.57288 30.96580
#
# Velocity S-wave (km/s) = 3.39547 3.81698 3.61238
# Velocity P-wave (km/s) = 5.87106 7.01220 6.46685
#
# Compressibility (1/GPa) = 0.02206678
#
# Stress axis : x y z
#
# Youngs Moduli (GPa) = 51.61967 177.80540 92.56318
#
# Poissons Ratio (x) = 0.40455 0.14433
# Poissons Ratio (y) = 0.11745 0.28066
# Poissons Ratio (z) = 0.08049 0.53912
#
# Static dielectric constant tensor:
#      x y z
#    x 2.043960 0.000000 0.000000 
#    y 0.000000 1.968590 0.000000 
#    z 0.000000 0.000000 2.019870 
# 
# From -- ./inp_files/56495.got.cif
#   From: 2010.05.17/outbox.cif.g08.bks.cpg/sg22_29_cif.got.tgz:56495.got - 2010.06.03 23:40:54.
