data_PCOD9326733
_publ_section_title
;
Structure prediction by ZEFSAII (Michael W. Deem and Ramdas Pophale) SiO2 
 PCOD9326733
Probable space group: F 2 2 2
;
_chemical_formula_sum "Si O2"
_cell_formula_units_Z 68
_cell_length_a 16.869085
_cell_length_b 16.539670
_cell_length_c 11.111332
_cell_angle_alpha 90.000000
_cell_angle_beta 90.000000
_cell_angle_gamma 90.000000
_cell_volume 3100.162731
_symmetry_space_group_name_H-M "F 2 2 2"
_symmetry_group_IT_number 22
_symmetry_cell_setting 'orthorhombic'
loop_
_space_group_symop_operation_xyz
x,y,z
-x,-y,z
x,-y,-z
-x,y,-z
x,1/2+y,1/2+z
-x,1/2-y,1/2+z
x,1/2-y,1/2-z
-x,1/2+y,1/2-z
1/2+x,y,1/2+z
1/2-x,-y,1/2+z
1/2+x,-y,1/2-z
1/2-x,y,1/2-z
1/2+x,1/2+y,z
1/2-x,1/2-y,z
1/2+x,1/2-y,-z
1/2-x,1/2+y,-z
loop_
_atom_site_type_symbol
_atom_site_label
_atom_site_fract_x
_atom_site_fract_y
_atom_site_fract_z
Si Si1 0.500000 0.500000 0.000000
Si Si2 0.783686 0.157664 0.521490
Si Si3 0.409876 0.843813 0.782868
Si Si4 0.609406 0.872607 0.490016
Si Si5 0.076303 0.706615 0.123912
O O1 0.559644 0.437931 0.063655
O O2 0.750000 0.250000 0.539993
O O3 0.835269 0.131020 0.636317
O O4 0.702254 0.113307 0.494959
O O5 0.847833 0.155132 0.414814
O O6 0.396122 0.750000 0.750000
O O7 0.410416 0.883745 0.651680
O O8 0.493101 0.840962 0.857473
O O9 0.581954 0.782868 0.530896
O O10 0.090289 0.750000 0.250000
#
# Coordination Sequence:
#
# PCOD9326733 Si02
#       5
#     4  16  16  16  16
#     4  12  24  44  56  76 120 168 212 230 272 394
#     4  10  20  32  57  92 122 147 188 258 302 348
#     4  11  18  32  60  91 120 146 194 248 309 348
#     4  11  24  37  59  84 117 164 198 239 294 352
#     4  10  21  33  59  97 125 146 185 248 322 347
#
# _framework density 21.934332999999999
#
# number of rings (size 3 to 8) (size 9 to 14) (size 15 to 20)
#    0.000    1.412    4.706    4.235    3.294    4.235 
#    0.000    0.000   20.706    0.000    0.000    0.000 
#    0.000    0.000    0.000    0.000    0.000    0.000 
#
# Total GULP energy -94716.422786 kJ/mol
# GULP energy per Si atom -5571.554282 kJ/mol
# Density = 2.188441 g / cm^3
# Si number density = 21.934333 Si / 1000 Ang^3
#
#
#
# Elastic Constant Matrix: (Units=GPa)
#
#
# Indices 1 2 3 4 5 6 
#
# 1 240.8150 29.4096 50.2022 0.0000 0.0000 0.0000
# 2 29.4096 25.2482 -11.5970 0.0000 0.0000 0.0000
# 3 50.2022 -11.5970 85.2315 0.0000 0.0000 0.0000
# 4 0.0000 0.0000 0.0000 2.6723 0.0000 0.0000
# 5 0.0000 0.0000 0.0000 0.0000 35.6479 0.0000
# 6 0.0000 0.0000 0.0000 0.0000 0.0000 13.5801
#
#
#
# Elastic Compliance Matrix: (Units=1/GPa)
#
#
# Indices 1 2 3 4 5 6 
#
# 1 0.006420 -0.009830 -0.005119 0.000000 0.000000 0.000000
# 2 -0.009830 0.057297 0.013586 0.000000 0.000000 0.000000
# 3 -0.005119 0.013586 0.016596 0.000000 0.000000 0.000000
# 4 0.000000 0.000000 0.000000 0.374213 0.000000 0.000000
# 5 0.000000 0.000000 0.000000 0.000000 0.028052 0.000000
# 6 0.000000 0.000000 0.000000 0.000000 0.000000 0.073637
#
#
# Mechanical properties :
#
#
# Convention : Reuss Voigt Hill
#
# Bulk Modulus (GPa) = 12.88868 54.14715 33.51791
# Shear Modulus (GPa) = 8.54987 29.26538 18.90763
#
# Velocity S-wave (km/s) = 1.97646 3.65667 2.93919
# Velocity P-wave (km/s) = 3.33126 6.52441 5.18002
#
# Compressibility (1/GPa) = 0.07758749
#
# Stress axis : x y z
#
# Youngs Moduli (GPa) = 155.75984 17.45306 60.25399
#
# Poissons Ratio (x) = 0.17156 0.30844
# Poissons Ratio (y) = 1.53105 -0.81859
# Poissons Ratio (z) = 0.79733 -0.23711
#
# Static dielectric constant tensor:
#      x y z
#    x 1.862460 0.000000 0.000000 
#    y 0.000000 1.846590 0.000000 
#    z 0.000000 0.000000 1.896150 
# 
# From -- ./inp_files/21106.got.cif
#   From: 2010.05.17/outbox.cif.g08.bks.cpg/sg22_11_cif.got.tgz:21106.got - 2010.06.03 23:40:54.
