data_PCOD9326249
_publ_section_title
;
Structure prediction by ZEFSAII (Michael W. Deem and Ramdas Pophale) SiO2 
 PCOD9326249
Probable space group: F 2 2 2
;
_chemical_formula_sum "Si O2"
_cell_formula_units_Z 104
_cell_length_a 25.724105
_cell_length_b 10.271227
_cell_length_c 19.129582
_cell_angle_alpha 90.000000
_cell_angle_beta 90.000000
_cell_angle_gamma 90.000000
_cell_volume 5054.382227
_symmetry_space_group_name_H-M "F 2 2 2"
_symmetry_group_IT_number 22
_symmetry_cell_setting 'orthorhombic'
loop_
_space_group_symop_operation_xyz
x,y,z
-x,-y,z
x,-y,-z
-x,y,-z
x,1/2+y,1/2+z
-x,1/2-y,1/2+z
x,1/2-y,1/2-z
-x,1/2+y,1/2-z
1/2+x,y,1/2+z
1/2-x,-y,1/2+z
1/2+x,-y,1/2-z
1/2-x,y,1/2-z
1/2+x,1/2+y,z
1/2-x,1/2-y,z
1/2+x,1/2-y,-z
1/2-x,1/2+y,-z
loop_
_atom_site_type_symbol
_atom_site_label
_atom_site_fract_x
_atom_site_fract_y
_atom_site_fract_z
Si Si1 0.750000 0.033710 0.250000
Si Si2 0.060202 0.495616 0.172347
Si Si3 0.124715 0.695288 0.084213
Si Si4 0.553949 0.353524 0.531453
Si Si5 0.358571 0.893893 0.719619
Si Si6 0.157438 0.484977 0.579315
Si Si7 0.734129 0.890046 0.903164
O O1 0.737427 0.113439 0.180675
O O2 0.698658 0.949349 0.263802
O O3 0.081984 0.625861 0.133535
O O4 0.060364 0.380013 0.113453
O O5 0.097867 0.470833 0.236940
O O6 0.000000 0.500000 0.193445
O O7 0.143864 0.838434 0.107301
O O8 0.173598 0.596428 0.079719
O O9 0.101032 0.714427 0.007457
O O10 0.554912 0.500000 0.500000
O O11 0.500000 0.297247 0.500000
O O12 0.361280 0.750000 0.750000
O O13 0.364276 0.915114 0.636480
O O14 0.139015 0.500000 0.500000
O O15 0.220812 0.491110 0.577238
O O16 0.750000 0.750000 0.934109
#
# Coordination Sequence:
#
# PCOD9326249 Si02
#       7
#     8  16  16  16  16  16  16
#     4  10  18  38  62  90 128 159 211 254 322 384
#     4  11  21  40  65  96 125 162 215 267 315 383
#     4  10  19  37  66  93 125 167 208 262 324 374
#     4   9  16  32  58  94 124 152 200 256 313 374
#     4  11  25  43  63  92 129 173 213 267 327 386
#     4  10  24  42  61  92 134 169 216 263 324 391
#     4   9  18  34  59  94 122 163 206 254 310 380
#
# _framework density 20.576204000000001
#
# number of rings (size 3 to 8) (size 9 to 14) (size 15 to 20)
#    0.000    2.000    4.615    0.462    2.154    2.462 
#    2.769    3.077    0.000    0.000    0.000    0.000 
#    0.000    0.000    0.000    0.000    0.000    0.000 
#
# Total GULP energy -144832.785712 kJ/mol
# GULP energy per Si atom -5570.491758 kJ/mol
# Density = 2.052937 g / cm^3
# Si number density = 20.576204 Si / 1000 Ang^3
#
#
#
# Elastic Constant Matrix: (Units=GPa)
#
#
# Indices 1 2 3 4 5 6 
#
# 1 121.6880 15.5235 43.7310 0.0000 0.0000 0.0000
# 2 15.5235 58.2350 22.2955 0.0000 0.0000 0.0000
# 3 43.7310 22.2955 141.9266 0.0000 0.0000 0.0000
# 4 0.0000 0.0000 0.0000 15.2280 0.0000 0.0000
# 5 0.0000 0.0000 0.0000 0.0000 27.5105 0.0000
# 6 0.0000 0.0000 0.0000 0.0000 0.0000 2.8935
#
#
#
# Elastic Compliance Matrix: (Units=1/GPa)
#
#
# Indices 1 2 3 4 5 6 
#
# 1 0.009359 -0.001480 -0.002651 0.000000 0.000000 0.000000
# 2 -0.001480 0.018505 -0.002451 0.000000 0.000000 0.000000
# 3 -0.002651 -0.002451 0.008248 0.000000 0.000000 0.000000
# 4 0.000000 0.000000 0.000000 0.065669 0.000000 0.000000
# 5 0.000000 0.000000 0.000000 0.000000 0.036350 0.000000
# 6 0.000000 0.000000 0.000000 0.000000 0.000000 0.345602
#
#
# Mechanical properties :
#
#
# Convention : Reuss Voigt Hill
#
# Bulk Modulus (GPa) = 43.57760 53.88330 48.73045
# Shear Modulus (GPa) = 9.90990 25.14637 17.52813
#
# Velocity S-wave (km/s) = 2.19696 3.49966 2.92184
# Velocity P-wave (km/s) = 5.25929 6.52489 5.92597
#
# Compressibility (1/GPa) = 0.02294757
#
# Stress axis : x y z
#
# Youngs Moduli (GPa) = 106.84514 54.04052 121.24327
#
# Poissons Ratio (x) = 0.07997 0.32146
# Poissons Ratio (y) = 0.15811 0.29716
# Poissons Ratio (z) = 0.28329 0.13245
#
# Static dielectric constant tensor:
#      x y z
#    x 1.784730 0.000000 0.000000 
#    y 0.000000 1.767530 0.000000 
#    z 0.000000 0.000000 1.776370 
# 
# From -- ./inp_files/24685.got.cif
#   From: 2010.05.17/outbox.cif.g08.bks.cpg/sg22_13_cif.got.tgz:24685.got - 2010.06.03 23:40:54.
