data_PCOD9326497
_publ_section_title
;
Structure prediction by ZEFSAII (Michael W. Deem and Ramdas Pophale) SiO2 
 PCOD9326497
Probable space group: F 2 2 2
;
_chemical_formula_sum "Si O2"
_cell_formula_units_Z 112
_cell_length_a 10.926152
_cell_length_b 16.646565
_cell_length_c 31.581223
_cell_angle_alpha 90.000000
_cell_angle_beta 90.000000
_cell_angle_gamma 90.000000
_cell_volume 5744.084408
_symmetry_space_group_name_H-M "F 2 2 2"
_symmetry_group_IT_number 22
_symmetry_cell_setting 'orthorhombic'
loop_
_space_group_symop_operation_xyz
x,y,z
-x,-y,z
x,-y,-z
-x,y,-z
x,1/2+y,1/2+z
-x,1/2-y,1/2+z
x,1/2-y,1/2-z
-x,1/2+y,1/2-z
1/2+x,y,1/2+z
1/2-x,-y,1/2+z
1/2+x,-y,1/2-z
1/2-x,y,1/2-z
1/2+x,1/2+y,z
1/2-x,1/2-y,z
1/2+x,1/2-y,-z
1/2-x,1/2+y,-z
loop_
_atom_site_type_symbol
_atom_site_label
_atom_site_fract_x
_atom_site_fract_y
_atom_site_fract_z
Si Si1 0.107646 0.565335 0.249087
Si Si2 0.809240 0.014708 0.546891
Si Si3 0.610916 0.844334 0.662714
Si Si4 0.992061 0.377772 0.073587
Si Si5 0.885293 0.777673 0.968580
Si Si6 0.099065 0.841741 0.339217
Si Si7 0.402872 0.560786 0.083502
O O1 0.250000 0.534549 0.250000
O O2 0.098284 0.621664 0.290293
O O3 0.088304 0.616514 0.206276
O O4 0.000000 0.500000 0.251180
O O5 0.874657 0.099894 0.555211
O O6 0.755187 0.000000 0.500000
O O7 0.908420 0.944027 0.551025
O O8 0.716465 0.994693 0.584380
O O9 0.755559 0.844674 0.650453
O O10 0.566288 0.752667 0.661662
O O11 0.552499 0.903571 0.628128
O O12 0.934836 0.292222 0.062306
O O13 0.978191 0.385140 0.124072
O O14 0.750000 0.750000 0.984297
O O15 0.872022 0.861549 0.944354
O O16 0.000000 0.786889 0.000000
O O17 0.500000 0.500000 0.063951
#
# Coordination Sequence:
#
# PCOD9326497 Si02
#       7
#    16  16  16  16  16  16  16
#     4  10  22  36  63  94 127 160 201 257 313 380
#     4  11  24  39  61  92 126 162 214 266 323 371
#     4  10  19  40  59  90 125 159 205 258 317 371
#     4  11  21  39  65  90 119 163 207 265 313 373
#     4  12  25  43  65  90 122 168 216 264 319 382
#     4  10  19  35  65  92 117 156 216 257 305 372
#     4  12  26  40  63  89 128 170 209 268 325 382
#
# _framework density 19.498321000000001
#
# number of rings (size 3 to 8) (size 9 to 14) (size 15 to 20)
#    0.000    1.143    4.286    2.571    4.000    1.714 
#    0.000    0.000    0.000    3.429    0.000    0.000 
#    0.000    0.000    0.000    0.000    0.000    0.000 
#
# Total GULP energy -156125.941558 kJ/mol
# GULP energy per Si atom -5575.926484 kJ/mol
# Density = 1.945394 g / cm^3
# Si number density = 19.498321 Si / 1000 Ang^3
#
#
#
# Elastic Constant Matrix: (Units=GPa)
#
#
# Indices 1 2 3 4 5 6 
#
# 1 56.8806 34.4243 17.3912 0.0000 0.0000 0.0000
# 2 34.4243 86.9584 15.1935 0.0000 0.0000 0.0000
# 3 17.3912 15.1935 101.7032 0.0000 0.0000 0.0000
# 4 0.0000 0.0000 0.0000 11.1098 0.0000 0.0000
# 5 0.0000 0.0000 0.0000 0.0000 21.5662 0.0000
# 6 0.0000 0.0000 0.0000 0.0000 0.0000 30.9676
#
#
#
# Elastic Compliance Matrix: (Units=1/GPa)
#
#
# Indices 1 2 3 4 5 6 
#
# 1 0.023840 -0.008959 -0.002738 0.000000 0.000000 0.000000
# 2 -0.008959 0.015175 -0.000735 0.000000 0.000000 0.000000
# 3 -0.002738 -0.000735 0.010411 0.000000 0.000000 0.000000
# 4 0.000000 0.000000 0.000000 0.090011 0.000000 0.000000
# 5 0.000000 0.000000 0.000000 0.000000 0.046369 0.000000
# 6 0.000000 0.000000 0.000000 0.000000 0.000000 0.032292
#
#
# Mechanical properties :
#
#
# Convention : Reuss Voigt Hill
#
# Bulk Modulus (GPa) = 40.71538 42.17336 41.44437
# Shear Modulus (GPa) = 19.90857 24.63094 22.26975
#
# Velocity S-wave (km/s) = 3.19884 3.55806 3.38322
# Velocity P-wave (km/s) = 5.87965 6.20934 6.04674
#
# Compressibility (1/GPa) = 0.02456075
#
# Stress axis : x y z
#
# Youngs Moduli (GPa) = 41.94633 65.89859 96.05635
#
# Poissons Ratio (x) = 0.59039 0.26302
# Poissons Ratio (y) = 0.37580 0.07060
# Poissons Ratio (z) = 0.11486 0.04843
#
# Static dielectric constant tensor:
#      x y z
#    x 1.787270 0.000000 0.000000 
#    y 0.000000 1.676630 0.000000 
#    z 0.000000 0.000000 1.706720 
# 
# From -- ./inp_files/56103.got.cif
#   From: 2010.05.17/outbox.cif.g08.bks.cpg/sg22_29_cif.got.tgz:56103.got - 2010.06.03 23:40:54.
