data_PCOD9326470
_publ_section_title
;
Structure prediction by ZEFSAII (Michael W. Deem and Ramdas Pophale) SiO2 
 PCOD9326470
Probable space group: F 2 2 2
;
_chemical_formula_sum "Si O2"
_cell_formula_units_Z 120
_cell_length_a 27.963070
_cell_length_b 24.593385
_cell_length_c 9.415317
_cell_angle_alpha 90.000000
_cell_angle_beta 90.000000
_cell_angle_gamma 90.000000
_cell_volume 6474.975136
_symmetry_space_group_name_H-M "F 2 2 2"
_symmetry_group_IT_number 22
_symmetry_cell_setting 'orthorhombic'
loop_
_space_group_symop_operation_xyz
x,y,z
-x,-y,z
x,-y,-z
-x,y,-z
x,1/2+y,1/2+z
-x,1/2-y,1/2+z
x,1/2-y,1/2-z
-x,1/2+y,1/2-z
1/2+x,y,1/2+z
1/2-x,-y,1/2+z
1/2+x,-y,1/2-z
1/2-x,y,1/2-z
1/2+x,1/2+y,z
1/2-x,1/2-y,z
1/2+x,1/2-y,-z
1/2-x,1/2+y,-z
loop_
_atom_site_type_symbol
_atom_site_label
_atom_site_fract_x
_atom_site_fract_y
_atom_site_fract_z
Si Si1 0.904590 0.079354 0.605137
Si Si2 0.323600 0.660851 0.553434
Si Si3 0.264517 0.813731 0.407788
Si Si4 0.449479 0.874432 0.366559
Si Si5 0.624127 0.750000 0.250000
Si Si6 0.640010 0.812155 0.736912
Si Si7 0.948522 0.026495 0.323999
Si Si8 0.448852 0.659548 0.823388
O O1 0.851867 0.105680 0.593419
O O2 0.927860 0.062949 0.453847
O O3 0.934812 0.126009 0.683754
O O4 0.911249 0.023264 0.691953
O O5 0.265904 0.659077 0.534022
O O6 0.343050 0.709681 0.654449
O O7 0.339011 0.674081 0.391675
O O8 0.250000 0.834559 0.250000
O O9 0.250000 0.750000 0.413071
O O10 0.321496 0.816464 0.391898
O O11 0.402908 0.851261 0.293996
O O12 0.457465 0.934250 0.307286
O O13 0.493827 0.834637 0.326761
O O14 0.441555 0.874994 0.534224
O O15 0.586535 0.710983 0.166699
O O16 0.624416 0.750000 0.750000
O O17 0.000000 0.000000 0.354570
#
# Coordination Sequence:
#
# PCOD9326470 Si02
#       8
#    16  16  16  16   8  16  16  16
#     4  10  20  36  57  81 116 153 197 249 303 347
#     4  10  19  35  58  84 116 154 191 244 303 354
#     4   9  16  31  55  84 110 139 188 242 284 338
#     4  11  23  37  55  85 117 158 206 244 302 351
#     4  10  22  40  53  80 134 164 189 238 298 380
#     4  11  19  33  58  85 117 152 199 243 290 365
#     4  11  21  36  59  85 113 151 209 255 286 355
#     4  10  23  38  52  83 123 162 194 241 295 365
#
# _framework density 18.532890999999999
#
# number of rings (size 3 to 8) (size 9 to 14) (size 15 to 20)
#    0.000    1.733    5.333    1.600    0.933    0.533 
#    0.000    0.333    0.000    0.000    0.000    7.467 
#    0.000    0.000    0.000    0.000    0.000    0.000 
#
# Total GULP energy -167017.253146 kJ/mol
# GULP energy per Si atom -5567.241772 kJ/mol
# Density = 1.849071 g / cm^3
# Si number density = 18.532891 Si / 1000 Ang^3
#
#
#
# Elastic Constant Matrix: (Units=GPa)
#
#
# Indices 1 2 3 4 5 6 
#
# 1 78.0144 44.7380 32.7639 0.0001 -0.0002 0.0000
# 2 44.7380 71.8566 24.1519 0.0005 -0.0004 -0.0002
# 3 32.7639 24.1519 44.5697 0.0012 -0.0007 -0.0001
# 4 0.0001 0.0005 0.0012 27.6072 -0.0005 -0.0002
# 5 -0.0002 -0.0004 -0.0007 -0.0005 16.9111 0.0000
# 6 0.0000 -0.0002 -0.0001 -0.0002 0.0000 23.4283
#
#
#
# Elastic Compliance Matrix: (Units=1/GPa)
#
#
# Indices 1 2 3 4 5 6 
#
# 1 0.024073 -0.011053 -0.011707 0.000001 0.000000 0.000000
# 2 -0.011053 0.022091 -0.003845 0.000000 0.000000 0.000000
# 3 -0.011707 -0.003845 0.033127 -0.000001 0.000001 0.000000
# 4 0.000001 0.000000 -0.000001 0.036222 0.000001 0.000000
# 5 0.000000 0.000000 0.000001 0.000001 0.059133 0.000000
# 6 0.000000 0.000000 0.000000 0.000000 0.000000 0.042683
#
#
# Mechanical properties :
#
#
# Convention : Reuss Voigt Hill
#
# Bulk Modulus (GPa) = 38.34444 44.19426 41.26935
# Shear Modulus (GPa) = 17.90614 19.77511 18.84063
#
# Velocity S-wave (km/s) = 3.11172 3.27008 3.19188
# Velocity P-wave (km/s) = 5.80045 6.17706 5.99172
#
# Compressibility (1/GPa) = 0.02607940
#
# Stress axis : x y z
#
# Youngs Moduli (GPa) = 41.53969 45.26764 30.18722
#
# Poissons Ratio (x) = 0.50035 0.35340
# Poissons Ratio (y) = 0.45915 0.11608
# Poissons Ratio (z) = 0.48631 0.17407
#
# Static dielectric constant tensor:
#      x y z
#    x 1.743550 0.000000 0.000000 
#    y 0.000000 1.633310 0.000000 
#    z 0.000000 0.000000 1.677060 
# 
# From -- ./inp_files/15055.got.cif
#   From: 2010.05.17/outbox.cif.g08.bks.cpg/sg22_8_cif.got.tgz:15055.got - 2010.06.03 23:40:54.
