data_PCOD9326686
_publ_section_title
;
Structure prediction by ZEFSAII (Michael W. Deem and Ramdas Pophale) SiO2 
 PCOD9326686
Probable space group: F 2 2 2
;
_chemical_formula_sum "Si O2"
_cell_formula_units_Z 96
_cell_length_a 14.490021
_cell_length_b 19.273462
_cell_length_c 14.977755
_cell_angle_alpha 90.000000
_cell_angle_beta 90.000000
_cell_angle_gamma 90.000000
_cell_volume 4182.880612
_symmetry_space_group_name_H-M "F 2 2 2"
_symmetry_group_IT_number 22
_symmetry_cell_setting 'orthorhombic'
loop_
_space_group_symop_operation_xyz
x,y,z
-x,-y,z
x,-y,-z
-x,y,-z
x,1/2+y,1/2+z
-x,1/2-y,1/2+z
x,1/2-y,1/2-z
-x,1/2+y,1/2-z
1/2+x,y,1/2+z
1/2-x,-y,1/2+z
1/2+x,-y,1/2-z
1/2-x,y,1/2-z
1/2+x,1/2+y,z
1/2-x,1/2-y,z
1/2+x,1/2-y,-z
1/2-x,1/2+y,-z
loop_
_atom_site_type_symbol
_atom_site_label
_atom_site_fract_x
_atom_site_fract_y
_atom_site_fract_z
Si Si1 0.183622 0.961018 0.404218
Si Si2 0.455800 0.160669 0.899964
Si Si3 0.316852 0.360206 0.124258
Si Si4 0.626191 0.906599 0.193801
Si Si5 0.877753 0.568243 0.556853
Si Si6 0.002880 0.807776 0.106246
O O1 0.291031 0.952002 0.382939
O O2 0.133089 0.887791 0.404361
O O3 0.179590 0.000000 0.500000
O O4 0.133966 0.016047 0.342039
O O5 0.530127 0.126635 0.833753
O O6 0.441112 0.239543 0.866669
O O7 0.500000 0.158857 0.000000
O O8 0.354195 0.410248 0.201657
O O9 0.208583 0.359518 0.148071
O O10 0.395766 0.301190 0.136832
O O11 0.333035 0.385288 0.023602
O O12 0.907529 0.500000 0.500000
O O13 0.950182 0.615683 0.611661
O O14 0.000000 0.801628 0.000000
#
# Coordination Sequence:
#
# PCOD9326686 Si02
#       6
#    16  16  16  16  16  16
#     4  11  20  38  62  92 122 163 205 258 310 367
#     4  11  21  37  60  87 127 161 206 250 304 385
#     4  10  21  40  59  91 123 158 211 261 318 365
#     4  11  22  37  62  91 124 164 209 262 317 371
#     4  10  19  41  66  89 122 158 209 268 304 372
#     4   9  22  38  60  92 117 165 207 249 314 370
#
# _framework density 22.950690999999999
#
# number of rings (size 3 to 8) (size 9 to 14) (size 15 to 20)
#    0.000    1.667    5.000    0.500    0.000    5.000 
#    6.000    6.667    0.000    0.000    0.000    2.333 
#    0.000    0.000    0.000    0.000    0.000    0.000 
#
# Total GULP energy -133723.664262 kJ/mol
# GULP energy per Si atom -5571.819344 kJ/mol
# Density = 2.289845 g / cm^3
# Si number density = 22.950691 Si / 1000 Ang^3
#
#
#
# Elastic Constant Matrix: (Units=GPa)
#
#
# Indices 1 2 3 4 5 6 
#
# 1 117.4386 63.1087 -9.6589 0.0000 0.0000 0.0000
# 2 63.1087 145.1471 -15.7283 0.0000 0.0000 0.0000
# 3 -9.6589 -15.7283 30.3248 0.0000 0.0000 0.0000
# 4 0.0000 0.0000 0.0000 3.8306 0.0000 0.0000
# 5 0.0000 0.0000 0.0000 0.0000 22.1597 0.0000
# 6 0.0000 0.0000 0.0000 0.0000 0.0000 21.8612
#
#
#
# Elastic Compliance Matrix: (Units=1/GPa)
#
#
# Indices 1 2 3 4 5 6 
#
# 1 0.011146 -0.004727 0.001098 0.000000 0.000000 0.000000
# 2 -0.004727 0.009305 0.003320 0.000000 0.000000 0.000000
# 3 0.001098 0.003320 0.035048 0.000000 0.000000 0.000000
# 4 0.000000 0.000000 0.000000 0.261058 0.000000 0.000000
# 5 0.000000 0.000000 0.000000 0.000000 0.045127 0.000000
# 6 0.000000 0.000000 0.000000 0.000000 0.000000 0.045743
#
#
# Mechanical properties :
#
#
# Convention : Reuss Voigt Hill
#
# Bulk Modulus (GPa) = 18.22097 40.92816 29.57457
# Shear Modulus (GPa) = 11.72781 26.58291 19.15536
#
# Velocity S-wave (km/s) = 2.26298 3.40702 2.89213
# Velocity P-wave (km/s) = 3.84507 5.77484 4.90578
#
# Compressibility (1/GPa) = 0.05488181
#
# Stress axis : x y z
#
# Youngs Moduli (GPa) = 89.72162 107.47364 28.53209
#
# Poissons Ratio (x) = 0.50803 -0.03134
# Poissons Ratio (y) = 0.42411 -0.09474
# Poissons Ratio (z) = -0.09854 -0.35685
#
# Static dielectric constant tensor:
#      x y z
#    x 1.910650 0.000000 0.000000 
#    y 0.000000 2.008290 0.000000 
#    z 0.000000 0.000000 1.880540 
# 
# From -- ./inp_files/38039.got.cif
#   From: 2010.05.17/outbox.cif.g08.bks.cpg/sg22_20_cif.got.tgz:38039.got - 2010.06.03 23:40:54.
