data_PCOD9326399
_publ_section_title
;
Structure prediction by ZEFSAII (Michael W. Deem and Ramdas Pophale) SiO2 
 PCOD9326399
Probable space group: F 2 2 2
;
_chemical_formula_sum "Si O2"
_cell_formula_units_Z 120
_cell_length_a 25.212200
_cell_length_b 20.153784
_cell_length_c 12.131890
_cell_angle_alpha 90.000000
_cell_angle_beta 90.000000
_cell_angle_gamma 90.000000
_cell_volume 6164.470905
_symmetry_space_group_name_H-M "F 2 2 2"
_symmetry_group_IT_number 22
_symmetry_cell_setting 'orthorhombic'
loop_
_space_group_symop_operation_xyz
x,y,z
-x,-y,z
x,-y,-z
-x,y,-z
x,1/2+y,1/2+z
-x,1/2-y,1/2+z
x,1/2-y,1/2-z
-x,1/2+y,1/2-z
1/2+x,y,1/2+z
1/2-x,-y,1/2+z
1/2+x,-y,1/2-z
1/2-x,y,1/2-z
1/2+x,1/2+y,z
1/2-x,1/2-y,z
1/2+x,1/2-y,-z
1/2-x,1/2+y,-z
loop_
_atom_site_type_symbol
_atom_site_label
_atom_site_fract_x
_atom_site_fract_y
_atom_site_fract_z
Si Si1 0.045188 0.619025 0.405330
Si Si2 0.338545 0.745033 0.878039
Si Si3 0.936708 0.755708 0.509485
Si Si4 0.917559 0.597488 0.004244
Si Si5 0.886927 0.000000 0.000000
Si Si6 0.190785 0.891278 0.609550
Si Si7 0.690310 0.598189 0.125087
Si Si8 0.992630 0.071683 0.318093
O O1 0.074879 0.689294 0.421883
O O2 0.079251 0.553140 0.429404
O O3 0.000000 0.618121 0.500000
O O4 0.021365 0.618613 0.282953
O O5 0.326343 0.750000 0.750000
O O6 0.312242 0.812664 0.922353
O O7 0.319689 0.673287 0.917378
O O8 0.401759 0.747651 0.899062
O O9 0.917966 0.828095 0.547297
O O10 0.000000 0.760205 0.500000
O O11 0.945901 0.557773 0.907007
O O12 0.859416 0.578662 0.045491
O O13 0.957676 0.596769 0.109159
O O14 0.850707 0.954138 0.077436
O O15 0.249471 0.918807 0.591259
O O16 0.183495 0.898047 0.742046
O O17 0.000000 0.000000 0.264276
#
# Coordination Sequence:
#
# PCOD9326399 Si02
#       8
#    16  16  16  16   8  16  16  16
#     4  11  25  38  60  85 120 169 202 243 299 366
#     4   9  17  33  59  84 119 150 192 254 313 357
#     4  10  19  34  53  88 118 150 198 240 306 352
#     4  10  21  40  61  91 121 153 198 256 309 358
#     4  12  23  40  54  82 132 157 206 246 294 370
#     4   9  20  35  63  88 114 151 200 258 310 358
#     4  10  20  37  56  89 117 158 201 252 304 360
#     4  11  23  41  61  88 121 163 203 243 301 380
#
# _framework density 19.466390000000001
#
# number of rings (size 3 to 8) (size 9 to 14) (size 15 to 20)
#    0.000    1.867    2.667    2.200    3.733    5.333 
#    2.400    0.000    0.000    0.000    0.000    0.000 
#    0.000    0.000    0.000    0.000    0.000    0.000 
#
# Total GULP energy -167111.177628 kJ/mol
# GULP energy per Si atom -5570.372588 kJ/mol
# Density = 1.942208 g / cm^3
# Si number density = 19.466390 Si / 1000 Ang^3
#
#
#
# Elastic Constant Matrix: (Units=GPa)
#
#
# Indices 1 2 3 4 5 6 
#
# 1 105.0727 12.4924 24.5821 0.0000 0.0000 0.0000
# 2 12.4924 94.8845 12.8375 0.0000 0.0000 0.0000
# 3 24.5821 12.8375 58.8001 0.0000 0.0000 0.0000
# 4 0.0000 0.0000 0.0000 144.0017 0.0000 0.0000
# 5 0.0000 0.0000 0.0000 0.0000 28.9303 0.0000
# 6 0.0000 0.0000 0.0000 0.0000 0.0000 -8.6547
#
#
#
# Elastic Compliance Matrix: (Units=1/GPa)
#
#
# Indices 1 2 3 4 5 6 
#
# 1 0.010611 -0.000821 -0.004257 0.000000 0.000000 0.000000
# 2 -0.000821 0.010923 -0.002042 0.000000 0.000000 0.000000
# 3 -0.004257 -0.002042 0.019232 0.000000 0.000000 0.000000
# 4 0.000000 0.000000 0.000000 0.006944 0.000000 0.000000
# 5 0.000000 0.000000 0.000000 0.000000 0.034566 0.000000
# 6 0.000000 0.000000 0.000000 0.000000 0.000000 -0.115544
#
#
# Mechanical properties :
#
#
# Convention : Reuss Voigt Hill
#
# Bulk Modulus (GPa) = 37.69671 39.84237 38.76954
# Shear Modulus (GPa) = -490.83243 46.77848 -222.02698
#
# Velocity S-wave (km/s) = -15.89625 4.90740 -10.69131
# Velocity P-wave (km/s) = 17.81893 7.25409 11.50853
#
# Compressibility (1/GPa) = 0.02652751
#
# Stress axis : x y z
#
# Youngs Moduli (GPa) = 94.24448 91.54620 51.99653
#
# Poissons Ratio (x) = 0.07517 0.22133
# Poissons Ratio (y) = 0.07738 0.10616
# Poissons Ratio (z) = 0.40117 0.18690
#
# Static dielectric constant tensor:
#      x y z
#    x 1.658700 0.000000 0.000000 
#    y 0.000000 1.757570 0.000000 
#    z 0.000000 0.000000 1.663860 
# 
# From -- ./inp_files/24007.got.cif
#   From: 2010.05.17/outbox.cif.g08.bks.cpg/sg22_13_cif.got.tgz:24007.got - 2010.06.03 23:40:54.
