data_PCOD9326115
_publ_section_title
;
Structure prediction by ZEFSAII (Michael W. Deem and Ramdas Pophale) SiO2 
 PCOD9326115
Probable space group: F 2 2 2
;
_chemical_formula_sum "Si O2"
_cell_formula_units_Z 80
_cell_length_a 9.065062
_cell_length_b 11.201394
_cell_length_c 27.918425
_cell_angle_alpha 90.000000
_cell_angle_beta 90.000000
_cell_angle_gamma 90.000000
_cell_volume 2834.874037
_symmetry_space_group_name_H-M "F 2 2 2"
_symmetry_group_IT_number 22
_symmetry_cell_setting 'orthorhombic'
loop_
_space_group_symop_operation_xyz
x,y,z
-x,-y,z
x,-y,-z
-x,y,-z
x,1/2+y,1/2+z
-x,1/2-y,1/2+z
x,1/2-y,1/2-z
-x,1/2+y,1/2-z
1/2+x,y,1/2+z
1/2-x,-y,1/2+z
1/2+x,-y,1/2-z
1/2-x,y,1/2-z
1/2+x,1/2+y,z
1/2-x,1/2-y,z
1/2+x,1/2-y,-z
1/2-x,1/2+y,-z
loop_
_atom_site_type_symbol
_atom_site_label
_atom_site_fract_x
_atom_site_fract_y
_atom_site_fract_z
Si Si1 0.243868 0.500000 0.000000
Si Si2 0.984301 0.750000 0.750000
Si Si3 0.000000 0.810396 0.000000
Si Si4 0.750000 0.750000 0.666511
Si Si5 0.971562 0.715687 0.390489
Si Si6 0.000000 0.000000 0.422023
Si Si7 0.250000 0.932923 0.750000
Si Si8 0.220516 0.552433 0.857977
O O1 0.131579 0.532576 0.958228
O O2 0.353760 0.390069 0.992946
O O3 0.878898 0.778302 0.705981
O O4 0.099461 0.857616 0.756572
O O5 0.984341 0.752308 0.052807
O O6 0.631944 0.812019 0.630239
O O7 0.879927 0.825321 0.365437
O O8 0.870578 0.598547 0.382038
O O9 0.879972 0.047602 0.382790
O O10 0.238822 0.986426 0.696956
#
# Coordination Sequence:
#
# PCOD9326115 Si02
#       8
#     8   8   8   8  16   8   8  16
#     4  10  24  44  68  92 136 190 222 286 356 440
#     4  10  18  32  60  98 132 168 216 266 348 408
#     4  11  24  42  64 101 136 176 230 285 356 418
#     4  11  20  32  58 102 132 166 210 281 354 396
#     4  11  23  39  65 102 135 173 230 293 344 414
#     4  11  24  46  68  92 130 188 236 273 360 430
#     4  11  18  40  66  92 138 182 227 280 352 419
#     4  11  23  43  67  97 135 186 227 293 351 421
#
# _framework density 28.219950999999998
#
# number of rings (size 3 to 8) (size 9 to 14) (size 15 to 20)
#    0.000    1.200    6.000    1.200    2.800    3.200 
#    0.000    0.000    8.800    0.000    0.000    0.000 
#    0.000    0.000    0.000    0.000    0.000    0.000 
#
# Total GULP energy -111475.365115 kJ/mol
# GULP energy per Si atom -5573.768256 kJ/mol
# Density = 2.815572 g / cm^3
# Si number density = 28.219951 Si / 1000 Ang^3
#
#
#
# Elastic Constant Matrix: (Units=GPa)
#
#
# Indices 1 2 3 4 5 6 
#
# 1 313.0629 67.9782 87.0659 0.0000 0.0000 0.0000
# 2 67.9782 55.0982 19.4981 0.0000 0.0000 0.0000
# 3 87.0659 19.4981 246.6008 0.0000 0.0000 0.0000
# 4 0.0000 0.0000 0.0000 8.8488 0.0000 0.0000
# 5 0.0000 0.0000 0.0000 0.0000 65.0303 0.0000
# 6 0.0000 0.0000 0.0000 0.0000 0.0000 40.9098
#
#
#
# Elastic Compliance Matrix: (Units=1/GPa)
#
#
# Indices 1 2 3 4 5 6 
#
# 1 0.004703 -0.005365 -0.001236 0.000000 0.000000 0.000000
# 2 -0.005365 0.024792 -0.000066 0.000000 0.000000 0.000000
# 3 -0.001236 -0.000066 0.004497 0.000000 0.000000 0.000000
# 4 0.000000 0.000000 0.000000 0.113010 0.000000 0.000000
# 5 0.000000 0.000000 0.000000 0.000000 0.015377 0.000000
# 6 0.000000 0.000000 0.000000 0.000000 0.000000 0.024444
#
#
# Mechanical properties :
#
#
# Convention : Reuss Voigt Hill
#
# Bulk Modulus (GPa) = 48.40929 107.09401 77.75165
# Shear Modulus (GPa) = 24.14950 52.30576 38.22763
#
# Velocity S-wave (km/s) = 2.92851 4.30990 3.68452
# Velocity P-wave (km/s) = 5.35037 7.92459 6.76112
#
# Compressibility (1/GPa) = 0.02065719
#
# Stress axis : x y z
#
# Youngs Moduli (GPa) = 212.63041 40.33585 222.37823
#
# Poissons Ratio (x) = 0.21640 0.27492
# Poissons Ratio (y) = 1.14074 0.01469
# Poissons Ratio (z) = 0.26287 0.00266
#
# Static dielectric constant tensor:
#      x y z
#    x 1.989980 0.000000 0.000000 
#    y 0.000000 3.231730 0.000000 
#    z 0.000000 0.000000 1.957130 
# 
# From -- ./inp_files/13719.got.cif
#   From: 2010.05.17/outbox.cif.g08.bks.cpg/sg22_7_cif.got.tgz:13719.got - 2010.06.03 23:40:54.
