data_PCOD9326962
_publ_section_title
;
Structure prediction by ZEFSAII (Michael W. Deem and Ramdas Pophale) SiO2 
 PCOD9326962
Probable space group: F 2 2 2
;
_chemical_formula_sum "Si O2"
_cell_formula_units_Z 120
_cell_length_a 21.547128
_cell_length_b 26.317107
_cell_length_c 10.696860
_cell_angle_alpha 90.000000
_cell_angle_beta 90.000000
_cell_angle_gamma 90.000000
_cell_volume 6065.740820
_symmetry_space_group_name_H-M "F 2 2 2"
_symmetry_group_IT_number 22
_symmetry_cell_setting 'orthorhombic'
loop_
_space_group_symop_operation_xyz
x,y,z
-x,-y,z
x,-y,-z
-x,y,-z
x,1/2+y,1/2+z
-x,1/2-y,1/2+z
x,1/2-y,1/2-z
-x,1/2+y,1/2-z
1/2+x,y,1/2+z
1/2-x,-y,1/2+z
1/2+x,-y,1/2-z
1/2-x,y,1/2-z
1/2+x,1/2+y,z
1/2-x,1/2-y,z
1/2+x,1/2-y,-z
1/2-x,1/2+y,-z
loop_
_atom_site_type_symbol
_atom_site_label
_atom_site_fract_x
_atom_site_fract_y
_atom_site_fract_z
Si Si1 0.155015 0.935643 0.222834
Si Si2 0.936473 0.646052 0.825369
Si Si3 0.242125 0.593611 0.044701
Si Si4 0.178204 0.190487 0.230121
Si Si5 0.790863 0.796988 0.975779
Si Si6 0.630885 0.250000 0.250000
Si Si7 0.149919 0.033185 0.376733
Si Si8 0.576574 0.630033 0.378259
O O1 0.095613 0.898645 0.242336
O O2 0.197811 0.917056 0.338130
O O3 0.191027 0.926873 0.092471
O O4 0.152249 0.995153 0.259324
O O5 0.909488 0.701805 0.794699
O O6 0.010901 0.644579 0.819030
O O7 0.923322 0.636030 0.972093
O O8 0.247500 0.654437 0.043177
O O9 0.211250 0.565365 0.924502
O O10 0.172478 0.250000 0.250000
O O11 0.250000 0.174365 0.250000
O O12 0.131587 0.162602 0.319822
O O13 0.163374 0.183513 0.083765
O O14 0.750000 0.750000 0.025101
O O15 0.825480 0.774485 0.856696
O O16 0.095150 0.072307 0.353255
O O17 0.135407 0.000000 0.500000
#
# Coordination Sequence:
#
# PCOD9326962 Si02
#       8
#    16  16  16  16  16   8  16  16
#     4  10  20  39  59  92 132 166 208 283 323 393
#     4  11  23  42  66  95 130 171 231 273 325 392
#     4  10  20  37  59  94 130 162 213 268 327 397
#     4  11  23  41  61  91 134 171 211 263 337 401
#     4  12  23  38  65  95 132 178 210 269 332 406
#     4  12  25  40  66  98 127 182 226 266 338 388
#     4  10  20  39  63  93 127 168 218 272 341 386
#     4  11  24  43  66  95 130 175 222 280 325 403
#
# _framework density 19.783238000000001
#
# number of rings (size 3 to 8) (size 9 to 14) (size 15 to 20)
#    0.000    1.200    5.333    2.600    2.800    0.533 
#   16.800    0.000    0.000    0.000    0.000    0.000 
#    0.000    0.000    0.000    0.000    0.000    0.000 
#
# Total GULP energy -167310.036709 kJ/mol
# GULP energy per Si atom -5577.001224 kJ/mol
# Density = 1.973821 g / cm^3
# Si number density = 19.783238 Si / 1000 Ang^3
#
#
#
# Elastic Constant Matrix: (Units=GPa)
#
#
# Indices 1 2 3 4 5 6 
#
# 1 102.5281 48.2986 21.8388 0.0000 0.0000 0.0000
# 2 48.2986 143.3168 19.0621 0.0000 0.0000 0.0000
# 3 21.8388 19.0621 40.5434 0.0000 0.0000 0.0000
# 4 0.0000 0.0000 0.0000 14.6441 0.0000 0.0000
# 5 0.0000 0.0000 0.0000 0.0000 41.1938 -0.0001
# 6 0.0000 0.0000 0.0000 0.0000 -0.0001 -12.3025
#
#
#
# Elastic Compliance Matrix: (Units=1/GPa)
#
#
# Indices 1 2 3 4 5 6 
#
# 1 0.012500 -0.003538 -0.005070 0.000000 0.000000 0.000000
# 2 -0.003538 0.008445 -0.002064 0.000000 0.000000 0.000000
# 3 -0.005070 -0.002064 0.028366 0.000000 0.000000 0.000000
# 4 0.000000 0.000000 0.000000 0.068287 0.000000 0.000000
# 5 0.000000 0.000000 0.000000 0.000000 0.024275 0.000000
# 6 0.000000 0.000000 0.000000 0.000000 0.000000 -0.081284
#
#
# Mechanical properties :
#
#
# Convention : Reuss Voigt Hill
#
# Bulk Modulus (GPa) = 35.75733 51.64301 43.70017
# Shear Modulus (GPa) = 54.79097 21.85300 38.32199
#
# Velocity S-wave (km/s) = 5.26838 3.32719 4.40602
# Velocity P-wave (km/s) = 7.42439 6.39698 6.92975
#
# Compressibility (1/GPa) = 0.02796629
#
# Stress axis : x y z
#
# Youngs Moduli (GPa) = 79.99953 118.41940 35.25305
#
# Poissons Ratio (x) = 0.41900 0.17872
# Poissons Ratio (y) = 0.28306 0.07278
# Poissons Ratio (z) = 0.40557 0.24447
#
# Static dielectric constant tensor:
#      x y z
#    x 1.718190 0.000000 0.000000 
#    y 0.000000 1.744840 0.000000 
#    z 0.000000 0.000000 2.274610 
# 
# From -- ./inp_files/24094.got.cif
#   From: 2010.05.17/outbox.cif.g08.bks.cpg/sg22_13_cif.got.tgz:24094.got - 2010.06.03 23:40:54.
