data_PCOD9326269
_publ_section_title
;
Structure prediction by ZEFSAII (Michael W. Deem and Ramdas Pophale) SiO2 
 PCOD9326269
Probable space group: F 2 2 2
;
_chemical_formula_sum "Si O2"
_cell_formula_units_Z 88
_cell_length_a 11.173453
_cell_length_b 24.274998
_cell_length_c 15.109959
_cell_angle_alpha 90.000000
_cell_angle_beta 90.000000
_cell_angle_gamma 90.000000
_cell_volume 4098.358028
_symmetry_space_group_name_H-M "F 2 2 2"
_symmetry_group_IT_number 22
_symmetry_cell_setting 'orthorhombic'
loop_
_space_group_symop_operation_xyz
x,y,z
-x,-y,z
x,-y,-z
-x,y,-z
x,1/2+y,1/2+z
-x,1/2-y,1/2+z
x,1/2-y,1/2-z
-x,1/2+y,1/2-z
1/2+x,y,1/2+z
1/2-x,-y,1/2+z
1/2+x,-y,1/2-z
1/2-x,y,1/2-z
1/2+x,1/2+y,z
1/2-x,1/2-y,z
1/2+x,1/2-y,-z
1/2-x,1/2+y,-z
loop_
_atom_site_type_symbol
_atom_site_label
_atom_site_fract_x
_atom_site_fract_y
_atom_site_fract_z
Si Si1 0.921169 0.810007 0.885192
Si Si2 0.000000 0.500000 0.778994
Si Si3 0.500000 0.000000 0.500000
Si Si4 0.239634 0.646243 0.980241
Si Si5 0.250000 0.750000 0.250000
Si Si6 0.000000 0.782993 0.500000
Si Si7 0.621421 0.949701 0.943448
Si Si8 0.595551 0.913768 0.360159
O O1 0.830007 0.790165 0.810402
O O2 0.999213 0.863520 0.860256
O O3 0.849881 0.822133 0.976512
O O4 0.989992 0.754577 0.912481
O O5 0.087763 0.468149 0.846034
O O6 0.072523 0.546263 0.723624
O O7 0.428368 0.042393 0.438327
O O8 0.280649 0.617021 0.888644
O O9 0.119658 0.681795 0.982422
O O10 0.212533 0.599140 0.052021
O O11 0.500000 0.935430 0.000000
O O12 0.671768 0.000000 0.000000
#
# Coordination Sequence:
#
# PCOD9326269 Si02
#       8
#    16   8   4  16   4   8  16  16
#     4  12  25  44  68 102 135 179 241 283 356 411
#     4   9  23  43  69 106 146 172 229 295 339 415
#     4  10  18  40  62  98 146 174 214 276 348 422
#     4  12  22  41  74  98 135 185 233 284 348 425
#     4  12  28  44  72  98 140 182 232 312 334 430
#     4  12  23  44  71  99 136 187 240 284 344 436
#     4   9  21  43  65  96 142 188 220 262 343 436
#     4  11  23  40  69 106 140 176 232 291 349 413
#
# _framework density 21.472014000000001
#
# number of rings (size 3 to 8) (size 9 to 14) (size 15 to 20)
#    0.000    1.273    6.364    0.000    3.818    0.000 
#    0.000    7.273    0.000    1.091    0.000    0.000 
#    0.000    0.000    0.000    0.000    0.000    0.000 
#
# Total GULP energy -122710.620693 kJ/mol
# GULP energy per Si atom -5577.755486 kJ/mol
# Density = 2.142314 g / cm^3
# Si number density = 21.472014 Si / 1000 Ang^3
#
#
#
# Elastic Constant Matrix: (Units=GPa)
#
#
# Indices 1 2 3 4 5 6 
#
# 1 82.1095 52.6434 32.1092 0.0000 0.0000 0.0000
# 2 52.6434 120.8746 43.3833 0.0000 0.0000 0.0000
# 3 32.1092 43.3833 118.6282 0.0000 0.0000 0.0000
# 4 0.0000 0.0000 0.0000 6.3568 0.0000 0.0000
# 5 0.0000 0.0000 0.0000 0.0000 13.5826 0.0000
# 6 0.0000 0.0000 0.0000 0.0000 0.0000 19.2372
#
#
#
# Elastic Compliance Matrix: (Units=1/GPa)
#
#
# Indices 1 2 3 4 5 6 
#
# 1 0.017395 -0.006775 -0.002231 0.000000 0.000000 0.000000
# 2 -0.006775 0.012162 -0.002614 0.000000 0.000000 0.000000
# 3 -0.002231 -0.002614 0.009989 0.000000 0.000000 0.000000
# 4 0.000000 0.000000 0.000000 0.157311 0.000000 0.000000
# 5 0.000000 0.000000 0.000000 0.000000 0.073624 0.000000
# 6 0.000000 0.000000 0.000000 0.000000 0.000000 0.051983
#
#
# Mechanical properties :
#
#
# Convention : Reuss Voigt Hill
#
# Bulk Modulus (GPa) = 61.32367 64.20935 62.76651
# Shear Modulus (GPa) = 14.23939 20.73375 17.48657
#
# Velocity S-wave (km/s) = 2.57798 3.11081 2.85685
# Velocity P-wave (km/s) = 6.12235 6.54763 6.33856
#
# Compressibility (1/GPa) = 0.01630692
#
# Stress axis : x y z
#
# Youngs Moduli (GPa) = 57.48773 82.22351 100.10662
#
# Poissons Ratio (x) = 0.55709 0.22329
# Poissons Ratio (y) = 0.38950 0.26166
# Poissons Ratio (z) = 0.12823 0.21492
#
# Static dielectric constant tensor:
#      x y z
#    x 1.919640 0.000000 0.000000 
#    y 0.000000 1.801530 0.000000 
#    z 0.000000 0.000000 1.785900 
# 
# From -- ./inp_files/28261.got.cif
#   From: 2010.05.17/outbox.cif.g08.bks.cpg/sg22_15_cif.got.tgz:28261.got - 2010.06.03 23:40:54.
