data_PCOD9326033
_publ_section_title
;
Structure prediction by ZEFSAII (Michael W. Deem and Ramdas Pophale) SiO2 
 PCOD9326033
Probable space group: F 2 2 2
;
_chemical_formula_sum "Si O2"
_cell_formula_units_Z 96
_cell_length_a 10.238414
_cell_length_b 28.217055
_cell_length_c 14.688460
_cell_angle_alpha 90.000000
_cell_angle_beta 90.000000
_cell_angle_gamma 90.000000
_cell_volume 4243.465115
_symmetry_space_group_name_H-M "F 2 2 2"
_symmetry_group_IT_number 22
_symmetry_cell_setting 'orthorhombic'
loop_
_space_group_symop_operation_xyz
x,y,z
-x,-y,z
x,-y,-z
-x,y,-z
x,1/2+y,1/2+z
-x,1/2-y,1/2+z
x,1/2-y,1/2-z
-x,1/2+y,1/2-z
1/2+x,y,1/2+z
1/2-x,-y,1/2+z
1/2+x,-y,1/2-z
1/2-x,y,1/2-z
1/2+x,1/2+y,z
1/2-x,1/2-y,z
1/2+x,1/2-y,-z
1/2-x,1/2+y,-z
loop_
_atom_site_type_symbol
_atom_site_label
_atom_site_fract_x
_atom_site_fract_y
_atom_site_fract_z
Si Si1 0.025384 0.366532 0.890286
Si Si2 0.216684 0.088438 0.907627
Si Si3 0.901507 0.737875 0.913508
Si Si4 0.238029 0.891884 0.878648
Si Si5 0.994275 0.835474 0.888262
Si Si6 0.852076 0.996420 0.175541
O O1 0.139864 0.403143 0.866805
O O2 0.080119 0.313880 0.869844
O O3 0.885209 0.380075 0.849623
O O4 0.000000 0.368140 0.000000
O O5 0.110091 0.123795 0.864692
O O6 0.166126 0.034899 0.904068
O O7 0.232148 0.104301 0.011974
O O8 0.750000 0.750000 0.938466
O O9 0.949119 0.783699 0.858037
O O10 0.000000 0.735736 0.000000
O O11 0.135775 0.850996 0.854434
O O12 0.187222 0.942876 0.846798
O O13 0.000000 0.834460 0.000000
O O14 0.750000 0.013453 0.250000
O O15 0.000000 0.000000 0.207666
#
# Coordination Sequence:
#
# PCOD9326033 Si02
#       6
#    16  16  16  16  16  16
#     4   9  19  31  51  84 121 149 184 231 284 330
#     4  10  19  37  60  84 112 151 191 233 280 334
#     4  10  18  27  45  79 122 155 184 227 282 337
#     4  10  21  37  59  86 112 150 194 236 282 332
#     4   9  17  29  52  80 114 147 187 227 277 332
#     4  12  27  42  59  83 112 147 191 239 294 348
#
# _framework density 22.623021000000001
#
# number of rings (size 3 to 8) (size 9 to 14) (size 15 to 20)
#    0.000    2.000    3.333    0.500    9.333    0.667 
#    0.000    2.500    0.000    0.000    0.000    7.000 
#    0.000    0.000    0.000    0.000    0.000    0.000 
#
# Total GULP energy -134022.479129 kJ/mol
# GULP energy per Si atom -5584.269964 kJ/mol
# Density = 2.257153 g / cm^3
# Si number density = 22.623021 Si / 1000 Ang^3
#
#
#
# Elastic Constant Matrix: (Units=GPa)
#
#
# Indices 1 2 3 4 5 6 
#
# 1 203.8421 57.5273 12.0636 0.0000 0.0000 0.0000
# 2 57.5273 127.4127 -7.5425 0.0000 0.0000 0.0000
# 3 12.0636 -7.5425 31.3232 0.0000 0.0000 0.0000
# 4 0.0000 0.0000 0.0000 -8.7327 0.0000 0.0000
# 5 0.0000 0.0000 0.0000 0.0000 4.2325 0.0000
# 6 0.0000 0.0000 0.0000 0.0000 0.0000 39.8972
#
#
#
# Elastic Compliance Matrix: (Units=1/GPa)
#
#
# Indices 1 2 3 4 5 6 
#
# 1 0.005878 -0.002828 -0.002945 0.000000 0.000000 0.000000
# 2 -0.002828 0.009323 0.003334 0.000000 0.000000 0.000000
# 3 -0.002945 0.003334 0.033862 0.000000 0.000000 0.000000
# 4 0.000000 0.000000 0.000000 -0.114512 0.000000 0.000000
# 5 0.000000 0.000000 0.000000 0.000000 0.236265 0.000000
# 6 0.000000 0.000000 0.000000 0.000000 0.000000 0.025064
#
#
# Mechanical properties :
#
#
# Convention : Reuss Voigt Hill
#
# Bulk Modulus (GPa) = 22.63199 54.07496 38.35348
# Shear Modulus (GPa) = 23.20322 27.11471 25.15896
#
# Velocity S-wave (km/s) = 3.20605 3.46576 3.33843
# Velocity P-wave (km/s) = 4.87141 6.32217 5.64360
#
# Compressibility (1/GPa) = 0.04418525
#
# Stress axis : x y z
#
# Youngs Moduli (GPa) = 170.11844 107.26255 29.53133
#
# Poissons Ratio (x) = 0.30338 0.08697
# Poissons Ratio (y) = 0.48116 -0.09846
# Poissons Ratio (z) = 0.50100 -0.35764
#
# Static dielectric constant tensor:
#      x y z
#    x 1.853800 0.000000 0.000000 
#    y 0.000000 1.815720 0.000000 
#    z 0.000000 0.000000 1.921830 
# 
# From -- ./inp_files/41980.got.cif
#   From: 2010.05.17/outbox.cif.g08.bks.cpg/sg22_21_cif.got.tgz:41980.got - 2010.06.03 23:40:54.
