data_PCOD9326421
_publ_section_title
;
Structure prediction by ZEFSAII (Michael W. Deem and Ramdas Pophale) SiO2 
 PCOD9326421
Probable space group: F 2 2 2
;
_chemical_formula_sum "Si O2"
_cell_formula_units_Z 116
_cell_length_a 28.672749
_cell_length_b 20.504338
_cell_length_c 9.098540
_cell_angle_alpha 90.000000
_cell_angle_beta 90.000000
_cell_angle_gamma 90.000000
_cell_volume 5349.174849
_symmetry_space_group_name_H-M "F 2 2 2"
_symmetry_group_IT_number 22
_symmetry_cell_setting 'orthorhombic'
loop_
_space_group_symop_operation_xyz
x,y,z
-x,-y,z
x,-y,-z
-x,y,-z
x,1/2+y,1/2+z
-x,1/2-y,1/2+z
x,1/2-y,1/2-z
-x,1/2+y,1/2-z
1/2+x,y,1/2+z
1/2-x,-y,1/2+z
1/2+x,-y,1/2-z
1/2-x,y,1/2-z
1/2+x,1/2+y,z
1/2-x,1/2-y,z
1/2+x,1/2-y,-z
1/2-x,1/2+y,-z
loop_
_atom_site_type_symbol
_atom_site_label
_atom_site_fract_x
_atom_site_fract_y
_atom_site_fract_z
Si Si1 0.033258 0.188635 0.357491
Si Si2 0.824085 0.172676 0.407538
Si Si3 0.949948 0.890505 0.070715
Si Si4 0.805619 0.552848 0.712892
Si Si5 0.250000 0.250000 0.750000
Si Si6 0.091381 0.739376 0.418211
Si Si7 0.303170 0.172803 0.230651
Si Si8 0.150672 0.570439 0.604043
O O1 0.021778 0.250000 0.250000
O O2 0.039952 0.131605 0.239365
O O3 0.077821 0.211008 0.450533
O O4 0.000000 0.177174 0.500000
O O5 0.832055 0.109844 0.304219
O O6 0.775264 0.200780 0.357621
O O7 0.855447 0.238095 0.400256
O O8 0.820289 0.150823 0.572738
O O9 0.904495 0.936801 0.075720
O O10 0.930351 0.828568 0.974717
O O11 0.000000 0.910489 0.000000
O O12 0.750000 0.551684 0.750000
O O13 0.829006 0.480976 0.722638
O O14 0.818104 0.566352 0.542730
O O15 0.073773 0.750000 0.250000
O O16 0.302792 0.250000 0.250000
O O17 0.250000 0.149231 0.250000
O O18 0.339891 0.142966 0.341995
#
# Coordination Sequence:
#
# PCOD9326421 Si02
#       8
#    16  16  16  16   4  16  16  16
#     4  10  19  34  57  90 132 171 219 275 351 418
#     4  12  24  38  64  95 138 185 228 284 350 427
#     4  11  23  40  66  98 138 186 233 295 355 415
#     4  11  25  46  71  97 134 188 239 291 349 425
#     4  12  24  40  58 100 144 184 224 280 352 436
#     4  11  20  34  58  96 135 178 225 283 349 426
#     4  11  23  38  63  98 138 183 229 292 359 420
#     4  11  25  46  68 100 140 184 245 297 348 424
#
# _framework density 21.685586000000001
#
# number of rings (size 3 to 8) (size 9 to 14) (size 15 to 20)
#    0.000    0.966    1.379    7.448    1.931    2.759 
#    0.000    1.379    0.000    0.000    0.000    1.931 
#    0.000    0.000    0.000    0.000    0.000    0.000 
#
# Total GULP energy -161480.136182 kJ/mol
# GULP energy per Si atom -5568.280558 kJ/mol
# Density = 2.163623 g / cm^3
# Si number density = 21.685586 Si / 1000 Ang^3
#
#
#
# Elastic Constant Matrix: (Units=GPa)
#
#
# Indices 1 2 3 4 5 6 
#
# 1 116.1821 21.9020 25.4641 0.0000 0.0000 0.0000
# 2 21.9020 66.8237 26.9774 0.0001 -0.0001 0.0001
# 3 25.4641 26.9774 135.8812 0.0004 -0.0004 0.0002
# 4 0.0000 0.0001 0.0004 49.0274 -0.0002 0.0001
# 5 0.0000 -0.0001 -0.0004 -0.0002 98.6774 -0.0002
# 6 0.0000 0.0001 0.0002 0.0001 -0.0002 50.1000
#
#
#
# Elastic Compliance Matrix: (Units=1/GPa)
#
#
# Indices 1 2 3 4 5 6 
#
# 1 0.009364 -0.002566 -0.001245 0.000000 0.000000 0.000000
# 2 -0.002566 0.016972 -0.002889 0.000000 0.000000 0.000000
# 3 -0.001245 -0.002889 0.008166 0.000000 0.000000 0.000000
# 4 0.000000 0.000000 0.000000 0.020397 0.000000 0.000000
# 5 0.000000 0.000000 0.000000 0.000000 0.010134 0.000000
# 6 0.000000 0.000000 0.000000 0.000000 0.000000 0.019960
#
#
# Mechanical properties :
#
#
# Convention : Reuss Voigt Hill
#
# Bulk Modulus (GPa) = 47.38967 51.95268 49.67117
# Shear Modulus (GPa) = 47.42595 55.86388 51.64491
#
# Velocity S-wave (km/s) = 4.68159 5.08102 4.88539
# Velocity P-wave (km/s) = 7.15007 7.64406 7.40119
#
# Compressibility (1/GPa) = 0.02110165
#
# Stress axis : x y z
#
# Youngs Moduli (GPa) = 106.79307 58.92032 122.45548
#
# Poissons Ratio (x) = 0.15121 0.15249
# Poissons Ratio (y) = 0.27407 0.35373
# Poissons Ratio (z) = 0.13299 0.17020
#
# Static dielectric constant tensor:
#      x y z
#    x 1.745060 0.000000 0.000000 
#    y 0.000000 1.482850 0.000000 
#    z 0.000000 0.000000 1.755770 
# 
# From -- ./inp_files/15001.got.cif
#   From: 2010.05.17/outbox.cif.g08.bks.cpg/sg22_8_cif.got.tgz:15001.got - 2010.06.03 23:40:54.
