data_PCOD9326364
_publ_section_title
;
Structure prediction by ZEFSAII (Michael W. Deem and Ramdas Pophale) SiO2 
 PCOD9326364
Probable space group: F 2 2 2
;
_chemical_formula_sum "Si O2"
_cell_formula_units_Z 88
_cell_length_a 25.281226
_cell_length_b 34.653500
_cell_length_c 5.042944
_cell_angle_alpha 90.000000
_cell_angle_beta 90.000000
_cell_angle_gamma 90.000000
_cell_volume 4418.037333
_symmetry_space_group_name_H-M "F 2 2 2"
_symmetry_group_IT_number 22
_symmetry_cell_setting 'orthorhombic'
loop_
_space_group_symop_operation_xyz
x,y,z
-x,-y,z
x,-y,-z
-x,y,-z
x,1/2+y,1/2+z
-x,1/2-y,1/2+z
x,1/2-y,1/2-z
-x,1/2+y,1/2-z
1/2+x,y,1/2+z
1/2-x,-y,1/2+z
1/2+x,-y,1/2-z
1/2-x,y,1/2-z
1/2+x,1/2+y,z
1/2-x,1/2-y,z
1/2+x,1/2-y,-z
1/2-x,1/2+y,-z
loop_
_atom_site_type_symbol
_atom_site_label
_atom_site_fract_x
_atom_site_fract_y
_atom_site_fract_z
Si Si1 0.906255 0.609628 0.660979
Si Si2 0.652476 0.205921 0.840147
Si Si3 0.133153 0.528045 0.250542
Si Si4 0.053223 0.653131 0.839048
Si Si5 0.250000 0.027779 0.750000
Si Si6 0.692508 0.663250 0.852961
O O1 0.904706 0.563612 0.677818
O O2 0.943598 0.629949 0.440049
O O3 0.848243 0.627983 0.616583
O O4 0.921392 0.623798 0.951883
O O5 0.654045 0.250000 0.750000
O O6 0.593130 0.188988 0.804774
O O7 0.690712 0.183490 0.637428
O O8 0.669760 0.194080 0.136944
O O9 0.133731 0.500000 0.500000
O O10 0.192356 0.546537 0.215063
O O11 0.121840 0.500000 0.000000
O O12 0.000000 0.664738 0.000000
O O13 0.254745 0.000000 0.500000
O O14 0.750000 0.651579 0.750000
#
# Coordination Sequence:
#
# PCOD9326364 Si02
#       6
#    16  16  16  16   8  16
#     4  10  21  36  58  83 111 149 192 235 281 344
#     4  10  21  37  56  84 114 144 190 237 280 342
#     4  10  19  33  53  80 113 148 186 231 281 328
#     4  10  21  40  60  81 108 145 188 238 294 343
#     4   8  16  28  44  72 106 142 175 210 265 322
#     4  10  21  35  54  82 117 157 190 223 275 339
#
# _framework density 19.918348000000002
#
# number of rings (size 3 to 8) (size 9 to 14) (size 15 to 20)
#    0.000    2.182    0.000    2.727    1.273    2.182 
#    0.000    5.455    0.000    8.182    0.000    0.000 
#    0.000    0.000    0.000    0.000    0.000    0.000 
#
# Total GULP energy -122510.391818 kJ/mol
# GULP energy per Si atom -5568.654174 kJ/mol
# Density = 1.987301 g / cm^3
# Si number density = 19.918348 Si / 1000 Ang^3
#
#
#
# Elastic Constant Matrix: (Units=GPa)
#
#
# Indices 1 2 3 4 5 6 
#
# 1 94.8178 14.7096 8.8045 -0.0774 0.1405 0.0845
# 2 14.7096 59.2278 29.7242 -0.4200 0.9176 0.0707
# 3 8.8045 29.7242 108.7290 -0.3413 0.1650 -0.0720
# 4 -0.0774 -0.4200 -0.3413 6.4472 0.2039 0.1954
# 5 0.1405 0.9176 0.1650 0.2039 39.1899 -0.0477
# 6 0.0845 0.0707 -0.0720 0.1954 -0.0477 7.8024
#
#
#
# Elastic Compliance Matrix: (Units=1/GPa)
#
#
# Indices 1 2 3 4 5 6 
#
# 1 0.010972 -0.002642 -0.000166 -0.000047 0.000023 -0.000095
# 2 -0.002642 0.020219 -0.005310 0.001025 -0.000447 -0.000232
# 3 -0.000166 -0.005310 0.010663 0.000210 0.000079 0.000144
# 4 -0.000047 0.001025 0.000210 0.155328 -0.000837 -0.003903
# 5 0.000023 -0.000447 0.000079 -0.000837 0.025531 0.000182
# 6 -0.000095 -0.000232 0.000144 -0.003903 0.000182 0.128269
#
#
# Mechanical properties :
#
#
# Convention : Reuss Voigt Hill
#
# Bulk Modulus (GPa) = 39.03570 41.02793 40.03182
# Shear Modulus (GPa) = 13.30643 24.65698 18.98170
#
# Velocity S-wave (km/s) = 2.58747 3.52220 3.09038
# Velocity P-wave (km/s) = 5.34482 6.09787 5.73372
#
# Compressibility (1/GPa) = 0.02561757
#
# Stress axis : x y z
#
# Youngs Moduli (GPa) = 91.14216 49.45736 93.78312
#
# Poissons Ratio (x) = 0.13067 0.01561
# Poissons Ratio (y) = 0.24080 0.49798
# Poissons Ratio (z) = 0.01517 0.26261
#
# Static dielectric constant tensor:
#      x y z
#    x 1.786990 0.000020 0.001160 
#    y 0.000020 1.664620 0.000830 
#    z 0.001160 0.000830 1.649560 
# 
# From -- ./inp_files/4872.got.cif
#   From: 2010.05.17/outbox.cif.g08.bks.cpg/sg22_3_cif.got.tgz:4872.got - 2010.06.03 23:40:54.
