data_PCOD9326837
_publ_section_title
;
Structure prediction by ZEFSAII (Michael W. Deem and Ramdas Pophale) SiO2 
 PCOD9326837
Probable space group: F 2 2 2
;
_chemical_formula_sum "Si O2"
_cell_formula_units_Z 104
_cell_length_a 18.918397
_cell_length_b 19.469135
_cell_length_c 14.203551
_cell_angle_alpha 90.000000
_cell_angle_beta 90.000000
_cell_angle_gamma 90.000000
_cell_volume 5231.520439
_symmetry_space_group_name_H-M "F 2 2 2"
_symmetry_group_IT_number 22
_symmetry_cell_setting 'orthorhombic'
loop_
_space_group_symop_operation_xyz
x,y,z
-x,-y,z
x,-y,-z
-x,y,-z
x,1/2+y,1/2+z
-x,1/2-y,1/2+z
x,1/2-y,1/2-z
-x,1/2+y,1/2-z
1/2+x,y,1/2+z
1/2-x,-y,1/2+z
1/2+x,-y,1/2-z
1/2-x,y,1/2-z
1/2+x,1/2+y,z
1/2-x,1/2-y,z
1/2+x,1/2-y,-z
1/2-x,1/2+y,-z
loop_
_atom_site_type_symbol
_atom_site_label
_atom_site_fract_x
_atom_site_fract_y
_atom_site_fract_z
Si Si1 0.318548 0.709588 0.387809
Si Si2 0.127231 0.080132 0.006220
Si Si3 0.237045 0.080646 0.361410
Si Si4 0.674334 0.279120 0.600437
Si Si5 0.537431 0.798053 0.407843
Si Si6 0.938064 0.750000 0.750000
Si Si7 0.754126 0.575451 0.638152
O O1 0.250000 0.750000 0.349780
O O2 0.331280 0.741114 0.490138
O O3 0.384923 0.711221 0.320197
O O4 0.295412 0.632284 0.405647
O O5 0.191177 0.092924 0.080150
O O6 0.068140 0.131635 0.045753
O O7 0.167880 0.089354 0.905702
O O8 0.104763 0.000000 0.000000
O O9 0.250000 0.084899 0.250000
O O10 0.180453 0.139322 0.384913
O O11 0.225226 0.000411 0.383565
O O12 0.750000 0.250000 0.635309
O O13 0.603361 0.244210 0.635619
O O14 0.500000 0.763568 0.500000
O O15 0.482897 0.798804 0.320445
O O16 0.750000 0.584743 0.750000
#
# Coordination Sequence:
#
# PCOD9326837 Si02
#       7
#    16  16  16  16  16   8  16
#     4  11  21  39  67  97 121 164 216 280 324 368
#     4  10  21  41  63  91 129 168 211 260 327 389
#     4  10  21  36  61  98 127 161 211 265 317 382
#     4  11  21  39  66  92 126 166 217 260 316 385
#     4  12  26  42  60  92 134 171 211 266 325 388
#     4  12  27  40  61  96 134 168 214 266 331 388
#     4  10  20  35  65  98 125 156 212 276 319 373
#
# _framework density 19.879498999999999
#
# number of rings (size 3 to 8) (size 9 to 14) (size 15 to 20)
#    0.000    1.231    4.615    2.077    4.308    0.615 
#    0.000    0.000    0.000    0.923    0.000    0.000 
#    0.000    0.000    0.000    0.000    0.000    0.000 
#
# Total GULP energy -144894.612984 kJ/mol
# GULP energy per Si atom -5572.869730 kJ/mol
# Density = 1.983425 g / cm^3
# Si number density = 19.879499 Si / 1000 Ang^3
#
#
#
# Elastic Constant Matrix: (Units=GPa)
#
#
# Indices 1 2 3 4 5 6 
#
# 1 112.6486 56.1219 36.7815 0.0000 0.0000 0.0000
# 2 56.1219 111.4911 19.1007 0.0000 0.0000 0.0000
# 3 36.7815 19.1007 124.2803 0.0000 0.0000 0.0000
# 4 0.0000 0.0000 0.0000 38.8904 0.0000 0.0000
# 5 0.0000 0.0000 0.0000 0.0000 21.6742 0.0000
# 6 0.0000 0.0000 0.0000 0.0000 0.0000 19.6500
#
#
#
# Elastic Compliance Matrix: (Units=1/GPa)
#
#
# Indices 1 2 3 4 5 6 
#
# 1 0.012772 -0.005938 -0.002867 0.000000 0.000000 0.000000
# 2 -0.005938 0.011972 -0.000083 0.000000 0.000000 0.000000
# 3 -0.002867 -0.000083 0.008908 0.000000 0.000000 0.000000
# 4 0.000000 0.000000 0.000000 0.025713 0.000000 0.000000
# 5 0.000000 0.000000 0.000000 0.000000 0.046138 0.000000
# 6 0.000000 0.000000 0.000000 0.000000 0.000000 0.050891
#
#
# Mechanical properties :
#
#
# Convention : Reuss Voigt Hill
#
# Bulk Modulus (GPa) = 62.98735 63.60314 63.29524
# Shear Modulus (GPa) = 27.86126 31.80397 29.83261
#
# Velocity S-wave (km/s) = 3.74773 4.00414 3.87805
# Velocity P-wave (km/s) = 7.10498 7.31035 7.20840
#
# Compressibility (1/GPa) = 0.01587620
#
# Stress axis : x y z
#
# Youngs Moduli (GPa) = 78.29919 83.52558 112.26333
#
# Poissons Ratio (x) = 0.49595 0.32189
# Poissons Ratio (y) = 0.46491 0.00929
# Poissons Ratio (z) = 0.22450 0.00691
#
# Static dielectric constant tensor:
#      x y z
#    x 1.718590 0.000000 0.000000 
#    y 0.000000 1.748520 0.000000 
#    z 0.000000 0.000000 1.762220 
# 
# From -- ./inp_files/30784.got.cif
#   From: 2010.05.17/outbox.cif.g08.bks.cpg/sg22_16_cif.got.tgz:30784.got - 2010.06.03 23:40:54.
