data_PCOD9326284
_publ_section_title
;
Structure prediction by ZEFSAII (Michael W. Deem and Ramdas Pophale) SiO2 
 PCOD9326284
Probable space group: F 2 2 2
;
_chemical_formula_sum "Si O2"
_cell_formula_units_Z 112
_cell_length_a 18.015462
_cell_length_b 24.060017
_cell_length_c 17.737936
_cell_angle_alpha 90.000000
_cell_angle_beta 90.000000
_cell_angle_gamma 90.000000
_cell_volume 7688.549546
_symmetry_space_group_name_H-M "F 2 2 2"
_symmetry_group_IT_number 22
_symmetry_cell_setting 'orthorhombic'
loop_
_space_group_symop_operation_xyz
x,y,z
-x,-y,z
x,-y,-z
-x,y,-z
x,1/2+y,1/2+z
-x,1/2-y,1/2+z
x,1/2-y,1/2-z
-x,1/2+y,1/2-z
1/2+x,y,1/2+z
1/2-x,-y,1/2+z
1/2+x,-y,1/2-z
1/2-x,y,1/2-z
1/2+x,1/2+y,z
1/2-x,1/2-y,z
1/2+x,1/2-y,-z
1/2-x,1/2+y,-z
loop_
_atom_site_type_symbol
_atom_site_label
_atom_site_fract_x
_atom_site_fract_y
_atom_site_fract_z
Si Si1 0.764972 0.585654 0.472156
Si Si2 0.031147 0.578279 0.716237
Si Si3 0.754186 0.023930 0.374615
Si Si4 0.875776 0.525092 0.747386
Si Si5 0.567465 0.439694 0.957903
Si Si6 0.123845 0.814718 0.756200
Si Si7 0.743285 0.314030 0.625298
O O1 0.741860 0.536725 0.413842
O O2 0.745562 0.566699 0.556143
O O3 0.853911 0.588415 0.467056
O O4 0.735246 0.643722 0.442835
O O5 0.086070 0.535181 0.758003
O O6 0.044292 0.560076 0.629192
O O7 0.059413 0.640236 0.732943
O O8 0.945760 0.566138 0.737115
O O9 0.821384 0.034989 0.317531
O O10 0.677740 0.025737 0.326258
O O11 0.575442 0.500000 0.000000
O O12 0.500000 0.410159 0.000000
O O13 0.099974 0.750000 0.750000
O O14 0.182020 0.823807 0.825109
O O15 0.174607 0.823041 0.682126
O O16 0.750000 0.250000 0.601958
#
# Coordination Sequence:
#
# PCOD9326284 Si02
#       7
#    16  16  16  16  16  16  16
#     4  11  17  29  47  70  96 126 156 190 245 286
#     4  11  18  29  48  71  97 131 155 196 245 289
#     4  10  19  30  45  69  97 128 157 194 229 293
#     4  10  19  30  45  69  99 125 162 189 236 290
#     4  11  18  26  43  72 106 123 148 195 257 299
#     4   9  17  30  48  73  97 120 156 199 241 288
#     4   9  17  29  48  73  97 119 153 200 243 288
#
# _framework density 14.567117
#
# number of rings (size 3 to 8) (size 9 to 14) (size 15 to 20)
#    0.000    1.857    4.286    4.286    0.000    2.286 
#    0.000    0.000    0.000   18.000    0.000    2.000 
#    0.000    0.000    0.000    0.000    0.000    0.000 
#
# Total GULP energy -155952.979477 kJ/mol
# GULP energy per Si atom -5569.749267 kJ/mol
# Density = 1.453396 g / cm^3
# Si number density = 14.567117 Si / 1000 Ang^3
#
#
#
# Elastic Constant Matrix: (Units=GPa)
#
#
# Indices 1 2 3 4 5 6 
#
# 1 94.1729 46.1642 45.9454 0.0000 0.0000 0.0000
# 2 46.1642 88.0265 49.6855 0.0000 0.0000 0.0000
# 3 45.9454 49.6855 93.1102 0.0000 0.0000 0.0000
# 4 0.0000 0.0000 0.0000 18.4105 0.0000 0.0000
# 5 0.0000 0.0000 0.0000 0.0000 19.7951 0.0000
# 6 0.0000 0.0000 0.0000 0.0000 0.0000 1.5766
#
#
#
# Elastic Compliance Matrix: (Units=1/GPa)
#
#
# Indices 1 2 3 4 5 6 
#
# 1 0.015654 -0.005509 -0.004785 0.000000 0.000000 0.000000
# 2 -0.005509 0.018195 -0.006991 0.000000 0.000000 0.000000
# 3 -0.004785 -0.006991 0.016832 0.000000 0.000000 0.000000
# 4 0.000000 0.000000 0.000000 0.054317 0.000000 0.000000
# 5 0.000000 0.000000 0.000000 0.000000 0.050517 0.000000
# 6 0.000000 0.000000 0.000000 0.000000 0.000000 0.634281
#
#
# Mechanical properties :
#
#
# Convention : Reuss Voigt Hill
#
# Bulk Modulus (GPa) = 62.06777 62.09996 62.08387
# Shear Modulus (GPa) = 6.02602 16.85740 11.44171
#
# Velocity S-wave (km/s) = 2.03610 3.40549 2.80562
# Velocity P-wave (km/s) = 6.94466 7.62797 7.29432
#
# Compressibility (1/GPa) = 0.01611142
#
# Stress axis : x y z
#
# Youngs Moduli (GPa) = 63.88340 54.95976 59.41203
#
# Poissons Ratio (x) = 0.30275 0.28427
# Poissons Ratio (y) = 0.35191 0.41535
# Poissons Ratio (z) = 0.30567 0.38423
#
# Static dielectric constant tensor:
#      x y z
#    x 1.489360 0.000000 0.000000 
#    y 0.000000 1.490620 0.000000 
#    z 0.000000 0.000000 1.491350 
# 
# From -- ./inp_files/38334.got.cif
#   From: 2010.05.17/outbox.cif.g08.bks.cpg/sg22_20_cif.got.tgz:38334.got - 2010.06.03 23:40:54.
