data_PCOD9326221
_publ_section_title
;
Structure prediction by ZEFSAII (Michael W. Deem and Ramdas Pophale) SiO2 
 PCOD9326221
Probable space group: F 2 2 2
;
_chemical_formula_sum "Si O2"
_cell_formula_units_Z 96
_cell_length_a 8.663469
_cell_length_b 21.535925
_cell_length_c 24.966650
_cell_angle_alpha 90.000000
_cell_angle_beta 90.000000
_cell_angle_gamma 90.000000
_cell_volume 4658.173162
_symmetry_space_group_name_H-M "F 2 2 2"
_symmetry_group_IT_number 22
_symmetry_cell_setting 'orthorhombic'
loop_
_space_group_symop_operation_xyz
x,y,z
-x,-y,z
x,-y,-z
-x,y,-z
x,1/2+y,1/2+z
-x,1/2-y,1/2+z
x,1/2-y,1/2-z
-x,1/2+y,1/2-z
1/2+x,y,1/2+z
1/2-x,-y,1/2+z
1/2+x,-y,1/2-z
1/2-x,y,1/2-z
1/2+x,1/2+y,z
1/2-x,1/2-y,z
1/2+x,1/2-y,-z
1/2-x,1/2+y,-z
loop_
_atom_site_type_symbol
_atom_site_label
_atom_site_fract_x
_atom_site_fract_y
_atom_site_fract_z
Si Si1 0.702326 0.109861 0.689510
Si Si2 0.201236 0.075150 0.915521
Si Si3 0.000000 0.500000 0.651598
Si Si4 0.250000 0.250000 0.933889
Si Si5 0.768635 0.359954 0.983298
Si Si6 0.964678 0.182120 0.893496
Si Si7 0.965913 0.926659 0.394179
O O1 0.750000 0.121310 0.750000
O O2 0.570207 0.055729 0.687229
O O3 0.635601 0.171146 0.659458
O O4 0.850617 0.086893 0.654714
O O5 0.066836 0.120653 0.897990
O O6 0.359087 0.096122 0.887533
O O7 0.142133 0.012158 0.889470
O O8 0.212191 0.082774 0.979305
O O9 0.094771 0.234359 0.900559
O O10 0.202009 0.307125 0.972410
O O11 0.647387 0.325233 0.944459
O O12 0.895861 0.390076 0.944996
O O13 0.000000 0.000000 0.405112
#
# Coordination Sequence:
#
# PCOD9326221 Si02
#       7
#    16  16   8   8  16  16  16
#     4  10  22  40  61  85 125 169 217 280 324 371
#     4  10  19  34  51  81 123 165 203 251 307 373
#     4  10  20  34  53  80 116 170 227 250 306 384
#     4  10  18  36  66  92 128 170 206 264 328 392
#     4  10  22  37  57  90 131 170 211 253 316 386
#     4   9  21  39  57  95 124 162 219 262 313 386
#     4  11  22  38  52  89 129 169 217 260 307 390
#
# _framework density 20.608938999999999
#
# number of rings (size 3 to 8) (size 9 to 14) (size 15 to 20)
#    0.000    2.000    1.667    2.500    1.167    6.667 
#    3.000    2.500    0.000    0.000    0.000   51.333 
#    0.000    0.000    0.000    0.000    0.000    0.000 
#
# Total GULP energy -133661.665264 kJ/mol
# GULP energy per Si atom -5569.236053 kJ/mol
# Density = 2.056203 g / cm^3
# Si number density = 20.608939 Si / 1000 Ang^3
#
#
#
# Elastic Constant Matrix: (Units=GPa)
#
#
# Indices 1 2 3 4 5 6 
#
# 1 112.7942 23.0037 61.6238 0.0000 0.0000 0.0000
# 2 23.0037 59.3378 41.3330 0.0000 0.0000 0.0000
# 3 61.6238 41.3330 144.7514 0.0000 0.0000 0.0000
# 4 0.0000 0.0000 0.0000 16.0106 0.0000 0.0000
# 5 0.0000 0.0000 0.0000 0.0000 17.0308 0.0000
# 6 0.0000 0.0000 0.0000 0.0000 0.0000 43.4191
#
#
#
# Elastic Compliance Matrix: (Units=1/GPa)
#
#
# Indices 1 2 3 4 5 6 
#
# 1 0.011635 -0.001324 -0.004576 0.000000 0.000000 0.000000
# 2 -0.001324 0.021188 -0.005487 0.000000 0.000000 0.000000
# 3 -0.004576 -0.005487 0.010423 0.000000 0.000000 0.000000
# 4 0.000000 0.000000 0.000000 0.062459 0.000000 0.000000
# 5 0.000000 0.000000 0.000000 0.000000 0.058717 0.000000
# 6 0.000000 0.000000 0.000000 0.000000 0.000000 0.023031
#
#
# Mechanical properties :
#
#
# Convention : Reuss Voigt Hill
#
# Bulk Modulus (GPa) = 48.84081 63.20050 56.02065
# Shear Modulus (GPa) = 23.03626 28.02028 25.52827
#
# Velocity S-wave (km/s) = 3.34695 3.69130 3.52333
# Velocity P-wave (km/s) = 6.21984 6.99290 6.61767
#
# Compressibility (1/GPa) = 0.02047468
#
# Stress axis : x y z
#
# Youngs Moduli (GPa) = 85.94453 47.19756 95.94223
#
# Poissons Ratio (x) = 0.06247 0.43898
# Poissons Ratio (y) = 0.11375 0.52639
# Poissons Ratio (z) = 0.39324 0.25895
#
# Static dielectric constant tensor:
#      x y z
#    x 1.803690 0.000000 0.000000 
#    y 0.000000 1.873220 0.000000 
#    z 0.000000 0.000000 1.733580 
# 
# From -- ./inp_files/47411.got.cif
#   From: 2010.05.17/outbox.cif.g08.bks.cpg/sg22_24_cif.got.tgz:47411.got - 2010.06.03 23:40:54.
