data_PCOD9326478
_publ_section_title
;
Structure prediction by ZEFSAII (Michael W. Deem and Ramdas Pophale) SiO2 
 PCOD9326478
Probable space group: F 2 2 2
;
_chemical_formula_sum "Si O2"
_cell_formula_units_Z 88
_cell_length_a 12.036839
_cell_length_b 14.432424
_cell_length_c 26.093085
_cell_angle_alpha 90.000000
_cell_angle_beta 90.000000
_cell_angle_gamma 90.000000
_cell_volume 4532.910663
_symmetry_space_group_name_H-M "F 2 2 2"
_symmetry_group_IT_number 22
_symmetry_cell_setting 'orthorhombic'
loop_
_space_group_symop_operation_xyz
x,y,z
-x,-y,z
x,-y,-z
-x,y,-z
x,1/2+y,1/2+z
-x,1/2-y,1/2+z
x,1/2-y,1/2-z
-x,1/2+y,1/2-z
1/2+x,y,1/2+z
1/2-x,-y,1/2+z
1/2+x,-y,1/2-z
1/2-x,y,1/2-z
1/2+x,1/2+y,z
1/2-x,1/2-y,z
1/2+x,1/2-y,-z
1/2-x,1/2+y,-z
loop_
_atom_site_type_symbol
_atom_site_label
_atom_site_fract_x
_atom_site_fract_y
_atom_site_fract_z
Si Si1 0.352871 0.680141 0.375347
Si Si2 0.500000 0.500000 0.807005
Si Si3 0.943828 0.250000 0.750000
Si Si4 0.250000 0.750000 0.564133
Si Si5 0.366373 0.600245 0.270097
Si Si6 0.868290 0.394595 0.010406
Si Si7 0.931883 0.191142 0.856399
O O1 0.250000 0.750000 0.366022
O O2 0.356527 0.600393 0.331484
O O3 0.345472 0.636096 0.431359
O O4 0.463725 0.742724 0.370209
O O5 0.396426 0.484845 0.767471
O O6 0.476874 0.588664 0.842845
O O7 0.883017 0.229396 0.802607
O O8 0.029324 0.334015 0.759221
O O9 0.191492 0.825136 0.528182
O O10 0.158952 0.699827 0.599754
O O11 0.250000 0.639004 0.250000
O O12 0.832604 0.500000 0.000000
O O13 0.000000 0.389331 0.000000
#
# Coordination Sequence:
#
# PCOD9326478 Si02
#       7
#    16   8   8   8  16  16  16
#     4  11  21  40  72  90 126 176 222 273 335 386
#     4  10  22  40  56  97 137 162 220 264 324 406
#     4   8  17  37  58  86 122 164 206 248 316 398
#     4  12  24  45  68  96 135 172 214 278 340 386
#     4  10  19  35  59  91 123 161 209 264 314 391
#     4  11  25  45  67  96 129 172 232 277 324 396
#     4  10  22  40  64  92 133 173 212 267 333 396
#
# _framework density 19.413575000000002
#
# number of rings (size 3 to 8) (size 9 to 14) (size 15 to 20)
#    0.000    1.636    2.727    3.545    0.000    4.727 
#   13.091    0.000    0.000    0.000    0.000    0.000 
#    0.000    0.000    0.000    0.000    0.000    0.000 
#
# Total GULP energy -122699.844110 kJ/mol
# GULP energy per Si atom -5577.265641 kJ/mol
# Density = 1.936939 g / cm^3
# Si number density = 19.413575 Si / 1000 Ang^3
#
#
#
# Elastic Constant Matrix: (Units=GPa)
#
#
# Indices 1 2 3 4 5 6 
#
# 1 73.5691 32.6207 49.7126 0.0000 0.0000 0.0000
# 2 32.6207 111.9341 68.7548 0.0000 0.0000 0.0000
# 3 49.7126 68.7548 186.4469 0.0000 0.0000 0.0000
# 4 0.0000 0.0000 0.0000 32.1512 0.0000 0.0000
# 5 0.0000 0.0000 0.0000 0.0000 20.4292 0.0000
# 6 0.0000 0.0000 0.0000 0.0000 0.0000 8.6711
#
#
#
# Elastic Compliance Matrix: (Units=1/GPa)
#
#
# Indices 1 2 3 4 5 6 
#
# 1 0.017254 -0.002848 -0.003551 0.000000 0.000000 0.000000
# 2 -0.002848 0.012020 -0.003673 0.000000 0.000000 0.000000
# 3 -0.003551 -0.003673 0.007665 0.000000 0.000000 0.000000
# 4 0.000000 0.000000 0.000000 0.031103 0.000000 0.000000
# 5 0.000000 0.000000 0.000000 0.000000 0.048950 0.000000
# 6 0.000000 0.000000 0.000000 0.000000 0.000000 0.115326
#
#
# Mechanical properties :
#
#
# Convention : Reuss Voigt Hill
#
# Bulk Modulus (GPa) = 59.53637 74.90291 67.21964
# Shear Modulus (GPa) = 19.37538 26.97442 23.17490
#
# Velocity S-wave (km/s) = 3.16259 3.73159 3.45881
# Velocity P-wave (km/s) = 6.63852 7.56524 7.11698
#
# Compressibility (1/GPa) = 0.01679646
#
# Stress axis : x y z
#
# Youngs Moduli (GPa) = 57.95605 83.19491 130.46815
#
# Poissons Ratio (x) = 0.23690 0.46323
# Poissons Ratio (y) = 0.16503 0.47925
# Poissons Ratio (z) = 0.20577 0.30560
#
# Static dielectric constant tensor:
#      x y z
#    x 1.676920 0.000000 0.000000 
#    y 0.000000 1.718030 0.000000 
#    z 0.000000 0.000000 1.688910 
# 
# From -- ./inp_files/19993.got.cif
#   From: 2010.05.17/outbox.cif.g08.bks.cpg/sg22_10_cif.got.tgz:19993.got - 2010.06.03 23:40:54.
