data_PCOD9326552
_publ_section_title
;
Structure prediction by ZEFSAII (Michael W. Deem and Ramdas Pophale) SiO2 
 PCOD9326552
Probable space group: F 2 2 2
;
_chemical_formula_sum "Si O2"
_cell_formula_units_Z 88
_cell_length_a 19.455455
_cell_length_b 11.823603
_cell_length_c 16.231754
_cell_angle_alpha 90.000000
_cell_angle_beta 90.000000
_cell_angle_gamma 90.000000
_cell_volume 3733.848419
_symmetry_space_group_name_H-M "F 2 2 2"
_symmetry_group_IT_number 22
_symmetry_cell_setting 'orthorhombic'
loop_
_space_group_symop_operation_xyz
x,y,z
-x,-y,z
x,-y,-z
-x,y,-z
x,1/2+y,1/2+z
-x,1/2-y,1/2+z
x,1/2-y,1/2-z
-x,1/2+y,1/2-z
1/2+x,y,1/2+z
1/2-x,-y,1/2+z
1/2+x,-y,1/2-z
1/2-x,y,1/2-z
1/2+x,1/2+y,z
1/2-x,1/2-y,z
1/2+x,1/2-y,-z
1/2-x,1/2+y,-z
loop_
_atom_site_type_symbol
_atom_site_label
_atom_site_fract_x
_atom_site_fract_y
_atom_site_fract_z
Si Si1 0.505120 0.632555 0.099363
Si Si2 0.761291 0.003857 0.847749
Si Si3 0.111147 0.443296 0.883688
Si Si4 0.398655 0.813522 0.957475
Si Si5 0.379356 0.358448 0.792870
Si Si6 0.750000 0.250000 0.573434
O O1 0.500000 0.500000 0.122175
O O2 0.570112 0.715626 0.101166
O O3 0.444122 0.680742 0.154731
O O4 0.500000 0.633329 0.000000
O O5 0.750000 0.004477 0.750000
O O6 0.763496 0.133235 0.877024
O O7 0.695256 0.944328 0.888897
O O8 0.830885 0.931035 0.853429
O O9 0.093661 0.571072 0.907104
O O10 0.095681 0.425336 0.787875
O O11 0.078658 0.358528 0.951422
O O12 0.320564 0.774545 0.972990
O O13 0.342985 0.250000 0.750000
#
# Coordination Sequence:
#
# PCOD9326552 Si02
#       6
#    16  16  16  16  16   8
#     4  11  25  43  62  89 130 174 216 269 332 397
#     4   9  19  36  62  97 131 166 215 272 330 390
#     4   9  21  40  65  96 127 170 222 273 329 387
#     4  10  21  41  65  94 131 171 222 275 327 393
#     4  11  23  40  63  95 133 174 219 269 330 395
#     4  10  19  36  66  96 129 172 214 270 332 388
#
# _framework density 23.568176000000001
#
# number of rings (size 3 to 8) (size 9 to 14) (size 15 to 20)
#    0.000    2.000    0.000    2.455    0.000    7.636 
#    0.000   12.727    0.000    0.000    0.000    0.000 
#    0.000    0.000    0.000    0.000    0.000    0.000 
#
# Total GULP energy -122583.822962 kJ/mol
# GULP energy per Si atom -5571.991953 kJ/mol
# Density = 2.351453 g / cm^3
# Si number density = 23.568176 Si / 1000 Ang^3
#
#
#
# Elastic Constant Matrix: (Units=GPa)
#
#
# Indices 1 2 3 4 5 6 
#
# 1 85.9270 42.2989 31.7625 0.0000 0.0000 0.0000
# 2 42.2989 130.1536 49.4144 0.0000 0.0000 0.0000
# 3 31.7625 49.4144 72.9140 0.0000 0.0000 0.0000
# 4 0.0000 0.0000 0.0000 34.4191 0.0000 0.0000
# 5 0.0000 0.0000 0.0000 0.0000 27.3475 0.0000
# 6 0.0000 0.0000 0.0000 0.0000 0.0000 -27.6326
#
#
#
# Elastic Compliance Matrix: (Units=1/GPa)
#
#
# Indices 1 2 3 4 5 6 
#
# 1 0.014787 -0.003178 -0.004288 0.000000 0.000000 0.000000
# 2 -0.003178 0.011028 -0.006089 0.000000 0.000000 0.000000
# 3 -0.004288 -0.006089 0.019710 0.000000 0.000000 0.000000
# 4 0.000000 0.000000 0.000000 0.029054 0.000000 0.000000
# 5 0.000000 0.000000 0.000000 0.000000 0.036566 0.000000
# 6 0.000000 0.000000 0.000000 0.000000 0.000000 -0.036189
#
#
# Mechanical properties :
#
#
# Convention : Reuss Voigt Hill
#
# Bulk Modulus (GPa) = 54.30544 59.54958 56.92751
# Shear Modulus (GPa) = 46.20918 17.86139 32.03528
#
# Velocity S-wave (km/s) = 4.43274 2.75591 3.69081
# Velocity P-wave (km/s) = 7.02074 5.95387 6.50920
#
# Compressibility (1/GPa) = 0.01841436
#
# Stress axis : x y z
#
# Youngs Moduli (GPa) = 67.62661 90.67920 50.73691
#
# Poissons Ratio (x) = 0.28815 0.21756
# Poissons Ratio (y) = 0.21490 0.30896
# Poissons Ratio (z) = 0.28998 0.55218
#
# Static dielectric constant tensor:
#      x y z
#    x 1.675000 0.000000 0.000000 
#    y 0.000000 2.058600 0.000000 
#    z 0.000000 0.000000 1.839910 
# 
# From -- ./inp_files/38776.got.cif
#   From: 2010.05.17/outbox.cif.g08.bks.cpg/sg22_20_cif.got.tgz:38776.got - 2010.06.03 23:40:54.
