data_PCOD9326104
_publ_section_title
;
Structure prediction by ZEFSAII (Michael W. Deem and Ramdas Pophale) SiO2 
 PCOD9326104
Probable space group: F 2 2 2
;
_chemical_formula_sum "Si O2"
_cell_formula_units_Z 80
_cell_length_a 15.264503
_cell_length_b 34.231138
_cell_length_c 8.399150
_cell_angle_alpha 90.000000
_cell_angle_beta 90.000000
_cell_angle_gamma 90.000000
_cell_volume 4388.734850
_symmetry_space_group_name_H-M "F 2 2 2"
_symmetry_group_IT_number 22
_symmetry_cell_setting 'orthorhombic'
loop_
_space_group_symop_operation_xyz
x,y,z
-x,-y,z
x,-y,-z
-x,y,-z
x,1/2+y,1/2+z
-x,1/2-y,1/2+z
x,1/2-y,1/2-z
-x,1/2+y,1/2-z
1/2+x,y,1/2+z
1/2-x,-y,1/2+z
1/2+x,-y,1/2-z
1/2-x,y,1/2-z
1/2+x,1/2+y,z
1/2-x,1/2-y,z
1/2+x,1/2-y,-z
1/2-x,1/2+y,-z
loop_
_atom_site_type_symbol
_atom_site_label
_atom_site_fract_x
_atom_site_fract_y
_atom_site_fract_z
Si Si1 0.668724 0.035402 0.122611
Si Si2 0.251180 0.689903 0.943571
Si Si3 0.743232 0.599799 0.059030
Si Si4 0.600671 0.249186 0.942402
Si Si5 0.905002 0.542383 0.565041
O O1 0.750000 0.031013 0.250000
O O2 0.589917 0.038815 0.245014
O O3 0.680536 0.074899 0.023781
O O4 0.665420 0.000000 0.000000
O O5 0.250000 0.690888 0.750000
O O6 0.255477 0.644847 0.991563
O O7 0.337973 0.714066 0.993387
O O8 0.161750 0.712246 0.992662
O O9 0.750000 0.597465 0.250000
O O10 0.658455 0.576337 0.996848
O O11 0.597622 0.250000 0.750000
O O12 0.500000 0.249089 0.000000
O O13 0.874633 0.500000 0.500000
O O14 0.000000 0.549808 0.500000
#
# Coordination Sequence:
#
# PCOD9326104 Si02
#       5
#    16  16  16  16  16
#     4  10  18  32  55  78 101 137 178 215 258 314
#     4   8  17  33  53  75 105 140 175 210 258 320
#     4  10  18  33  54  76 101 137 178 214 255 314
#     4   9  17  34  55  76 102 137 174 214 262 312
#     4  10  21  36  51  74 107 138 170 218 266 310
#
# _framework density 18.228487000000001
#
# number of rings (size 3 to 8) (size 9 to 14) (size 15 to 20)
#    0.000    2.600    0.000    5.400    0.000    0.800 
#    0.000   21.000    0.000    0.000    0.000    0.000 
#    0.000    0.000    0.000    0.000    0.000    0.000 
#
# Total GULP energy -111401.362985 kJ/mol
# GULP energy per Si atom -5570.068149 kJ/mol
# Density = 1.818700 g / cm^3
# Si number density = 18.228487 Si / 1000 Ang^3
#
#
#
# Elastic Constant Matrix: (Units=GPa)
#
#
# Indices 1 2 3 4 5 6 
#
# 1 118.0575 72.1419 34.0534 0.0000 0.0000 0.0000
# 2 72.1419 197.4943 51.3677 0.0000 0.0000 0.0000
# 3 34.0534 51.3677 83.4680 0.0000 0.0000 0.0000
# 4 0.0000 0.0000 0.0000 20.7451 0.0000 0.0000
# 5 0.0000 0.0000 0.0000 0.0000 30.0850 0.0000
# 6 0.0000 0.0000 0.0000 0.0000 0.0000 -28.0554
#
#
#
# Elastic Compliance Matrix: (Units=1/GPa)
#
#
# Indices 1 2 3 4 5 6 
#
# 1 0.011316 -0.003492 -0.002468 0.000000 0.000000 0.000000
# 2 -0.003492 0.007106 -0.002948 0.000000 0.000000 0.000000
# 3 -0.002468 -0.002948 0.014802 0.000000 0.000000 0.000000
# 4 0.000000 0.000000 0.000000 0.048204 0.000000 0.000000
# 5 0.000000 0.000000 0.000000 0.000000 0.033239 0.000000
# 6 0.000000 0.000000 0.000000 0.000000 0.000000 -0.035644
#
#
# Mechanical properties :
#
#
# Convention : Reuss Voigt Hill
#
# Bulk Modulus (GPa) = 64.90252 79.34956 72.12604
# Shear Modulus (GPa) = 49.03150 20.65207 34.84178
#
# Velocity S-wave (km/s) = 5.19198 3.36959 4.37669
# Velocity P-wave (km/s) = 8.46313 7.66576 8.07429
#
# Compressibility (1/GPa) = 0.01540772
#
# Stress axis : x y z
#
# Youngs Moduli (GPa) = 88.37065 140.73024 67.55828
#
# Poissons Ratio (x) = 0.49139 0.16672
# Poissons Ratio (y) = 0.30856 0.19920
# Poissons Ratio (z) = 0.21809 0.41494
#
# Static dielectric constant tensor:
#      x y z
#    x 1.682490 0.000000 0.000000 
#    y 0.000000 1.619150 0.000000 
#    z 0.000000 0.000000 1.672510 
# 
# From -- ./inp_files/11754.got.cif
#   From: 2010.05.17/outbox.cif.g08.bks.cpg/sg22_6_cif.got.tgz:11754.got - 2010.06.03 23:40:54.
