data_PCOD9327862
_publ_section_title
;
Structure prediction by ZEFSAII (Michael W. Deem and Ramdas Pophale) SiO2 
 PCOD9327862
Probable space group: F 2 2 2
;
_chemical_formula_sum "Si O2"
_cell_formula_units_Z 64
_cell_length_a 11.356215
_cell_length_b 20.237983
_cell_length_c 11.356215
_cell_angle_alpha 90.000000
_cell_angle_beta 90.000000
_cell_angle_gamma 90.000000
_cell_volume 2609.963531
_symmetry_space_group_name_H-M "F 2 2 2"
_symmetry_group_IT_number 22
_symmetry_cell_setting 'orthorhombic'
loop_
_space_group_symop_operation_xyz
x,y,z
-x,-y,z
x,-y,-z
-x,y,-z
x,1/2+y,1/2+z
-x,1/2-y,1/2+z
x,1/2-y,1/2-z
-x,1/2+y,1/2-z
1/2+x,y,1/2+z
1/2-x,-y,1/2+z
1/2+x,-y,1/2-z
1/2-x,y,1/2-z
1/2+x,1/2+y,z
1/2-x,1/2-y,z
1/2+x,1/2-y,-z
1/2-x,1/2+y,-z
loop_
_atom_site_type_symbol
_atom_site_label
_atom_site_fract_x
_atom_site_fract_y
_atom_site_fract_z
Si Si1 0.500000 0.120289 0.000000
Si Si2 0.500000 0.290175 0.000000
Si Si3 0.750000 0.629711 0.250000
Si Si4 0.750000 0.750000 0.067873
Si Si5 0.490543 0.875000 0.259457
Si Si6 0.817873 0.500000 0.000000
Si Si7 0.750000 0.459825 0.250000
O O1 0.489480 0.155726 0.872998
O O2 0.606926 0.067368 0.994589
O O3 0.373325 0.254696 0.002171
O O4 0.508533 0.331136 0.123014
O O5 0.755412 0.682632 0.143074
O O6 0.622998 0.594274 0.239480
O O7 0.373014 0.918864 0.258533
O O8 0.752170 0.504696 0.876675
#
# Coordination Sequence:
#
# PCOD9327862 Si02
#       7
#     8   8   8   8  16   8   8
#     4   9  20  39  60  83 122 166 194 235 304 367
#     4  10  22  39  62  92 120 156 204 252 298 353
#     4   9  20  39  60  83 122 166 194 235 304 367
#     4   9  20  38  60  87 122 159 196 243 304 357
#     4  10  22  38  62  92 120 154 202 248 298 356
#     4   9  20  38  60  87 122 159 196 243 304 357
#     4  10  22  39  62  92 120 156 204 252 298 353
#
# _framework density 24.521415000000001
#
# number of rings (size 3 to 8) (size 9 to 14) (size 15 to 20)
#    0.000    2.500    0.000    0.000    0.000   14.000 
#    0.000    0.000    0.000   15.000    0.000    0.000 
#    0.000    0.000    0.000    0.000    0.000    0.000 
#
# Total GULP energy -89182.519741 kJ/mol
# GULP energy per Si atom -5573.907484 kJ/mol
# Density = 2.446560 g / cm^3
# Si number density = 24.521415 Si / 1000 Ang^3
#
#
#
# Elastic Constant Matrix: (Units=GPa)
#
#
# Indices 1 2 3 4 5 6 
#
# 1 259.2841 56.0420 95.2841 0.0000 0.0000 0.0000
# 2 56.0420 46.3977 56.0420 0.0000 0.0000 0.0000
# 3 95.2841 56.0420 259.2844 0.0000 0.0000 0.0000
# 4 0.0000 0.0000 0.0000 93.8406 0.0000 0.0000
# 5 0.0000 0.0000 0.0000 0.0000 52.1455 0.0000
# 6 0.0000 0.0000 0.0000 0.0000 0.0000 93.8488
#
#
#
# Elastic Compliance Matrix: (Units=1/GPa)
#
#
# Indices 1 2 3 4 5 6 
#
# 1 0.005330 -0.005511 -0.000768 0.000000 0.000000 0.000000
# 2 -0.005511 0.034865 -0.005511 0.000000 0.000000 0.000000
# 3 -0.000768 -0.005511 0.005330 0.000000 0.000000 0.000000
# 4 0.000000 0.000000 0.000000 0.010656 0.000000 0.000000
# 5 0.000000 0.000000 0.000000 0.000000 0.019177 0.000000
# 6 0.000000 0.000000 0.000000 0.000000 0.000000 0.010655
#
#
# Mechanical properties :
#
#
# Convention : Reuss Voigt Hill
#
# Bulk Modulus (GPa) = 45.56426 108.85582 77.21004
# Shear Modulus (GPa) = 42.76892 71.80686 57.28789
#
# Velocity S-wave (km/s) = 4.18083 5.41728 4.83871
# Velocity P-wave (km/s) = 6.47515 9.14427 7.92292
#
# Compressibility (1/GPa) = 0.02194703
#
# Stress axis : x y z
#
# Youngs Moduli (GPa) = 187.61921 28.68206 187.61947
#
# Poissons Ratio (x) = 0.15806 0.14402
# Poissons Ratio (y) = 1.03391 1.03391
# Poissons Ratio (z) = 0.14402 0.15806
#
# Static dielectric constant tensor:
#      x y z
#    x 1.930190 0.000000 0.000000 
#    y 0.000000 2.097770 0.000000 
#    z 0.000000 0.000000 1.930180 
# 
# From -- ./inp_files/18006.got.cif
#   From: 2010.05.17/outbox.cif.g08.bks.cpg/sg22_10_cif.got.tgz:18006.got - 2010.06.03 23:40:54.
