data_PCOD9327996
_publ_section_title
;
Structure prediction by ZEFSAII (Michael W. Deem and Ramdas Pophale) SiO2 
 PCOD9327996
Probable space group: F 2 2 2
;
_chemical_formula_sum "Si O2"
_cell_formula_units_Z 88
_cell_length_a 20.484664
_cell_length_b 17.100484
_cell_length_c 11.806260
_cell_angle_alpha 90.000000
_cell_angle_beta 90.000000
_cell_angle_gamma 90.000000
_cell_volume 4135.705357
_symmetry_space_group_name_H-M "F 2 2 2"
_symmetry_group_IT_number 22
_symmetry_cell_setting 'orthorhombic'
loop_
_space_group_symop_operation_xyz
x,y,z
-x,-y,z
x,-y,-z
-x,y,-z
x,1/2+y,1/2+z
-x,1/2-y,1/2+z
x,1/2-y,1/2-z
-x,1/2+y,1/2-z
1/2+x,y,1/2+z
1/2-x,-y,1/2+z
1/2+x,-y,1/2-z
1/2-x,y,1/2-z
1/2+x,1/2+y,z
1/2-x,1/2-y,z
1/2+x,1/2-y,-z
1/2-x,1/2+y,-z
loop_
_atom_site_type_symbol
_atom_site_label
_atom_site_fract_x
_atom_site_fract_y
_atom_site_fract_z
Si Si1 0.885397 0.997352 0.780611
Si Si2 0.311490 0.000000 0.500000
Si Si3 0.906785 0.811452 0.543313
Si Si4 0.962346 0.646235 0.609405
Si Si5 0.713923 0.602393 0.641593
Si Si6 0.467926 0.865730 0.823386
O O1 0.920609 0.920886 0.831716
O O2 0.828710 0.968627 0.695967
O O3 0.935388 0.052270 0.713574
O O4 0.853896 0.033520 0.895080
O O5 0.266145 0.066394 0.555589
O O6 0.921397 0.722214 0.575748
O O7 0.836943 0.840145 0.583462
O O8 0.918885 0.825320 0.410871
O O9 0.962912 0.862517 0.608560
O O10 0.000000 0.615480 0.500000
O O11 0.015217 0.671716 0.702654
O O12 0.750000 0.639016 0.750000
#
# Coordination Sequence:
#
# PCOD9327996 Si02
#       6
#    16   8  16  16  16  16
#     4  11  23  40  66 101 138 177 237 288 349 417
#     4  10  22  44  61  97 130 190 232 298 332 402
#     4  11  24  42  68 102 142 180 229 285 355 422
#     4  12  24  41  66 105 148 181 221 288 368 430
#     4  10  22  41  67  90 135 183 243 285 334 408
#     4  11  23  41  68 104 136 179 219 290 355 421
#
# _framework density 21.278112
#
# number of rings (size 3 to 8) (size 9 to 14) (size 15 to 20)
#    0.000    1.091    3.636    3.273    0.000    0.727 
#    3.273    6.364    0.000    0.000    0.000    0.000 
#    0.000    0.000    0.000    0.000    0.000    0.000 
#
# Total GULP energy -122955.380462 kJ/mol
# GULP energy per Si atom -5588.880930 kJ/mol
# Density = 2.122968 g / cm^3
# Si number density = 21.278112 Si / 1000 Ang^3
#
#
#
# Elastic Constant Matrix: (Units=GPa)
#
#
# Indices 1 2 3 4 5 6 
#
# 1 78.8136 41.5552 24.2613 0.0000 0.0000 0.0000
# 2 41.5552 104.5321 43.2848 0.0000 0.0000 0.0000
# 3 24.2613 43.2848 121.8587 0.0000 0.0000 0.0000
# 4 0.0000 0.0000 0.0000 21.4392 0.0000 0.0000
# 5 0.0000 0.0000 0.0000 0.0000 38.5301 0.0000
# 6 0.0000 0.0000 0.0000 0.0000 0.0000 28.2201
#
#
#
# Elastic Compliance Matrix: (Units=1/GPa)
#
#
# Indices 1 2 3 4 5 6 
#
# 1 0.016177 -0.005976 -0.001098 0.000000 0.000000 0.000000
# 2 -0.005976 0.013424 -0.003578 0.000000 0.000000 0.000000
# 3 -0.001098 -0.003578 0.009696 0.000000 0.000000 0.000000
# 4 0.000000 0.000000 0.000000 0.046643 0.000000 0.000000
# 5 0.000000 0.000000 0.000000 0.000000 0.025954 0.000000
# 6 0.000000 0.000000 0.000000 0.000000 0.000000 0.035436
#
#
# Mechanical properties :
#
#
# Convention : Reuss Voigt Hill
#
# Bulk Modulus (GPa) = 55.58128 58.15633 56.86881
# Shear Modulus (GPa) = 28.63150 30.71144 29.67147
#
# Velocity S-wave (km/s) = 3.67220 3.80325 3.73830
# Velocity P-wave (km/s) = 6.64516 6.83206 6.73926
#
# Compressibility (1/GPa) = 0.01799167
#
# Stress axis : x y z
#
# Youngs Moduli (GPa) = 61.81517 74.49332 103.13649
#
# Poissons Ratio (x) = 0.44520 0.11324
# Poissons Ratio (y) = 0.36943 0.36907
# Poissons Ratio (z) = 0.06787 0.26657
#
# Static dielectric constant tensor:
#      x y z
#    x 1.792970 0.000000 0.000000 
#    y 0.000000 1.802850 0.000000 
#    z 0.000000 0.000000 1.792660 
# 
# From -- ./inp_files/22617.got.cif
#   From: 2010.05.17/outbox.cif.g08.bks.cpg/sg22_12_cif.got.tgz:22617.got - 2010.06.03 23:40:54.
