data_PCOD9327802
_publ_section_title
;
Structure prediction by ZEFSAII (Michael W. Deem and Ramdas Pophale) SiO2 
 PCOD9327802
Probable space group: F 2 2 2
;
_chemical_formula_sum "Si O2"
_cell_formula_units_Z 96
_cell_length_a 25.459057
_cell_length_b 9.329464
_cell_length_c 21.156042
_cell_angle_alpha 90.000000
_cell_angle_beta 90.000000
_cell_angle_gamma 90.000000
_cell_volume 5024.969466
_symmetry_space_group_name_H-M "F 2 2 2"
_symmetry_group_IT_number 22
_symmetry_cell_setting 'orthorhombic'
loop_
_space_group_symop_operation_xyz
x,y,z
-x,-y,z
x,-y,-z
-x,y,-z
x,1/2+y,1/2+z
-x,1/2-y,1/2+z
x,1/2-y,1/2-z
-x,1/2+y,1/2-z
1/2+x,y,1/2+z
1/2-x,-y,1/2+z
1/2+x,-y,1/2-z
1/2-x,y,1/2-z
1/2+x,1/2+y,z
1/2-x,1/2-y,z
1/2+x,1/2-y,-z
1/2-x,1/2+y,-z
loop_
_atom_site_type_symbol
_atom_site_label
_atom_site_fract_x
_atom_site_fract_y
_atom_site_fract_z
Si Si1 0.312173 0.726680 0.646435
Si Si2 0.046241 0.097984 0.714288
Si Si3 0.119180 0.498088 0.314519
Si Si4 0.804449 0.073858 0.287512
Si Si5 0.367521 0.270069 0.619442
Si Si6 0.804137 0.331894 0.999873
O O1 0.250000 0.750000 0.657555
O O2 0.320427 0.578460 0.682451
O O3 0.319079 0.711933 0.571454
O O4 0.349500 0.853004 0.671613
O O5 0.034065 0.250000 0.750000
O O6 0.067746 0.994334 0.771351
O O7 0.087575 0.141275 0.658161
O O8 0.000000 0.000000 0.686236
O O9 0.154086 0.595155 0.267632
O O10 0.116533 0.603289 0.374297
O O11 0.750000 0.071942 0.250000
O O12 0.813488 0.184257 0.343964
O O13 0.351983 0.305009 0.547929
O O14 0.750000 0.250000 0.016903
O O15 0.791800 0.500000 0.000000
#
# Coordination Sequence:
#
# PCOD9327802 Si02
#       6
#    16  16  16  16  16  16
#     4  11  22  36  51  81 121 166 206 238 285 352
#     4   9  20  41  65  96 120 149 197 257 322 371
#     4  10  22  35  56  91 114 154 194 244 310 356
#     4  11  20  33  51  78 119 153 193 245 286 354
#     4  10  23  39  57  85 119 156 205 246 297 362
#     4  11  25  40  55  80 124 171 213 241 282 355
#
# _framework density 19.104593999999999
#
# number of rings (size 3 to 8) (size 9 to 14) (size 15 to 20)
#    0.000    1.667    3.333    2.000    7.000    3.333 
#    0.000    0.000    0.000    0.500    0.000    1.167 
#    0.000    0.000    0.000    0.000    0.000    0.000 
#
# Total GULP energy -133610.401939 kJ/mol
# GULP energy per Si atom -5567.100081 kJ/mol
# Density = 1.906111 g / cm^3
# Si number density = 19.104594 Si / 1000 Ang^3
#
#
#
# Elastic Constant Matrix: (Units=GPa)
#
#
# Indices 1 2 3 4 5 6 
#
# 1 62.2604 27.3358 21.7252 0.0000 0.0000 0.0000
# 2 27.3358 92.6053 28.6573 0.0000 0.0000 0.0000
# 3 21.7252 28.6573 72.0754 0.0000 0.0000 0.0000
# 4 0.0000 0.0000 0.0000 19.3886 0.0000 0.0000
# 5 0.0000 0.0000 0.0000 0.0000 10.8136 0.0000
# 6 0.0000 0.0000 0.0000 0.0000 0.0000 15.7582
#
#
#
# Elastic Compliance Matrix: (Units=1/GPa)
#
#
# Indices 1 2 3 4 5 6 
#
# 1 0.019453 -0.004479 -0.004083 0.000000 0.000000 0.000000
# 2 -0.004479 0.013345 -0.003956 0.000000 0.000000 0.000000
# 3 -0.004083 -0.003956 0.016678 0.000000 0.000000 0.000000
# 4 0.000000 0.000000 0.000000 0.051577 0.000000 0.000000
# 5 0.000000 0.000000 0.000000 0.000000 0.092476 0.000000
# 6 0.000000 0.000000 0.000000 0.000000 0.000000 0.063459
#
#
# Mechanical properties :
#
#
# Convention : Reuss Voigt Hill
#
# Bulk Modulus (GPa) = 40.91564 42.48641 41.70102
# Shear Modulus (GPa) = 17.23137 19.14028 18.18583
#
# Velocity S-wave (km/s) = 3.00650 3.16866 3.08865
# Velocity P-wave (km/s) = 5.78923 5.97280 5.88173
#
# Compressibility (1/GPa) = 0.02444053
#
# Stress axis : x y z
#
# Youngs Moduli (GPa) = 51.40695 74.93578 59.95979
#
# Poissons Ratio (x) = 0.33562 0.24480
# Poissons Ratio (y) = 0.23024 0.23719
# Poissons Ratio (z) = 0.20988 0.29644
#
# Static dielectric constant tensor:
#      x y z
#    x 1.778350 0.000000 0.000000 
#    y 0.000000 1.757800 0.000000 
#    z 0.000000 0.000000 1.683560 
# 
# From -- ./inp_files/12826.got.cif
#   From: 2010.05.17/outbox.cif.g08.bks.cpg/sg22_7_cif.got.tgz:12826.got - 2010.06.03 23:40:54.
