data_PCOD9327997
_publ_section_title
;
Structure prediction by ZEFSAII (Michael W. Deem and Ramdas Pophale) SiO2 
 PCOD9327997
Probable space group: F 2 2 2
;
_chemical_formula_sum "Si O2"
_cell_formula_units_Z 96
_cell_length_a 27.902201
_cell_length_b 14.203308
_cell_length_c 13.695315
_cell_angle_alpha 90.000000
_cell_angle_beta 90.000000
_cell_angle_gamma 90.000000
_cell_volume 5427.502017
_symmetry_space_group_name_H-M "F 2 2 2"
_symmetry_group_IT_number 22
_symmetry_cell_setting 'orthorhombic'
loop_
_space_group_symop_operation_xyz
x,y,z
-x,-y,z
x,-y,-z
-x,y,-z
x,1/2+y,1/2+z
-x,1/2-y,1/2+z
x,1/2-y,1/2-z
-x,1/2+y,1/2-z
1/2+x,y,1/2+z
1/2-x,-y,1/2+z
1/2+x,-y,1/2-z
1/2-x,y,1/2-z
1/2+x,1/2+y,z
1/2-x,1/2-y,z
1/2+x,1/2-y,-z
1/2-x,1/2+y,-z
loop_
_atom_site_type_symbol
_atom_site_label
_atom_site_fract_x
_atom_site_fract_y
_atom_site_fract_z
Si Si1 0.523153 0.285264 0.642233
Si Si2 0.573738 0.737099 0.965027
Si Si3 0.555135 0.478295 0.723807
Si Si4 0.880811 0.046650 0.105715
Si Si5 0.374321 0.919492 0.081178
Si Si6 0.807097 0.637764 0.750644
O O1 0.514562 0.250000 0.750000
O O2 0.557412 0.221052 0.576139
O O3 0.472488 0.282376 0.587851
O O4 0.549301 0.115365 0.841641
O O5 0.588321 0.641347 0.913097
O O6 0.614089 0.816967 0.962148
O O7 0.500000 0.500000 0.751254
O O8 0.588517 0.481077 0.820007
O O9 0.581431 0.551658 0.652092
O O10 0.833408 0.083827 0.161600
O O11 0.872051 0.000000 0.000000
O O12 0.328998 0.907741 0.151660
O O13 0.368976 0.000000 0.000000
O O14 0.819430 0.750000 0.750000
O O15 0.750000 0.629262 0.750000
#
# Coordination Sequence:
#
# PCOD9327997 Si02
#       6
#    16  16  16  16  16  16
#     4  11  22  34  52  79 121 165 198 243 278 340
#     4  11  22  36  55  84 121 161 205 238 297 341
#     4  11  21  33  55  81 118 156 203 238 280 337
#     4  11  24  40  60  86 121 162 201 248 297 364
#     4  11  21  36  60  88 115 150 198 252 294 354
#     4  10  22  41  67  91 115 151 193 250 321 372
#
# _framework density 17.687695000000001
#
# number of rings (size 3 to 8) (size 9 to 14) (size 15 to 20)
#    0.000    1.167    5.000    2.000    2.333    2.667 
#    0.000    0.000    0.000    0.000    0.000    1.167 
#    0.000    0.000    0.000    0.000    0.000    0.000 
#
# Total GULP energy -133799.269193 kJ/mol
# GULP energy per Si atom -5574.969550 kJ/mol
# Density = 1.764744 g / cm^3
# Si number density = 17.687695 Si / 1000 Ang^3
#
#
#
# Elastic Constant Matrix: (Units=GPa)
#
#
# Indices 1 2 3 4 5 6 
#
# 1 96.8208 31.9977 48.2432 0.0000 0.0000 0.0000
# 2 31.9977 68.7688 26.9106 0.0000 0.0000 0.0000
# 3 48.2432 26.9106 120.5250 0.0000 0.0000 0.0000
# 4 0.0000 0.0000 0.0000 29.9317 0.0000 0.0000
# 5 0.0000 0.0000 0.0000 0.0000 13.2425 0.0000
# 6 0.0000 0.0000 0.0000 0.0000 0.0000 22.7546
#
#
#
# Elastic Compliance Matrix: (Units=1/GPa)
#
#
# Indices 1 2 3 4 5 6 
#
# 1 0.014218 -0.004809 -0.004618 0.000000 0.000000 0.000000
# 2 -0.004809 0.017560 -0.001996 0.000000 0.000000 0.000000
# 3 -0.004618 -0.001996 0.010591 0.000000 0.000000 0.000000
# 4 0.000000 0.000000 0.000000 0.033409 0.000000 0.000000
# 5 0.000000 0.000000 0.000000 0.000000 0.075514 0.000000
# 6 0.000000 0.000000 0.000000 0.000000 0.000000 0.043947
#
#
# Mechanical properties :
#
#
# Convention : Reuss Voigt Hill
#
# Bulk Modulus (GPa) = 51.21687 55.60195 53.40941
# Shear Modulus (GPa) = 22.26247 25.11664 23.68955
#
# Velocity S-wave (km/s) = 3.55158 3.77238 3.66365
# Velocity P-wave (km/s) = 6.77033 7.10480 6.93958
#
# Compressibility (1/GPa) = 0.01952482
#
# Stress axis : x y z
#
# Youngs Moduli (GPa) = 70.33147 56.94757 94.41994
#
# Poissons Ratio (x) = 0.27385 0.43599
# Poissons Ratio (y) = 0.33821 0.18846
# Poissons Ratio (z) = 0.32476 0.11366
#
# Static dielectric constant tensor:
#      x y z
#    x 1.592520 0.000000 0.000000 
#    y 0.000000 1.694790 0.000000 
#    z 0.000000 0.000000 1.622010 
# 
# From -- ./inp_files/24618.got.cif
#   From: 2010.05.17/outbox.cif.g08.bks.cpg/sg22_13_cif.got.tgz:24618.got - 2010.06.03 23:40:54.
