data_PCOD9327323
_publ_section_title
;
Structure prediction by ZEFSAII (Michael W. Deem and Ramdas Pophale) SiO2 
 PCOD9327323
Probable space group: F 2 2 2
;
_chemical_formula_sum "Si O2"
_cell_formula_units_Z 64
_cell_length_a 23.782954
_cell_length_b 15.770858
_cell_length_c 8.909355
_cell_angle_alpha 90.000000
_cell_angle_beta 90.000000
_cell_angle_gamma 90.000000
_cell_volume 3341.699405
_symmetry_space_group_name_H-M "F 2 2 2"
_symmetry_group_IT_number 22
_symmetry_cell_setting 'orthorhombic'
loop_
_space_group_symop_operation_xyz
x,y,z
-x,-y,z
x,-y,-z
-x,y,-z
x,1/2+y,1/2+z
-x,1/2-y,1/2+z
x,1/2-y,1/2-z
-x,1/2+y,1/2-z
1/2+x,y,1/2+z
1/2-x,-y,1/2+z
1/2+x,-y,1/2-z
1/2-x,y,1/2-z
1/2+x,1/2+y,z
1/2-x,1/2-y,z
1/2+x,1/2-y,-z
1/2-x,1/2+y,-z
loop_
_atom_site_type_symbol
_atom_site_label
_atom_site_fract_x
_atom_site_fract_y
_atom_site_fract_z
Si Si1 0.333653 0.162546 0.345818
Si Si2 0.877952 0.593436 0.046762
Si Si3 0.442793 0.756003 0.570903
Si Si4 0.240884 0.148360 0.581694
O O1 0.318426 0.250000 0.250000
O O2 0.358937 0.100514 0.220785
O O3 0.385921 0.189866 0.451104
O O4 0.283746 0.125286 0.446346
O O5 0.926459 0.661921 0.017064
O O6 0.894031 0.500000 0.000000
O O7 0.821784 0.622992 0.961537
O O8 0.500000 0.788152 0.500000
O O9 0.449989 0.750000 0.750000
O O10 0.250000 0.114676 0.750000
O O11 0.250000 0.250000 0.587200
#
# Coordination Sequence:
#
# PCOD9327323 Si02
#       4
#    16  16  16  16
#     4   9  18  35  56  77 109 149 189 232 281 335
#     4  10  21  35  54  82 115 149 184 228 297 341
#     4   9  19  34  56  81 105 142 194 237 276 333
#     4  11  20  31  53  83 111 145 195 233 274 338
#
# _framework density 19.151933
#
# number of rings (size 3 to 8) (size 9 to 14) (size 15 to 20)
#    0.000    2.750    5.000    0.750    0.000    4.500 
#    0.000    0.000    0.000    0.000    0.000    1.750 
#    0.000    0.000    0.000    0.000    0.000    0.000 
#
# Total GULP energy -89152.168443 kJ/mol
# GULP energy per Si atom -5572.010528 kJ/mol
# Density = 1.910834 g / cm^3
# Si number density = 19.151933 Si / 1000 Ang^3
#
#
#
# Elastic Constant Matrix: (Units=GPa)
#
#
# Indices 1 2 3 4 5 6 
#
# 1 82.6312 -5.4027 11.7907 0.0000 0.0000 0.0000
# 2 -5.4027 53.9447 6.0207 0.0000 0.0000 0.0000
# 3 11.7907 6.0207 47.9968 0.0000 0.0000 0.0000
# 4 0.0000 0.0000 0.0000 19.5422 0.0000 0.0000
# 5 0.0000 0.0000 0.0000 0.0000 32.2247 0.0000
# 6 0.0000 0.0000 0.0000 0.0000 0.0000 12.2625
#
#
#
# Elastic Compliance Matrix: (Units=1/GPa)
#
#
# Indices 1 2 3 4 5 6 
#
# 1 0.012683 0.001641 -0.003322 0.000000 0.000000 0.000000
# 2 0.001641 0.019013 -0.002788 0.000000 0.000000 0.000000
# 3 -0.003322 -0.002788 0.022000 0.000000 0.000000 0.000000
# 4 0.000000 0.000000 0.000000 0.051171 0.000000 0.000000
# 5 0.000000 0.000000 0.000000 0.000000 0.031032 0.000000
# 6 0.000000 0.000000 0.000000 0.000000 0.000000 0.081549
#
#
# Mechanical properties :
#
#
# Convention : Reuss Voigt Hill
#
# Bulk Modulus (GPa) = 22.34174 23.26558 22.80366
# Shear Modulus (GPa) = 20.72052 24.28347 22.50200
#
# Velocity S-wave (km/s) = 3.29280 3.56468 3.43143
# Velocity P-wave (km/s) = 5.11347 5.39600 5.25663
#
# Compressibility (1/GPa) = 0.04475926
#
# Stress axis : x y z
#
# Youngs Moduli (GPa) = 78.84435 52.59556 45.45364
#
# Poissons Ratio (x) = -0.08631 0.15098
# Poissons Ratio (y) = -0.12938 0.12673
# Poissons Ratio (z) = 0.26189 0.14664
#
# Static dielectric constant tensor:
#      x y z
#    x 1.665140 0.000000 0.000000 
#    y 0.000000 1.703010 0.000000 
#    z 0.000000 0.000000 1.709790 
# 
# From -- ./inp_files/11356.got.cif
#   From: 2010.05.17/outbox.cif.g08.bks.cpg/sg22_6_cif.got.tgz:11356.got - 2010.06.03 23:40:54.
