data_PCOD9327192
_publ_section_title
;
Structure prediction by ZEFSAII (Michael W. Deem and Ramdas Pophale) SiO2 
 PCOD9327192
Probable space group: F 2 2 2
;
_chemical_formula_sum "Si O2"
_cell_formula_units_Z 80
_cell_length_a 18.457536
_cell_length_b 9.417270
_cell_length_c 23.795336
_cell_angle_alpha 90.000000
_cell_angle_beta 90.000000
_cell_angle_gamma 90.000000
_cell_volume 4136.095786
_symmetry_space_group_name_H-M "F 2 2 2"
_symmetry_group_IT_number 22
_symmetry_cell_setting 'orthorhombic'
loop_
_space_group_symop_operation_xyz
x,y,z
-x,-y,z
x,-y,-z
-x,y,-z
x,1/2+y,1/2+z
-x,1/2-y,1/2+z
x,1/2-y,1/2-z
-x,1/2+y,1/2-z
1/2+x,y,1/2+z
1/2-x,-y,1/2+z
1/2+x,-y,1/2-z
1/2-x,y,1/2-z
1/2+x,1/2+y,z
1/2-x,1/2-y,z
1/2+x,1/2-y,-z
1/2-x,1/2+y,-z
loop_
_atom_site_type_symbol
_atom_site_label
_atom_site_fract_x
_atom_site_fract_y
_atom_site_fract_z
Si Si1 0.173300 0.664115 0.827134
Si Si2 0.077248 0.132028 0.029405
Si Si3 0.164479 0.092809 0.757211
Si Si4 0.423678 0.068268 0.339601
Si Si5 0.187881 0.367633 0.041252
O O1 0.250000 0.750000 0.814256
O O2 0.150718 0.533371 0.787387
O O3 0.108204 0.778312 0.821919
O O4 0.183009 0.607319 0.891236
O O5 0.071065 0.086071 0.093823
O O6 0.116016 0.281626 0.024966
O O7 0.000000 0.143807 0.000000
O O8 0.117834 0.000000 0.000000
O O9 0.131941 0.250000 0.750000
O O10 0.250000 0.106479 0.750000
O O11 0.138332 0.037438 0.817497
O O12 0.500000 0.000000 0.319136
O O13 0.250000 0.250000 0.034086
O O14 0.197772 0.500000 0.000000
#
# Coordination Sequence:
#
# PCOD9327192 Si02
#       5
#    16  16  16  16  16
#     4  10  21  42  67  93 133 183 222 279 350 406
#     4  10  20  40  66  93 132 175 214 267 334 402
#     4  11  24  41  64  98 135 177 231 282 340 408
#     4  11  22  39  69  99 129 178 227 270 338 409
#     4  10  22  39  63  99 131 170 222 275 333 398
#
# _framework density 19.341913000000002
#
# number of rings (size 3 to 8) (size 9 to 14) (size 15 to 20)
#    0.000    1.600    4.000    1.200    0.000    3.600 
#    3.600    0.000    0.000    0.000    0.000    0.000 
#    0.000    0.000    0.000    0.000    0.000    0.000 
#
# Total GULP energy -111353.598106 kJ/mol
# GULP energy per Si atom -5567.679905 kJ/mol
# Density = 1.929789 g / cm^3
# Si number density = 19.341913 Si / 1000 Ang^3
#
#
#
# Elastic Constant Matrix: (Units=GPa)
#
#
# Indices 1 2 3 4 5 6 
#
# 1 84.5841 34.8204 38.4450 0.0000 0.0000 0.0000
# 2 34.8204 144.5948 72.6431 0.0000 0.0000 0.0000
# 3 38.4450 72.6431 110.6368 0.0000 0.0000 0.0000
# 4 0.0000 0.0000 0.0000 40.0590 0.0000 0.0000
# 5 0.0000 0.0000 0.0000 0.0000 25.0205 0.0000
# 6 0.0000 0.0000 0.0000 0.0000 0.0000 24.7053
#
#
#
# Elastic Compliance Matrix: (Units=1/GPa)
#
#
# Indices 1 2 3 4 5 6 
#
# 1 0.014229 -0.001406 -0.004021 0.000000 0.000000 0.000000
# 2 -0.001406 0.010459 -0.006379 0.000000 0.000000 0.000000
# 3 -0.004021 -0.006379 0.014624 0.000000 0.000000 0.000000
# 4 0.000000 0.000000 0.000000 0.024963 0.000000 0.000000
# 5 0.000000 0.000000 0.000000 0.000000 0.039967 0.000000
# 6 0.000000 0.000000 0.000000 0.000000 0.000000 0.040477
#
#
# Mechanical properties :
#
#
# Convention : Reuss Voigt Hill
#
# Bulk Modulus (GPa) = 63.69392 70.18140 66.93766
# Shear Modulus (GPa) = 28.80759 30.88412 29.84585
#
# Velocity S-wave (km/s) = 3.86344 4.00026 3.93245
# Velocity P-wave (km/s) = 7.27349 7.59602 7.43650
#
# Compressibility (1/GPa) = 0.01570009
#
# Stress axis : x y z
#
# Youngs Moduli (GPa) = 70.27822 95.61006 68.38078
#
# Poissons Ratio (x) = 0.13447 0.27496
# Poissons Ratio (y) = 0.09884 0.43618
# Poissons Ratio (z) = 0.28259 0.60986
#
# Static dielectric constant tensor:
#      x y z
#    x 1.727060 0.000000 0.000000 
#    y 0.000000 1.730910 0.000000 
#    z 0.000000 0.000000 1.690980 
# 
# From -- ./inp_files/53473.got.cif
#   From: 2010.05.17/outbox.cif.g08.bks.cpg/sg22_27_cif.got.tgz:53473.got - 2010.06.03 23:40:54.
