data_PCOD9327051
_publ_section_title
;
Structure prediction by ZEFSAII (Michael W. Deem and Ramdas Pophale) SiO2 
 PCOD9327051
Probable space group: F 2 2 2
;
_chemical_formula_sum "Si O2"
_cell_formula_units_Z 96
_cell_length_a 20.475671
_cell_length_b 13.609120
_cell_length_c 15.047217
_cell_angle_alpha 90.000000
_cell_angle_beta 90.000000
_cell_angle_gamma 90.000000
_cell_volume 4192.995250
_symmetry_space_group_name_H-M "F 2 2 2"
_symmetry_group_IT_number 22
_symmetry_cell_setting 'orthorhombic'
loop_
_space_group_symop_operation_xyz
x,y,z
-x,-y,z
x,-y,-z
-x,y,-z
x,1/2+y,1/2+z
-x,1/2-y,1/2+z
x,1/2-y,1/2-z
-x,1/2+y,1/2-z
1/2+x,y,1/2+z
1/2-x,-y,1/2+z
1/2+x,-y,1/2-z
1/2-x,y,1/2-z
1/2+x,1/2+y,z
1/2-x,1/2-y,z
1/2+x,1/2-y,-z
1/2-x,1/2+y,-z
loop_
_atom_site_type_symbol
_atom_site_label
_atom_site_fract_x
_atom_site_fract_y
_atom_site_fract_z
Si Si1 0.719258 0.041495 0.653327
Si Si2 0.568406 0.765427 0.958676
Si Si3 0.188484 0.809360 0.153543
Si Si4 0.537300 0.140923 0.216672
Si Si5 0.657234 0.591894 0.435993
Si Si6 0.599886 0.950045 0.256831
O O1 0.750000 0.064696 0.750000
O O2 0.713582 0.922488 0.651703
O O3 0.764318 0.089758 0.578631
O O4 0.645312 0.079805 0.661544
O O5 0.620959 0.701773 0.901798
O O6 0.542902 0.849710 0.889508
O O7 0.500000 0.723909 0.000000
O O8 0.616301 0.816657 0.028879
O O9 0.181277 0.750000 0.250000
O O10 0.250000 0.750000 0.111440
O O11 0.540952 0.250000 0.250000
O O12 0.470073 0.098642 0.253616
O O13 0.591713 0.067599 0.252878
O O14 0.643021 0.500000 0.500000
O O15 0.631225 0.573595 0.337494
#
# Coordination Sequence:
#
# PCOD9327051 Si02
#       6
#    16  16  16  16  16  16
#     4  10  20  38  63  91 125 168 214 264 322 389
#     4  12  23  37  61  97 135 164 208 273 335 384
#     4  11  21  38  64  96 127 164 225 277 318 378
#     4  11  22  38  63  95 127 170 220 271 322 383
#     4  11  21  36  61  93 127 162 206 267 335 378
#     4  10  21  38  62  92 129 169 212 265 328 387
#
# _framework density 22.895327000000002
#
# number of rings (size 3 to 8) (size 9 to 14) (size 15 to 20)
#    0.000    1.167    5.000    3.500    0.000    0.333 
#    0.000    3.333    0.000    3.500    0.000    1.167 
#    0.000    0.000    0.000    0.000    0.000    0.000 
#
# Total GULP energy -133825.345140 kJ/mol
# GULP energy per Si atom -5576.056047 kJ/mol
# Density = 2.284322 g / cm^3
# Si number density = 22.895327 Si / 1000 Ang^3
#
#
#
# Elastic Constant Matrix: (Units=GPa)
#
#
# Indices 1 2 3 4 5 6 
#
# 1 123.5003 24.7535 44.1283 0.0000 0.0000 0.0000
# 2 24.7535 47.9342 28.3250 0.0000 0.0000 0.0000
# 3 44.1283 28.3250 63.4709 0.0000 0.0000 0.0000
# 4 0.0000 0.0000 0.0000 20.6269 0.0000 0.0000
# 5 0.0000 0.0000 0.0000 0.0000 70.3560 0.0000
# 6 0.0000 0.0000 0.0000 0.0000 0.0000 10.6002
#
#
#
# Elastic Compliance Matrix: (Units=1/GPa)
#
#
# Indices 1 2 3 4 5 6 
#
# 1 0.010858 -0.001557 -0.006855 0.000000 0.000000 0.000000
# 2 -0.001557 0.028557 -0.011662 0.000000 0.000000 0.000000
# 3 -0.006855 -0.011662 0.025725 0.000000 0.000000 0.000000
# 4 0.000000 0.000000 0.000000 0.048480 0.000000 0.000000
# 5 0.000000 0.000000 0.000000 0.000000 0.014213 0.000000
# 6 0.000000 0.000000 0.000000 0.000000 0.000000 0.094337
#
#
# Mechanical properties :
#
#
# Convention : Reuss Voigt Hill
#
# Bulk Modulus (GPa) = 40.00903 47.70210 43.85557
# Shear Modulus (GPa) = 18.47409 29.49654 23.98531
#
# Velocity S-wave (km/s) = 2.84367 3.59321 3.24019
# Velocity P-wave (km/s) = 5.31927 6.17211 5.76149
#
# Compressibility (1/GPa) = 0.02499435
#
# Stress axis : x y z
#
# Youngs Moduli (GPa) = 92.09441 35.01773 38.87256
#
# Poissons Ratio (x) = 0.05452 0.26645
# Poissons Ratio (y) = 0.14338 0.45332
# Poissons Ratio (z) = 0.63127 0.40836
#
# Static dielectric constant tensor:
#      x y z
#    x 1.995590 0.000000 0.000000 
#    y 0.000000 1.751710 0.000000 
#    z 0.000000 0.000000 2.189040 
# 
# From -- ./inp_files/29382.got.cif
#   From: 2010.05.17/outbox.cif.g08.bks.cpg/sg22_15_cif.got.tgz:29382.got - 2010.06.03 23:40:54.
