data_PCOD9327331
_publ_section_title
;
Structure prediction by ZEFSAII (Michael W. Deem and Ramdas Pophale) SiO2 
 PCOD9327331
Probable space group: F 2 2 2
;
_chemical_formula_sum "Si O2"
_cell_formula_units_Z 104
_cell_length_a 27.350955
_cell_length_b 9.569660
_cell_length_c 19.955066
_cell_angle_alpha 90.000000
_cell_angle_beta 90.000000
_cell_angle_gamma 90.000000
_cell_volume 5223.025805
_symmetry_space_group_name_H-M "F 2 2 2"
_symmetry_group_IT_number 22
_symmetry_cell_setting 'orthorhombic'
loop_
_space_group_symop_operation_xyz
x,y,z
-x,-y,z
x,-y,-z
-x,y,-z
x,1/2+y,1/2+z
-x,1/2-y,1/2+z
x,1/2-y,1/2-z
-x,1/2+y,1/2-z
1/2+x,y,1/2+z
1/2-x,-y,1/2+z
1/2+x,-y,1/2-z
1/2-x,y,1/2-z
1/2+x,1/2+y,z
1/2-x,1/2-y,z
1/2+x,1/2-y,-z
1/2-x,1/2+y,-z
loop_
_atom_site_type_symbol
_atom_site_label
_atom_site_fract_x
_atom_site_fract_y
_atom_site_fract_z
Si Si1 0.293718 0.348566 0.529295
Si Si2 0.377751 0.936392 0.132053
Si Si3 0.510249 0.346247 0.157701
Si Si4 0.402837 0.750000 0.250000
Si Si5 0.633336 0.144986 0.542005
Si Si6 0.598469 0.252766 0.671746
Si Si7 0.953531 0.789452 0.536296
O O1 0.277969 0.500000 0.500000
O O2 0.250000 0.250000 0.554093
O O3 0.332435 0.387092 0.587075
O O4 0.321872 0.249259 0.475468
O O5 0.374844 0.862447 0.204836
O O6 0.425333 0.889169 0.088529
O O7 0.383056 0.100420 0.142703
O O8 0.500000 0.500000 0.181064
O O9 0.559345 0.310562 0.196481
O O10 0.460927 0.257598 0.169004
O O11 0.523860 0.335412 0.080268
O O12 0.621957 0.136160 0.621735
O O13 0.586084 0.226166 0.513353
O O14 0.638704 0.000000 0.500000
O O15 0.612141 0.250000 0.750000
O O16 0.000000 0.853454 0.500000
#
# Coordination Sequence:
#
# PCOD9327331 Si02
#       7
#    16  16  16   8  16  16  16
#     4  11  23  46  76 105 128 163 220 297 371 440
#     4  10  24  43  63  98 135 177 237 290 352 416
#     4  11  21  34  52  87 131 192 237 272 324 380
#     4  10  22  38  59  90 142 186 233 268 322 414
#     4  11  23  41  64  99 135 179 226 286 353 408
#     4  12  23  39  64  92 141 189 237 284 333 417
#     4  10  21  35  57  86 129 179 230 289 329 392
#
# _framework density 19.911829000000001
#
# number of rings (size 3 to 8) (size 9 to 14) (size 15 to 20)
#    0.000    1.231    3.846    2.308    0.000    4.308 
#    2.769    0.385    0.000    0.462    0.000    0.000 
#    0.000    0.000    0.000    0.000    0.000    0.000 
#
# Total GULP energy -145026.151918 kJ/mol
# GULP energy per Si atom -5577.928920 kJ/mol
# Density = 1.986651 g / cm^3
# Si number density = 19.911829 Si / 1000 Ang^3
#
#
#
# Elastic Constant Matrix: (Units=GPa)
#
#
# Indices 1 2 3 4 5 6 
#
# 1 66.1855 27.7187 15.7147 0.0000 0.0000 0.0000
# 2 27.7187 93.9007 26.0051 0.0000 0.0000 0.0000
# 3 15.7147 26.0051 111.6837 0.0000 0.0000 0.0000
# 4 0.0000 0.0000 0.0000 21.6558 0.0000 0.0000
# 5 0.0000 0.0000 0.0000 0.0000 11.8607 0.0000
# 6 0.0000 0.0000 0.0000 0.0000 0.0000 17.1402
#
#
#
# Elastic Compliance Matrix: (Units=1/GPa)
#
#
# Indices 1 2 3 4 5 6 
#
# 1 0.017426 -0.004773 -0.001341 0.000000 0.000000 0.000000
# 2 -0.004773 0.012691 -0.002283 0.000000 0.000000 0.000000
# 3 -0.001341 -0.002283 0.009674 0.000000 0.000000 0.000000
# 4 0.000000 0.000000 0.000000 0.046177 0.000000 0.000000
# 5 0.000000 0.000000 0.000000 0.000000 0.084312 0.000000
# 6 0.000000 0.000000 0.000000 0.000000 0.000000 0.058342
#
#
# Mechanical properties :
#
#
# Convention : Reuss Voigt Hill
#
# Bulk Modulus (GPa) = 43.48308 45.62742 44.55525
# Shear Modulus (GPa) = 19.75639 23.62008 21.68824
#
# Velocity S-wave (km/s) = 3.15333 3.44791 3.30390
# Velocity P-wave (km/s) = 5.92817 6.23019 6.08105
#
# Compressibility (1/GPa) = 0.02299745
#
# Stress axis : x y z
#
# Youngs Moduli (GPa) = 57.38475 78.79713 103.36781
#
# Poissons Ratio (x) = 0.37608 0.13858
# Poissons Ratio (y) = 0.27389 0.23603
# Poissons Ratio (z) = 0.07693 0.17993
#
# Static dielectric constant tensor:
#      x y z
#    x 1.779660 0.000000 0.000000 
#    y 0.000000 1.769070 0.000000 
#    z 0.000000 0.000000 1.705590 
# 
# From -- ./inp_files/12958.got.cif
#   From: 2010.05.17/outbox.cif.g08.bks.cpg/sg22_7_cif.got.tgz:12958.got - 2010.06.03 23:40:54.
