data_PCOD9327979
_publ_section_title
;
Structure prediction by ZEFSAII (Michael W. Deem and Ramdas Pophale) SiO2 
 PCOD9327979
Probable space group: F 2 2 2
;
_chemical_formula_sum "Si O2"
_cell_formula_units_Z 88
_cell_length_a 28.312692
_cell_length_b 8.340725
_cell_length_c 19.027687
_cell_angle_alpha 90.000000
_cell_angle_beta 90.000000
_cell_angle_gamma 90.000000
_cell_volume 4493.357422
_symmetry_space_group_name_H-M "F 2 2 2"
_symmetry_group_IT_number 22
_symmetry_cell_setting 'orthorhombic'
loop_
_space_group_symop_operation_xyz
x,y,z
-x,-y,z
x,-y,-z
-x,y,-z
x,1/2+y,1/2+z
-x,1/2-y,1/2+z
x,1/2-y,1/2-z
-x,1/2+y,1/2-z
1/2+x,y,1/2+z
1/2-x,-y,1/2+z
1/2+x,-y,1/2-z
1/2-x,y,1/2-z
1/2+x,1/2+y,z
1/2-x,1/2-y,z
1/2+x,1/2-y,-z
1/2-x,1/2+y,-z
loop_
_atom_site_type_symbol
_atom_site_label
_atom_site_fract_x
_atom_site_fract_y
_atom_site_fract_z
Si Si1 0.948228 0.922181 0.206764
Si Si2 0.628452 0.148161 0.609793
Si Si3 0.890870 0.250000 0.250000
Si Si4 0.679051 0.250000 0.750000
Si Si5 0.250000 0.017332 0.750000
Si Si6 0.798683 0.186074 0.511947
Si Si7 0.681238 0.669083 0.864593
O O1 0.949457 0.750000 0.250000
O O2 0.926346 0.877562 0.129613
O O3 0.918241 0.078162 0.238461
O O4 0.000000 0.000000 0.201952
O O5 0.647622 0.198171 0.685998
O O6 0.653758 0.261628 0.553225
O O7 0.652464 0.976938 0.600876
O O8 0.855999 0.233866 0.316942
O O9 0.710796 0.395036 0.721305
O O10 0.278000 0.108961 0.688884
O O11 0.750000 0.250000 0.547452
O O12 0.799889 0.247277 0.432631
O O13 0.795241 0.000000 0.500000
#
# Coordination Sequence:
#
# PCOD9327979 Si02
#       7
#    16  16   8   8   8  16  16
#     4  11  22  42  73 105 136 163 220 291 363 417
#     4  10  22  41  63  95 132 171 219 281 339 396
#     4  10  24  40  66 105 134 173 219 289 348 408
#     4   9  18  33  64  93 124 171 220 273 326 391
#     4   9  20  33  60  90 129 175 230 265 313 382
#     4  12  28  41  61  89 138 194 237 270 323 400
#     4  10  23  40  61  91 135 177 232 268 323 391
#
# _framework density 19.584465000000002
#
# number of rings (size 3 to 8) (size 9 to 14) (size 15 to 20)
#    0.000    1.636    1.818    1.636   12.727    0.000 
#    0.000    0.000    0.000    8.727    0.000    6.364 
#    0.000    0.000    0.000    0.000    0.000    0.000 
#
# Total GULP energy -122524.856701 kJ/mol
# GULP energy per Si atom -5569.311668 kJ/mol
# Density = 1.953989 g / cm^3
# Si number density = 19.584465 Si / 1000 Ang^3
#
#
#
# Elastic Constant Matrix: (Units=GPa)
#
#
# Indices 1 2 3 4 5 6 
#
# 1 118.1253 54.2103 38.9643 0.0000 0.0000 0.0000
# 2 54.2103 120.7749 33.1141 0.0000 0.0000 0.0000
# 3 38.9643 33.1141 59.5763 0.0000 0.0000 0.0000
# 4 0.0000 0.0000 0.0000 -1.8775 0.0000 0.0000
# 5 0.0000 0.0000 0.0000 0.0000 -50.5347 0.0000
# 6 0.0000 0.0000 0.0000 0.0000 0.0000 34.4215
#
#
#
# Elastic Compliance Matrix: (Units=1/GPa)
#
#
# Indices 1 2 3 4 5 6 
#
# 1 0.012152 -0.003864 -0.005800 0.000000 0.000000 0.000000
# 2 -0.003864 0.010997 -0.003585 0.000000 0.000000 0.000000
# 3 -0.005800 -0.003585 0.022571 0.000000 0.000000 0.000000
# 4 0.000000 0.000000 0.000000 -0.532636 0.000000 0.000000
# 5 0.000000 0.000000 0.000000 0.000000 -0.019788 0.000000
# 6 0.000000 0.000000 0.000000 0.000000 0.000000 0.029052
#
#
# Mechanical properties :
#
#
# Convention : Reuss Voigt Hill
#
# Bulk Modulus (GPa) = 52.02427 61.22819 56.62623
# Shear Modulus (GPa) = -11.24238 7.88108 -1.68065
#
# Velocity S-wave (km/s) = -2.39852 2.00820 -0.92737
# Velocity P-wave (km/s) = 4.35329 6.05877 5.27541
#
# Compressibility (1/GPa) = 0.01922180
#
# Stress axis : x y z
#
# Youngs Moduli (GPa) = 82.29013 90.93061 44.30414
#
# Poissons Ratio (x) = 0.35138 0.25696
# Poissons Ratio (y) = 0.31799 0.15884
# Poissons Ratio (z) = 0.47727 0.32601
#
# Static dielectric constant tensor:
#      x y z
#    x 1.762620 0.000000 0.000000 
#    y 0.000000 1.722170 0.000000 
#    z 0.000000 0.000000 1.641800 
# 
# From -- ./inp_files/40362.got.cif
#   From: 2010.05.17/outbox.cif.g08.bks.cpg/sg22_21_cif.got.tgz:40362.got - 2010.06.03 23:40:54.
