data_PCOD9327279
_publ_section_title
;
Structure prediction by ZEFSAII (Michael W. Deem and Ramdas Pophale) SiO2 
 PCOD9327279
Probable space group: F 2 2 2
;
_chemical_formula_sum "Si O2"
_cell_formula_units_Z 84
_cell_length_a 19.080784
_cell_length_b 9.061659
_cell_length_c 20.564731
_cell_angle_alpha 90.000000
_cell_angle_beta 90.000000
_cell_angle_gamma 90.000000
_cell_volume 3555.715160
_symmetry_space_group_name_H-M "F 2 2 2"
_symmetry_group_IT_number 22
_symmetry_cell_setting 'orthorhombic'
loop_
_space_group_symop_operation_xyz
x,y,z
-x,-y,z
x,-y,-z
-x,y,-z
x,1/2+y,1/2+z
-x,1/2-y,1/2+z
x,1/2-y,1/2-z
-x,1/2+y,1/2-z
1/2+x,y,1/2+z
1/2-x,-y,1/2+z
1/2+x,-y,1/2-z
1/2-x,y,1/2-z
1/2+x,1/2+y,z
1/2-x,1/2-y,z
1/2+x,1/2-y,-z
1/2-x,1/2+y,-z
loop_
_atom_site_type_symbol
_atom_site_label
_atom_site_fract_x
_atom_site_fract_y
_atom_site_fract_z
Si Si1 0.590964 0.733217 0.827436
Si Si2 0.250000 0.750000 0.250000
Si Si3 0.639180 0.679247 0.080635
Si Si4 0.769431 0.048340 0.143217
Si Si5 0.583567 0.994298 0.075593
Si Si6 0.750000 0.250000 0.027900
Si Si7 0.000000 0.000000 0.103044
O O1 0.583756 0.750000 0.750000
O O2 0.659064 0.634422 0.840236
O O3 0.596356 0.874582 0.873823
O O4 0.527287 0.634820 0.853939
O O5 0.278176 0.879290 0.199823
O O6 0.697953 0.611436 0.129473
O O7 0.683041 0.707206 0.014882
O O8 0.570797 0.572070 0.070130
O O9 0.612122 0.839162 0.102613
O O10 0.739793 0.110113 0.075456
O O11 0.500000 0.000000 0.070704
O O12 0.607895 0.000000 0.000000
#
# Coordination Sequence:
#
# PCOD9327279 Si02
#       7
#    16   4  16  16  16   8   8
#     4  11  23  43  74 108 148 206 260 323 399 477
#     4  10  20  44  72  98 152 202 258 300 392 474
#     4  11  24  46  74 113 150 201 256 329 390 477
#     4  10  23  44  72 108 143 204 252 317 384 474
#     4  11  24  44  69 111 151 197 254 330 394 467
#     4  11  24  43  72 111 154 195 252 318 400 463
#     4  10  24  44  71 110 157 196 268 320 396 470
#
# _framework density 23.623940000000001
#
# number of rings (size 3 to 8) (size 9 to 14) (size 15 to 20)
#    0.000    1.333    2.857    1.714    1.333    7.619 
#    0.000    4.762    0.000    0.000    0.000    0.000 
#    0.000    0.000    0.000    0.000    0.000    0.000 
#
# Total GULP energy -116986.991628 kJ/mol
# GULP energy per Si atom -5570.809125 kJ/mol
# Density = 2.357017 g / cm^3
# Si number density = 23.623940 Si / 1000 Ang^3
#
#
#
# Elastic Constant Matrix: (Units=GPa)
#
#
# Indices 1 2 3 4 5 6 
#
# 1 122.7760 45.6305 71.7592 0.0000 0.0000 0.0000
# 2 45.6305 191.7574 85.3761 0.0000 0.0000 0.0000
# 3 71.7592 85.3761 166.1979 0.0000 0.0000 0.0000
# 4 0.0000 0.0000 0.0000 -236.3726 0.0000 0.0000
# 5 0.0000 0.0000 0.0000 0.0000 45.8122 0.0000
# 6 0.0000 0.0000 0.0000 0.0000 0.0000 55.1414
#
#
#
# Elastic Compliance Matrix: (Units=1/GPa)
#
#
# Indices 1 2 3 4 5 6 
#
# 1 0.010956 -0.000649 -0.004397 0.000000 0.000000 0.000000
# 2 -0.000649 0.006800 -0.003213 0.000000 0.000000 0.000000
# 3 -0.004397 -0.003213 0.009566 0.000000 0.000000 0.000000
# 4 0.000000 0.000000 0.000000 -0.004231 0.000000 0.000000
# 5 0.000000 0.000000 0.000000 0.000000 0.021828 0.000000
# 6 0.000000 0.000000 0.000000 0.000000 0.000000 0.018135
#
#
# Mechanical properties :
#
#
# Convention : Reuss Voigt Hill
#
# Bulk Modulus (GPa) = 92.56146 98.47367 95.51756
# Shear Modulus (GPa) = 60.11504 -8.55275 25.78114
#
# Velocity S-wave (km/s) = 5.04994 -1.90479 3.30709
# Velocity P-wave (km/s) = 8.55972 6.07756 7.42312
#
# Compressibility (1/GPa) = 0.01080363
#
# Stress axis : x y z
#
# Youngs Moduli (GPa) = 91.27275 147.06214 104.53998
#
# Poissons Ratio (x) = 0.09552 0.45965
# Poissons Ratio (y) = 0.05928 0.33585
# Poissons Ratio (z) = 0.40132 0.47246
#
# Static dielectric constant tensor:
#      x y z
#    x 2.317970 0.000000 0.000000 
#    y 0.000000 1.941550 0.000000 
#    z 0.000000 0.000000 2.009730 
# 
# From -- ./inp_files/45185.got.cif
#   From: 2010.05.17/outbox.cif.g08.bks.cpg/sg22_23_cif.got.tgz:45185.got - 2010.06.03 23:40:54.
