data_PCOD9327100
_publ_section_title
;
Structure prediction by ZEFSAII (Michael W. Deem and Ramdas Pophale) SiO2 
 PCOD9327100
Probable space group: F 2 2 2
;
_chemical_formula_sum "Si O2"
_cell_formula_units_Z 64
_cell_length_a 11.667770
_cell_length_b 15.647474
_cell_length_c 15.384142
_cell_angle_alpha 90.000000
_cell_angle_beta 90.000000
_cell_angle_gamma 90.000000
_cell_volume 2808.700154
_symmetry_space_group_name_H-M "F 2 2 2"
_symmetry_group_IT_number 22
_symmetry_cell_setting 'orthorhombic'
loop_
_space_group_symop_operation_xyz
x,y,z
-x,-y,z
x,-y,-z
-x,y,-z
x,1/2+y,1/2+z
-x,1/2-y,1/2+z
x,1/2-y,1/2-z
-x,1/2+y,1/2-z
1/2+x,y,1/2+z
1/2-x,-y,1/2+z
1/2+x,-y,1/2-z
1/2-x,y,1/2-z
1/2+x,1/2+y,z
1/2-x,1/2-y,z
1/2+x,1/2-y,-z
1/2-x,1/2+y,-z
loop_
_atom_site_type_symbol
_atom_site_label
_atom_site_fract_x
_atom_site_fract_y
_atom_site_fract_z
Si Si1 0.875539 0.883066 0.284710
Si Si2 0.094956 0.621281 0.318139
Si Si3 0.679971 0.562023 0.633073
Si Si4 0.541367 0.710371 0.590981
O O1 0.750000 0.862226 0.250000
O O2 0.961759 0.898728 0.202811
O O3 0.935523 0.813871 0.346076
O O4 0.864517 0.968013 0.344691
O O5 0.182743 0.563083 0.373400
O O6 0.143856 0.612760 0.220839
O O7 0.106679 0.714581 0.358864
O O8 0.613803 0.624122 0.567474
O O9 0.500000 0.747508 0.500000
#
# Coordination Sequence:
#
# PCOD9327100 Si02
#       4
#    16  16  16  16
#     4  11  22  39  68  97 123 163 217 280 316 373
#     4  10  20  39  64  92 123 166 212 260 316 385
#     4  10  20  38  71  92 118 167 225 263 310 389
#     4  11  24  40  62  94 133 170 212 265 329 393
#
# _framework density 22.786341
#
# number of rings (size 3 to 8) (size 9 to 14) (size 15 to 20)
#    0.000    1.500    2.500    6.750    0.000    8.000 
#    9.000    0.000    0.000    3.000    0.000    0.000 
#    0.000    0.000    0.000    0.000    0.000    0.000 
#
# Total GULP energy -89146.978258 kJ/mol
# GULP energy per Si atom -5571.686141 kJ/mol
# Density = 2.273448 g / cm^3
# Si number density = 22.786341 Si / 1000 Ang^3
#
#
#
# Elastic Constant Matrix: (Units=GPa)
#
#
# Indices 1 2 3 4 5 6 
#
# 1 150.8689 -2.1384 -5.7344 0.0000 0.0000 0.0000
# 2 -2.1384 84.9746 -0.9685 0.0000 0.0000 0.0000
# 3 -5.7344 -0.9685 35.2318 0.0000 0.0000 0.0000
# 4 0.0000 0.0000 0.0000 -232.1379 0.0000 0.0000
# 5 0.0000 0.0000 0.0000 0.0000 10.2549 0.0000
# 6 0.0000 0.0000 0.0000 0.0000 0.0000 32.5891
#
#
#
# Elastic Compliance Matrix: (Units=1/GPa)
#
#
# Indices 1 2 3 4 5 6 
#
# 1 0.006672 0.000180 0.001091 0.000000 0.000000 0.000000
# 2 0.000180 0.011777 0.000353 0.000000 0.000000 0.000000
# 3 0.001091 0.000353 0.028571 0.000000 0.000000 0.000000
# 4 0.000000 0.000000 0.000000 -0.004308 0.000000 0.000000
# 5 0.000000 0.000000 0.000000 0.000000 0.097514 0.000000
# 6 0.000000 0.000000 0.000000 0.000000 0.000000 0.030685
#
#
# Mechanical properties :
#
#
# Convention : Reuss Voigt Hill
#
# Bulk Modulus (GPa) = 19.89314 28.15475 24.02394
# Shear Modulus (GPa) = 27.11224 -19.19768 3.95728
#
# Velocity S-wave (km/s) = 3.45316 -2.90575 1.31926
# Velocity P-wave (km/s) = 4.96471 1.06065 3.58980
#
# Compressibility (1/GPa) = 0.05026858
#
# Stress axis : x y z
#
# Youngs Moduli (GPa) = 149.87351 84.91282 35.00086
#
# Poissons Ratio (x) = -0.01531 -0.03818
# Poissons Ratio (y) = -0.02703 -0.01236
# Poissons Ratio (z) = -0.16350 -0.02998
#
# Static dielectric constant tensor:
#      x y z
#    x 2.224670 0.000000 0.000000 
#    y 0.000000 1.890230 0.000000 
#    z 0.000000 0.000000 1.912810 
# 
# From -- ./inp_files/19402.got.cif
#   From: 2010.05.17/outbox.cif.g08.bks.cpg/sg22_10_cif.got.tgz:19402.got - 2010.06.03 23:40:54.
