data_PCOD9327546
_publ_section_title
;
Structure prediction by ZEFSAII (Michael W. Deem and Ramdas Pophale) SiO2 
 PCOD9327546
Probable space group: F 2 2 2
;
_chemical_formula_sum "Si O2"
_cell_formula_units_Z 84
_cell_length_a 11.642043
_cell_length_b 20.912792
_cell_length_c 16.558655
_cell_angle_alpha 90.000000
_cell_angle_beta 90.000000
_cell_angle_gamma 90.000000
_cell_volume 4031.496385
_symmetry_space_group_name_H-M "F 2 2 2"
_symmetry_group_IT_number 22
_symmetry_cell_setting 'orthorhombic'
loop_
_space_group_symop_operation_xyz
x,y,z
-x,-y,z
x,-y,-z
-x,y,-z
x,1/2+y,1/2+z
-x,1/2-y,1/2+z
x,1/2-y,1/2-z
-x,1/2+y,1/2-z
1/2+x,y,1/2+z
1/2-x,-y,1/2+z
1/2+x,-y,1/2-z
1/2-x,y,1/2-z
1/2+x,1/2+y,z
1/2-x,1/2-y,z
1/2+x,1/2-y,-z
1/2-x,1/2+y,-z
loop_
_atom_site_type_symbol
_atom_site_label
_atom_site_fract_x
_atom_site_fract_y
_atom_site_fract_z
Si Si1 0.471319 0.834317 0.406821
Si Si2 0.267979 0.672777 0.339800
Si Si3 0.487525 0.685750 0.596045
Si Si4 0.500000 0.500000 0.500000
Si Si5 0.651182 0.070409 0.864901
Si Si6 0.591239 0.553355 0.179467
O O1 0.500000 0.845590 0.500000
O O2 0.335903 0.847918 0.396227
O O3 0.505490 0.761201 0.385620
O O4 0.537573 0.879361 0.345782
O O5 0.250000 0.647244 0.250000
O O6 0.250000 0.750000 0.337435
O O7 0.395330 0.656538 0.367635
O O8 0.500000 0.681003 0.500000
O O9 0.378031 0.646216 0.626435
O O10 0.581148 0.539739 0.438959
O O11 0.607740 0.049874 0.776059
O O12 0.784657 0.051262 0.863552
O O13 0.500000 0.500000 0.153409
#
# Coordination Sequence:
#
# PCOD9327546 Si02
#       6
#    16  16  16   4  16  16
#     4  10  23  39  64  98 138 178 219 277 346 402
#     4   9  18  35  59  89 125 168 216 264 324 393
#     4  10  21  39  66 101 132 169 228 283 334 407
#     4  12  24  48  74 100 126 180 230 274 344 420
#     4  11  25  44  73  99 131 180 232 290 346 411
#     4  11  26  47  64  98 141 178 231 288 348 414
#
# _framework density 20.835936
#
# number of rings (size 3 to 8) (size 9 to 14) (size 15 to 20)
#    0.000    1.714    1.905    1.143    2.667    6.476 
#    3.429    1.905    0.000    0.000    0.000    0.000 
#    0.000    0.000    0.000    0.000    0.000    0.000 
#
# Total GULP energy -117275.367748 kJ/mol
# GULP energy per Si atom -5584.541321 kJ/mol
# Density = 2.078851 g / cm^3
# Si number density = 20.835936 Si / 1000 Ang^3
#
#
#
# Elastic Constant Matrix: (Units=GPa)
#
#
# Indices 1 2 3 4 5 6 
#
# 1 143.2616 60.5345 68.2559 0.0000 0.0000 0.0000
# 2 60.5345 72.5182 30.1075 0.0000 0.0000 0.0000
# 3 68.2559 30.1075 95.9636 0.0000 0.0000 0.0000
# 4 0.0000 0.0000 0.0000 -10.3959 0.0000 0.0000
# 5 0.0000 0.0000 0.0000 0.0000 43.3458 0.0000
# 6 0.0000 0.0000 0.0000 0.0000 0.0000 26.6056
#
#
#
# Elastic Compliance Matrix: (Units=1/GPa)
#
#
# Indices 1 2 3 4 5 6 
#
# 1 0.014195 -0.008804 -0.007334 0.000000 0.000000 0.000000
# 2 -0.008804 0.021315 -0.000425 0.000000 0.000000 0.000000
# 3 -0.007334 -0.000425 0.015771 0.000000 0.000000 0.000000
# 4 0.000000 0.000000 0.000000 -0.096192 0.000000 0.000000
# 5 0.000000 0.000000 0.000000 0.000000 0.023070 0.000000
# 6 0.000000 0.000000 0.000000 0.000000 0.000000 0.037586
#
#
# Mechanical properties :
#
#
# Convention : Reuss Voigt Hill
#
# Bulk Modulus (GPa) = 55.08545 69.94881 62.51713
# Shear Modulus (GPa) = 91.03670 22.10080 56.56875
#
# Velocity S-wave (km/s) = 6.61718 3.26038 5.21618
# Velocity P-wave (km/s) = 9.21291 6.91502 8.14541
#
# Compressibility (1/GPa) = 0.01815361
#
# Stress axis : x y z
#
# Youngs Moduli (GPa) = 70.44940 46.91428 63.40940
#
# Poissons Ratio (x) = 0.41304 0.46504
# Poissons Ratio (y) = 0.62024 0.02698
# Poissons Ratio (z) = 0.51668 0.01996
#
# Static dielectric constant tensor:
#      x y z
#    x 1.739630 0.000000 0.000000 
#    y 0.000000 1.804530 0.000000 
#    z 0.000000 0.000000 1.696480 
# 
# From -- ./inp_files/36021.got.cif
#   From: 2010.05.17/outbox.cif.g08.bks.cpg/sg22_19_cif.got.tgz:36021.got - 2010.06.03 23:40:54.
