data_PCOD9327610
_publ_section_title
;
Structure prediction by ZEFSAII (Michael W. Deem and Ramdas Pophale) SiO2 
 PCOD9327610
Probable space group: F 2 2 2
;
_chemical_formula_sum "Si O2"
_cell_formula_units_Z 64
_cell_length_a 8.423803
_cell_length_b 13.952592
_cell_length_c 24.011855
_cell_angle_alpha 90.000000
_cell_angle_beta 90.000000
_cell_angle_gamma 90.000000
_cell_volume 2822.206637
_symmetry_space_group_name_H-M "F 2 2 2"
_symmetry_group_IT_number 22
_symmetry_cell_setting 'orthorhombic'
loop_
_space_group_symop_operation_xyz
x,y,z
-x,-y,z
x,-y,-z
-x,y,-z
x,1/2+y,1/2+z
-x,1/2-y,1/2+z
x,1/2-y,1/2-z
-x,1/2+y,1/2-z
1/2+x,y,1/2+z
1/2-x,-y,1/2+z
1/2+x,-y,1/2-z
1/2-x,y,1/2-z
1/2+x,1/2+y,z
1/2-x,1/2-y,z
1/2+x,1/2-y,-z
1/2-x,1/2+y,-z
loop_
_atom_site_type_symbol
_atom_site_label
_atom_site_fract_x
_atom_site_fract_y
_atom_site_fract_z
Si Si1 0.179940 0.509973 0.426821
Si Si2 0.183595 0.978094 0.196337
Si Si3 0.668886 0.849853 0.137053
Si Si4 0.391086 0.325237 0.552984
O O1 0.179065 0.563475 0.365913
O O2 0.237523 0.403432 0.412835
O O3 0.304497 0.573714 0.459226
O O4 0.000000 0.500000 0.444744
O O5 0.250000 0.924260 0.250000
O O6 0.298179 0.071956 0.185917
O O7 0.000000 0.000000 0.207497
O O8 0.750000 0.750000 0.151557
O O9 0.497404 0.834641 0.109227
O O10 0.500000 0.298871 0.500000
O O11 0.250000 0.250000 0.559133
#
# Coordination Sequence:
#
# PCOD9327610 Si02
#       4
#    16  16  16  16
#     4   9  21  42  65  95 131 179 216 281 336 393
#     4   9  21  38  68  98 138 178 232 268 338 390
#     4  10  21  40  65  97 139 173 224 274 333 396
#     4  12  26  43  68  97 132 175 231 284 349 411
#
# _framework density 22.677291
#
# number of rings (size 3 to 8) (size 9 to 14) (size 15 to 20)
#    1.500    0.500    0.000    3.000    3.500    2.500 
#    0.000    2.500    0.000    0.750    0.000    0.000 
#    0.000    0.000    0.000    0.000    0.000    0.000 
#
# Total GULP energy -89103.550671 kJ/mol
# GULP energy per Si atom -5568.971917 kJ/mol
# Density = 2.262568 g / cm^3
# Si number density = 22.677291 Si / 1000 Ang^3
#
#
#
# Elastic Constant Matrix: (Units=GPa)
#
#
# Indices 1 2 3 4 5 6 
#
# 1 149.4158 14.5000 30.7775 0.0000 0.0000 0.0000
# 2 14.5000 59.2050 -8.6140 0.0000 0.0000 0.0000
# 3 30.7775 -8.6140 116.4296 0.0000 0.0000 0.0000
# 4 0.0000 0.0000 0.0000 77.9910 0.0000 0.0000
# 5 0.0000 0.0000 0.0000 0.0000 -815.1581 0.0000
# 6 0.0000 0.0000 0.0000 0.0000 0.0000 46.8463
#
#
#
# Elastic Compliance Matrix: (Units=1/GPa)
#
#
# Indices 1 2 3 4 5 6 
#
# 1 0.007327 -0.002099 -0.002092 0.000000 0.000000 0.000000
# 2 -0.002099 0.017676 0.001863 0.000000 0.000000 0.000000
# 3 -0.002092 0.001863 0.009280 0.000000 0.000000 0.000000
# 4 0.000000 0.000000 0.000000 0.012822 0.000000 0.000000
# 5 0.000000 0.000000 0.000000 0.000000 -0.001227 0.000000
# 6 0.000000 0.000000 0.000000 0.000000 0.000000 0.021346
#
#
# Mechanical properties :
#
#
# Convention : Reuss Voigt Hill
#
# Bulk Modulus (GPa) = 33.75484 44.26414 39.00949
# Shear Modulus (GPa) = 61.15702 -118.83836 -28.84067
#
# Velocity S-wave (km/s) = 5.19874 -7.24692 -3.57008
# Velocity P-wave (km/s) = 7.13814 7.10368 0.49537
#
# Compressibility (1/GPa) = 0.02962538
#
# Stress axis : x y z
#
# Youngs Moduli (GPa) = 136.47406 56.57541 107.76141
#
# Poissons Ratio (x) = 0.11875 0.22546
# Poissons Ratio (y) = 0.28646 -0.20071
# Poissons Ratio (z) = 0.28554 -0.10538
#
# Static dielectric constant tensor:
#      x y z
#    x 1.644250 0.000000 0.000000 
#    y 0.000000 1.931170 0.000000 
#    z 0.000000 0.000000 1.980060 
# 
# From -- ./inp_files/55350.got.cif
#   From: 2010.05.17/outbox.cif.g08.bks.cpg/sg22_28_cif.got.tgz:55350.got - 2010.06.03 23:40:54.
