data_PCOD9327424
_publ_section_title
;
Structure prediction by ZEFSAII (Michael W. Deem and Ramdas Pophale) SiO2 
 PCOD9327424
Probable space group: F 2 2 2
;
_chemical_formula_sum "Si O2"
_cell_formula_units_Z 116
_cell_length_a 13.685406
_cell_length_b 23.652360
_cell_length_c 16.242752
_cell_angle_alpha 90.000000
_cell_angle_beta 90.000000
_cell_angle_gamma 90.000000
_cell_volume 5257.651308
_symmetry_space_group_name_H-M "F 2 2 2"
_symmetry_group_IT_number 22
_symmetry_cell_setting 'orthorhombic'
loop_
_space_group_symop_operation_xyz
x,y,z
-x,-y,z
x,-y,-z
-x,y,-z
x,1/2+y,1/2+z
-x,1/2-y,1/2+z
x,1/2-y,1/2-z
-x,1/2+y,1/2-z
1/2+x,y,1/2+z
1/2-x,-y,1/2+z
1/2+x,-y,1/2-z
1/2-x,y,1/2-z
1/2+x,1/2+y,z
1/2-x,1/2-y,z
1/2+x,1/2-y,-z
1/2-x,1/2+y,-z
loop_
_atom_site_type_symbol
_atom_site_label
_atom_site_fract_x
_atom_site_fract_y
_atom_site_fract_z
Si Si1 0.623890 0.963958 0.579871
Si Si2 0.150842 0.070524 0.609844
Si Si3 0.734785 0.682416 0.566593
Si Si4 0.363581 0.521221 0.750722
Si Si5 0.500000 0.000000 0.000000
Si Si6 0.402859 0.643946 0.768319
Si Si7 0.278367 0.184565 0.127534
Si Si8 0.457645 0.153476 0.587644
O O1 0.738265 0.944501 0.581685
O O2 0.546031 0.913967 0.582877
O O3 0.611901 0.000000 0.500000
O O4 0.611126 0.001029 0.659716
O O5 0.158794 0.139528 0.612999
O O6 0.071521 0.042684 0.549271
O O7 0.130982 0.033302 0.691638
O O8 0.750000 0.750000 0.577517
O O9 0.713742 0.671168 0.469148
O O10 0.843892 0.665690 0.591246
O O11 0.250000 0.537743 0.750000
O O12 0.420092 0.579834 0.736761
O O13 0.372642 0.676338 0.685294
O O14 0.308459 0.648405 0.829929
O O15 0.486134 0.668151 0.828448
O O16 0.250000 0.250000 0.133691
O O17 0.500000 0.176005 0.500000
#
# Coordination Sequence:
#
# PCOD9327424 Si02
#       8
#    16  16  16  16   4  16  16  16
#     4  10  21  38  63  90 135 184 225 280 368 445
#     4  10  24  41  66  98 139 186 239 305 378 453
#     4  10  23  47  74  95 139 199 255 312 388 458
#     4  10  21  37  62  96 136 180 221 279 363 446
#     4  12  24  40  68 100 144 188 252 310 380 472
#     4  11  20  33  62  98 142 174 228 304 372 446
#     4  10  21  39  66  99 140 187 239 310 386 443
#     4  11  22  37  63 100 133 177 243 300 366 456
#
# _framework density 22.063082999999999
#
# number of rings (size 3 to 8) (size 9 to 14) (size 15 to 20)
#    0.000    1.655    3.448    1.655    3.862    3.034 
#    1.241    0.000    6.069    9.517    0.000    0.000 
#    0.000    0.000    0.000    0.000    0.000    0.000 
#
# Total GULP energy -161671.636525 kJ/mol
# GULP energy per Si atom -5574.884018 kJ/mol
# Density = 2.201287 g / cm^3
# Si number density = 22.063083 Si / 1000 Ang^3
#
#
#
# Elastic Constant Matrix: (Units=GPa)
#
#
# Indices 1 2 3 4 5 6 
#
# 1 95.6954 17.9403 36.2342 0.0000 0.0000 0.0000
# 2 17.9403 117.1101 52.6276 0.0000 0.0000 0.0000
# 3 36.2342 52.6276 118.3401 0.0000 0.0000 0.0000
# 4 0.0000 0.0000 0.0000 34.2699 0.0000 0.0000
# 5 0.0000 0.0000 0.0000 0.0000 26.7353 0.0000
# 6 0.0000 0.0000 0.0000 0.0000 0.0000 11.2972
#
#
#
# Elastic Compliance Matrix: (Units=1/GPa)
#
#
# Indices 1 2 3 4 5 6 
#
# 1 0.011825 -0.000230 -0.003518 0.000000 0.000000 0.000000
# 2 -0.000230 0.010676 -0.004677 0.000000 0.000000 0.000000
# 3 -0.003518 -0.004677 0.011608 0.000000 0.000000 0.000000
# 4 0.000000 0.000000 0.000000 0.029180 0.000000 0.000000
# 5 0.000000 0.000000 0.000000 0.000000 0.037404 0.000000
# 6 0.000000 0.000000 0.000000 0.000000 0.000000 0.088518
#
#
# Mechanical properties :
#
#
# Convention : Reuss Voigt Hill
#
# Bulk Modulus (GPa) = 57.94785 60.52777 59.23781
# Shear Modulus (GPa) = 23.60554 29.41672 26.51113
#
# Velocity S-wave (km/s) = 3.27450 3.65540 3.47018
# Velocity P-wave (km/s) = 6.37323 6.73123 6.55468
#
# Compressibility (1/GPa) = 0.01725690
#
# Stress axis : x y z
#
# Youngs Moduli (GPa) = 84.56537 93.66638 86.15115
#
# Poissons Ratio (x) = 0.02159 0.30310
# Poissons Ratio (y) = 0.01949 0.40295
# Poissons Ratio (z) = 0.29752 0.43810
#
# Static dielectric constant tensor:
#      x y z
#    x 1.852470 0.000000 0.000000 
#    y 0.000000 2.022670 0.000000 
#    z 0.000000 0.000000 1.831830 
# 
# From -- ./inp_files/37394.got.cif
#   From: 2010.05.17/outbox.cif.g08.bks.cpg/sg22_19_cif.got.tgz:37394.got - 2010.06.03 23:40:54.
