data_PCOD9327125
_publ_section_title
;
Structure prediction by ZEFSAII (Michael W. Deem and Ramdas Pophale) SiO2 
 PCOD9327125
Probable space group: F 2 2 2
;
_chemical_formula_sum "Si O2"
_cell_formula_units_Z 112
_cell_length_a 24.521104
_cell_length_b 15.342511
_cell_length_c 13.520884
_cell_angle_alpha 90.000000
_cell_angle_beta 90.000000
_cell_angle_gamma 90.000000
_cell_volume 5086.763536
_symmetry_space_group_name_H-M "F 2 2 2"
_symmetry_group_IT_number 22
_symmetry_cell_setting 'orthorhombic'
loop_
_space_group_symop_operation_xyz
x,y,z
-x,-y,z
x,-y,-z
-x,y,-z
x,1/2+y,1/2+z
-x,1/2-y,1/2+z
x,1/2-y,1/2-z
-x,1/2+y,1/2-z
1/2+x,y,1/2+z
1/2-x,-y,1/2+z
1/2+x,-y,1/2-z
1/2-x,y,1/2-z
1/2+x,1/2+y,z
1/2-x,1/2-y,z
1/2+x,1/2-y,-z
1/2-x,1/2+y,-z
loop_
_atom_site_type_symbol
_atom_site_label
_atom_site_fract_x
_atom_site_fract_y
_atom_site_fract_z
Si Si1 0.335081 0.880733 0.921577
Si Si2 0.271033 0.845307 0.484949
Si Si3 0.867697 0.929708 0.642675
Si Si4 0.879352 0.581221 0.431574
Si Si5 0.458325 0.300523 0.647263
Si Si6 0.573526 0.748760 0.425436
Si Si7 0.298873 0.968144 0.309774
O O1 0.371749 0.799708 0.889565
O O2 0.357645 0.967341 0.870254
O O3 0.269991 0.868768 0.925093
O O4 0.347164 0.891518 0.038967
O O5 0.250000 0.750000 0.453135
O O6 0.334248 0.856549 0.514906
O O7 0.270019 0.917265 0.399069
O O8 0.928670 0.894083 0.655293
O O9 0.831241 0.903019 0.736639
O O10 0.897528 0.500000 0.500000
O O11 0.925093 0.648897 0.399486
O O12 0.843758 0.534261 0.348730
O O13 0.447389 0.250000 0.750000
O O14 0.434257 0.258290 0.545217
O O15 0.522556 0.299376 0.625033
O O16 0.250000 0.010461 0.250000
#
# Coordination Sequence:
#
# PCOD9327125 Si02
#       7
#    16  16  16  16  16  16  16
#     4  10  20  39  65  90 133 171 216 266 336 403
#     4  11  21  36  62  97 130 178 215 265 331 401
#     4  10  22  38  63  94 128 174 211 277 334 391
#     4  10  23  38  64  90 133 177 217 264 335 407
#     4  10  24  42  70  93 128 162 226 295 341 391
#     4  10  22  45  65  97 124 174 227 280 337 405
#     4  11  22  37  59 100 138 170 221 266 326 409
#
# _framework density 22.017928000000001
#
# number of rings (size 3 to 8) (size 9 to 14) (size 15 to 20)
#    0.000    1.714    2.857    0.857    8.000    2.000 
#    0.000    4.286    0.000    0.000    0.000    0.000 
#    0.000    0.000    0.000    0.000    0.000    0.000 
#
# Total GULP energy -156117.593426 kJ/mol
# GULP energy per Si atom -5575.628337 kJ/mol
# Density = 2.196781 g / cm^3
# Si number density = 22.017928 Si / 1000 Ang^3
#
#
#
# Elastic Constant Matrix: (Units=GPa)
#
#
# Indices 1 2 3 4 5 6 
#
# 1 81.3296 34.4886 13.2904 0.0000 0.0000 0.0000
# 2 34.4886 86.2963 -3.6811 0.0000 0.0000 0.0000
# 3 13.2904 -3.6811 47.9134 0.0000 0.0000 0.0000
# 4 0.0000 0.0000 0.0000 1.1231 0.0000 0.0000
# 5 0.0000 0.0000 0.0000 0.0000 11.3578 0.0000
# 6 0.0000 0.0000 0.0000 0.0000 0.0000 37.6980
#
#
#
# Elastic Compliance Matrix: (Units=1/GPa)
#
#
# Indices 1 2 3 4 5 6 
#
# 1 0.015877 -0.006555 -0.004908 0.000000 0.000000 0.000000
# 2 -0.006555 0.014332 0.002919 0.000000 0.000000 0.000000
# 3 -0.004908 0.002919 0.022457 0.000000 0.000000 0.000000
# 4 0.000000 0.000000 0.000000 0.890360 0.000000 0.000000
# 5 0.000000 0.000000 0.000000 0.000000 0.088045 0.000000
# 6 0.000000 0.000000 0.000000 0.000000 0.000000 0.026527
#
#
# Mechanical properties :
#
#
# Convention : Reuss Voigt Hill
#
# Bulk Modulus (GPa) = 28.10591 33.74833 30.92712
# Shear Modulus (GPa) = 4.60175 21.46522 13.03349
#
# Velocity S-wave (km/s) = 1.44725 3.12572 2.43564
# Velocity P-wave (km/s) = 3.94784 5.32802 4.68899
#
# Compressibility (1/GPa) = 0.03557971
#
# Stress axis : x y z
#
# Youngs Moduli (GPa) = 62.98332 69.77338 44.53040
#
# Poissons Ratio (x) = 0.45734 0.21854
# Poissons Ratio (y) = 0.41284 -0.13000
# Poissons Ratio (z) = 0.30910 -0.20369
#
# Static dielectric constant tensor:
#      x y z
#    x 1.858790 0.000000 0.000000 
#    y 0.000000 1.815830 0.000000 
#    z 0.000000 0.000000 1.863970 
# 
# From -- ./inp_files/33178.got.cif
#   From: 2010.05.17/outbox.cif.g08.bks.cpg/sg22_17_cif.got.tgz:33178.got - 2010.06.03 23:40:54.
