data_PCOD9327611
_publ_section_title
;
Structure prediction by ZEFSAII (Michael W. Deem and Ramdas Pophale) SiO2 
 PCOD9327611
Probable space group: F 2 2 2
;
_chemical_formula_sum "Si O2"
_cell_formula_units_Z 88
_cell_length_a 7.440692
_cell_length_b 32.816075
_cell_length_c 16.960473
_cell_angle_alpha 90.000000
_cell_angle_beta 90.000000
_cell_angle_gamma 90.000000
_cell_volume 4141.311736
_symmetry_space_group_name_H-M "F 2 2 2"
_symmetry_group_IT_number 22
_symmetry_cell_setting 'orthorhombic'
loop_
_space_group_symop_operation_xyz
x,y,z
-x,-y,z
x,-y,-z
-x,y,-z
x,1/2+y,1/2+z
-x,1/2-y,1/2+z
x,1/2-y,1/2-z
-x,1/2+y,1/2-z
1/2+x,y,1/2+z
1/2-x,-y,1/2+z
1/2+x,-y,1/2-z
1/2-x,y,1/2-z
1/2+x,1/2+y,z
1/2-x,1/2-y,z
1/2+x,1/2-y,-z
1/2-x,1/2+y,-z
loop_
_atom_site_type_symbol
_atom_site_label
_atom_site_fract_x
_atom_site_fract_y
_atom_site_fract_z
Si Si1 0.791614 0.548661 0.511836
Si Si2 0.539732 0.255691 0.915934
Si Si3 0.513763 0.083804 0.887270
Si Si4 0.385778 0.169710 0.872344
Si Si5 0.486971 0.169635 0.688475
Si Si6 0.250000 0.392354 0.250000
O O1 0.790418 0.500000 0.500000
O O2 0.667623 0.565994 0.442374
O O3 0.676027 0.561765 0.590251
O O4 0.000000 0.562065 0.500000
O O5 0.750000 0.250000 0.916284
O O6 0.429270 0.213424 0.909964
O O7 0.510744 0.284859 0.842451
O O8 0.500000 0.276054 0.000000
O O9 0.488666 0.131520 0.907231
O O10 0.595715 0.083338 0.798075
O O11 0.441195 0.172961 0.780611
O O12 0.179045 0.156147 0.865575
O O13 0.650022 0.137892 0.688037
#
# Coordination Sequence:
#
# PCOD9327611 Si02
#       6
#    16  16  16  16  16   8
#     4  10  23  45  75 101 136 177 216 256 342 424
#     4  12  24  38  54  82 121 167 225 282 324 382
#     4  10  21  40  66 101 133 170 218 278 324 401
#     4  10  22  38  62  87 121 168 222 272 336 384
#     4  10  21  41  58  82 123 175 217 268 331 395
#     4  10  22  40  67  98 132 176 230 276 336 392
#
# _framework density 21.249306000000001
#
# number of rings (size 3 to 8) (size 9 to 14) (size 15 to 20)
#    0.000    1.636    0.000    5.455    5.091    2.182 
#    6.545    0.000    8.000    2.182    0.000    0.000 
#    0.000    0.000    0.000    0.000    0.000    0.000 
#
# Total GULP energy -122624.363089 kJ/mol
# GULP energy per Si atom -5573.834686 kJ/mol
# Density = 2.120094 g / cm^3
# Si number density = 21.249306 Si / 1000 Ang^3
#
#
#
# Elastic Constant Matrix: (Units=GPa)
#
#
# Indices 1 2 3 4 5 6 
#
# 1 160.2816 47.1023 34.9345 0.0000 0.0000 0.0000
# 2 47.1023 82.9107 40.0700 0.0000 0.0000 0.0000
# 3 34.9345 40.0700 49.1319 0.0000 0.0000 0.0000
# 4 0.0000 0.0000 0.0000 32.2097 0.0000 0.0000
# 5 0.0000 0.0000 0.0000 0.0000 7.1988 0.0000
# 6 0.0000 0.0000 0.0000 0.0000 0.0000 60.9228
#
#
#
# Elastic Compliance Matrix: (Units=1/GPa)
#
#
# Indices 1 2 3 4 5 6 
#
# 1 0.007779 -0.002882 -0.003181 0.000000 0.000000 0.000000
# 2 -0.002882 0.020976 -0.015058 0.000000 0.000000 0.000000
# 3 -0.003181 -0.015058 0.034895 0.000000 0.000000 0.000000
# 4 0.000000 0.000000 0.000000 0.031047 0.000000 0.000000
# 5 0.000000 0.000000 0.000000 0.000000 0.138912 0.000000
# 6 0.000000 0.000000 0.000000 0.000000 0.000000 0.016414
#
#
# Mechanical properties :
#
#
# Convention : Reuss Voigt Hill
#
# Bulk Modulus (GPa) = 46.70871 59.61533 53.16202
# Shear Modulus (GPa) = 16.69999 31.41408 24.05703
#
# Velocity S-wave (km/s) = 2.80645 3.84911 3.36837
# Velocity P-wave (km/s) = 5.70355 6.91884 6.34038
#
# Compressibility (1/GPa) = 0.02140928
#
# Stress axis : x y z
#
# Youngs Moduli (GPa) = 128.54638 47.67385 28.65707
#
# Poissons Ratio (x) = 0.13741 0.09115
# Poissons Ratio (y) = 0.37051 0.43151
# Poissons Ratio (z) = 0.40886 0.71786
#
# Static dielectric constant tensor:
#      x y z
#    x 1.725980 0.000000 0.000000 
#    y 0.000000 1.806590 0.000000 
#    z 0.000000 0.000000 1.784500 
# 
# From -- ./inp_files/35261.got.cif
#   From: 2010.05.17/outbox.cif.g08.bks.cpg/sg22_18_cif.got.tgz:35261.got - 2010.06.03 23:40:54.
