data_PCOD9327463
_publ_section_title
;
Structure prediction by ZEFSAII (Michael W. Deem and Ramdas Pophale) SiO2 
 PCOD9327463
Probable space group: F 2 2 2
;
_chemical_formula_sum "Si O2"
_cell_formula_units_Z 104
_cell_length_a 22.069838
_cell_length_b 25.771525
_cell_length_c 8.364370
_cell_angle_alpha 90.000000
_cell_angle_beta 90.000000
_cell_angle_gamma 90.000000
_cell_volume 4757.431011
_symmetry_space_group_name_H-M "F 2 2 2"
_symmetry_group_IT_number 22
_symmetry_cell_setting 'orthorhombic'
loop_
_space_group_symop_operation_xyz
x,y,z
-x,-y,z
x,-y,-z
-x,y,-z
x,1/2+y,1/2+z
-x,1/2-y,1/2+z
x,1/2-y,1/2-z
-x,1/2+y,1/2-z
1/2+x,y,1/2+z
1/2-x,-y,1/2+z
1/2+x,-y,1/2-z
1/2-x,y,1/2-z
1/2+x,1/2+y,z
1/2-x,1/2-y,z
1/2+x,1/2-y,-z
1/2-x,1/2+y,-z
loop_
_atom_site_type_symbol
_atom_site_label
_atom_site_fract_x
_atom_site_fract_y
_atom_site_fract_z
Si Si1 0.928666 0.941115 0.525929
Si Si2 0.219025 0.000000 0.000000
Si Si3 0.305001 0.672526 0.364777
Si Si4 0.140879 0.584797 0.319700
Si Si5 0.568384 0.830234 0.484525
Si Si6 0.357343 0.855857 0.813793
Si Si7 0.750000 0.576489 0.250000
Si Si8 0.405974 0.750000 0.250000
O O1 0.915075 0.930917 0.710512
O O2 0.897473 0.897039 0.415493
O O3 0.000000 0.938804 0.500000
O O4 0.906788 0.000000 0.500000
O O5 0.175183 0.963425 0.104386
O O6 0.259781 0.038504 0.102287
O O7 0.250000 0.691534 0.250000
O O8 0.314563 0.614170 0.303232
O O9 0.311953 0.672614 0.557558
O O10 0.363402 0.705452 0.318767
O O11 0.114653 0.628245 0.438327
O O12 0.500000 0.851681 0.500000
O O13 0.597789 0.824303 0.305856
O O14 0.564227 0.778609 0.597182
O O15 0.308617 0.889451 0.715799
#
# Coordination Sequence:
#
# PCOD9327463 Si02
#       8
#    16   8  16  16  16  16   8   8
#     4  10  21  38  61  89 130 182 237 279 334 408
#     4  12  24  38  63  96 139 192 238 282 350 412
#     4  10  22  42  68  93 135 178 219 293 364 435
#     4  10  22  40  60  94 135 177 231 285 351 421
#     4  11  24  46  70  99 142 179 243 311 376 442
#     4  11  24  41  66 100 137 181 236 287 361 433
#     4  12  26  38  62  99 140 183 236 282 340 424
#     4  10  25  44  68 100 124 175 234 290 384 442
#
# _framework density 21.860537000000001
#
# number of rings (size 3 to 8) (size 9 to 14) (size 15 to 20)
#    0.000    1.385    1.538    3.000    8.615    1.846 
#    0.000    1.538    0.000    0.000    0.000    0.000 
#    0.000    0.000    0.000    0.000    0.000    0.000 
#
# Total GULP energy -144848.877577 kJ/mol
# GULP energy per Si atom -5571.110676 kJ/mol
# Density = 2.181078 g / cm^3
# Si number density = 21.860537 Si / 1000 Ang^3
#
#
#
# Elastic Constant Matrix: (Units=GPa)
#
#
# Indices 1 2 3 4 5 6 
#
# 1 81.4440 8.2964 37.7848 -0.0023 0.0002 -0.0006
# 2 8.2964 64.0410 35.5566 -0.0008 0.0004 -0.0002
# 3 37.7848 35.5566 122.3843 -0.0064 0.0024 -0.0019
# 4 -0.0023 -0.0008 -0.0064 19.4351 0.0036 -0.0006
# 5 0.0002 0.0004 0.0024 0.0036 40.0253 0.0009
# 6 -0.0006 -0.0002 -0.0019 -0.0006 0.0009 13.5913
#
#
#
# Elastic Compliance Matrix: (Units=1/GPa)
#
#
# Indices 1 2 3 4 5 6 
#
# 1 0.014359 0.000717 -0.004641 0.000000 0.000000 0.000000
# 2 0.000717 0.018654 -0.005641 -0.000001 0.000000 0.000000
# 3 -0.004641 -0.005641 0.011243 0.000003 -0.000001 0.000001
# 4 0.000000 -0.000001 0.000003 0.051453 -0.000005 0.000002
# 5 0.000000 0.000000 -0.000001 -0.000005 0.024984 -0.000002
# 6 0.000000 0.000000 0.000001 0.000002 -0.000002 0.073576
#
#
# Mechanical properties :
#
#
# Convention : Reuss Voigt Hill
#
# Bulk Modulus (GPa) = 39.80157 47.90498 43.85327
# Shear Modulus (GPa) = 22.54535 27.02578 24.78557
#
# Velocity S-wave (km/s) = 3.21491 3.51989 3.37085
# Velocity P-wave (km/s) = 5.65928 6.20331 5.93753
#
# Compressibility (1/GPa) = 0.02512464
#
# Stress axis : x y z
#
# Youngs Moduli (GPa) = 69.64452 53.60766 88.94580
#
# Poissons Ratio (x) = -0.03843 0.41283
# Poissons Ratio (y) = -0.04992 0.50174
# Poissons Ratio (z) = 0.32324 0.30240
#
# Static dielectric constant tensor:
#      x y z
#    x 1.789640 0.000000 0.000000 
#    y 0.000000 1.852460 0.000000 
#    z 0.000000 0.000000 1.879370 
# 
# From -- ./inp_files/13100.got.cif
#   From: 2010.05.17/outbox.cif.g08.bks.cpg/sg22_7_cif.got.tgz:13100.got - 2010.06.03 23:40:54.
