data_PCOD9327980
_publ_section_title
;
Structure prediction by ZEFSAII (Michael W. Deem and Ramdas Pophale) SiO2 
 PCOD9327980
Probable space group: F 2 2 2
;
_chemical_formula_sum "Si O2"
_cell_formula_units_Z 112
_cell_length_a 13.237800
_cell_length_b 26.576481
_cell_length_c 13.703484
_cell_angle_alpha 90.000000
_cell_angle_beta 90.000000
_cell_angle_gamma 90.000000
_cell_volume 4821.079441
_symmetry_space_group_name_H-M "F 2 2 2"
_symmetry_group_IT_number 22
_symmetry_cell_setting 'orthorhombic'
loop_
_space_group_symop_operation_xyz
x,y,z
-x,-y,z
x,-y,-z
-x,y,-z
x,1/2+y,1/2+z
-x,1/2-y,1/2+z
x,1/2-y,1/2-z
-x,1/2+y,1/2-z
1/2+x,y,1/2+z
1/2-x,-y,1/2+z
1/2+x,-y,1/2-z
1/2-x,y,1/2-z
1/2+x,1/2+y,z
1/2-x,1/2-y,z
1/2+x,1/2-y,-z
1/2-x,1/2+y,-z
loop_
_atom_site_type_symbol
_atom_site_label
_atom_site_fract_x
_atom_site_fract_y
_atom_site_fract_z
Si Si1 0.708637 0.584066 0.153099
Si Si2 0.933365 0.258719 0.861062
Si Si3 0.646919 0.278180 0.068517
Si Si4 0.260537 0.373042 0.553889
Si Si5 0.008735 0.945015 0.227436
Si Si6 0.798159 0.521879 0.605472
Si Si7 0.523952 0.864949 0.896364
O O1 0.750000 0.609500 0.250000
O O2 0.589993 0.571360 0.164814
O O3 0.755517 0.527440 0.148547
O O4 0.741298 0.615178 0.059677
O O5 0.896659 0.250000 0.750000
O O6 0.046535 0.236130 0.872997
O O7 0.949664 0.318062 0.880382
O O8 0.873001 0.234855 0.953028
O O9 0.750000 0.250000 0.097539
O O10 0.668775 0.337372 0.083796
O O11 0.269662 0.428796 0.598547
O O12 0.362666 0.345556 0.584939
O O13 0.103917 0.956098 0.158634
O O14 0.020749 0.901990 0.306458
O O15 0.000000 0.000000 0.276828
O O16 0.828978 0.500000 0.500000
O O17 0.500000 0.890908 0.000000
#
# Coordination Sequence:
#
# PCOD9327980 Si02
#       7
#    16  16  16  16  16  16  16
#     4  10  22  41  63  95 135 172 223 270 326 401
#     4  11  26  45  70  99 136 176 227 295 346 419
#     4  11  23  48  67  98 135 174 228 285 354 410
#     4  11  24  40  70  95 128 182 217 282 338 406
#     4  10  24  40  67  98 133 180 224 277 332 412
#     4   9  22  42  65  96 136 170 221 278 334 393
#     4  12  24  46  66  97 140 176 225 282 346 408
#
# _framework density 23.231311000000002
#
# number of rings (size 3 to 8) (size 9 to 14) (size 15 to 20)
#    0.000    1.429    2.857    0.857    8.000    8.571 
#    2.571    0.000    0.000    0.000    0.000    0.000 
#    0.000    0.000    0.000    0.000    0.000    0.000 
#
# Total GULP energy -156368.426088 kJ/mol
# GULP energy per Si atom -5584.586646 kJ/mol
# Density = 2.317844 g / cm^3
# Si number density = 23.231311 Si / 1000 Ang^3
#
#
#
# Elastic Constant Matrix: (Units=GPa)
#
#
# Indices 1 2 3 4 5 6 
#
# 1 47.7804 -0.6227 -17.5240 0.0000 0.0000 0.0000
# 2 -0.6227 89.0908 9.9150 0.0000 0.0000 0.0000
# 3 -17.5240 9.9150 52.8403 0.0000 0.0000 0.0000
# 4 0.0000 0.0000 0.0000 24.7172 0.0000 0.0000
# 5 0.0000 0.0000 0.0000 0.0000 25.1206 0.0000
# 6 0.0000 0.0000 0.0000 0.0000 0.0000 18.3238
#
#
#
# Elastic Compliance Matrix: (Units=1/GPa)
#
#
# Indices 1 2 3 4 5 6 
#
# 1 0.023874 -0.000729 0.008054 0.000000 0.000000 0.000000
# 2 -0.000729 0.011486 -0.002397 0.000000 0.000000 0.000000
# 3 0.008054 -0.002397 0.022046 0.000000 0.000000 0.000000
# 4 0.000000 0.000000 0.000000 0.040458 0.000000 0.000000
# 5 0.000000 0.000000 0.000000 0.000000 0.039808 0.000000
# 6 0.000000 0.000000 0.000000 0.000000 0.000000 0.054574
#
#
# Mechanical properties :
#
#
# Convention : Reuss Voigt Hill
#
# Bulk Modulus (GPa) = 14.86747 19.24978 17.05863
# Shear Modulus (GPa) = 24.41285 26.82854 25.62070
#
# Velocity S-wave (km/s) = 3.24521 3.40199 3.32452
# Velocity P-wave (km/s) = 4.52278 4.87191 4.70059
#
# Compressibility (1/GPa) = 0.06726092
#
# Stress axis : x y z
#
# Youngs Moduli (GPa) = 41.88731 87.06110 45.35993
#
# Poissons Ratio (x) = 0.06351 -0.36534
# Poissons Ratio (y) = 0.03056 0.10874
# Poissons Ratio (z) = -0.33737 0.20870
#
# Static dielectric constant tensor:
#      x y z
#    x 1.948030 0.000000 0.000000 
#    y 0.000000 1.903580 0.000000 
#    z 0.000000 0.000000 1.912940 
# 
# From -- ./inp_files/29755.got.cif
#   From: 2010.05.17/outbox.cif.g08.bks.cpg/sg22_15_cif.got.tgz:29755.got - 2010.06.03 23:40:54.
