data_PCOD9327655
_publ_section_title
;
Structure prediction by ZEFSAII (Michael W. Deem and Ramdas Pophale) SiO2 
 PCOD9327655
Probable space group: F 2 2 2
;
_chemical_formula_sum "Si O2"
_cell_formula_units_Z 48
_cell_length_a 34.132034
_cell_length_b 8.353086
_cell_length_c 7.201122
_cell_angle_alpha 90.000000
_cell_angle_beta 90.000000
_cell_angle_gamma 90.000000
_cell_volume 2053.096162
_symmetry_space_group_name_H-M "F 2 2 2"
_symmetry_group_IT_number 22
_symmetry_cell_setting 'orthorhombic'
loop_
_space_group_symop_operation_xyz
x,y,z
-x,-y,z
x,-y,-z
-x,y,-z
x,1/2+y,1/2+z
-x,1/2-y,1/2+z
x,1/2-y,1/2-z
-x,1/2+y,1/2-z
1/2+x,y,1/2+z
1/2-x,-y,1/2+z
1/2+x,-y,1/2-z
1/2-x,y,1/2-z
1/2+x,1/2+y,z
1/2-x,1/2-y,z
1/2+x,1/2-y,-z
1/2-x,1/2+y,-z
loop_
_atom_site_type_symbol
_atom_site_label
_atom_site_fract_x
_atom_site_fract_y
_atom_site_fract_z
Si Si1 0.291460 0.811280 0.965494
Si Si2 0.956297 0.310977 0.958527
Si Si3 0.374358 0.688674 0.965936
O O1 0.291255 0.750000 0.750000
O O2 0.250000 0.750000 0.042723
O O3 0.332685 0.747574 0.043089
O O4 0.291852 0.000000 0.000000
O O5 0.951756 0.250000 0.750000
O O6 0.915427 0.253332 0.046842
O O7 0.957684 0.500000 0.000000
O O8 0.000000 0.245978 0.000000
O O9 0.373385 0.750000 0.750000
O O10 0.375393 0.500000 0.000000
#
# Coordination Sequence:
#
# PCOD9327655 Si02
#       3
#    16  16  16
#     4  10  21  41  65  94 128 166 210 258 313 373
#     4  10  23  43  66  94 128 167 212 262 317 376
#     4  10  22  41  64  93 127 166 210 259 314 373
#
# _framework density 23.379322999999999
#
# number of rings (size 3 to 8) (size 9 to 14) (size 15 to 20)
#    0.000    2.000    0.000    2.000    0.000   11.333 
#    0.000   36.667    0.000    0.000    0.000    0.000 
#    0.000    0.000    0.000    0.000    0.000    0.000 
#
# Total GULP energy -66863.617849 kJ/mol
# GULP energy per Si atom -5571.968154 kJ/mol
# Density = 2.332611 g / cm^3
# Si number density = 23.379323 Si / 1000 Ang^3
#
#
#
# Elastic Constant Matrix: (Units=GPa)
#
#
# Indices 1 2 3 4 5 6 
#
# 1 361.3223 91.5003 22.4171 0.0000 0.0000 0.0000
# 2 91.5003 188.0510 36.5135 0.0000 0.0000 0.0000
# 3 22.4171 36.5135 150.2890 0.0000 0.0000 0.0000
# 4 0.0000 0.0000 0.0000 37.7604 0.0000 0.0000
# 5 0.0000 0.0000 0.0000 0.0000 -16.5417 0.0000
# 6 0.0000 0.0000 0.0000 0.0000 0.0000 266.6044
#
#
#
# Elastic Compliance Matrix: (Units=1/GPa)
#
#
# Indices 1 2 3 4 5 6 
#
# 1 0.003158 -0.001517 -0.000103 0.000000 0.000000 0.000000
# 2 -0.001517 0.006309 -0.001307 0.000000 0.000000 0.000000
# 3 -0.000103 -0.001307 0.006987 0.000000 0.000000 0.000000
# 4 0.000000 0.000000 0.000000 0.026483 0.000000 0.000000
# 5 0.000000 0.000000 0.000000 0.000000 -0.060453 0.000000
# 6 0.000000 0.000000 0.000000 0.000000 0.000000 0.003751
#
#
# Mechanical properties :
#
#
# Convention : Reuss Voigt Hill
#
# Bulk Modulus (GPa) = 94.32015 111.16934 102.74475
# Shear Modulus (GPa) = -1141.70460 94.18003 -523.76228
#
# Velocity S-wave (km/s) = -22.12238 6.35381 -14.98380
# Velocity P-wave (km/s) = 24.74069 10.07380 15.97843
#
# Compressibility (1/GPa) = 0.01060219
#
# Stress axis : x y z
#
# Youngs Moduli (GPa) = 316.64981 158.49342 143.13096
#
# Poissons Ratio (x) = 0.24039 0.01468
# Poissons Ratio (y) = 0.48027 0.18703
# Poissons Ratio (z) = 0.03248 0.20710
#
# Static dielectric constant tensor:
#      x y z
#    x 1.995240 0.000000 0.000000 
#    y 0.000000 1.493540 0.000000 
#    z 0.000000 0.000000 0.012830 
# 
# From -- ./inp_files/15176.got.cif
#   From: 2010.05.17/outbox.cif.g08.bks.cpg/sg22_8_cif.got.tgz:15176.got - 2010.06.03 23:40:54.
