data_PCOD9327044
_publ_section_title
;
Structure prediction by ZEFSAII (Michael W. Deem and Ramdas Pophale) SiO2 
 PCOD9327044
Probable space group: F 2 2 2
;
_chemical_formula_sum "Si O2"
_cell_formula_units_Z 100
_cell_length_a 8.798262
_cell_length_b 29.921630
_cell_length_c 19.086621
_cell_angle_alpha 90.000000
_cell_angle_beta 90.000000
_cell_angle_gamma 90.000000
_cell_volume 5024.712165
_symmetry_space_group_name_H-M "F 2 2 2"
_symmetry_group_IT_number 22
_symmetry_cell_setting 'orthorhombic'
loop_
_space_group_symop_operation_xyz
x,y,z
-x,-y,z
x,-y,-z
-x,y,-z
x,1/2+y,1/2+z
-x,1/2-y,1/2+z
x,1/2-y,1/2-z
-x,1/2+y,1/2-z
1/2+x,y,1/2+z
1/2-x,-y,1/2+z
1/2+x,-y,1/2-z
1/2-x,y,1/2-z
1/2+x,1/2+y,z
1/2-x,1/2-y,z
1/2+x,1/2-y,-z
1/2-x,1/2+y,-z
loop_
_atom_site_type_symbol
_atom_site_label
_atom_site_fract_x
_atom_site_fract_y
_atom_site_fract_z
Si Si1 0.166232 0.648247 0.519672
Si Si2 0.587502 0.631933 0.712287
Si Si3 0.758601 0.196773 0.390877
Si Si4 0.750000 0.250000 0.750000
Si Si5 0.577530 0.325732 0.832734
Si Si6 0.249036 0.951213 0.505206
Si Si7 0.500605 0.451526 0.618869
O O1 0.278751 0.674406 0.467569
O O2 0.178710 0.656367 0.602664
O O3 0.168172 0.596039 0.499096
O O4 0.000000 0.666540 0.500000
O O5 0.750000 0.623062 0.750000
O O6 0.619748 0.675196 0.662730
O O7 0.455831 0.641155 0.768476
O O8 0.540650 0.589806 0.666502
O O9 0.750000 0.250000 0.394669
O O10 0.593328 0.182609 0.361128
O O11 0.648836 0.281497 0.799572
O O12 0.159806 0.947109 0.578582
O O13 0.124482 0.953060 0.443226
O O14 0.326663 0.000000 0.500000
O O15 0.500000 0.500000 0.655215
#
# Coordination Sequence:
#
# PCOD9327044 Si02
#       7
#    16  16  16   4  16  16  16
#     4  10  21  38  56  85 119 144 192 247 290 340
#     4  10  20  38  62  82 114 156 198 237 296 348
#     4  10  20  39  64  82 106 153 211 242 276 345
#     4  12  24  40  54  76 132 156 178 222 320 352
#     4  10  24  37  54  85 120 151 187 243 291 358
#     4   9  18  35  60  85 111 148 191 243 288 343
#     4   9  18  35  59  88 111 142 201 242 280 345
#
# _framework density 19.901638999999999
#
# number of rings (size 3 to 8) (size 9 to 14) (size 15 to 20)
#    0.000    2.240    1.600    1.920    3.360    2.560 
#    0.000    3.200    0.000    0.000    0.000    0.000 
#    0.000    0.000    0.000    0.000    0.000    0.000 
#
# Total GULP energy -139340.181921 kJ/mol
# GULP energy per Si atom -5573.607277 kJ/mol
# Density = 1.985634 g / cm^3
# Si number density = 19.901639 Si / 1000 Ang^3
#
#
#
# Elastic Constant Matrix: (Units=GPa)
#
#
# Indices 1 2 3 4 5 6 
#
# 1 24.0670 3.3796 16.2374 0.0000 0.0000 0.0000
# 2 3.3796 142.8467 65.3014 0.0000 0.0000 0.0000
# 3 16.2374 65.3014 116.5424 0.0000 0.0000 0.0000
# 4 0.0000 0.0000 0.0000 17.9386 0.0000 0.0000
# 5 0.0000 0.0000 0.0000 0.0000 5.4848 0.0000
# 6 0.0000 0.0000 0.0000 0.0000 0.0000 25.4815
#
#
#
# Elastic Compliance Matrix: (Units=1/GPa)
#
#
# Indices 1 2 3 4 5 6 
#
# 1 0.046518 0.002504 -0.007884 0.000000 0.000000 0.000000
# 2 0.002504 0.009546 -0.005698 0.000000 0.000000 0.000000
# 3 -0.007884 -0.005698 0.012872 0.000000 0.000000 0.000000
# 4 0.000000 0.000000 0.000000 0.055746 0.000000 0.000000
# 5 0.000000 0.000000 0.000000 0.000000 0.182322 0.000000
# 6 0.000000 0.000000 0.000000 0.000000 0.000000 0.039244
#
#
# Mechanical properties :
#
#
# Convention : Reuss Voigt Hill
#
# Bulk Modulus (GPa) = 21.37689 50.36589 35.87139
# Shear Modulus (GPa) = 13.02095 23.01684 18.01889
#
# Velocity S-wave (km/s) = 2.56064 3.40447 3.01225
# Velocity P-wave (km/s) = 4.41668 6.38876 5.49196
#
# Compressibility (1/GPa) = 0.04677948
#
# Stress axis : x y z
#
# Youngs Moduli (GPa) = 21.49698 104.75698 77.69096
#
# Poissons Ratio (x) = -0.26226 0.61251
# Poissons Ratio (y) = -0.05382 0.44265
# Poissons Ratio (z) = 0.16948 0.59686
#
# Static dielectric constant tensor:
#      x y z
#    x 1.729390 0.000000 0.000000 
#    y 0.000000 1.696120 0.000000 
#    z 0.000000 0.000000 1.746780 
# 
# From -- ./inp_files/42021.got.cif
#   From: 2010.05.17/outbox.cif.g08.bks.cpg/sg22_22_cif.got.tgz:42021.got - 2010.06.03 23:40:54.
