data_PCOD9327688
_publ_section_title
;
Structure prediction by ZEFSAII (Michael W. Deem and Ramdas Pophale) SiO2 
 PCOD9327688
Probable space group: F 2 2 2
;
_chemical_formula_sum "Si O2"
_cell_formula_units_Z 52
_cell_length_a 13.660653
_cell_length_b 8.461888
_cell_length_c 24.475743
_cell_angle_alpha 90.000000
_cell_angle_beta 90.000000
_cell_angle_gamma 90.000000
_cell_volume 2829.271449
_symmetry_space_group_name_H-M "F 2 2 2"
_symmetry_group_IT_number 22
_symmetry_cell_setting 'orthorhombic'
loop_
_space_group_symop_operation_xyz
x,y,z
-x,-y,z
x,-y,-z
-x,y,-z
x,1/2+y,1/2+z
-x,1/2-y,1/2+z
x,1/2-y,1/2-z
-x,1/2+y,1/2-z
1/2+x,y,1/2+z
1/2-x,-y,1/2+z
1/2+x,-y,1/2-z
1/2-x,y,1/2-z
1/2+x,1/2+y,z
1/2-x,1/2-y,z
1/2+x,1/2-y,-z
1/2-x,1/2+y,-z
loop_
_atom_site_type_symbol
_atom_site_label
_atom_site_fract_x
_atom_site_fract_y
_atom_site_fract_z
Si Si1 0.529026 0.817042 0.081817
Si Si2 0.647233 0.683665 0.984968
Si Si3 0.940062 0.159794 0.803036
Si Si4 0.750000 0.250000 0.750000
O O1 0.437890 0.715635 0.058720
O O2 0.553578 0.764074 0.142705
O O3 0.500000 0.000000 0.079030
O O4 0.615962 0.779467 0.039462
O O5 0.750000 0.750000 0.964739
O O6 0.652347 0.500000 0.000000
O O7 0.983143 0.250000 0.750000
O O8 0.825110 0.146165 0.786255
O O9 0.000000 0.000000 0.811299
#
# Coordination Sequence:
#
# PCOD9327688 Si02
#       4
#    16  16  16   4
#     4  11  22  39  61  89 124 162 204 258 312 369
#     4  11  22  38  60  89 123 163 208 254 312 374
#     4  10  21  42  64  91 126 161 211 262 312 377
#     4   8  24  40  70  90 120 168 206 252 334 362
#
# _framework density 18.379290000000001
#
# number of rings (size 3 to 8) (size 9 to 14) (size 15 to 20)
#    0.923    0.615    0.000    8.308    2.154    0.000 
#    5.538    0.769    0.000    0.000    0.000    0.000 
#    0.000    0.000    0.000    0.000    0.000    0.000 
#
# Total GULP energy -72512.295002 kJ/mol
# GULP energy per Si atom -5577.868846 kJ/mol
# Density = 1.833746 g / cm^3
# Si number density = 18.379290 Si / 1000 Ang^3
#
#
#
# Elastic Constant Matrix: (Units=GPa)
#
#
# Indices 1 2 3 4 5 6 
#
# 1 80.8018 14.9541 -0.5155 0.0000 0.0000 0.0000
# 2 14.9541 100.7425 2.3388 0.0000 0.0000 0.0000
# 3 -0.5155 2.3388 101.7924 0.0000 0.0000 0.0000
# 4 0.0000 0.0000 0.0000 25.2909 0.0000 0.0000
# 5 0.0000 0.0000 0.0000 0.0000 2.9725 0.0000
# 6 0.0000 0.0000 0.0000 0.0000 0.0000 27.7094
#
#
#
# Elastic Compliance Matrix: (Units=1/GPa)
#
#
# Indices 1 2 3 4 5 6 
#
# 1 0.012727 -0.001892 0.000108 0.000000 0.000000 0.000000
# 2 -0.001892 0.010213 -0.000244 0.000000 0.000000 0.000000
# 3 0.000108 -0.000244 0.009830 0.000000 0.000000 0.000000
# 4 0.000000 0.000000 0.000000 0.039540 0.000000 0.000000
# 5 0.000000 0.000000 0.000000 0.000000 0.336415 0.000000
# 6 0.000000 0.000000 0.000000 0.000000 0.000000 0.036089
#
#
# Mechanical properties :
#
#
# Convention : Reuss Voigt Hill
#
# Bulk Modulus (GPa) = 34.82663 35.21015 35.01839
# Shear Modulus (GPa) = 10.90654 28.96518 19.93586
#
# Velocity S-wave (km/s) = 2.43865 3.97415 3.29704
# Velocity P-wave (km/s) = 5.18839 6.34489 5.79556
#
# Compressibility (1/GPa) = 0.02871366
#
# Stress axis : x y z
#
# Youngs Moduli (GPa) = 78.57470 97.91669 101.72867
#
# Poissons Ratio (x) = 0.18522 -0.01098
# Poissons Ratio (y) = 0.14864 0.02484
# Poissons Ratio (z) = -0.00848 0.02391
#
# Static dielectric constant tensor:
#      x y z
#    x 1.633470 0.000000 0.000000 
#    y 0.000000 1.620790 0.000000 
#    z 0.000000 0.000000 1.619470 
# 
# From -- ./inp_files/9636.got.cif
#   From: 2010.05.17/outbox.cif.g08.bks.cpg/sg22_5_cif.got.tgz:9636.got - 2010.06.03 23:40:54.
