data_PCOD9327508
_publ_section_title
;
Structure prediction by ZEFSAII (Michael W. Deem and Ramdas Pophale) SiO2 
 PCOD9327508
Probable space group: F 2 2 2
;
_chemical_formula_sum "Si O2"
_cell_formula_units_Z 60
_cell_length_a 24.585323
_cell_length_b 7.145826
_cell_length_c 14.930755
_cell_angle_alpha 90.000000
_cell_angle_beta 90.000000
_cell_angle_gamma 90.000000
_cell_volume 2623.071474
_symmetry_space_group_name_H-M "F 2 2 2"
_symmetry_group_IT_number 22
_symmetry_cell_setting 'orthorhombic'
loop_
_space_group_symop_operation_xyz
x,y,z
-x,-y,z
x,-y,-z
-x,y,-z
x,1/2+y,1/2+z
-x,1/2-y,1/2+z
x,1/2-y,1/2-z
-x,1/2+y,1/2-z
1/2+x,y,1/2+z
1/2-x,-y,1/2+z
1/2+x,-y,1/2-z
1/2-x,y,1/2-z
1/2+x,1/2+y,z
1/2-x,1/2-y,z
1/2+x,1/2-y,-z
1/2-x,1/2+y,-z
loop_
_atom_site_type_symbol
_atom_site_label
_atom_site_fract_x
_atom_site_fract_y
_atom_site_fract_z
Si Si1 0.860046 0.000000 0.500000
Si Si2 0.913715 0.022841 0.145487
Si Si3 0.299731 0.358102 0.923689
Si Si4 0.061522 0.466279 0.846824
Si Si5 0.500000 0.000000 0.500000
O O1 0.828036 0.816253 0.527699
O O2 0.896923 0.054399 0.584188
O O3 0.848728 0.031268 0.126391
O O4 0.929454 0.243418 0.144864
O O5 0.927166 0.964906 0.246413
O O6 0.954173 0.928410 0.072724
O O7 0.250000 0.250000 0.873467
O O8 0.278900 0.500000 0.000000
O O9 0.000000 0.500000 0.872542
#
# Coordination Sequence:
#
# PCOD9327508 Si02
#       5
#     8  16  16  16   4
#     4  10  23  39  66  94 125 171 216 266 326 386
#     4  10  23  37  61  95 128 171 216 266 335 385
#     4  11  22  42  68  93 126 173 225 270 325 381
#     4  10  21  39  59  93 131 169 208 261 330 400
#     4  12  20  38  58  94 130 168 206 270 328 400
#
# _framework density 22.873949
#
# number of rings (size 3 to 8) (size 9 to 14) (size 15 to 20)
#    0.000    1.600    4.000    0.400    7.467    0.000 
#    0.000   10.667    0.000    1.600    0.000    0.000 
#    0.000    0.000    0.000    0.000    0.000    0.000 
#
# Total GULP energy -83643.840827 kJ/mol
# GULP energy per Si atom -5576.256055 kJ/mol
# Density = 2.282189 g / cm^3
# Si number density = 22.873949 Si / 1000 Ang^3
#
#
#
# Elastic Constant Matrix: (Units=GPa)
#
#
# Indices 1 2 3 4 5 6 
#
# 1 141.3094 18.8840 32.7306 0.0000 0.0000 0.0000
# 2 18.8840 73.7666 2.6963 0.0000 0.0000 0.0000
# 3 32.7306 2.6963 104.8022 0.0000 0.0000 0.0000
# 4 0.0000 0.0000 0.0000 7.2864 0.0000 0.0000
# 5 0.0000 0.0000 0.0000 0.0000 19.7894 0.0000
# 6 0.0000 0.0000 0.0000 0.0000 0.0000 26.1786
#
#
#
# Elastic Compliance Matrix: (Units=1/GPa)
#
#
# Indices 1 2 3 4 5 6 
#
# 1 0.007894 -0.001933 -0.002416 0.000000 0.000000 0.000000
# 2 -0.001933 0.014042 0.000242 0.000000 0.000000 0.000000
# 3 -0.002416 0.000242 0.010290 0.000000 0.000000 0.000000
# 4 0.000000 0.000000 0.000000 0.137241 0.000000 0.000000
# 5 0.000000 0.000000 0.000000 0.000000 0.050532 0.000000
# 6 0.000000 0.000000 0.000000 0.000000 0.000000 0.038199
#
#
# Mechanical properties :
#
#
# Convention : Reuss Voigt Hill
#
# Bulk Modulus (GPa) = 41.64165 47.61109 44.62637
# Shear Modulus (GPa) = 18.22049 28.35538 23.28794
#
# Velocity S-wave (km/s) = 2.82540 3.52467 3.19423
# Velocity P-wave (km/s) = 5.37478 6.11752 5.75814
#
# Compressibility (1/GPa) = 0.02401442
#
# Stress axis : x y z
#
# Youngs Moduli (GPa) = 126.67048 71.21407 97.18149
#
# Poissons Ratio (x) = 0.13763 0.23477
# Poissons Ratio (y) = 0.24481 -0.02355
# Poissons Ratio (z) = 0.30601 -0.01726
#
# Static dielectric constant tensor:
#      x y z
#    x 1.908710 0.000000 0.000000 
#    y 0.000000 1.948650 0.000000 
#    z 0.000000 0.000000 1.884840 
# 
# From -- ./inp_files/9703.got.cif
#   From: 2010.05.17/outbox.cif.g08.bks.cpg/sg22_5_cif.got.tgz:9703.got - 2010.06.03 23:40:54.
