data_PCOD9327856
_publ_section_title
;
Structure prediction by ZEFSAII (Michael W. Deem and Ramdas Pophale) SiO2 
 PCOD9327856
Probable space group: F 2 2 2
;
_chemical_formula_sum "Si O2"
_cell_formula_units_Z 88
_cell_length_a 6.754201
_cell_length_b 25.767353
_cell_length_c 24.955559
_cell_angle_alpha 90.000000
_cell_angle_beta 90.000000
_cell_angle_gamma 90.000000
_cell_volume 4343.212618
_symmetry_space_group_name_H-M "F 2 2 2"
_symmetry_group_IT_number 22
_symmetry_cell_setting 'orthorhombic'
loop_
_space_group_symop_operation_xyz
x,y,z
-x,-y,z
x,-y,-z
-x,y,-z
x,1/2+y,1/2+z
-x,1/2-y,1/2+z
x,1/2-y,1/2-z
-x,1/2+y,1/2-z
1/2+x,y,1/2+z
1/2-x,-y,1/2+z
1/2+x,-y,1/2-z
1/2-x,y,1/2-z
1/2+x,1/2+y,z
1/2-x,1/2-y,z
1/2+x,1/2-y,-z
1/2-x,1/2+y,-z
loop_
_atom_site_type_symbol
_atom_site_label
_atom_site_fract_x
_atom_site_fract_y
_atom_site_fract_z
Si Si1 0.060548 0.942283 0.131996
Si Si2 0.599354 0.709116 0.050648
Si Si3 0.320756 0.645195 0.310408
Si Si4 0.178413 0.371500 0.124487
Si Si5 0.750000 0.250000 0.121990
Si Si6 0.086092 0.446281 0.939946
O O1 0.205703 0.906371 0.168104
O O2 0.181694 0.946377 0.075336
O O3 0.855544 0.911933 0.129541
O O4 0.000000 0.000000 0.150229
O O5 0.750000 0.750000 0.025503
O O6 0.721117 0.675340 0.092881
O O7 0.438294 0.740126 0.084720
O O8 0.500000 0.679888 0.000000
O O9 0.250000 0.652530 0.250000
O O10 0.556957 0.639287 0.321114
O O11 0.268004 0.697352 0.343449
O O12 0.010367 0.396361 0.087055
O O13 0.000000 0.500000 0.915459
O O14 0.000000 0.445697 0.000000
#
# Coordination Sequence:
#
# PCOD9327856 Si02
#       6
#    16  16  16  16   8  16
#     4  11  23  44  66  96 141 180 225 293 351 412
#     4  12  25  41  67 103 139 184 224 280 351 426
#     4  11  26  46  72 100 130 177 238 295 360 415
#     4  11  24  42  67  97 138 177 229 284 344 410
#     4  12  23  46  68 100 140 174 233 296 346 418
#     4  10  22  38  60  96 135 179 231 275 330 412
#
# _framework density 20.261498
#
# number of rings (size 3 to 8) (size 9 to 14) (size 15 to 20)
#    0.000    0.909    6.364    0.273    2.545    1.455 
#    3.273    0.000    0.000    0.000    0.000    0.000 
#    0.000    0.000    0.000    0.000    0.000    0.000 
#
# Total GULP energy -122640.378696 kJ/mol
# GULP energy per Si atom -5574.562668 kJ/mol
# Density = 2.021538 g / cm^3
# Si number density = 20.261498 Si / 1000 Ang^3
#
#
#
# Elastic Constant Matrix: (Units=GPa)
#
#
# Indices 1 2 3 4 5 6 
#
# 1 137.2718 54.7207 56.1786 0.0000 0.0000 0.0000
# 2 54.7207 111.4056 39.5376 0.0000 0.0000 0.0000
# 3 56.1786 39.5376 110.6739 0.0000 0.0000 0.0000
# 4 0.0000 0.0000 0.0000 -37.9595 0.0000 0.0000
# 5 0.0000 0.0000 0.0000 0.0000 19.7549 0.0000
# 6 0.0000 0.0000 0.0000 0.0000 0.0000 46.4555
#
#
#
# Elastic Compliance Matrix: (Units=1/GPa)
#
#
# Indices 1 2 3 4 5 6 
#
# 1 0.010372 -0.003695 -0.003945 0.000000 0.000000 0.000000
# 2 -0.003695 0.011595 -0.002267 0.000000 0.000000 0.000000
# 3 -0.003945 -0.002267 0.011848 0.000000 0.000000 0.000000
# 4 0.000000 0.000000 0.000000 -0.026344 0.000000 0.000000
# 5 0.000000 0.000000 0.000000 0.000000 0.050620 0.000000
# 6 0.000000 0.000000 0.000000 0.000000 0.000000 0.021526
#
#
# Mechanical properties :
#
#
# Convention : Reuss Voigt Hill
#
# Bulk Modulus (GPa) = 71.41711 73.35834 72.38772
# Shear Modulus (GPa) = 48.03130 19.57780 33.80455
#
# Velocity S-wave (km/s) = 4.87413 3.11184 4.08905
# Velocity P-wave (km/s) = 8.18538 7.01397 7.62221
#
# Compressibility (1/GPa) = 0.01400225
#
# Stress axis : x y z
#
# Youngs Moduli (GPa) = 96.41257 86.24056 84.40246
#
# Poissons Ratio (x) = 0.31862 0.33297
# Poissons Ratio (y) = 0.35620 0.19135
# Poissons Ratio (z) = 0.38036 0.19551
#
# Static dielectric constant tensor:
#      x y z
#    x 1.796860 0.000000 0.000000 
#    y 0.000000 1.781200 0.000000 
#    z 0.000000 0.000000 1.739500 
# 
# From -- ./inp_files/46675.got.cif
#   From: 2010.05.17/outbox.cif.g08.bks.cpg/sg22_24_cif.got.tgz:46675.got - 2010.06.03 23:40:54.
