data_PCOD9327623
_publ_section_title
;
Structure prediction by ZEFSAII (Michael W. Deem and Ramdas Pophale) SiO2 
 PCOD9327623
Probable space group: F 2 2 2
;
_chemical_formula_sum "Si O2"
_cell_formula_units_Z 72
_cell_length_a 14.625978
_cell_length_b 24.689956
_cell_length_c 8.351870
_cell_angle_alpha 90.000000
_cell_angle_beta 90.000000
_cell_angle_gamma 90.000000
_cell_volume 3015.983474
_symmetry_space_group_name_H-M "F 2 2 2"
_symmetry_group_IT_number 22
_symmetry_cell_setting 'orthorhombic'
loop_
_space_group_symop_operation_xyz
x,y,z
-x,-y,z
x,-y,-z
-x,y,-z
x,1/2+y,1/2+z
-x,1/2-y,1/2+z
x,1/2-y,1/2-z
-x,1/2+y,1/2-z
1/2+x,y,1/2+z
1/2-x,-y,1/2+z
1/2+x,-y,1/2-z
1/2-x,y,1/2-z
1/2+x,1/2+y,z
1/2-x,1/2-y,z
1/2+x,1/2-y,-z
1/2-x,1/2+y,-z
loop_
_atom_site_type_symbol
_atom_site_label
_atom_site_fract_x
_atom_site_fract_y
_atom_site_fract_z
Si Si1 0.641381 0.441324 0.940359
Si Si2 0.250000 0.750000 0.550390
Si Si3 0.096147 0.171935 0.909578
Si Si4 0.399065 0.675139 0.467967
Si Si5 0.137461 0.057193 0.424671
O O1 0.751925 0.442191 0.932895
O O2 0.607653 0.435356 0.758805
O O3 0.611370 0.500000 0.000000
O O4 0.613079 0.391372 0.051043
O O5 0.177349 0.707982 0.480074
O O6 0.327764 0.703721 0.591902
O O7 0.110026 0.184225 0.721771
O O8 0.000000 0.184049 0.000000
O O9 0.500000 0.695095 0.500000
O O10 0.394037 0.610724 0.486391
O O11 0.108067 0.000000 0.500000
#
# Coordination Sequence:
#
# PCOD9327623 Si02
#       5
#    16   8  16  16  16
#     4  10  21  40  68 103 138 178 223 275 338 405
#     4  12  27  48  73  96 135 184 229 282 341 400
#     4  12  25  45  70 102 137 179 228 280 338 402
#     4  12  25  45  70 102 137 179 228 280 338 402
#     4  10  21  40  68 103 138 178 223 275 338 405
#
# _framework density 23.872810999999999
#
# number of rings (size 3 to 8) (size 9 to 14) (size 15 to 20)
#    0.000    0.889    2.222    5.333    0.000    2.667 
#    0.000   12.222    0.000    0.000    0.000    0.000 
#    0.000    0.000    0.000    0.000    0.000    0.000 
#
# Total GULP energy -100409.961777 kJ/mol
# GULP energy per Si atom -5578.331210 kJ/mol
# Density = 2.381848 g / cm^3
# Si number density = 23.872811 Si / 1000 Ang^3
#
#
#
# Elastic Constant Matrix: (Units=GPa)
#
#
# Indices 1 2 3 4 5 6 
#
# 1 102.3693 15.2018 13.0930 0.0000 0.0000 0.0000
# 2 15.2018 180.8600 14.3148 0.0000 0.0000 0.0000
# 3 13.0930 14.3148 67.0552 0.0000 0.0000 -0.0001
# 4 0.0000 0.0000 0.0000 -40.2686 0.0000 -0.0001
# 5 0.0000 0.0000 0.0000 0.0000 13.3679 0.0000
# 6 0.0000 0.0000 -0.0001 -0.0001 0.0000-1325.3412
#
#
#
# Elastic Compliance Matrix: (Units=1/GPa)
#
#
# Indices 1 2 3 4 5 6 
#
# 1 0.010106 -0.000705 -0.001823 0.000000 0.000000 0.000000
# 2 -0.000705 0.005673 -0.001073 0.000000 0.000000 0.000000
# 3 -0.001823 -0.001073 0.015498 0.000000 0.000000 0.000000
# 4 0.000000 0.000000 0.000000 -0.024833 0.000000 0.000000
# 5 0.000000 0.000000 0.000000 0.000000 0.074806 0.000000
# 6 0.000000 0.000000 0.000000 0.000000 0.000000 -0.000755
#
#
# Mechanical properties :
#
#
# Convention : Reuss Voigt Hill
#
# Bulk Modulus (GPa) = 41.53677 48.38931 44.96304
# Shear Modulus (GPa) = 52.23331 -249.93673 -98.85171
#
# Velocity S-wave (km/s) = 4.68266 -10.24316 -6.44186
# Velocity P-wave (km/s) = 6.83179 10.93540 6.03778
#
# Compressibility (1/GPa) = 0.02407505
#
# Stress axis : x y z
#
# Youngs Moduli (GPa) = 98.94710 176.26198 64.52379
#
# Poissons Ratio (x) = 0.12430 0.11761
# Poissons Ratio (y) = 0.06978 0.06926
# Poissons Ratio (z) = 0.18036 0.18921
#
# Static dielectric constant tensor:
#      x y z
#    x 1.946390 0.000000 0.000000 
#    y 0.000000 1.903410 0.000000 
#    z 0.000000 0.000000 2.539040 
# 
# From -- ./inp_files/10139.got.cif
#   From: 2010.05.17/outbox.cif.g08.bks.cpg/sg22_6_cif.got.tgz:10139.got - 2010.06.03 23:40:54.
