data_PCOD9327983
_publ_section_title
;
Structure prediction by ZEFSAII (Michael W. Deem and Ramdas Pophale) SiO2 
 PCOD9327983
Probable space group: F 2 2 2
;
_chemical_formula_sum "Si O2"
_cell_formula_units_Z 80
_cell_length_a 20.066447
_cell_length_b 8.941163
_cell_length_c 19.224951
_cell_angle_alpha 90.000000
_cell_angle_beta 90.000000
_cell_angle_gamma 90.000000
_cell_volume 3449.290213
_symmetry_space_group_name_H-M "F 2 2 2"
_symmetry_group_IT_number 22
_symmetry_cell_setting 'orthorhombic'
loop_
_space_group_symop_operation_xyz
x,y,z
-x,-y,z
x,-y,-z
-x,y,-z
x,1/2+y,1/2+z
-x,1/2-y,1/2+z
x,1/2-y,1/2-z
-x,1/2+y,1/2-z
1/2+x,y,1/2+z
1/2-x,-y,1/2+z
1/2+x,-y,1/2-z
1/2-x,y,1/2-z
1/2+x,1/2+y,z
1/2-x,1/2-y,z
1/2+x,1/2-y,-z
1/2-x,1/2+y,-z
loop_
_atom_site_type_symbol
_atom_site_label
_atom_site_fract_x
_atom_site_fract_y
_atom_site_fract_z
Si Si1 0.900467 0.708605 0.379566
Si Si2 0.843747 0.487509 0.078819
Si Si3 0.076264 0.970090 0.214528
Si Si4 0.750000 0.250000 0.073808
Si Si5 0.845846 0.000000 0.000000
Si Si6 0.947151 0.815486 0.640025
O O1 0.885922 0.616931 0.308894
O O2 0.889828 0.587326 0.441545
O O3 0.975880 0.775445 0.373308
O O4 0.852714 0.849215 0.390706
O O5 0.793159 0.372927 0.115117
O O6 0.913858 0.399521 0.076530
O O7 0.820603 0.500000 0.000000
O O8 0.068753 0.924333 0.294363
O O9 0.092491 0.830725 0.165611
O O10 0.000000 0.000000 0.193772
O O11 0.801551 0.139255 0.031608
#
# Coordination Sequence:
#
# PCOD9327983 Si02
#       6
#    16  16  16   8   8  16
#     4  11  23  39  68 105 139 181 232 289 359 434
#     4  12  24  42  64  97 134 185 230 298 349 420
#     4   9  19  39  63  96 138 183 214 263 343 439
#     4  12  24  46  66  91 135 196 244 296 362 406
#     4  12  22  44  67  96 139 184 248 298 354 416
#     4  10  22  41  65 100 142 175 221 278 355 430
#
# _framework density 23.193176000000001
#
# number of rings (size 3 to 8) (size 9 to 14) (size 15 to 20)
#    0.000    1.200    3.000    3.000    0.000    4.000 
#    7.200    0.000    0.000    9.600    0.000   26.600 
#    0.000    0.000    0.000    0.000    0.000    0.000 
#
# Total GULP energy -111434.193770 kJ/mol
# GULP energy per Si atom -5571.709689 kJ/mol
# Density = 2.314039 g / cm^3
# Si number density = 23.193176 Si / 1000 Ang^3
#
#
#
# Elastic Constant Matrix: (Units=GPa)
#
#
# Indices 1 2 3 4 5 6 
#
# 1 59.8899 60.3190 39.7602 0.0000 0.0000 0.0000
# 2 60.3190 179.0828 60.8846 0.0000 0.0000 0.0000
# 3 39.7602 60.8846 60.7075 0.0000 0.0000 0.0000
# 4 0.0000 0.0000 0.0000 57.2211 0.0000 0.0000
# 5 0.0000 0.0000 0.0000 0.0000 -7.9542 0.0000
# 6 0.0000 0.0000 0.0000 0.0000 0.0000 38.7932
#
#
#
# Elastic Compliance Matrix: (Units=1/GPa)
#
#
# Indices 1 2 3 4 5 6 
#
# 1 0.032995 -0.005715 -0.015878 0.000000 0.000000 0.000000
# 2 -0.005715 0.009463 -0.005748 0.000000 0.000000 0.000000
# 3 -0.015878 -0.005748 0.032636 0.000000 0.000000 0.000000
# 4 0.000000 0.000000 0.000000 0.017476 0.000000 0.000000
# 5 0.000000 0.000000 0.000000 0.000000 -0.125720 0.000000
# 6 0.000000 0.000000 0.000000 0.000000 0.000000 0.025778
#
#
# Mechanical properties :
#
#
# Convention : Reuss Voigt Hill
#
# Bulk Modulus (GPa) = 48.98984 69.06753 59.02868
# Shear Modulus (GPa) = 92.40020 26.85979 59.63000
#
# Velocity S-wave (km/s) = 6.31869 3.40676 5.07602
# Velocity P-wave (km/s) = 8.62571 6.73191 7.73697
#
# Compressibility (1/GPa) = 0.02041240
#
# Stress axis : x y z
#
# Youngs Moduli (GPa) = 30.30804 105.67430 30.64114
#
# Poissons Ratio (x) = 0.60394 0.48652
# Poissons Ratio (y) = 0.17321 0.17611
# Poissons Ratio (z) = 0.48123 0.60737
#
# Static dielectric constant tensor:
#      x y z
#    x 1.888350 0.000000 0.000000 
#    y 0.000000 1.989440 0.000000 
#    z 0.000000 0.000000 1.946990 
# 
# From -- ./inp_files/45167.got.cif
#   From: 2010.05.17/outbox.cif.g08.bks.cpg/sg22_23_cif.got.tgz:45167.got - 2010.06.03 23:40:54.
