data_PCOD9328765
_publ_section_title
;
Structure prediction by ZEFSAII (Michael W. Deem and Ramdas Pophale) SiO2 
 PCOD9328765
Probable space group: F 2 2 2
;
_chemical_formula_sum "Si O2"
_cell_formula_units_Z 92
_cell_length_a 24.321495
_cell_length_b 15.476467
_cell_length_c 9.460012
_cell_angle_alpha 90.000000
_cell_angle_beta 90.000000
_cell_angle_gamma 90.000000
_cell_volume 3560.850825
_symmetry_space_group_name_H-M "F 2 2 2"
_symmetry_group_IT_number 22
_symmetry_cell_setting 'orthorhombic'
loop_
_space_group_symop_operation_xyz
x,y,z
-x,-y,z
x,-y,-z
-x,y,-z
x,1/2+y,1/2+z
-x,1/2-y,1/2+z
x,1/2-y,1/2-z
-x,1/2+y,1/2-z
1/2+x,y,1/2+z
1/2-x,-y,1/2+z
1/2+x,-y,1/2-z
1/2-x,y,1/2-z
1/2+x,1/2+y,z
1/2-x,1/2-y,z
1/2+x,1/2-y,-z
1/2-x,1/2+y,-z
loop_
_atom_site_type_symbol
_atom_site_label
_atom_site_fract_x
_atom_site_fract_y
_atom_site_fract_z
Si Si1 0.812606 0.300238 0.520946
Si Si2 0.250000 0.915032 0.750000
Si Si3 0.086347 0.590283 0.491978
Si Si4 0.077522 0.151165 0.691113
Si Si5 0.653665 0.890745 0.070762
Si Si6 0.250000 0.750000 0.250000
Si Si7 0.456619 0.352507 0.267813
O O1 0.785612 0.361456 0.636603
O O2 0.874795 0.328952 0.515626
O O3 0.814786 0.201551 0.570868
O O4 0.786293 0.303983 0.363257
O O5 0.299581 0.952167 0.854420
O O6 0.117953 0.500000 0.500000
O O7 0.073469 0.593831 0.329208
O O8 0.041437 0.602137 0.613643
O O9 0.086752 0.250000 0.750000
O O10 0.124235 0.115148 0.585330
O O11 0.013613 0.144329 0.645373
O O12 0.598286 0.891160 0.163112
O O13 0.447402 0.250000 0.250000
#
# Coordination Sequence:
#
# PCOD9328765 Si02
#       7
#    16   8  16  16  16   4  16
#     4  12  22  39  63 103 133 180 236 292 360 421
#     4  12  23  36  69  99 136 180 229 300 361 424
#     4  12  26  44  66 101 149 187 222 288 374 439
#     4  11  23  39  68 102 135 176 237 300 343 415
#     4  12  20  39  66 103 130 169 236 300 350 405
#     4  12  24  34  70 102 140 178 250 316 344 416
#     4  11  21  40  69  99 132 179 237 291 347 425
#
# _framework density 25.836521999999999
#
# number of rings (size 3 to 8) (size 9 to 14) (size 15 to 20)
#    0.000    0.348    6.957    3.130    0.000    4.174 
#    0.000    1.739    0.000    2.087    0.000    0.000 
#    0.000    0.000    0.000    0.000    0.000    0.000 
#
# Total GULP energy -128151.578365 kJ/mol
# GULP energy per Si atom -5571.807755 kJ/mol
# Density = 2.577772 g / cm^3
# Si number density = 25.836522 Si / 1000 Ang^3
#
#
#
# Elastic Constant Matrix: (Units=GPa)
#
#
# Indices 1 2 3 4 5 6 
#
# 1 147.5378 -2.7511 62.0778 0.0000 0.0000 0.0000
# 2 -2.7511 37.9982 18.6011 0.0000 0.0000 0.0000
# 3 62.0778 18.6011 204.0615 0.0000 0.0000 0.0000
# 4 0.0000 0.0000 0.0000 13.9875 0.0000 0.0000
# 5 0.0000 0.0000 0.0000 0.0000 56.1170 0.0000
# 6 0.0000 0.0000 0.0000 0.0000 0.0000 21.2086
#
#
#
# Elastic Compliance Matrix: (Units=1/GPa)
#
#
# Indices 1 2 3 4 5 6 
#
# 1 0.007892 0.001828 -0.002568 0.000000 0.000000 0.000000
# 2 0.001828 0.027970 -0.003106 0.000000 0.000000 0.000000
# 3 -0.002568 -0.003106 0.005965 0.000000 0.000000 0.000000
# 4 0.000000 0.000000 0.000000 0.071493 0.000000 0.000000
# 5 0.000000 0.000000 0.000000 0.000000 0.017820 0.000000
# 6 0.000000 0.000000 0.000000 0.000000 0.000000 0.047151
#
#
# Mechanical properties :
#
#
# Convention : Reuss Voigt Hill
#
# Bulk Modulus (GPa) = 29.29394 60.60587 44.94990
# Shear Modulus (GPa) = 25.33456 39.04060 32.18758
#
# Velocity S-wave (km/s) = 3.13481 3.89146 3.53344
# Velocity P-wave (km/s) = 4.94626 6.61057 5.83803
#
# Compressibility (1/GPa) = 0.03413675
#
# Stress axis : x y z
#
# Youngs Moduli (GPa) = 126.70481 35.75288 167.65357
#
# Poissons Ratio (x) = -0.06537 0.43047
# Poissons Ratio (y) = -0.23166 0.52069
# Poissons Ratio (z) = 0.32533 0.11104
#
# Static dielectric constant tensor:
#      x y z
#    x 2.087140 0.000000 0.000000 
#    y 0.000000 2.077080 0.000000 
#    z 0.000000 0.000000 1.857430 
# 
# From -- ./inp_files/14759.got.cif
#   From: 2010.05.17/outbox.cif.g08.bks.cpg/sg22_8_cif.got.tgz:14759.got - 2010.06.03 23:40:54.
