data_PCOD9328470
_publ_section_title
;
Structure prediction by ZEFSAII (Michael W. Deem and Ramdas Pophale) SiO2 
 PCOD9328470
Probable space group: F 2 2 2
;
_chemical_formula_sum "Si O2"
_cell_formula_units_Z 116
_cell_length_a 25.792392
_cell_length_b 12.186460
_cell_length_c 17.688758
_cell_angle_alpha 90.000000
_cell_angle_beta 90.000000
_cell_angle_gamma 90.000000
_cell_volume 5559.894213
_symmetry_space_group_name_H-M "F 2 2 2"
_symmetry_group_IT_number 22
_symmetry_cell_setting 'orthorhombic'
loop_
_space_group_symop_operation_xyz
x,y,z
-x,-y,z
x,-y,-z
-x,y,-z
x,1/2+y,1/2+z
-x,1/2-y,1/2+z
x,1/2-y,1/2-z
-x,1/2+y,1/2-z
1/2+x,y,1/2+z
1/2-x,-y,1/2+z
1/2+x,-y,1/2-z
1/2-x,y,1/2-z
1/2+x,1/2+y,z
1/2-x,1/2-y,z
1/2+x,1/2-y,-z
1/2-x,1/2+y,-z
loop_
_atom_site_type_symbol
_atom_site_label
_atom_site_fract_x
_atom_site_fract_y
_atom_site_fract_z
Si Si1 0.426261 0.434548 0.128056
Si Si2 0.000000 0.000000 0.000000
Si Si3 0.940971 0.509402 0.199127
Si Si4 0.745492 0.974299 0.837661
Si Si5 0.130291 0.216890 0.335392
Si Si6 0.156765 0.122194 0.911773
Si Si7 0.289438 0.328053 0.060709
Si Si8 0.643017 0.673208 0.676289
O O1 0.464734 0.434476 0.058051
O O2 0.446204 0.464163 0.211618
O O3 0.406694 0.312194 0.135814
O O4 0.382072 0.525292 0.111323
O O5 0.902339 0.604196 0.165823
O O6 0.908236 0.398258 0.190586
O O7 0.000000 0.500000 0.168477
O O8 0.750000 0.009753 0.750000
O O9 0.791470 0.892018 0.861166
O O10 0.690708 0.910148 0.841960
O O11 0.760206 0.076514 0.892430
O O12 0.144631 0.250000 0.250000
O O13 0.180861 0.242170 0.385091
O O14 0.134495 0.241002 0.891249
O O15 0.172571 0.121076 0.999078
O O16 0.250000 0.250000 0.015999
O O17 0.653001 0.750000 0.750000
#
# Coordination Sequence:
#
# PCOD9328470 Si02
#       8
#    16   4  16  16  16  16  16  16
#     4  11  22  43  66 100 142 181 233 303 361 433
#     4  12  24  36  72 104 138 184 238 304 386 434
#     4  11  24  46  72 104 136 186 245 305 361 429
#     4  12  24  40  69 103 143 187 236 285 349 435
#     4  10  24  43  68  96 139 186 237 293 354 437
#     4  12  25  45  69 103 148 187 235 300 368 425
#     4  12  26  41  67 103 148 192 234 290 358 435
#     4  12  24  43  73 105 143 187 243 297 361 433
#
# _framework density 20.863707000000002
#
# number of rings (size 3 to 8) (size 9 to 14) (size 15 to 20)
#    0.000    0.552    4.828    3.310    3.862    2.759 
#    0.000    2.069    0.000    0.828    0.000    0.000 
#    0.000    0.000    0.000    0.000    0.000    0.000 
#
# Total GULP energy -161864.070942 kJ/mol
# GULP energy per Si atom -5581.519688 kJ/mol
# Density = 2.081622 g / cm^3
# Si number density = 20.863707 Si / 1000 Ang^3
#
#
#
# Elastic Constant Matrix: (Units=GPa)
#
#
# Indices 1 2 3 4 5 6 
#
# 1 89.7220 54.4697 5.7468 0.0000 0.0000 0.0000
# 2 54.4697 133.5007 44.8072 0.0000 0.0000 0.0000
# 3 5.7468 44.8072 69.9576 0.0000 0.0000 0.0000
# 4 0.0000 0.0000 0.0000 5.1815 0.0000 0.0000
# 5 0.0000 0.0000 0.0000 0.0000 36.9564 0.0000
# 6 0.0000 0.0000 0.0000 0.0000 0.0000 150.9527
#
#
#
# Elastic Compliance Matrix: (Units=1/GPa)
#
#
# Indices 1 2 3 4 5 6 
#
# 1 0.015471 -0.007498 0.003531 0.000000 0.000000 0.000000
# 2 -0.007498 0.013175 -0.007823 0.000000 0.000000 0.000000
# 3 0.003531 -0.007823 0.019015 0.000000 0.000000 0.000000
# 4 0.000000 0.000000 0.000000 0.192996 0.000000 0.000000
# 5 0.000000 0.000000 0.000000 0.000000 0.027059 0.000000
# 6 0.000000 0.000000 0.000000 0.000000 0.000000 0.006625
#
#
# Mechanical properties :
#
#
# Convention : Reuss Voigt Hill
#
# Bulk Modulus (GPa) = 41.52326 55.91418 48.71872
# Shear Modulus (GPa) = 16.34273 51.16189 33.75231
#
# Velocity S-wave (km/s) = 2.80180 4.95734 4.02649
# Velocity P-wave (km/s) = 5.51472 7.72171 6.70958
#
# Compressibility (1/GPa) = 0.02408289
#
# Stress axis : x y z
#
# Youngs Moduli (GPa) = 64.63669 75.89990 52.59094
#
# Poissons Ratio (x) = 0.56906 -0.18571
# Poissons Ratio (y) = 0.48462 0.41140
# Poissons Ratio (z) = -0.22825 0.59374
#
# Static dielectric constant tensor:
#      x y z
#    x 1.883980 0.000000 0.000000 
#    y 0.000000 1.765370 0.000000 
#    z 0.000000 0.000000 1.772190 
# 
# From -- ./inp_files/40068.got.cif
#   From: 2010.05.17/outbox.cif.g08.bks.cpg/sg22_21_cif.got.tgz:40068.got - 2010.06.03 23:40:54.
