data_PCOD9328007
_publ_section_title
;
Structure prediction by ZEFSAII (Michael W. Deem and Ramdas Pophale) SiO2 
 PCOD9328007
Probable space group: F 2 2 2
;
_chemical_formula_sum "Si O2"
_cell_formula_units_Z 52
_cell_length_a 4.830295
_cell_length_b 17.051377
_cell_length_c 28.727090
_cell_angle_alpha 90.000000
_cell_angle_beta 90.000000
_cell_angle_gamma 90.000000
_cell_volume 2366.054515
_symmetry_space_group_name_H-M "F 2 2 2"
_symmetry_group_IT_number 22
_symmetry_cell_setting 'orthorhombic'
loop_
_space_group_symop_operation_xyz
x,y,z
-x,-y,z
x,-y,-z
-x,y,-z
x,1/2+y,1/2+z
-x,1/2-y,1/2+z
x,1/2-y,1/2-z
-x,1/2+y,1/2-z
1/2+x,y,1/2+z
1/2-x,-y,1/2+z
1/2+x,-y,1/2-z
1/2-x,y,1/2-z
1/2+x,1/2+y,z
1/2-x,1/2-y,z
1/2+x,1/2-y,-z
1/2-x,1/2+y,-z
loop_
_atom_site_type_symbol
_atom_site_label
_atom_site_fract_x
_atom_site_fract_y
_atom_site_fract_z
Si Si1 0.994056 0.407322 0.872499
Si Si2 0.250000 0.750000 0.750000
Si Si3 0.745025 0.655456 0.532390
Si Si4 0.061949 0.673929 0.333670
O O1 0.701357 0.360819 0.864053
O O2 0.000000 0.500000 0.878929
O O3 0.168398 0.375024 0.916748
O O4 0.199176 0.390137 0.829696
O O5 0.433126 0.698921 0.784972
O O6 0.500000 0.628717 0.500000
O O7 0.750000 0.750000 0.535467
O O8 0.000000 0.631004 0.500000
O O9 0.250000 0.750000 0.350109
#
# Coordination Sequence:
#
# PCOD9328007 Si02
#       4
#    16   4  16  16
#     4  12  26  45  72 111 156 196 240 309 396 450
#     4  12  26  48  82 108 130 192 268 304 382 436
#     4  10  22  41  69 103 140 188 249 299 345 424
#     4  12  25  46  78 104 142 192 258 312 366 458
#
# _framework density 21.977516000000001
#
# number of rings (size 3 to 8) (size 9 to 14) (size 15 to 20)
#    0.000    0.615    3.077    4.154    0.000    5.538 
#    0.000    4.615    0.000    0.000    0.000    0.000 
#    0.000    0.000    0.000    0.000    0.000    0.000 
#
# Total GULP energy -72385.588534 kJ/mol
# GULP energy per Si atom -5568.122195 kJ/mol
# Density = 2.192749 g / cm^3
# Si number density = 21.977516 Si / 1000 Ang^3
#
#
#
# Elastic Constant Matrix: (Units=GPa)
#
#
# Indices 1 2 3 4 5 6 
#
# 1 229.1340 70.6449 71.5764 0.0000 0.0000 0.0000
# 2 70.6449 101.8189 55.9340 0.0000 0.0000 0.0000
# 3 71.5764 55.9340 109.8542 0.0000 0.0000 0.0000
# 4 0.0000 0.0000 0.0000 17.4990 0.0000 0.0000
# 5 0.0000 0.0000 0.0000 0.0000 39.0754 0.0000
# 6 0.0000 0.0000 0.0000 0.0000 0.0000 26.8784
#
#
#
# Elastic Compliance Matrix: (Units=1/GPa)
#
#
# Indices 1 2 3 4 5 6 
#
# 1 0.006004 -0.002800 -0.002486 0.000000 0.000000 0.000000
# 2 -0.002800 0.014941 -0.005783 0.000000 0.000000 0.000000
# 3 -0.002486 -0.005783 0.013668 0.000000 0.000000 0.000000
# 4 0.000000 0.000000 0.000000 0.057146 0.000000 0.000000
# 5 0.000000 0.000000 0.000000 0.000000 0.025592 0.000000
# 6 0.000000 0.000000 0.000000 0.000000 0.000000 0.037205
#
#
# Mechanical properties :
#
#
# Convention : Reuss Voigt Hill
#
# Bulk Modulus (GPa) = 80.16820 93.01307 86.59064
# Shear Modulus (GPa) = 27.64691 32.86735 30.25713
#
# Velocity S-wave (km/s) = 3.55063 3.87136 3.71446
# Velocity P-wave (km/s) = 7.30519 7.89918 7.60799
#
# Compressibility (1/GPa) = 0.01247377
#
# Stress axis : x y z
#
# Youngs Moduli (GPa) = 166.54889 66.92987 73.16572
#
# Poissons Ratio (x) = 0.18740 0.18192
# Poissons Ratio (y) = 0.46634 0.42312
# Poissons Ratio (z) = 0.41412 0.38706
#
# Static dielectric constant tensor:
#      x y z
#    x 1.868400 0.000000 0.000000 
#    y 0.000000 1.913540 0.000000 
#    z 0.000000 0.000000 1.780290 
# 
# From -- ./inp_files/50983.got.cif
#   From: 2010.05.17/outbox.cif.g08.bks.cpg/sg22_26_cif.got.tgz:50983.got - 2010.06.03 23:40:54.
