data_PCOD9328973
_publ_section_title
;
Structure prediction by ZEFSAII (Michael W. Deem and Ramdas Pophale) SiO2 
 PCOD9328973
Probable space group: F 2 2 2
;
_chemical_formula_sum "Si O2"
_cell_formula_units_Z 80
_cell_length_a 14.279038
_cell_length_b 21.781889
_cell_length_c 11.312065
_cell_angle_alpha 90.000000
_cell_angle_beta 90.000000
_cell_angle_gamma 90.000000
_cell_volume 3518.328464
_symmetry_space_group_name_H-M "F 2 2 2"
_symmetry_group_IT_number 22
_symmetry_cell_setting 'orthorhombic'
loop_
_space_group_symop_operation_xyz
x,y,z
-x,-y,z
x,-y,-z
-x,y,-z
x,1/2+y,1/2+z
-x,1/2-y,1/2+z
x,1/2-y,1/2-z
-x,1/2+y,1/2-z
1/2+x,y,1/2+z
1/2-x,-y,1/2+z
1/2+x,-y,1/2-z
1/2-x,y,1/2-z
1/2+x,1/2+y,z
1/2-x,1/2-y,z
1/2+x,1/2-y,-z
1/2-x,1/2+y,-z
loop_
_atom_site_type_symbol
_atom_site_label
_atom_site_fract_x
_atom_site_fract_y
_atom_site_fract_z
Si Si1 0.442443 0.405877 0.616821
Si Si2 0.536216 0.069901 0.375033
Si Si3 0.998538 0.722622 0.876265
Si Si4 0.742650 0.432131 0.050710
Si Si5 0.287996 0.683755 0.617412
O O1 0.500000 0.426070 0.500000
O O2 0.493977 0.411156 0.742811
O O3 0.427399 0.333131 0.602711
O O4 0.341745 0.437486 0.617427
O O5 0.500000 0.097236 0.500000
O O6 0.647703 0.081046 0.378656
O O7 0.500000 0.000000 0.379243
O O8 0.975353 0.750000 0.750000
O O9 0.101570 0.693747 0.866185
O O10 0.000000 0.759928 0.000000
O O11 0.724517 0.500000 0.000000
O O12 0.758956 0.376342 0.957499
O O13 0.250000 0.676002 0.750000
O O14 0.250000 0.750000 0.570376
#
# Coordination Sequence:
#
# PCOD9328973 Si02
#       5
#    16  16  16  16  16
#     4  11  26  46  73 111 150 198 253 309 394 462
#     4  11  26  48  68 111 149 195 261 313 383 456
#     4  11  23  46  72 113 150 194 258 315 381 468
#     4  12  26  47  76 112 156 202 252 333 388 467
#     4  11  24  45  77 113 148 204 265 315 390 472
#
# _framework density 22.73807
#
# number of rings (size 3 to 8) (size 9 to 14) (size 15 to 20)
#    0.000    0.800    8.000    0.600    5.600    4.000 
#    0.000    0.000    0.000    0.000    0.000    0.000 
#    0.000    0.000    0.000    0.000    0.000    0.000 
#
# Total GULP energy -111486.828413 kJ/mol
# GULP energy per Si atom -5574.341421 kJ/mol
# Density = 2.268632 g / cm^3
# Si number density = 22.738070 Si / 1000 Ang^3
#
#
#
# Elastic Constant Matrix: (Units=GPa)
#
#
# Indices 1 2 3 4 5 6 
#
# 1 92.4944 -12.5037 27.6075 0.0000 0.0000 0.0000
# 2 -12.5037 96.7058 24.1891 0.0000 0.0000 0.0000
# 3 27.6075 24.1891 211.3639 0.0000 0.0000 0.0000
# 4 0.0000 0.0000 0.0000 29.5581 0.0000 0.0000
# 5 0.0000 0.0000 0.0000 0.0000 25.9321 0.0000
# 6 0.0000 0.0000 0.0000 0.0000 0.0000 35.1909
#
#
#
# Elastic Compliance Matrix: (Units=1/GPa)
#
#
# Indices 1 2 3 4 5 6 
#
# 1 0.011591 0.001933 -0.001735 0.000000 0.000000 0.000000
# 2 0.001933 0.010968 -0.001508 0.000000 0.000000 0.000000
# 3 -0.001735 -0.001508 0.005130 0.000000 0.000000 0.000000
# 4 0.000000 0.000000 0.000000 0.033832 0.000000 0.000000
# 5 0.000000 0.000000 0.000000 0.000000 0.038562 0.000000
# 6 0.000000 0.000000 0.000000 0.000000 0.000000 0.028416
#
#
# Mechanical properties :
#
#
# Convention : Reuss Voigt Hill
#
# Bulk Modulus (GPa) = 39.89082 53.23889 46.56485
# Shear Modulus (GPa) = 35.84864 42.22095 39.03480
#
# Velocity S-wave (km/s) = 3.97494 4.31378 4.14782
# Velocity P-wave (km/s) = 6.21680 6.94812 6.59261
#
# Compressibility (1/GPa) = 0.02506843
#
# Stress axis : x y z
#
# Youngs Moduli (GPa) = 86.27672 91.17755 194.91884
#
# Poissons Ratio (x) = -0.17621 0.33820
# Poissons Ratio (y) = -0.16674 0.29386
# Poissons Ratio (z) = 0.14970 0.13746
#
# Static dielectric constant tensor:
#      x y z
#    x 1.856110 0.000000 0.000000 
#    y 0.000000 1.961050 0.000000 
#    z 0.000000 0.000000 1.964330 
# 
# From -- ./inp_files/19835.got.cif
#   From: 2010.05.17/outbox.cif.g08.bks.cpg/sg22_10_cif.got.tgz:19835.got - 2010.06.03 23:40:54.
