data_PCOD9328612
_publ_section_title
;
Structure prediction by ZEFSAII (Michael W. Deem and Ramdas Pophale) SiO2 
 PCOD9328612
Probable space group: F 2 2 2
;
_chemical_formula_sum "Si O2"
_cell_formula_units_Z 88
_cell_length_a 31.994529
_cell_length_b 5.437748
_cell_length_c 23.875192
_cell_angle_alpha 90.000000
_cell_angle_beta 90.000000
_cell_angle_gamma 90.000000
_cell_volume 4153.762596
_symmetry_space_group_name_H-M "F 2 2 2"
_symmetry_group_IT_number 22
_symmetry_cell_setting 'orthorhombic'
loop_
_space_group_symop_operation_xyz
x,y,z
-x,-y,z
x,-y,-z
-x,y,-z
x,1/2+y,1/2+z
-x,1/2-y,1/2+z
x,1/2-y,1/2-z
-x,1/2+y,1/2-z
1/2+x,y,1/2+z
1/2-x,-y,1/2+z
1/2+x,-y,1/2-z
1/2-x,y,1/2-z
1/2+x,1/2+y,z
1/2-x,1/2-y,z
1/2+x,1/2-y,-z
1/2-x,1/2+y,-z
loop_
_atom_site_type_symbol
_atom_site_label
_atom_site_fract_x
_atom_site_fract_y
_atom_site_fract_z
Si Si1 0.568559 0.152341 0.442766
Si Si2 0.128394 0.750000 0.750000
Si Si3 0.500000 0.000000 0.909638
Si Si4 0.225319 0.515624 0.141787
Si Si5 0.421579 0.265344 0.136718
Si Si6 0.354829 0.989638 0.936633
Si Si7 0.318587 0.250000 0.750000
O O1 0.527655 0.319351 0.446963
O O2 0.613277 0.282924 0.437741
O O3 0.568484 0.000000 0.500000
O O4 0.564188 0.034525 0.380986
O O5 0.100505 0.788206 0.694897
O O6 0.154208 0.496969 0.736317
O O7 0.463617 0.884745 0.872049
O O8 0.250000 0.750000 0.115777
O O9 0.183965 0.478398 0.104954
O O10 0.209171 0.635271 0.200124
O O11 0.250000 0.250000 0.147351
O O12 0.387423 0.212086 0.087293
O O13 0.338555 0.000000 0.000000
#
# Coordination Sequence:
#
# PCOD9328612 Si02
#       7
#    16   8   8  16  16  16   8
#     4  11  23  43  74 104 145 197 246 310 369 442
#     4  12  26  46  82 104 145 200 251 302 366 456
#     4  10  26  43  62 110 146 186 251 310 372 434
#     4  12  28  47  76 114 148 190 241 305 377 441
#     4  11  24  46  69 103 140 196 244 300 370 436
#     4  11  24  46  72 103 145 189 245 293 371 447
#     4  12  25  50  77 106 147 186 253 306 361 440
#
# _framework density 21.185613
#
# number of rings (size 3 to 8) (size 9 to 14) (size 15 to 20)
#    0.000    0.727    3.636    3.000    5.091    3.636 
#    3.273    0.000    0.000    0.000    0.000    0.000 
#    0.000    0.000    0.000    0.000    0.000    0.000 
#
# Total GULP energy -122494.625123 kJ/mol
# GULP energy per Si atom -5567.937506 kJ/mol
# Density = 2.113739 g / cm^3
# Si number density = 21.185613 Si / 1000 Ang^3
#
#
#
# Elastic Constant Matrix: (Units=GPa)
#
#
# Indices 1 2 3 4 5 6 
#
# 1 169.3182 72.7715 64.4259 0.0018 -0.0001 0.0024
# 2 72.7715 130.8108 39.8368 0.0199 0.0065 0.0159
# 3 64.4259 39.8368 128.3309 0.0020 0.0009 0.0020
# 4 0.0018 0.0199 0.0020 26.6801 0.0029 0.0070
# 5 -0.0001 0.0065 0.0009 0.0029 25.0439 0.0042
# 6 0.0024 0.0159 0.0020 0.0070 0.0042 21.3517
#
#
#
# Elastic Compliance Matrix: (Units=1/GPa)
#
#
# Indices 1 2 3 4 5 6 
#
# 1 0.008814 -0.003927 -0.003206 0.000003 0.000001 0.000002
# 2 -0.003927 0.010192 -0.001193 -0.000007 -0.000003 -0.000007
# 3 -0.003206 -0.001193 0.009772 0.000000 0.000000 0.000000
# 4 0.000003 -0.000007 0.000000 0.037481 -0.000004 -0.000012
# 5 0.000001 -0.000003 0.000000 -0.000004 0.039930 -0.000008
# 6 0.000002 -0.000007 0.000000 -0.000012 -0.000008 0.046835
#
#
# Mechanical properties :
#
#
# Convention : Reuss Voigt Hill
#
# Bulk Modulus (GPa) = 82.45607 86.94759 84.70183
# Shear Modulus (GPa) = 28.78258 31.37684 30.07971
#
# Velocity S-wave (km/s) = 3.68991 3.85261 3.77213
# Velocity P-wave (km/s) = 7.56037 7.80513 7.68372
#
# Compressibility (1/GPa) = 0.01212767
#
# Stress axis : x y z
#
# Youngs Moduli (GPa) = 113.46209 98.11287 102.33425
#
# Poissons Ratio (x) = 0.38527 0.32805
# Poissons Ratio (y) = 0.44554 0.12204
# Poissons Ratio (z) = 0.36372 0.11700
#
# Static dielectric constant tensor:
#      x y z
#    x 1.780320 0.000000 0.000000 
#    y 0.000000 1.945570 0.000000 
#    z 0.000000 0.000000 1.761720 
# 
# From -- ./inp_files/50708.got.cif
#   From: 2010.05.17/outbox.cif.g08.bks.cpg/sg22_26_cif.got.tgz:50708.got - 2010.06.03 23:40:54.
