data_PCOD9328415
_publ_section_title
;
Structure prediction by ZEFSAII (Michael W. Deem and Ramdas Pophale) SiO2 
 PCOD9328415
Probable space group: F 2 2 2
;
_chemical_formula_sum "Si O2"
_cell_formula_units_Z 84
_cell_length_a 20.379999
_cell_length_b 11.168991
_cell_length_c 15.038667
_cell_angle_alpha 90.000000
_cell_angle_beta 90.000000
_cell_angle_gamma 90.000000
_cell_volume 3423.161919
_symmetry_space_group_name_H-M "F 2 2 2"
_symmetry_group_IT_number 22
_symmetry_cell_setting 'orthorhombic'
loop_
_space_group_symop_operation_xyz
x,y,z
-x,-y,z
x,-y,-z
-x,y,-z
x,1/2+y,1/2+z
-x,1/2-y,1/2+z
x,1/2-y,1/2-z
-x,1/2+y,1/2-z
1/2+x,y,1/2+z
1/2-x,-y,1/2+z
1/2+x,-y,1/2-z
1/2-x,y,1/2-z
1/2+x,1/2+y,z
1/2-x,1/2-y,z
1/2+x,1/2-y,-z
1/2-x,1/2+y,-z
loop_
_atom_site_type_symbol
_atom_site_label
_atom_site_fract_x
_atom_site_fract_y
_atom_site_fract_z
Si Si1 0.250000 0.250000 0.915749
Si Si2 0.613963 0.311799 0.335357
Si Si3 0.615353 0.371507 0.892937
Si Si4 0.500000 0.500000 0.000000
Si Si5 0.280895 0.000000 0.500000
Si Si6 0.931741 0.557493 0.210549
Si Si7 0.400744 0.365093 0.474185
O O1 0.316138 0.247367 0.856916
O O2 0.246771 0.376086 0.969897
O O3 0.581414 0.250000 0.250000
O O4 0.619099 0.449823 0.307563
O O5 0.577476 0.312177 0.430574
O O6 0.549202 0.417453 0.942199
O O7 0.598184 0.367056 0.789900
O O8 0.639789 0.245644 0.933501
O O9 0.671396 0.465734 0.918062
O O10 0.944866 0.612459 0.113218
O O11 0.000000 0.500000 0.241050
O O12 0.378170 0.500000 0.500000
#
# Coordination Sequence:
#
# PCOD9328415 Si02
#       7
#     8  16  16   4   8  16  16
#     4  12  25  48  76 111 152 208 263 336 401 478
#     4  11  25  44  72 103 148 200 263 322 390 480
#     4  11  22  46  68 111 145 198 257 318 392 478
#     4  10  24  36  74  96 150 192 238 330 374 448
#     4  11  26  43  80 108 147 200 261 334 406 466
#     4  11  25  43  70 111 153 205 255 322 402 480
#     4  10  24  43  67 102 149 197 251 319 383 473
#
# _framework density 24.538716000000001
#
# number of rings (size 3 to 8) (size 9 to 14) (size 15 to 20)
#    0.000    1.143    2.857    2.000    6.667    8.000 
#    0.000    0.000    0.000    1.143    0.000    0.000 
#    0.000    0.000    0.000    0.000    0.000    0.000 
#
# Total GULP energy -117095.332992 kJ/mol
# GULP energy per Si atom -5575.968238 kJ/mol
# Density = 2.448287 g / cm^3
# Si number density = 24.538716 Si / 1000 Ang^3
#
#
#
# Elastic Constant Matrix: (Units=GPa)
#
#
# Indices 1 2 3 4 5 6 
#
# 1 52.7667 45.5123 27.8585 0.0000 0.0000 0.0000
# 2 45.5123 148.4500 78.5470 0.0000 0.0000 0.0000
# 3 27.8585 78.5470 229.7563 0.0000 0.0000 0.0000
# 4 0.0000 0.0000 0.0000 47.5476 0.0000 0.0000
# 5 0.0000 0.0000 0.0000 0.0000 16.9111 0.0000
# 6 0.0000 0.0000 0.0000 0.0000 0.0000 19.6656
#
#
#
# Elastic Compliance Matrix: (Units=1/GPa)
#
#
# Indices 1 2 3 4 5 6 
#
# 1 0.025815 -0.007640 -0.000518 0.000000 0.000000 0.000000
# 2 -0.007640 0.010485 -0.002658 0.000000 0.000000 0.000000
# 3 -0.000518 -0.002658 0.005324 0.000000 0.000000 0.000000
# 4 0.000000 0.000000 0.000000 0.021032 0.000000 0.000000
# 5 0.000000 0.000000 0.000000 0.000000 0.059133 0.000000
# 6 0.000000 0.000000 0.000000 0.000000 0.000000 0.050850
#
#
# Mechanical properties :
#
#
# Convention : Reuss Voigt Hill
#
# Bulk Modulus (GPa) = 50.02289 81.64539 65.83414
# Shear Modulus (GPa) = 24.88365 35.42854 30.15610
#
# Velocity S-wave (km/s) = 3.18788 3.80383 3.50940
# Velocity P-wave (km/s) = 5.82921 7.25510 6.58089
#
# Compressibility (1/GPa) = 0.01999085
#
# Stress axis : x y z
#
# Youngs Moduli (GPa) = 38.73755 95.37339 187.82842
#
# Poissons Ratio (x) = 0.72867 0.09732
# Poissons Ratio (y) = 0.29596 0.49928
# Poissons Ratio (z) = 0.02007 0.25352
#
# Static dielectric constant tensor:
#      x y z
#    x 1.936960 0.000000 0.000000 
#    y 0.000000 2.011600 0.000000 
#    z 0.000000 0.000000 1.933500 
# 
# From -- ./inp_files/32379.got.cif
#   From: 2010.05.17/outbox.cif.g08.bks.cpg/sg22_17_cif.got.tgz:32379.got - 2010.06.03 23:40:54.
