data_PCOD9328959
_publ_section_title
;
Structure prediction by ZEFSAII (Michael W. Deem and Ramdas Pophale) SiO2 
 PCOD9328959
Probable space group: F 2 2 2
;
_chemical_formula_sum "Si O2"
_cell_formula_units_Z 52
_cell_length_a 25.267743
_cell_length_b 7.904351
_cell_length_c 11.018612
_cell_angle_alpha 90.000000
_cell_angle_beta 90.000000
_cell_angle_gamma 90.000000
_cell_volume 2200.693490
_symmetry_space_group_name_H-M "F 2 2 2"
_symmetry_group_IT_number 22
_symmetry_cell_setting 'orthorhombic'
loop_
_space_group_symop_operation_xyz
x,y,z
-x,-y,z
x,-y,-z
-x,y,-z
x,1/2+y,1/2+z
-x,1/2-y,1/2+z
x,1/2-y,1/2-z
-x,1/2+y,1/2-z
1/2+x,y,1/2+z
1/2-x,-y,1/2+z
1/2+x,-y,1/2-z
1/2-x,y,1/2-z
1/2+x,1/2+y,z
1/2-x,1/2-y,z
1/2+x,1/2-y,-z
1/2-x,1/2+y,-z
loop_
_atom_site_type_symbol
_atom_site_label
_atom_site_fract_x
_atom_site_fract_y
_atom_site_fract_z
Si Si1 0.972718 0.316093 0.614208
Si Si2 0.750000 0.250000 0.250000
Si Si3 0.648989 0.385720 0.889642
Si Si4 0.175146 0.523961 0.866199
O O1 0.979081 0.250000 0.750000
O O2 0.910511 0.325316 0.584541
O O3 0.000000 0.500000 0.618226
O O4 0.000000 0.223687 0.500000
O O5 0.781692 0.379986 0.162078
O O6 0.643444 0.482340 0.761035
O O7 0.687059 0.224747 0.874309
O O8 0.667570 0.500000 0.000000
O O9 0.150968 0.500000 0.000000
#
# Coordination Sequence:
#
# PCOD9328959 Si02
#       4
#    16   4  16  16
#     4  11  23  44  68 104 149 197 250 312 362 452
#     4  12  28  50  72 122 144 198 260 320 396 460
#     4  11  23  47  70 106 151 199 249 314 389 437
#     4  11  26  46  77 106 147 197 250 322 379 471
#
# _framework density 23.628917000000001
#
# number of rings (size 3 to 8) (size 9 to 14) (size 15 to 20)
#    0.000    0.923    6.154    1.846    0.000   11.692 
#    2.769    0.000    0.000    0.000    0.000    0.000 
#    0.000    0.000    0.000    0.000    0.000    0.000 
#
# Total GULP energy -72428.051057 kJ/mol
# GULP energy per Si atom -5571.388543 kJ/mol
# Density = 2.357514 g / cm^3
# Si number density = 23.628917 Si / 1000 Ang^3
#
#
#
# Elastic Constant Matrix: (Units=GPa)
#
#
# Indices 1 2 3 4 5 6 
#
# 1 94.1569 49.8911 14.4049 0.0000 0.0000 0.0000
# 2 49.8911 136.3058 65.2712 0.0000 0.0000 0.0000
# 3 14.4049 65.2712 193.9948 0.0000 0.0000 0.0000
# 4 0.0000 0.0000 0.0000 57.4140 0.0000 0.0000
# 5 0.0000 0.0000 0.0000 0.0000 -104.4649 0.0000
# 6 0.0000 0.0000 0.0000 0.0000 0.0000 19.2961
#
#
#
# Elastic Compliance Matrix: (Units=1/GPa)
#
#
# Indices 1 2 3 4 5 6 
#
# 1 0.013273 -0.005229 0.000774 0.000000 0.000000 0.000000
# 2 -0.005229 0.010805 -0.003247 0.000000 0.000000 0.000000
# 3 0.000774 -0.003247 0.006190 0.000000 0.000000 0.000000
# 4 0.000000 0.000000 0.000000 0.017417 0.000000 0.000000
# 5 0.000000 0.000000 0.000000 0.000000 -0.009573 0.000000
# 6 0.000000 0.000000 0.000000 0.000000 0.000000 0.051824
#
#
# Mechanical properties :
#
#
# Convention : Reuss Voigt Hill
#
# Bulk Modulus (GPa) = 67.27931 75.95465 71.61698
# Shear Modulus (GPa) = 45.33278 14.10840 29.72059
#
# Velocity S-wave (km/s) = 4.38485 2.44618 3.55040
# Velocity P-wave (km/s) = 7.36010 6.33979 6.86892
#
# Compressibility (1/GPa) = 0.01486341
#
# Stress axis : x y z
#
# Youngs Moduli (GPa) = 75.34271 92.54800 161.55353
#
# Poissons Ratio (x) = 0.48389 -0.12499
# Poissons Ratio (y) = 0.39394 0.52461
# Poissons Ratio (z) = -0.05829 0.30053
#
# Static dielectric constant tensor:
#      x y z
#    x 1.890370 0.000000 0.000000 
#    y 0.000000 1.964850 0.000000 
#    z 0.000000 0.000000 1.982300 
# 
# From -- ./inp_files/8290.got.cif
#   From: 2010.05.17/outbox.cif.g08.bks.cpg/sg22_5_cif.got.tgz:8290.got - 2010.06.03 23:40:54.
