data_PCOD9328996
_publ_section_title
;
Structure prediction by ZEFSAII (Michael W. Deem and Ramdas Pophale) SiO2 
 PCOD9328996
Probable space group: F 2 2 2
;
_chemical_formula_sum "Si O2"
_cell_formula_units_Z 88
_cell_length_a 29.982404
_cell_length_b 11.581756
_cell_length_c 12.361326
_cell_angle_alpha 90.000000
_cell_angle_beta 90.000000
_cell_angle_gamma 90.000000
_cell_volume 4292.456701
_symmetry_space_group_name_H-M "F 2 2 2"
_symmetry_group_IT_number 22
_symmetry_cell_setting 'orthorhombic'
loop_
_space_group_symop_operation_xyz
x,y,z
-x,-y,z
x,-y,-z
-x,y,-z
x,1/2+y,1/2+z
-x,1/2-y,1/2+z
x,1/2-y,1/2-z
-x,1/2+y,1/2-z
1/2+x,y,1/2+z
1/2-x,-y,1/2+z
1/2+x,-y,1/2-z
1/2-x,y,1/2-z
1/2+x,1/2+y,z
1/2-x,1/2-y,z
1/2+x,1/2-y,-z
1/2-x,1/2+y,-z
loop_
_atom_site_type_symbol
_atom_site_label
_atom_site_fract_x
_atom_site_fract_y
_atom_site_fract_z
Si Si1 0.763771 0.870011 0.587636
Si Si2 0.623063 0.180796 0.640107
Si Si3 0.631431 0.374571 0.449724
Si Si4 0.723907 0.596446 0.145122
Si Si5 0.415889 0.750000 0.250000
Si Si6 0.450189 0.478492 0.870885
O O1 0.750000 0.750000 0.634635
O O2 0.816463 0.890544 0.583482
O O3 0.750148 0.868927 0.461715
O O4 0.730742 0.960019 0.642329
O O5 0.617313 0.250000 0.750000
O O6 0.622356 0.272791 0.539452
O O7 0.673043 0.130799 0.638819
O O8 0.588009 0.074976 0.650786
O O9 0.617265 0.500000 0.500000
O O10 0.608962 0.329481 0.339349
O O11 0.750000 0.636376 0.250000
O O12 0.438524 0.649807 0.173838
O O13 0.500000 0.500000 0.825595
O O14 0.453531 0.500000 0.000000
#
# Coordination Sequence:
#
# PCOD9328996 Si02
#       6
#    16  16  16  16   8  16
#     4  11  24  41  59  91 144 186 244 303 348 437
#     4  12  26  45  77 106 149 199 258 316 388 459
#     4  12  25  46  69 108 149 198 252 306 373 447
#     4  11  25  40  64  96 137 195 248 294 365 425
#     4  12  28  48  83 108 156 188 247 318 376 466
#     4  11  27  53  81 112 146 192 249 320 398 470
#
# _framework density 20.501080999999999
#
# number of rings (size 3 to 8) (size 9 to 14) (size 15 to 20)
#    0.000    0.545    5.455    2.182    8.909    0.364 
#    0.000    0.000    0.000    0.000    0.000    0.000 
#    0.000    0.000    0.000    0.000    0.000    0.000 
#
# Total GULP energy -122557.243820 kJ/mol
# GULP energy per Si atom -5570.783810 kJ/mol
# Density = 2.045442 g / cm^3
# Si number density = 20.501081 Si / 1000 Ang^3
#
#
#
# Elastic Constant Matrix: (Units=GPa)
#
#
# Indices 1 2 3 4 5 6 
#
# 1 122.2247 61.5372 41.5806 0.0000 0.0000 0.0000
# 2 61.5372 184.6028 37.7422 0.0000 0.0000 0.0000
# 3 41.5806 37.7422 117.9075 0.0000 0.0000 0.0000
# 4 0.0000 0.0000 0.0000 306.3894 0.0000 0.0000
# 5 0.0000 0.0000 0.0000 0.0000 15.1778 0.0000
# 6 0.0000 0.0000 0.0000 0.0000 0.0000 12.6906
#
#
#
# Elastic Compliance Matrix: (Units=1/GPa)
#
#
# Indices 1 2 3 4 5 6 
#
# 1 0.010629 -0.002971 -0.002797 0.000000 0.000000 0.000000
# 2 -0.002971 0.006627 -0.001073 0.000000 0.000000 0.000000
# 3 -0.002797 -0.001073 0.009811 0.000000 0.000000 0.000000
# 4 0.000000 0.000000 0.000000 0.003264 0.000000 0.000000
# 5 0.000000 0.000000 0.000000 0.000000 0.065886 0.000000
# 6 0.000000 0.000000 0.000000 0.000000 0.000000 0.078799
#
#
# Mechanical properties :
#
#
# Convention : Reuss Voigt Hill
#
# Bulk Modulus (GPa) = 74.71963 78.49499 76.60731
# Shear Modulus (GPa) = 25.88510 85.77654 55.83082
#
# Velocity S-wave (km/s) = 3.55719 6.47540 5.22420
# Velocity P-wave (km/s) = 7.30735 9.70974 8.59292
#
# Compressibility (1/GPa) = 0.01338336
#
# Stress axis : x y z
#
# Youngs Moduli (GPa) = 94.07954 150.89780 101.92296
#
# Poissons Ratio (x) = 0.44837 0.28511
# Poissons Ratio (y) = 0.27954 0.10941
# Poissons Ratio (z) = 0.26317 0.16198
#
# Static dielectric constant tensor:
#      x y z
#    x 1.379480 0.000000 0.000000 
#    y 0.000000 2.154700 0.000000 
#    z 0.000000 0.000000 1.853150 
# 
# From -- ./inp_files/25203.got.cif
#   From: 2010.05.17/outbox.cif.g08.bks.cpg/sg22_13_cif.got.tgz:25203.got - 2010.06.03 23:40:54.
