data_PCOD9328229
_publ_section_title
;
Structure prediction by ZEFSAII (Michael W. Deem and Ramdas Pophale) SiO2 
 PCOD9328229
Probable space group: F 2 2 2
;
_chemical_formula_sum "Si O2"
_cell_formula_units_Z 92
_cell_length_a 22.787001
_cell_length_b 21.905738
_cell_length_c 8.555618
_cell_angle_alpha 90.000000
_cell_angle_beta 90.000000
_cell_angle_gamma 90.000000
_cell_volume 4270.674245
_symmetry_space_group_name_H-M "F 2 2 2"
_symmetry_group_IT_number 22
_symmetry_cell_setting 'orthorhombic'
loop_
_space_group_symop_operation_xyz
x,y,z
-x,-y,z
x,-y,-z
-x,y,-z
x,1/2+y,1/2+z
-x,1/2-y,1/2+z
x,1/2-y,1/2-z
-x,1/2+y,1/2-z
1/2+x,y,1/2+z
1/2-x,-y,1/2+z
1/2+x,-y,1/2-z
1/2-x,y,1/2-z
1/2+x,1/2+y,z
1/2-x,1/2-y,z
1/2+x,1/2-y,-z
1/2-x,1/2+y,-z
loop_
_atom_site_type_symbol
_atom_site_label
_atom_site_fract_x
_atom_site_fract_y
_atom_site_fract_z
Si Si1 0.750000 0.638396 0.750000
Si Si2 0.387975 0.518940 0.795930
Si Si3 0.983751 0.686383 0.674866
Si Si4 0.000000 0.500000 0.500000
Si Si5 0.730957 0.936806 0.430131
Si Si6 0.623370 0.376214 0.277166
Si Si7 0.058868 0.889221 0.582536
O O1 0.754042 0.606858 0.575467
O O2 0.683113 0.661024 0.744724
O O3 0.451375 0.526175 0.880063
O O4 0.338392 0.550574 0.902319
O O5 0.369693 0.449748 0.748371
O O6 0.398213 0.559018 0.643902
O O7 0.965661 0.750000 0.750000
O O8 0.929140 0.640756 0.662658
O O9 0.000000 0.700090 0.500000
O O10 0.034220 0.655446 0.782737
O O11 0.750000 0.923258 0.250000
O O12 0.756270 0.000000 0.500000
O O13 0.595492 0.358819 0.444040
O O14 0.000000 0.915161 0.500000
#
# Coordination Sequence:
#
# PCOD9328229 Si02
#       7
#     8  16  16   4  16  16  16
#     4  12  24  42  59  94 136 188 223 272 320 394
#     4  12  23  34  58  91 137 176 218 262 323 404
#     4  11  25  45  72  96 126 167 222 285 346 407
#     4  12  20  28  46  80 124 160 202 254 316 374
#     4  12  22  37  57  83 129 181 231 261 312 384
#     4  11  23  41  63  94 133 176 226 268 330 397
#     4  10  23  39  63  95 132 171 217 273 338 400
#
# _framework density 21.542266000000001
#
# number of rings (size 3 to 8) (size 9 to 14) (size 15 to 20)
#    0.000    0.696    3.478    5.217    7.304    2.087 
#    0.000    0.435    0.000    0.000    0.000    0.000 
#    0.000    0.000    0.000    0.000    0.000    0.000 
#
# Total GULP energy -128062.680966 kJ/mol
# GULP energy per Si atom -5567.942651 kJ/mol
# Density = 2.149323 g / cm^3
# Si number density = 21.542266 Si / 1000 Ang^3
#
#
#
# Elastic Constant Matrix: (Units=GPa)
#
#
# Indices 1 2 3 4 5 6 
#
# 1 102.0430 -9.9832 25.2836 0.0009 0.0000 -0.0016
# 2 -9.9832 37.0464 2.5538 0.0006 0.0000 -0.0008
# 3 25.2836 2.5538 128.7200 0.0011 0.0002 -0.0013
# 4 0.0009 0.0006 0.0011 33.2994 0.0000 -0.0008
# 5 0.0000 0.0000 0.0002 0.0000 17.1375 -0.0004
# 6 -0.0016 -0.0008 -0.0013 -0.0008 -0.0004 23.9564
#
#
#
# Elastic Compliance Matrix: (Units=1/GPa)
#
#
# Indices 1 2 3 4 5 6 
#
# 1 0.010626 0.003012 -0.002147 0.000000 0.000000 0.000001
# 2 0.003012 0.027884 -0.001145 -0.000001 0.000000 0.000001
# 3 -0.002147 -0.001145 0.008213 0.000000 0.000000 0.000000
# 4 0.000000 -0.000001 0.000000 0.030031 0.000000 0.000001
# 5 0.000000 0.000000 0.000000 0.000000 0.058352 0.000001
# 6 0.000001 0.000001 0.000000 0.000001 0.000001 0.041743
#
#
# Mechanical properties :
#
#
# Convention : Reuss Voigt Hill
#
# Bulk Modulus (GPa) = 21.66240 33.72419 27.69330
# Shear Modulus (GPa) = 25.93413 31.54234 28.73823
#
# Velocity S-wave (km/s) = 3.47345 3.83065 3.65641
# Velocity P-wave (km/s) = 5.11508 5.93751 5.54157
#
# Compressibility (1/GPa) = 0.04616294
#
# Stress axis : x y z
#
# Youngs Moduli (GPa) = 94.10532 35.86328 121.75474
#
# Poissons Ratio (x) = -0.10801 0.26141
# Poissons Ratio (y) = -0.28341 0.13938
# Poissons Ratio (z) = 0.20205 0.04105
#
# Static dielectric constant tensor:
#      x y z
#    x 1.841710 0.000000 0.000000 
#    y 0.000000 1.811490 0.000000 
#    z 0.000000 0.000000 1.797660 
# 
# From -- ./inp_files/12697.got.cif
#   From: 2010.05.17/outbox.cif.g08.bks.cpg/sg22_7_cif.got.tgz:12697.got - 2010.06.03 23:40:54.
