data_PCOD9328394
_publ_section_title
;
Structure prediction by ZEFSAII (Michael W. Deem and Ramdas Pophale) SiO2 
 PCOD9328394
Probable space group: F 2 2 2
;
_chemical_formula_sum "Si O2"
_cell_formula_units_Z 68
_cell_length_a 27.564713
_cell_length_b 12.514413
_cell_length_c 10.375410
_cell_angle_alpha 90.000000
_cell_angle_beta 90.000000
_cell_angle_gamma 90.000000
_cell_volume 3579.062035
_symmetry_space_group_name_H-M "F 2 2 2"
_symmetry_group_IT_number 22
_symmetry_cell_setting 'orthorhombic'
loop_
_space_group_symop_operation_xyz
x,y,z
-x,-y,z
x,-y,-z
-x,y,-z
x,1/2+y,1/2+z
-x,1/2-y,1/2+z
x,1/2-y,1/2-z
-x,1/2+y,1/2-z
1/2+x,y,1/2+z
1/2-x,-y,1/2+z
1/2+x,-y,1/2-z
1/2-x,y,1/2-z
1/2+x,1/2+y,z
1/2-x,1/2-y,z
1/2+x,1/2-y,-z
1/2-x,1/2+y,-z
loop_
_atom_site_type_symbol
_atom_site_label
_atom_site_fract_x
_atom_site_fract_y
_atom_site_fract_z
Si Si1 0.000000 0.500000 0.500000
Si Si2 0.341670 0.875214 0.221901
Si Si3 0.250000 0.004589 0.250000
Si Si4 0.405323 0.036948 0.360542
Si Si5 0.359190 0.750000 0.750000
Si Si6 0.710928 0.335637 0.535664
O O1 0.961389 0.554091 0.402832
O O2 0.347014 0.750000 0.250000
O O3 0.295624 0.931834 0.290279
O O4 0.388987 0.941599 0.264520
O O5 0.323079 0.883020 0.075143
O O6 0.263350 0.078871 0.128781
O O7 0.387875 0.145033 0.293713
O O8 0.383034 0.000000 0.500000
O O9 0.324838 0.725566 0.630569
O O10 0.750000 0.250000 0.483482
#
# Coordination Sequence:
#
# PCOD9328394 Si02
#       6
#     4  16   8  16   8  16
#     4   8  24  52  72 102 134 172 236 308 394 428
#     4  12  25  39  63  99 141 182 240 287 340 427
#     4  12  22  38  56  94 146 189 225 276 338 418
#     4  10  23  47  71 101 133 180 231 304 371 433
#     4  12  21  42  72  96 134 192 234 287 356 426
#     4  12  22  40  59  95 142 190 236 280 338 415
#
# _framework density 18.999390999999999
#
# number of rings (size 3 to 8) (size 9 to 14) (size 15 to 20)
#    0.706    0.000    4.706    3.882    0.000    1.882 
#    2.118    0.000    0.000    1.412    0.000    0.000 
#    0.000    0.000    0.000    0.000    0.000    0.000 
#
# Total GULP energy -94713.818761 kJ/mol
# GULP energy per Si atom -5571.401104 kJ/mol
# Density = 1.895615 g / cm^3
# Si number density = 18.999391 Si / 1000 Ang^3
#
#
#
# Elastic Constant Matrix: (Units=GPa)
#
#
# Indices 1 2 3 4 5 6 
#
# 1 82.9925 37.6070 24.7468 0.0000 0.0000 0.0000
# 2 37.6070 136.5954 35.5403 0.0000 0.0000 0.0000
# 3 24.7468 35.5403 106.1761 0.0000 0.0000 0.0000
# 4 0.0000 0.0000 0.0000 35.1651 0.0000 0.0000
# 5 0.0000 0.0000 0.0000 0.0000 545.4549 0.0000
# 6 0.0000 0.0000 0.0000 0.0000 0.0000 9.8122
#
#
#
# Elastic Compliance Matrix: (Units=1/GPa)
#
#
# Indices 1 2 3 4 5 6 
#
# 1 0.014219 -0.003344 -0.002195 0.000000 0.000000 0.000000
# 2 -0.003344 0.008806 -0.002168 0.000000 0.000000 0.000000
# 3 -0.002195 -0.002168 0.010656 0.000000 0.000000 0.000000
# 4 0.000000 0.000000 0.000000 0.028437 0.000000 0.000000
# 5 0.000000 0.000000 0.000000 0.000000 0.001833 0.000000
# 6 0.000000 0.000000 0.000000 0.000000 0.000000 0.101914
#
#
# Mechanical properties :
#
#
# Convention : Reuss Voigt Hill
#
# Bulk Modulus (GPa) = 54.74413 57.95025 56.34719
# Shear Modulus (GPa) = 26.68557 133.27777 79.98167
#
# Velocity S-wave (km/s) = 3.75180 8.38455 6.49526
# Velocity P-wave (km/s) = 6.90247 11.14906 9.27216
#
# Compressibility (1/GPa) = 0.01826680
#
# Stress axis : x y z
#
# Youngs Moduli (GPa) = 70.32910 113.56434 93.84717
#
# Poissons Ratio (x) = 0.37972 0.20598
# Poissons Ratio (y) = 0.23515 0.20348
# Poissons Ratio (z) = 0.15436 0.24623
#
# Static dielectric constant tensor:
#      x y z
#    x 1.669770 0.000000 0.000000 
#    y 0.000000 1.271480 0.000000 
#    z 0.000000 0.000000 1.676570 
# 
# From -- ./inp_files/25089.got.cif
#   From: 2010.05.17/outbox.cif.g08.bks.cpg/sg22_13_cif.got.tgz:25089.got - 2010.06.03 23:40:54.
