data_PCOD9328412
_publ_section_title
;
Structure prediction by ZEFSAII (Michael W. Deem and Ramdas Pophale) SiO2 
 PCOD9328412
Probable space group: F 2 2 2
;
_chemical_formula_sum "Si O2"
_cell_formula_units_Z 60
_cell_length_a 9.400437
_cell_length_b 28.525216
_cell_length_c 9.829779
_cell_angle_alpha 90.000000
_cell_angle_beta 90.000000
_cell_angle_gamma 90.000000
_cell_volume 2635.850284
_symmetry_space_group_name_H-M "F 2 2 2"
_symmetry_group_IT_number 22
_symmetry_cell_setting 'orthorhombic'
loop_
_space_group_symop_operation_xyz
x,y,z
-x,-y,z
x,-y,-z
-x,y,-z
x,1/2+y,1/2+z
-x,1/2-y,1/2+z
x,1/2-y,1/2-z
-x,1/2+y,1/2-z
1/2+x,y,1/2+z
1/2-x,-y,1/2+z
1/2+x,-y,1/2-z
1/2-x,y,1/2-z
1/2+x,1/2+y,z
1/2-x,1/2-y,z
1/2+x,1/2-y,-z
1/2-x,1/2+y,-z
loop_
_atom_site_type_symbol
_atom_site_label
_atom_site_fract_x
_atom_site_fract_y
_atom_site_fract_z
Si Si1 0.750000 0.250000 0.250000
Si Si2 0.250000 0.350918 0.250000
Si Si3 0.745483 0.437515 0.552235
Si Si4 0.500000 0.500000 0.500000
Si Si5 0.000000 0.500000 0.500000
Si Si6 0.750000 0.404078 0.250000
Si Si7 0.962317 0.173543 0.155699
O O1 0.853382 0.216561 0.163866
O O2 0.257079 0.387219 0.376533
O O3 0.390357 0.320077 0.234927
O O4 0.605820 0.467374 0.587247
O O5 0.736775 0.432220 0.389032
O O6 0.891075 0.465825 0.579984
O O7 0.884569 0.370284 0.274098
O O8 0.000000 0.163305 0.000000
#
# Coordination Sequence:
#
# PCOD9328412 Si02
#       7
#     4   8  16   4   4   8  16
#     4  10  28  46  72 104 144 170 216 272 356 422
#     4  12  24  42  74  99 132 188 236 275 344 408
#     4  11  23  40  63  98 136 186 234 290 334 402
#     4  10  24  36  56  96 136 182 232 288 348 380
#     4  10  24  40  64  92 148 186 232 300 348 372
#     4  11  22  44  70  96 140 182 236 282 336 402
#     4  11  24  47  71 106 136 179 218 285 340 415
#
# _framework density 22.763052999999999
#
# number of rings (size 3 to 8) (size 9 to 14) (size 15 to 20)
#    0.000    1.067    2.667    3.200    0.000    9.067 
#    0.000    0.000    0.000    0.000    0.000    0.000 
#    0.000    0.000    0.000    0.000    0.000    0.000 
#
# Total GULP energy -83899.892780 kJ/mol
# GULP energy per Si atom -5593.326185 kJ/mol
# Density = 2.271124 g / cm^3
# Si number density = 22.763053 Si / 1000 Ang^3
#
#
#
# Elastic Constant Matrix: (Units=GPa)
#
#
# Indices 1 2 3 4 5 6 
#
# 1 200.7983 49.4945 28.6088 0.0000 0.0000 0.0000
# 2 49.4945 74.2795 21.4066 0.0000 0.0000 0.0000
# 3 28.6088 21.4066 123.5587 0.0000 0.0000 0.0000
# 4 0.0000 0.0000 0.0000 9.8923 0.0000 0.0000
# 5 0.0000 0.0000 0.0000 0.0000 18.3201 0.0000
# 6 0.0000 0.0000 0.0000 0.0000 0.0000 34.4533
#
#
#
# Elastic Compliance Matrix: (Units=1/GPa)
#
#
# Indices 1 2 3 4 5 6 
#
# 1 0.006022 -0.003800 -0.000736 0.000000 0.000000 0.000000
# 2 -0.003800 0.016569 -0.001991 0.000000 0.000000 0.000000
# 3 -0.000736 -0.001991 0.008609 0.000000 0.000000 0.000000
# 4 0.000000 0.000000 0.000000 0.101089 0.000000 0.000000
# 5 0.000000 0.000000 0.000000 0.000000 0.054585 0.000000
# 6 0.000000 0.000000 0.000000 0.000000 0.000000 0.029025
#
#
# Mechanical properties :
#
#
# Convention : Reuss Voigt Hill
#
# Bulk Modulus (GPa) = 55.11068 66.40623 60.75845
# Shear Modulus (GPa) = 21.27667 32.47492 26.87580
#
# Velocity S-wave (km/s) = 3.06061 3.78120 3.43982
# Velocity P-wave (km/s) = 6.06242 6.94978 6.52121
#
# Compressibility (1/GPa) = 0.01814530
#
# Stress axis : x y z
#
# Youngs Moduli (GPa) = 166.06578 60.35502 116.16335
#
# Poissons Ratio (x) = 0.22937 0.08548
# Poissons Ratio (y) = 0.63111 0.23123
# Poissons Ratio (z) = 0.12220 0.12014
#
# Static dielectric constant tensor:
#      x y z
#    x 1.865130 0.000000 0.000000 
#    y 0.000000 1.847310 0.000000 
#    z 0.000000 0.000000 1.830120 
# 
# From -- ./inp_files/8500.got.cif
#   From: 2010.05.17/outbox.cif.g08.bks.cpg/sg22_5_cif.got.tgz:8500.got - 2010.06.03 23:40:54.
