data_PCOD9328261
_publ_section_title
;
Structure prediction by ZEFSAII (Michael W. Deem and Ramdas Pophale) SiO2 
 PCOD9328261
Probable space group: F 2 2 2
;
_chemical_formula_sum "Si O2"
_cell_formula_units_Z 92
_cell_length_a 20.849502
_cell_length_b 12.695774
_cell_length_c 16.691508
_cell_angle_alpha 90.000000
_cell_angle_beta 90.000000
_cell_angle_gamma 90.000000
_cell_volume 4418.251605
_symmetry_space_group_name_H-M "F 2 2 2"
_symmetry_group_IT_number 22
_symmetry_cell_setting 'orthorhombic'
loop_
_space_group_symop_operation_xyz
x,y,z
-x,-y,z
x,-y,-z
-x,y,-z
x,1/2+y,1/2+z
-x,1/2-y,1/2+z
x,1/2-y,1/2-z
-x,1/2+y,1/2-z
1/2+x,y,1/2+z
1/2-x,-y,1/2+z
1/2+x,-y,1/2-z
1/2-x,y,1/2-z
1/2+x,1/2+y,z
1/2-x,1/2-y,z
1/2+x,1/2-y,-z
1/2-x,1/2+y,-z
loop_
_atom_site_type_symbol
_atom_site_label
_atom_site_fract_x
_atom_site_fract_y
_atom_site_fract_z
Si Si1 0.916956 0.766928 0.343770
Si Si2 0.178283 0.788278 0.971125
Si Si3 0.530632 0.394006 0.141105
Si Si4 0.750000 0.250000 0.250000
Si Si5 0.425035 0.998742 0.910063
Si Si6 0.870350 0.286595 0.142484
Si Si7 0.113360 0.000000 0.000000
O O1 0.920656 0.750000 0.250000
O O2 0.850770 0.739603 0.385680
O O3 0.918915 0.889557 0.364045
O O4 0.972765 0.688618 0.378873
O O5 0.250000 0.750000 0.978166
O O6 0.162103 0.910349 0.973677
O O7 0.141742 0.740245 0.048508
O O8 0.500000 0.500000 0.183943
O O9 0.585682 0.312296 0.174208
O O10 0.567047 0.449931 0.067101
O O11 0.802522 0.299255 0.188515
O O12 0.500000 0.000000 0.922689
O O13 0.404783 0.100953 0.860055
O O14 0.394255 0.000000 0.000000
#
# Coordination Sequence:
#
# PCOD9328261 Si02
#       7
#    16  16  16   4  16  16   8
#     4  12  27  43  68 110 149 188 242 308 381 438
#     4  11  24  47  69 101 146 195 250 296 372 446
#     4  11  23  42  76 108 143 181 240 315 372 428
#     4  12  28  52  72 112 136 196 242 304 360 450
#     4  11  23  43  75 108 145 192 242 303 382 449
#     4  11  25  45  76 108 144 187 249 304 365 461
#     4  10  23  40  78 108 130 191 248 312 356 453
#
# _framework density 20.822717000000001
#
# number of rings (size 3 to 8) (size 9 to 14) (size 15 to 20)
#    0.000    0.870    6.087    0.261    3.652    3.826 
#    0.000    0.000    0.000    0.000    0.000    0.000 
#    0.000    0.000    0.000    0.000    0.000    0.000 
#
# Total GULP energy -128047.710542 kJ/mol
# GULP energy per Si atom -5567.291763 kJ/mol
# Density = 2.077532 g / cm^3
# Si number density = 20.822717 Si / 1000 Ang^3
#
#
#
# Elastic Constant Matrix: (Units=GPa)
#
#
# Indices 1 2 3 4 5 6 
#
# 1 102.4422 66.9013 24.5590 0.0000 0.0000 0.0000
# 2 66.9013 212.8738 67.4254 0.0000 0.0000 0.0000
# 3 24.5590 67.4254 77.8391 0.0000 0.0000 0.0000
# 4 0.0000 0.0000 0.0000 27.1144 0.0000 0.0000
# 5 0.0000 0.0000 0.0000 0.0000 38.2699 0.0000
# 6 0.0000 0.0000 0.0000 0.0000 0.0000 -22.7689
#
#
#
# Elastic Compliance Matrix: (Units=1/GPa)
#
#
# Indices 1 2 3 4 5 6 
#
# 1 0.012313 -0.003637 -0.000734 0.000000 0.000000 0.000000
# 2 -0.003637 0.007548 -0.005391 0.000000 0.000000 0.000000
# 3 -0.000734 -0.005391 0.017748 0.000000 0.000000 0.000000
# 4 0.000000 0.000000 0.000000 0.036881 0.000000 0.000000
# 5 0.000000 0.000000 0.000000 0.000000 0.026130 0.000000
# 6 0.000000 0.000000 0.000000 0.000000 0.000000 -0.043920
#
#
# Mechanical properties :
#
#
# Convention : Reuss Voigt Hill
#
# Bulk Modulus (GPa) = 55.29472 78.99183 67.14328
# Shear Modulus (GPa) = 60.78773 24.14103 42.46438
#
# Velocity S-wave (km/s) = 5.40892 3.40863 4.52079
# Velocity P-wave (km/s) = 8.10069 7.31502 7.71786
#
# Compressibility (1/GPa) = 0.01808491
#
# Stress axis : x y z
#
# Youngs Moduli (GPa) = 81.21579 132.48314 56.34345
#
# Poissons Ratio (x) = 0.48185 0.04138
# Poissons Ratio (y) = 0.29539 0.30374
# Poissons Ratio (z) = 0.05964 0.71419
#
# Static dielectric constant tensor:
#      x y z
#    x 1.740610 0.000000 0.000000 
#    y 0.000000 1.693200 0.000000 
#    z 0.000000 0.000000 1.815540 
# 
# From -- ./inp_files/38818.got.cif
#   From: 2010.05.17/outbox.cif.g08.bks.cpg/sg22_20_cif.got.tgz:38818.got - 2010.06.03 23:40:54.
