data_PCOD9328360
_publ_section_title
;
Structure prediction by ZEFSAII (Michael W. Deem and Ramdas Pophale) SiO2 
 PCOD9328360
Probable space group: F 2 2 2
;
_chemical_formula_sum "Si O2"
_cell_formula_units_Z 104
_cell_length_a 27.210674
_cell_length_b 8.629687
_cell_length_c 19.697282
_cell_angle_alpha 90.000000
_cell_angle_beta 90.000000
_cell_angle_gamma 90.000000
_cell_volume 4625.307874
_symmetry_space_group_name_H-M "F 2 2 2"
_symmetry_group_IT_number 22
_symmetry_cell_setting 'orthorhombic'
loop_
_space_group_symop_operation_xyz
x,y,z
-x,-y,z
x,-y,-z
-x,y,-z
x,1/2+y,1/2+z
-x,1/2-y,1/2+z
x,1/2-y,1/2-z
-x,1/2+y,1/2-z
1/2+x,y,1/2+z
1/2-x,-y,1/2+z
1/2+x,-y,1/2-z
1/2-x,y,1/2-z
1/2+x,1/2+y,z
1/2-x,1/2-y,z
1/2+x,1/2-y,-z
1/2-x,1/2+y,-z
loop_
_atom_site_type_symbol
_atom_site_label
_atom_site_fract_x
_atom_site_fract_y
_atom_site_fract_z
Si Si1 0.036814 0.750000 0.250000
Si Si2 0.943914 0.204489 0.658958
Si Si3 0.300381 0.836771 0.958965
Si Si4 0.637940 0.806781 0.577953
Si Si5 0.557459 0.174781 0.994300
Si Si6 0.855393 0.500005 0.161508
Si Si7 0.615821 0.000795 0.303350
O O1 0.073769 0.871589 0.214565
O O2 0.997747 0.805712 0.308051
O O3 0.939420 0.245384 0.579986
O O4 0.913173 0.045726 0.661638
O O5 0.913260 0.340986 0.693593
O O6 0.250000 0.750000 0.944009
O O7 0.328398 0.881725 0.889349
O O8 0.330412 0.724411 0.010392
O O9 0.293407 0.000000 0.000000
O O10 0.582863 0.778250 0.550775
O O11 0.651427 0.668140 0.629623
O O12 0.639895 0.957951 0.624273
O O13 0.500000 0.156290 0.000000
O O14 0.580402 0.000000 0.000000
O O15 0.845035 0.502142 0.241738
#
# Coordination Sequence:
#
# PCOD9328360 Si02
#       7
#     8  16  16  16  16  16  16
#     4  12  24  40  60  96 142 196 240 274 342 404
#     4  12  24  38  60  94 132 183 243 285 329 402
#     4  10  23  44  77 107 133 171 229 293 367 438
#     4  11  21  43  67  98 134 179 227 285 354 419
#     4  11  22  37  61  92 132 184 233 285 341 407
#     4  11  21  44  66  95 135 181 225 277 353 426
#     4  12  25  39  66  96 139 188 236 286 336 415
#
# _framework density 22.484988999999999
#
# number of rings (size 3 to 8) (size 9 to 14) (size 15 to 20)
#    0.000    0.769    6.154    1.846    0.000    1.846 
#    0.000    0.769    0.000   16.615    0.000    0.000 
#    0.000    0.000    0.000    0.000    0.000    0.000 
#
# Total GULP energy -145221.535822 kJ/mol
# GULP energy per Si atom -5585.443685 kJ/mol
# Density = 2.243381 g / cm^3
# Si number density = 22.484989 Si / 1000 Ang^3
#
#
#
# Elastic Constant Matrix: (Units=GPa)
#
#
# Indices 1 2 3 4 5 6 
#
# 1 83.8673 24.0259 39.4916 0.0000 0.0000 0.0000
# 2 24.0259 52.3154 35.2776 0.0000 0.0000 0.0000
# 3 39.4916 35.2776 165.1947 0.0000 0.0000 0.0000
# 4 0.0000 0.0000 0.0000 58.7568 0.0000 0.0000
# 5 0.0000 0.0000 0.0000 0.0000 22.7844 0.0000
# 6 0.0000 0.0000 0.0000 0.0000 0.0000 22.9409
#
#
#
# Elastic Compliance Matrix: (Units=1/GPa)
#
#
# Indices 1 2 3 4 5 6 
#
# 1 0.014493 -0.005046 -0.002387 0.000000 0.000000 0.000000
# 2 -0.005046 0.024088 -0.003938 0.000000 0.000000 0.000000
# 3 -0.002387 -0.003938 0.007465 0.000000 0.000000 0.000000
# 4 0.000000 0.000000 0.000000 0.017019 0.000000 0.000000
# 5 0.000000 0.000000 0.000000 0.000000 0.043890 0.000000
# 6 0.000000 0.000000 0.000000 0.000000 0.000000 0.043590
#
#
# Mechanical properties :
#
#
# Convention : Reuss Voigt Hill
#
# Bulk Modulus (GPa) = 42.91145 55.44083 49.17614
# Shear Modulus (GPa) = 27.61590 34.40191 31.00890
#
# Velocity S-wave (km/s) = 3.50836 3.91576 3.71764
# Velocity P-wave (km/s) = 5.96132 6.71971 6.35185
#
# Compressibility (1/GPa) = 0.02330380
#
# Stress axis : x y z
#
# Youngs Moduli (GPa) = 68.99740 41.51520 133.95846
#
# Poissons Ratio (x) = 0.20950 0.31978
# Poissons Ratio (y) = 0.34819 0.52747
# Poissons Ratio (z) = 0.16471 0.16347
#
# Static dielectric constant tensor:
#      x y z
#    x 1.715830 0.000000 0.000000 
#    y 0.000000 1.892680 0.000000 
#    z 0.000000 0.000000 1.959180 
# 
# From -- ./inp_files/46029.got.cif
#   From: 2010.05.17/outbox.cif.g08.bks.cpg/sg22_24_cif.got.tgz:46029.got - 2010.06.03 23:40:54.
