data_PCOD9328772
_publ_section_title
;
Structure prediction by ZEFSAII (Michael W. Deem and Ramdas Pophale) SiO2 
 PCOD9328772
Probable space group: F 2 2 2
;
_chemical_formula_sum "Si O2"
_cell_formula_units_Z 96
_cell_length_a 20.925730
_cell_length_b 8.499140
_cell_length_c 26.723808
_cell_angle_alpha 90.000000
_cell_angle_beta 90.000000
_cell_angle_gamma 90.000000
_cell_volume 4752.848197
_symmetry_space_group_name_H-M "F 2 2 2"
_symmetry_group_IT_number 22
_symmetry_cell_setting 'orthorhombic'
loop_
_space_group_symop_operation_xyz
x,y,z
-x,-y,z
x,-y,-z
-x,y,-z
x,1/2+y,1/2+z
-x,1/2-y,1/2+z
x,1/2-y,1/2-z
-x,1/2+y,1/2-z
1/2+x,y,1/2+z
1/2-x,-y,1/2+z
1/2+x,-y,1/2-z
1/2-x,y,1/2-z
1/2+x,1/2+y,z
1/2-x,1/2-y,z
1/2+x,1/2-y,-z
1/2-x,1/2+y,-z
loop_
_atom_site_type_symbol
_atom_site_label
_atom_site_fract_x
_atom_site_fract_y
_atom_site_fract_z
Si Si1 0.561996 0.109040 0.604399
Si Si2 0.859205 0.721553 0.305888
Si Si3 0.757288 0.508111 0.806315
Si Si4 0.176356 0.936248 0.054804
Si Si5 0.309244 0.913855 0.092639
Si Si6 0.934721 0.428096 0.944015
O O1 0.584497 0.202822 0.654030
O O2 0.556539 0.241114 0.560900
O O3 0.500000 0.000000 0.610334
O O4 0.620578 0.998678 0.589449
O O5 0.885610 0.750000 0.250000
O O6 0.808471 0.864660 0.309017
O O7 0.812510 0.570474 0.313801
O O8 0.750000 0.571738 0.750000
O O9 0.787285 0.614038 0.850162
O O10 0.246791 0.997753 0.069703
O O11 0.179658 0.748531 0.062861
O O12 0.162975 0.000000 0.000000
O O13 0.371906 0.017711 0.085595
O O14 0.000000 0.500000 0.922495
O O15 0.928258 0.500000 0.000000
#
# Coordination Sequence:
#
# PCOD9328772 Si02
#       6
#    16  16  16  16  16  16
#     4  12  24  41  68  94 132 175 223 278 338 398
#     4   9  18  37  66  99 128 166 218 266 335 400
#     4   9  17  35  70  99 126 166 218 270 330 396
#     4  11  25  40  60  95 135 174 220 276 336 389
#     4  11  21  41  66  97 132 172 225 277 329 398
#     4  11  24  42  64  93 131 178 230 276 333 404
#
# _framework density 20.198416000000002
#
# number of rings (size 3 to 8) (size 9 to 14) (size 15 to 20)
#    0.000    1.500    3.333    3.500    0.000    3.667 
#    0.000    2.500    3.667    0.000    0.000    0.000 
#    0.000    0.000    0.000    0.000    0.000    0.000 
#
# Total GULP energy -133770.357757 kJ/mol
# GULP energy per Si atom -5573.764907 kJ/mol
# Density = 2.015244 g / cm^3
# Si number density = 20.198416 Si / 1000 Ang^3
#
#
#
# Elastic Constant Matrix: (Units=GPa)
#
#
# Indices 1 2 3 4 5 6 
#
# 1 134.4462 47.5916 47.6926 0.0000 0.0000 0.0000
# 2 47.5916 84.7654 31.5390 0.0000 0.0000 -0.0001
# 3 47.6926 31.5390 140.2217 0.0000 0.0000 0.0000
# 4 0.0000 0.0000 0.0000 14.7824 0.0000 0.0000
# 5 0.0000 0.0000 0.0000 0.0000 22.5214 0.0000
# 6 0.0000 -0.0001 0.0000 0.0000 0.0000 29.2888
#
#
#
# Elastic Compliance Matrix: (Units=1/GPa)
#
#
# Indices 1 2 3 4 5 6 
#
# 1 0.009928 -0.004712 -0.002317 0.000000 0.000000 0.000000
# 2 -0.004712 0.015111 -0.001796 0.000000 0.000000 0.000000
# 3 -0.002317 -0.001796 0.008324 0.000000 0.000000 0.000000
# 4 0.000000 0.000000 0.000000 0.067648 0.000000 0.000000
# 5 0.000000 0.000000 0.000000 0.000000 0.044402 0.000000
# 6 0.000000 0.000000 0.000000 0.000000 0.000000 0.034143
#
#
# Mechanical properties :
#
#
# Convention : Reuss Voigt Hill
#
# Bulk Modulus (GPa) = 63.64350 68.11998 65.88174
# Shear Modulus (GPa) = 24.69834 28.82586 26.76210
#
# Velocity S-wave (km/s) = 3.50063 3.78184 3.64395
# Velocity P-wave (km/s) = 6.92219 7.27107 7.09877
#
# Compressibility (1/GPa) = 0.01571252
#
# Stress axis : x y z
#
# Youngs Moduli (GPa) = 100.72824 66.17665 120.14068
#
# Poissons Ratio (x) = 0.31182 0.27835
# Poissons Ratio (y) = 0.47462 0.21580
# Poissons Ratio (z) = 0.23337 0.11887
#
# Static dielectric constant tensor:
#      x y z
#    x 1.693240 0.000000 0.000000 
#    y 0.000000 1.800870 0.000000 
#    z 0.000000 0.000000 1.798610 
# 
# From -- ./inp_files/53849.got.cif
#   From: 2010.05.17/outbox.cif.g08.bks.cpg/sg22_27_cif.got.tgz:53849.got - 2010.06.03 23:40:54.
