data_PCOD9328835
_publ_section_title
;
Structure prediction by ZEFSAII (Michael W. Deem and Ramdas Pophale) SiO2 
 PCOD9328835
Probable space group: F 2 2 2
;
_chemical_formula_sum "Si O2"
_cell_formula_units_Z 40
_cell_length_a 4.925628
_cell_length_b 14.034540
_cell_length_c 23.562938
_cell_angle_alpha 90.000000
_cell_angle_beta 90.000000
_cell_angle_gamma 90.000000
_cell_volume 1628.880531
_symmetry_space_group_name_H-M "F 2 2 2"
_symmetry_group_IT_number 22
_symmetry_cell_setting 'orthorhombic'
loop_
_space_group_symop_operation_xyz
x,y,z
-x,-y,z
x,-y,-z
-x,y,-z
x,1/2+y,1/2+z
-x,1/2-y,1/2+z
x,1/2-y,1/2-z
-x,1/2+y,1/2-z
1/2+x,y,1/2+z
1/2-x,-y,1/2+z
1/2+x,-y,1/2-z
1/2-x,y,1/2-z
1/2+x,1/2+y,z
1/2-x,1/2-y,z
1/2+x,1/2-y,-z
1/2-x,1/2+y,-z
loop_
_atom_site_type_symbol
_atom_site_label
_atom_site_fract_x
_atom_site_fract_y
_atom_site_fract_z
Si Si1 0.250000 0.935462 0.750000
Si Si2 0.255450 0.865795 0.462096
Si Si3 0.001696 0.184299 0.851639
O O1 0.134623 0.872110 0.800827
O O2 0.500000 0.000000 0.770513
O O3 0.500000 0.897446 0.500000
O O4 0.250000 0.750000 0.460161
O O5 0.347739 0.884475 0.397387
O O6 0.000000 0.894881 0.500000
O O7 0.750000 0.250000 0.876577
O O8 0.250000 0.250000 0.830571
#
# Coordination Sequence:
#
# PCOD9328835 Si02
#       3
#     8  16  16
#     4  12  27  44  63  96 144 188 228 282 349 410
#     4   9  16  29  54  92 128 156 201 272 337 383
#     4  11  22  40  67  98 133 177 231 283 335 409
#
# _framework density 24.556742
#
# number of rings (size 3 to 8) (size 9 to 14) (size 15 to 20)
#    0.000    1.600    0.000    9.000    0.000    1.600 
#    0.000    0.000    0.000    1.200    0.000   33.600 
#    0.000    0.000    0.000    0.000    0.000    0.000 
#
# Total GULP energy -55849.162633 kJ/mol
# GULP energy per Si atom -5584.916263 kJ/mol
# Density = 2.450085 g / cm^3
# Si number density = 24.556742 Si / 1000 Ang^3
#
#
#
# Elastic Constant Matrix: (Units=GPa)
#
#
# Indices 1 2 3 4 5 6 
#
# 1 258.7595 41.3716 95.6914 0.0000 0.0000 0.0000
# 2 41.3716 72.7713 46.3058 0.0000 0.0000 0.0000
# 3 95.6914 46.3058 208.5302 0.0000 0.0000 0.0000
# 4 0.0000 0.0000 0.0000 26.2914 0.0000 0.0000
# 5 0.0000 0.0000 0.0000 0.0000 58.2556 0.0000
# 6 0.0000 0.0000 0.0000 0.0000 0.0000 34.2824
#
#
#
# Elastic Compliance Matrix: (Units=1/GPa)
#
#
# Indices 1 2 3 4 5 6 
#
# 1 0.004799 -0.001545 -0.001859 0.000000 0.000000 0.000000
# 2 -0.001545 0.016501 -0.002955 0.000000 0.000000 0.000000
# 3 -0.001859 -0.002955 0.006305 0.000000 0.000000 0.000000
# 4 0.000000 0.000000 0.000000 0.038035 0.000000 0.000000
# 5 0.000000 0.000000 0.000000 0.000000 0.017166 0.000000
# 6 0.000000 0.000000 0.000000 0.000000 0.000000 0.029170
#
#
# Mechanical properties :
#
#
# Convention : Reuss Voigt Hill
#
# Bulk Modulus (GPa) = 67.17895 100.75538 83.96717
# Shear Modulus (GPa) = 38.56366 47.54536 43.05451
#
# Velocity S-wave (km/s) = 3.96711 4.40494 4.19174
# Velocity P-wave (km/s) = 6.95701 8.18474 7.59572
#
# Compressibility (1/GPa) = 0.01488562
#
# Stress axis : x y z
#
# Youngs Moduli (GPa) = 208.36833 60.60402 158.61080
#
# Poissons Ratio (x) = 0.09366 0.29487
# Poissons Ratio (y) = 0.32202 0.46868
# Poissons Ratio (z) = 0.38738 0.17908
#
# Static dielectric constant tensor:
#      x y z
#    x 1.907950 0.000000 0.000000 
#    y 0.000000 2.059770 0.000000 
#    z 0.000000 0.000000 1.968770 
# 
# From -- ./inp_files/46220.got.cif
#   From: 2010.05.17/outbox.cif.g08.bks.cpg/sg22_24_cif.got.tgz:46220.got - 2010.06.03 23:40:54.
