data_PCOD9328437
_publ_section_title
;
Structure prediction by ZEFSAII (Michael W. Deem and Ramdas Pophale) SiO2 
 PCOD9328437
Probable space group: F 2 2 2
;
_chemical_formula_sum "Si O2"
_cell_formula_units_Z 64
_cell_length_a 14.260647
_cell_length_b 35.649217
_cell_length_c 5.569386
_cell_angle_alpha 90.000000
_cell_angle_beta 90.000000
_cell_angle_gamma 90.000000
_cell_volume 2831.369464
_symmetry_space_group_name_H-M "F 2 2 2"
_symmetry_group_IT_number 22
_symmetry_cell_setting 'orthorhombic'
loop_
_space_group_symop_operation_xyz
x,y,z
-x,-y,z
x,-y,-z
-x,y,-z
x,1/2+y,1/2+z
-x,1/2-y,1/2+z
x,1/2-y,1/2-z
-x,1/2+y,1/2-z
1/2+x,y,1/2+z
1/2-x,-y,1/2+z
1/2+x,-y,1/2-z
1/2-x,y,1/2-z
1/2+x,1/2+y,z
1/2-x,1/2-y,z
1/2+x,1/2-y,-z
1/2-x,1/2+y,-z
loop_
_atom_site_type_symbol
_atom_site_label
_atom_site_fract_x
_atom_site_fract_y
_atom_site_fract_z
Si Si1 0.644782 0.265046 0.502373
Si Si2 0.689725 0.500000 0.500000
Si Si3 0.000000 0.116181 0.000000
Si Si4 0.645441 0.579072 0.642370
Si Si5 0.602736 0.847593 0.119260
O O1 0.599907 0.250000 0.750000
O O2 0.750000 0.250000 0.501595
O O3 0.650296 0.309755 0.535063
O O4 0.604092 0.250000 0.250000
O O5 0.750000 0.496174 0.750000
O O6 0.631423 0.538374 0.525624
O O7 0.940465 0.089972 0.180584
O O8 0.078436 0.144525 0.105455
O O9 0.750000 0.577005 0.750000
O O10 0.649958 0.614161 0.463811
O O11 0.500000 0.845784 0.000000
#
# Coordination Sequence:
#
# PCOD9328437 Si02
#       5
#    16   8   8  16  16
#     4  10  24  41  65  99 133 174 237 292 354 429
#     4  10  24  46  73 113 144 192 248 302 376 447
#     4  10  24  46  71 110 142 200 248 302 382 447
#     4  10  24  43  78 102 147 192 244 307 374 446
#     4  10  24  43  68 102 143 186 240 300 370 438
#
# _framework density 22.603901
#
# number of rings (size 3 to 8) (size 9 to 14) (size 15 to 20)
#    0.000    2.000    0.000    0.000   17.500    3.000 
#    0.000    6.875    0.000    0.000    0.000    0.000 
#    0.000    0.000    0.000    0.000    0.000    0.000 
#
# Total GULP energy -89206.704171 kJ/mol
# GULP energy per Si atom -5575.419011 kJ/mol
# Density = 2.255245 g / cm^3
# Si number density = 22.603901 Si / 1000 Ang^3
#
#
#
# Elastic Constant Matrix: (Units=GPa)
#
#
# Indices 1 2 3 4 5 6 
#
# 1 92.2014 43.3918 14.2640 0.0000 0.0001 0.0000
# 2 43.3918 249.8095 65.7935 0.0000 0.0000 0.0000
# 3 14.2640 65.7935 143.7171 0.0000 0.0001 0.0003
# 4 0.0000 0.0000 0.0000 18.6890 0.0000 -0.0001
# 5 0.0001 0.0000 0.0001 0.0000 7.3619 -0.0001
# 6 0.0000 0.0000 0.0003 -0.0001 -0.0001 48.4971
#
#
#
# Elastic Compliance Matrix: (Units=1/GPa)
#
#
# Indices 1 2 3 4 5 6 
#
# 1 0.011820 -0.001983 -0.000265 0.000000 0.000000 0.000000
# 2 -0.001983 0.004885 -0.002039 0.000000 0.000000 0.000000
# 3 -0.000265 -0.002039 0.007918 0.000000 0.000000 0.000000
# 4 0.000000 0.000000 0.000000 0.053507 0.000000 0.000000
# 5 0.000000 0.000000 0.000000 0.000000 0.135835 0.000000
# 6 0.000000 0.000000 0.000000 0.000000 0.000000 0.020620
#
#
# Mechanical properties :
#
#
# Convention : Reuss Voigt Hill
#
# Bulk Modulus (GPa) = 62.31611 81.40294 71.85953
# Shear Modulus (GPa) = 20.11994 39.06150 29.59072
#
# Velocity S-wave (km/s) = 2.98671 4.16154 3.62207
# Velocity P-wave (km/s) = 6.28669 7.69299 7.02512
#
# Compressibility (1/GPa) = 0.01604721
#
# Stress axis : x y z
#
# Youngs Moduli (GPa) = 84.60059 204.72224 126.29375
#
# Poissons Ratio (x) = 0.40603 0.03349
# Poissons Ratio (y) = 0.16779 0.25756
# Poissons Ratio (z) = 0.02244 0.41750
#
# Static dielectric constant tensor:
#      x y z
#    x 1.864910 0.000000 0.000000 
#    y 0.000000 1.838210 0.000000 
#    z 0.000000 0.000000 2.060130 
# 
# From -- ./inp_files/2872.got.cif
#   From: 2010.05.17/outbox.cif.g08.bks.cpg/sg22_2_cif.got.tgz:2872.got - 2010.06.03 23:40:54.
