data_PCOD9328172
_publ_section_title
;
Structure prediction by ZEFSAII (Michael W. Deem and Ramdas Pophale) SiO2 
 PCOD9328172
Probable space group: F 2 2 2
;
_chemical_formula_sum "Si O2"
_cell_formula_units_Z 64
_cell_length_a 8.603410
_cell_length_b 12.616791
_cell_length_c 23.649244
_cell_angle_alpha 90.000000
_cell_angle_beta 90.000000
_cell_angle_gamma 90.000000
_cell_volume 2567.064560
_symmetry_space_group_name_H-M "F 2 2 2"
_symmetry_group_IT_number 22
_symmetry_cell_setting 'orthorhombic'
loop_
_space_group_symop_operation_xyz
x,y,z
-x,-y,z
x,-y,-z
-x,y,-z
x,1/2+y,1/2+z
-x,1/2-y,1/2+z
x,1/2-y,1/2-z
-x,1/2+y,1/2-z
1/2+x,y,1/2+z
1/2-x,-y,1/2+z
1/2+x,-y,1/2-z
1/2-x,y,1/2-z
1/2+x,1/2+y,z
1/2-x,1/2-y,z
1/2+x,1/2-y,-z
1/2-x,1/2+y,-z
loop_
_atom_site_type_symbol
_atom_site_label
_atom_site_fract_x
_atom_site_fract_y
_atom_site_fract_z
Si Si1 0.128378 0.169959 0.956480
Si Si2 0.634980 0.908367 0.302900
Si Si3 0.157409 0.014460 0.610408
Si Si4 0.423781 0.776564 0.162750
O O1 0.250000 0.250000 0.985487
O O2 0.218803 0.073846 0.928179
O O3 0.065570 0.235906 0.902368
O O4 0.000000 0.137075 0.000000
O O5 0.750000 0.918052 0.250000
O O6 0.548508 0.795421 0.306002
O O7 0.500000 0.000000 0.303403
O O8 0.745521 0.924952 0.357603
O O9 0.087131 0.097004 0.657829
O O10 0.000000 0.000000 0.575389
O O11 0.250000 0.750000 0.183387
#
# Coordination Sequence:
#
# PCOD9328172 Si02
#       4
#    16  16  16  16
#     4   9  19  42  77 104 135 184 237 295 361 431
#     4  12  23  44  75 109 141 193 250 305 369 433
#     4  10  22  45  73 106 150 190 238 302 363 433
#     4   9  20  44  75  96 143 189 232 301 360 423
#
# _framework density 24.931201000000001
#
# number of rings (size 3 to 8) (size 9 to 14) (size 15 to 20)
#    0.000    2.500    5.000    0.750    0.000    1.000 
#    9.000   12.500   33.000    0.000    0.000    0.000 
#    0.000    0.000    0.000    0.000    0.000    0.000 
#
# Total GULP energy -89431.142685 kJ/mol
# GULP energy per Si atom -5589.446418 kJ/mol
# Density = 2.487446 g / cm^3
# Si number density = 24.931201 Si / 1000 Ang^3
#
#
#
# Elastic Constant Matrix: (Units=GPa)
#
#
# Indices 1 2 3 4 5 6 
#
# 1 154.3136 52.7389 67.5120 0.0000 0.0000 0.0000
# 2 52.7389 91.0698 32.7133 0.0000 0.0000 0.0000
# 3 67.5120 32.7133 84.9519 0.0000 0.0000 0.0000
# 4 0.0000 0.0000 0.0000 -36.9657 0.0000 0.0000
# 5 0.0000 0.0000 0.0000 0.0000 40.5918 0.0000
# 6 0.0000 0.0000 0.0000 0.0000 0.0000 44.1172
#
#
#
# Elastic Compliance Matrix: (Units=1/GPa)
#
#
# Indices 1 2 3 4 5 6 
#
# 1 0.010923 -0.003722 -0.007247 0.000000 0.000000 0.000000
# 2 -0.003722 0.014012 -0.002437 0.000000 0.000000 0.000000
# 3 -0.007247 -0.002437 0.018470 0.000000 0.000000 0.000000
# 4 0.000000 0.000000 0.000000 -0.027052 0.000000 0.000000
# 5 0.000000 0.000000 0.000000 0.000000 0.024635 0.000000
# 6 0.000000 0.000000 0.000000 0.000000 0.000000 0.022667
#
#
# Mechanical properties :
#
#
# Convention : Reuss Voigt Hill
#
# Bulk Modulus (GPa) = 60.27673 70.69596 65.48634
# Shear Modulus (GPa) = 52.08380 21.37341 36.72861
#
# Velocity S-wave (km/s) = 4.57563 2.93114 3.84239
# Velocity P-wave (km/s) = 7.22114 6.31454 6.78300
#
# Compressibility (1/GPa) = 0.01659015
#
# Stress axis : x y z
#
# Youngs Moduli (GPa) = 91.54847 71.36854 54.14326
#
# Poissons Ratio (x) = 0.26566 0.39239
# Poissons Ratio (y) = 0.34077 0.13197
# Poissons Ratio (z) = 0.66348 0.17396
#
# Static dielectric constant tensor:
#      x y z
#    x 2.426140 0.000000 0.000000 
#    y 0.000000 2.145400 0.000000 
#    z 0.000000 0.000000 1.953980 
# 
# From -- ./inp_files/46999.got.cif
#   From: 2010.05.17/outbox.cif.g08.bks.cpg/sg22_24_cif.got.tgz:46999.got - 2010.06.03 23:40:54.
