data_PCOD9328681
_publ_section_title
;
Structure prediction by ZEFSAII (Michael W. Deem and Ramdas Pophale) SiO2 
 PCOD9328681
Probable space group: F 2 2 2
;
_chemical_formula_sum "Si O2"
_cell_formula_units_Z 112
_cell_length_a 18.219724
_cell_length_b 21.899946
_cell_length_c 14.409899
_cell_angle_alpha 90.000000
_cell_angle_beta 90.000000
_cell_angle_gamma 90.000000
_cell_volume 5749.707803
_symmetry_space_group_name_H-M "F 2 2 2"
_symmetry_group_IT_number 22
_symmetry_cell_setting 'orthorhombic'
loop_
_space_group_symop_operation_xyz
x,y,z
-x,-y,z
x,-y,-z
-x,y,-z
x,1/2+y,1/2+z
-x,1/2-y,1/2+z
x,1/2-y,1/2-z
-x,1/2+y,1/2-z
1/2+x,y,1/2+z
1/2-x,-y,1/2+z
1/2+x,-y,1/2-z
1/2-x,y,1/2-z
1/2+x,1/2+y,z
1/2-x,1/2-y,z
1/2+x,1/2-y,-z
1/2-x,1/2+y,-z
loop_
_atom_site_type_symbol
_atom_site_label
_atom_site_fract_x
_atom_site_fract_y
_atom_site_fract_z
Si Si1 0.204785 0.976630 0.157611
Si Si2 0.548275 0.448561 0.234046
Si Si3 0.185543 0.797543 0.488429
Si Si4 0.952805 0.744839 0.094308
Si Si5 0.919323 0.186878 0.310155
Si Si6 0.214410 0.592219 0.535806
Si Si7 0.548581 0.878872 0.407644
O O1 0.250000 0.960999 0.250000
O O2 0.120447 0.978850 0.189571
O O3 0.232242 0.039289 0.109880
O O4 0.210325 0.930748 0.070796
O O5 0.500000 0.500000 0.290442
O O6 0.579233 0.382758 0.271646
O O7 0.489154 0.427653 0.157836
O O8 0.250000 0.750000 0.465076
O O9 0.128787 0.770892 0.563608
O O10 0.137981 0.811474 0.396210
O O11 0.225507 0.855370 0.533220
O O12 0.957048 0.811917 0.137458
O O13 0.997720 0.696953 0.153734
O O14 0.000000 0.748745 0.000000
O O15 0.903445 0.250000 0.250000
O O16 0.132541 0.612180 0.563819
O O17 0.500000 0.879459 0.500000
#
# Coordination Sequence:
#
# PCOD9328681 Si02
#       7
#    16  16  16  16  16  16  16
#     4  11  25  42  63  95 137 177 223 280 335 407
#     4  12  24  39  65  96 131 174 223 277 335 404
#     4  11  23  40  66  95 131 179 219 270 347 413
#     4   9  20  39  61  88 126 168 217 266 325 404
#     4  11  24  41  64 100 136 173 222 292 341 399
#     4  11  23  41  64  94 135 178 216 280 343 395
#     4  11  19  36  64  93 125 163 217 269 332 393
#
# _framework density 19.479251000000001
#
# number of rings (size 3 to 8) (size 9 to 14) (size 15 to 20)
#    0.000    1.143    5.714    0.857    2.000    1.714 
#    0.000    0.000    0.000    3.000    0.000    0.000 
#    0.000    0.000    0.000    0.000    0.000    0.000 
#
# Total GULP energy -155979.577630 kJ/mol
# GULP energy per Si atom -5570.699201 kJ/mol
# Density = 1.943492 g / cm^3
# Si number density = 19.479251 Si / 1000 Ang^3
#
#
#
# Elastic Constant Matrix: (Units=GPa)
#
#
# Indices 1 2 3 4 5 6 
#
# 1 123.5010 39.5857 32.5664 0.0000 0.0000 0.0000
# 2 39.5857 90.2297 22.4950 0.0000 0.0000 0.0000
# 3 32.5664 22.4950 65.8424 0.0000 0.0000 0.0000
# 4 0.0000 0.0000 0.0000 17.8701 0.0000 0.0000
# 5 0.0000 0.0000 0.0000 0.0000 32.1993 0.0000
# 6 0.0000 0.0000 0.0000 0.0000 0.0000 44.8913
#
#
#
# Elastic Compliance Matrix: (Units=1/GPa)
#
#
# Indices 1 2 3 4 5 6 
#
# 1 0.010248 -0.003533 -0.003862 0.000000 0.000000 0.000000
# 2 -0.003533 0.013333 -0.002808 0.000000 0.000000 0.000000
# 3 -0.003862 -0.002808 0.018057 0.000000 0.000000 0.000000
# 4 0.000000 0.000000 0.000000 0.055959 0.000000 0.000000
# 5 0.000000 0.000000 0.000000 0.000000 0.031057 0.000000
# 6 0.000000 0.000000 0.000000 0.000000 0.000000 0.022276
#
#
# Mechanical properties :
#
#
# Convention : Reuss Voigt Hill
#
# Bulk Modulus (GPa) = 47.09673 52.09639 49.59656
# Shear Modulus (GPa) = 28.02497 31.32052 29.67275
#
# Velocity S-wave (km/s) = 3.79715 4.01420 3.90718
# Velocity P-wave (km/s) = 6.59203 6.94894 6.77283
#
# Compressibility (1/GPa) = 0.02123290
#
# Stress axis : x y z
#
# Youngs Moduli (GPa) = 97.58105 75.00244 55.38027
#
# Poissons Ratio (x) = 0.26500 0.21386
# Poissons Ratio (y) = 0.34478 0.15549
# Poissons Ratio (z) = 0.37682 0.21058
#
# Static dielectric constant tensor:
#      x y z
#    x 1.652560 0.000000 0.000000 
#    y 0.000000 1.756960 0.000000 
#    z 0.000000 0.000000 1.672530 
# 
# From -- ./inp_files/29623.got.cif
#   From: 2010.05.17/outbox.cif.g08.bks.cpg/sg22_15_cif.got.tgz:29623.got - 2010.06.03 23:40:54.
