data_PCOD9328908
_publ_section_title
;
Structure prediction by ZEFSAII (Michael W. Deem and Ramdas Pophale) SiO2 
 PCOD9328908
Probable space group: F 2 2 2
;
_chemical_formula_sum "Si O2"
_cell_formula_units_Z 48
_cell_length_a 17.083819
_cell_length_b 5.048239
_cell_length_c 25.647246
_cell_angle_alpha 90.000000
_cell_angle_beta 90.000000
_cell_angle_gamma 90.000000
_cell_volume 2211.900601
_symmetry_space_group_name_H-M "F 2 2 2"
_symmetry_group_IT_number 22
_symmetry_cell_setting 'orthorhombic'
loop_
_space_group_symop_operation_xyz
x,y,z
-x,-y,z
x,-y,-z
-x,y,-z
x,1/2+y,1/2+z
-x,1/2-y,1/2+z
x,1/2-y,1/2-z
-x,1/2+y,1/2-z
1/2+x,y,1/2+z
1/2-x,-y,1/2+z
1/2+x,-y,1/2-z
1/2-x,y,1/2-z
1/2+x,1/2+y,z
1/2-x,1/2-y,z
1/2+x,1/2-y,-z
1/2-x,1/2+y,-z
loop_
_atom_site_type_symbol
_atom_site_label
_atom_site_fract_x
_atom_site_fract_y
_atom_site_fract_z
Si Si1 0.341703 0.178071 0.848415
Si Si2 0.923249 0.356114 0.692934
Si Si3 0.345735 0.249385 0.533353
O O1 0.250000 0.250000 0.851779
O O2 0.371903 0.244008 0.906834
O O3 0.131897 0.109749 0.805726
O O4 0.376398 0.886595 0.834769
O O5 0.944856 0.250000 0.750000
O O6 0.000000 0.500000 0.668591
O O7 0.371010 0.500000 0.500000
O O8 0.250000 0.250000 0.534235
O O9 0.371390 0.000000 0.500000
#
# Coordination Sequence:
#
# PCOD9328908 Si02
#       3
#    16  16  16
#     4  11  23  39  65  98 126 160 213 273 320 365
#     4  12  25  43  63  87 125 173 216 257 321 397
#     4   9  17  32  56  88 125 160 197 249 316 382
#
# _framework density 21.700796
#
# number of rings (size 3 to 8) (size 9 to 14) (size 15 to 20)
#    0.000    1.333    0.000    7.000    0.000    9.333 
#    0.000    0.000    0.000   15.000    0.000    0.000 
#    0.000    0.000    0.000    0.000    0.000    0.000 
#
# Total GULP energy -66815.956409 kJ/mol
# GULP energy per Si atom -5567.996367 kJ/mol
# Density = 2.165140 g / cm^3
# Si number density = 21.700796 Si / 1000 Ang^3
#
#
#
# Elastic Constant Matrix: (Units=GPa)
#
#
# Indices 1 2 3 4 5 6 
#
# 1 70.1637 47.0754 35.6636 0.0000 0.0000 -0.0003
# 2 47.0754 209.3391 71.1795 0.0008 0.0003 0.0000
# 3 35.6636 71.1795 100.6865 0.0001 0.0000 0.0001
# 4 0.0000 0.0008 0.0001 15.6566 -0.0001 -0.0001
# 5 0.0000 0.0003 0.0000 -0.0001 -7.4224 -0.0001
# 6 -0.0003 0.0000 0.0001 -0.0001 -0.0001 57.2866
#
#
#
# Elastic Compliance Matrix: (Units=1/GPa)
#
#
# Indices 1 2 3 4 5 6 
#
# 1 0.018340 -0.002522 -0.004714 0.000000 0.000000 0.000000
# 2 -0.002522 0.006635 -0.003798 0.000000 0.000000 0.000000
# 3 -0.004714 -0.003798 0.014286 0.000000 0.000000 0.000000
# 4 0.000000 0.000000 0.000000 0.063871 -0.000001 0.000000
# 5 0.000000 0.000000 0.000000 -0.000001 -0.134728 0.000000
# 6 0.000000 0.000000 0.000000 0.000000 0.000000 0.017456
#
#
# Mechanical properties :
#
#
# Convention : Reuss Voigt Hill
#
# Bulk Modulus (GPa) = 58.15309 76.44736 67.30022
# Shear Modulus (GPa) = 366.09582 28.18889 197.14235
#
# Velocity S-wave (km/s) = 13.00261 3.60805 9.54164
# Velocity P-wave (km/s) = 15.88331 7.25684 12.34790
#
# Compressibility (1/GPa) = 0.01719599
#
# Stress axis : x y z
#
# Youngs Moduli (GPa) = 54.52552 150.71070 69.99837
#
# Poissons Ratio (x) = 0.38002 0.32994
# Poissons Ratio (y) = 0.13749 0.26582
# Poissons Ratio (z) = 0.25701 0.57234
#
# Static dielectric constant tensor:
#      x y z
#    x 2.060120 0.000000 0.000000 
#    y 0.000000 1.752780 0.000000 
#    z 0.000000 0.000000 1.783340 
# 
# From -- ./inp_files/52879.got.cif
#   From: 2010.05.17/outbox.cif.g08.bks.cpg/sg22_27_cif.got.tgz:52879.got - 2010.06.03 23:40:54.
