data_PCOD9328711
_publ_section_title
;
Structure prediction by ZEFSAII (Michael W. Deem and Ramdas Pophale) SiO2 
 PCOD9328711
Probable space group: F 2 2 2
;
_chemical_formula_sum "Si O2"
_cell_formula_units_Z 88
_cell_length_a 15.683936
_cell_length_b 20.856437
_cell_length_c 11.064012
_cell_angle_alpha 90.000000
_cell_angle_beta 90.000000
_cell_angle_gamma 90.000000
_cell_volume 3619.160285
_symmetry_space_group_name_H-M "F 2 2 2"
_symmetry_group_IT_number 22
_symmetry_cell_setting 'orthorhombic'
loop_
_space_group_symop_operation_xyz
x,y,z
-x,-y,z
x,-y,-z
-x,y,-z
x,1/2+y,1/2+z
-x,1/2-y,1/2+z
x,1/2-y,1/2-z
-x,1/2+y,1/2-z
1/2+x,y,1/2+z
1/2-x,-y,1/2+z
1/2+x,-y,1/2-z
1/2-x,y,1/2-z
1/2+x,1/2+y,z
1/2-x,1/2-y,z
1/2+x,1/2-y,-z
1/2-x,1/2+y,-z
loop_
_atom_site_type_symbol
_atom_site_label
_atom_site_fract_x
_atom_site_fract_y
_atom_site_fract_z
Si Si1 0.181070 0.425373 0.388073
Si Si2 0.000000 0.388206 0.000000
Si Si3 0.346348 0.278040 0.127612
Si Si4 0.372542 0.027670 0.156606
Si Si5 0.881057 0.214420 0.381286
Si Si6 0.272261 0.406185 0.612764
O O1 0.156035 0.353556 0.356653
O O2 0.282539 0.435245 0.363215
O O3 0.123504 0.469583 0.302500
O O4 0.191662 0.427513 0.532588
O O5 0.952965 0.338877 0.092263
O O6 0.053878 0.433301 0.091238
O O7 0.388426 0.250000 0.250000
O O8 0.250000 0.250000 0.125825
O O9 0.385303 0.260829 0.997405
O O10 0.350274 0.957395 0.104585
O O11 0.880757 0.250000 0.250000
O O12 0.798221 0.167929 0.402382
O O13 0.250000 0.413376 0.750000
#
# Coordination Sequence:
#
# PCOD9328711 Si02
#       6
#    16   8  16  16  16  16
#     4  11  21  41  67 107 137 176 239 304 354 414
#     4  12  26  49  70 100 146 195 244 292 362 453
#     4  11  20  38  66 100 137 175 229 284 345 419
#     4  11  24  41  71 105 136 186 242 299 363 425
#     4  12  28  44  67 103 141 195 231 291 369 441
#     4  12  24  42  71 108 147 174 233 317 365 425
#
# _framework density 24.315031000000001
#
# number of rings (size 3 to 8) (size 9 to 14) (size 15 to 20)
#    0.000    0.545    5.455    4.909    0.000    3.636 
#    0.000    0.909    0.000    0.000    0.000    2.545 
#    0.000    0.000    0.000    0.000    0.000    0.000 
#
# Total GULP energy -122772.895072 kJ/mol
# GULP energy per Si atom -5580.586140 kJ/mol
# Density = 2.425969 g / cm^3
# Si number density = 24.315031 Si / 1000 Ang^3
#
#
#
# Elastic Constant Matrix: (Units=GPa)
#
#
# Indices 1 2 3 4 5 6 
#
# 1 47.1254 15.7253 30.3919 0.0000 0.0000 0.0000
# 2 15.7253 143.7600 59.1424 0.0000 0.0000 0.0000
# 3 30.3919 59.1424 213.1836 0.0000 0.0000 0.0000
# 4 0.0000 0.0000 0.0000 50.3731 0.0000 0.0000
# 5 0.0000 0.0000 0.0000 0.0000 26.5951 0.0000
# 6 0.0000 0.0000 0.0000 0.0000 0.0000 21.7425
#
#
#
# Elastic Compliance Matrix: (Units=1/GPa)
#
#
# Indices 1 2 3 4 5 6 
#
# 1 0.023599 -0.001352 -0.002989 0.000000 0.000000 0.000000
# 2 -0.001352 0.007930 -0.002007 0.000000 0.000000 0.000000
# 3 -0.002989 -0.002007 0.005674 0.000000 0.000000 0.000000
# 4 0.000000 0.000000 0.000000 0.019852 0.000000 0.000000
# 5 0.000000 0.000000 0.000000 0.000000 0.037601 0.000000
# 6 0.000000 0.000000 0.000000 0.000000 0.000000 0.045993
#
#
# Mechanical properties :
#
#
# Convention : Reuss Voigt Hill
#
# Bulk Modulus (GPa) = 40.80621 68.28757 54.54689
# Shear Modulus (GPa) = 30.95729 39.66278 35.31004
#
# Velocity S-wave (km/s) = 3.57203 4.04320 3.81489
# Velocity P-wave (km/s) = 5.81646 7.06697 6.47199
#
# Compressibility (1/GPa) = 0.02450607
#
# Stress axis : x y z
#
# Youngs Moduli (GPa) = 42.37497 126.10923 176.24863
#
# Poissons Ratio (x) = 0.17045 0.52687
# Poissons Ratio (y) = 0.05727 0.35377
# Poissons Ratio (z) = 0.12667 0.25313
#
# Static dielectric constant tensor:
#      x y z
#    x 2.018620 0.000000 0.000000 
#    y 0.000000 1.979760 0.000000 
#    z 0.000000 0.000000 2.196380 
# 
# From -- ./inp_files/21384.got.cif
#   From: 2010.05.17/outbox.cif.g08.bks.cpg/sg22_11_cif.got.tgz:21384.got - 2010.06.03 23:40:54.
