data_PCOD9328869
_publ_section_title
;
Structure prediction by ZEFSAII (Michael W. Deem and Ramdas Pophale) SiO2 
 PCOD9328869
Probable space group: F 2 2 2
;
_chemical_formula_sum "Si O2"
_cell_formula_units_Z 104
_cell_length_a 21.268912
_cell_length_b 25.612475
_cell_length_c 8.349702
_cell_angle_alpha 90.000000
_cell_angle_beta 90.000000
_cell_angle_gamma 90.000000
_cell_volume 4548.495797
_symmetry_space_group_name_H-M "F 2 2 2"
_symmetry_group_IT_number 22
_symmetry_cell_setting 'orthorhombic'
loop_
_space_group_symop_operation_xyz
x,y,z
-x,-y,z
x,-y,-z
-x,y,-z
x,1/2+y,1/2+z
-x,1/2-y,1/2+z
x,1/2-y,1/2-z
-x,1/2+y,1/2-z
1/2+x,y,1/2+z
1/2-x,-y,1/2+z
1/2+x,-y,1/2-z
1/2-x,y,1/2-z
1/2+x,1/2+y,z
1/2-x,1/2-y,z
1/2+x,1/2-y,-z
1/2-x,1/2+y,-z
loop_
_atom_site_type_symbol
_atom_site_label
_atom_site_fract_x
_atom_site_fract_y
_atom_site_fract_z
Si Si1 0.059631 0.900841 0.114248
Si Si2 0.750000 0.497539 0.750000
Si Si3 0.119732 0.545289 0.122986
Si Si4 0.308964 0.596011 0.927811
Si Si5 0.001245 0.309984 0.805639
Si Si6 0.232186 0.804544 0.560460
Si Si7 0.877652 0.361410 0.876002
O O1 0.066896 0.947001 0.243158
O O2 0.051036 0.845560 0.208919
O O3 0.126441 0.905150 0.025080
O O4 0.000000 0.907385 0.000000
O O5 0.811318 0.531451 0.801530
O O6 0.727361 0.457769 0.892167
O O7 0.105238 0.500000 0.000000
O O8 0.115051 0.597601 0.017209
O O9 0.266286 0.642799 0.998068
O O10 0.330779 0.612195 0.749721
O O11 0.001934 0.250000 0.750000
O O12 0.936278 0.341017 0.775444
O O13 0.000000 0.311553 0.000000
O O14 0.250000 0.801204 0.750000
O O15 0.250000 0.750000 0.482891
O O16 0.157832 0.811697 0.551845
#
# Coordination Sequence:
#
# PCOD9328869 Si02
#       7
#    16   8  16  16  16  16  16
#     4  12  28  49  76 112 152 198 260 316 374 457
#     4  12  26  48  79 108 151 204 256 302 408 452
#     4  12  27  48  76 108 150 203 251 316 389 452
#     4  11  22  43  72 110 148 190 259 311 369 475
#     4  12  27  49  77 108 152 204 256 309 382 457
#     4   9  19  34  63 103 142 185 240 314 387 445
#     4  11  22  44  70 104 148 196 252 315 380 456
#
# _framework density 22.864701
#
# number of rings (size 3 to 8) (size 9 to 14) (size 15 to 20)
#    0.000    0.769    6.923    0.462    8.615    0.000 
#    0.000    7.692    0.000    0.923    0.000    0.000 
#    0.000    0.000    0.000    0.000    0.000    0.000 
#
# Total GULP energy -145144.525096 kJ/mol
# GULP energy per Si atom -5582.481734 kJ/mol
# Density = 2.281266 g / cm^3
# Si number density = 22.864701 Si / 1000 Ang^3
#
#
#
# Elastic Constant Matrix: (Units=GPa)
#
#
# Indices 1 2 3 4 5 6 
#
# 1 86.3441 60.2357 42.5073 0.0005 -0.0004 -0.0002
# 2 60.2357 130.1569 52.2681 0.0004 -0.0003 -0.0001
# 3 42.5073 52.2681 86.6006 0.0013 -0.0012 -0.0008
# 4 0.0005 0.0004 0.0013 29.9816 -0.0006 -0.0004
# 5 -0.0004 -0.0003 -0.0012 -0.0006 31.5775 0.0003
# 6 -0.0002 -0.0001 -0.0008 -0.0004 0.0003 26.6340
#
#
#
# Elastic Compliance Matrix: (Units=1/GPa)
#
#
# Indices 1 2 3 4 5 6 
#
# 1 0.018743 -0.006573 -0.005233 0.000000 0.000000 0.000000
# 2 -0.006573 0.012446 -0.004286 0.000000 0.000000 0.000000
# 3 -0.005233 -0.004286 0.016702 -0.000001 0.000001 0.000000
# 4 0.000000 0.000000 -0.000001 0.033354 0.000001 0.000000
# 5 0.000000 0.000000 0.000001 0.000001 0.031668 0.000000
# 6 0.000000 0.000000 0.000000 0.000000 0.000000 0.037546
#
#
# Mechanical properties :
#
#
# Convention : Reuss Voigt Hill
#
# Bulk Modulus (GPa) = 63.65833 68.12487 65.89160
# Shear Modulus (GPa) = 26.61305 27.51131 27.06218
#
# Velocity S-wave (km/s) = 3.41535 3.47251 3.44405
# Velocity P-wave (km/s) = 6.59201 6.77770 6.68550
#
# Compressibility (1/GPa) = 0.01570886
#
# Stress axis : x y z
#
# Youngs Moduli (GPa) = 53.35324 80.34834 59.87186
#
# Poissons Ratio (x) = 0.52811 0.31330
# Poissons Ratio (y) = 0.35068 0.25658
# Poissons Ratio (z) = 0.27919 0.34434
#
# Static dielectric constant tensor:
#      x y z
#    x 1.900660 0.000000 0.000000 
#    y 0.000000 1.888900 0.000000 
#    z 0.000000 0.000000 1.917790 
# 
# From -- ./inp_files/12944.got.cif
#   From: 2010.05.17/outbox.cif.g08.bks.cpg/sg22_7_cif.got.tgz:12944.got - 2010.06.03 23:40:54.
