data_PCOD9328190
_publ_section_title
;
Structure prediction by ZEFSAII (Michael W. Deem and Ramdas Pophale) SiO2 
 PCOD9328190
Probable space group: F 2 2 2
;
_chemical_formula_sum "Si O2"
_cell_formula_units_Z 52
_cell_length_a 25.438741
_cell_length_b 11.503145
_cell_length_c 7.334605
_cell_angle_alpha 90.000000
_cell_angle_beta 90.000000
_cell_angle_gamma 90.000000
_cell_volume 2146.292649
_symmetry_space_group_name_H-M "F 2 2 2"
_symmetry_group_IT_number 22
_symmetry_cell_setting 'orthorhombic'
loop_
_space_group_symop_operation_xyz
x,y,z
-x,-y,z
x,-y,-z
-x,y,-z
x,1/2+y,1/2+z
-x,1/2-y,1/2+z
x,1/2-y,1/2-z
-x,1/2+y,1/2-z
1/2+x,y,1/2+z
1/2-x,-y,1/2+z
1/2+x,-y,1/2-z
1/2-x,y,1/2-z
1/2+x,1/2+y,z
1/2-x,1/2-y,z
1/2+x,1/2-y,-z
1/2-x,1/2+y,-z
loop_
_atom_site_type_symbol
_atom_site_label
_atom_site_fract_x
_atom_site_fract_y
_atom_site_fract_z
Si Si1 0.500000 0.000000 0.000000
Si Si2 0.410428 0.162232 0.092941
Si Si3 0.322797 0.987274 0.792411
Si Si4 0.806492 0.692954 0.514649
O O1 0.455116 0.896017 0.029602
O O2 0.430996 0.250000 0.250000
O O3 0.383123 0.052641 0.193607
O O4 0.359337 0.227657 0.004943
O O5 0.315391 0.103256 0.678835
O O6 0.302752 0.000000 0.000000
O O7 0.198555 0.882712 0.830308
O O8 0.750000 0.750000 0.539924
#
# Coordination Sequence:
#
# PCOD9328190 Si02
#       4
#     4  16  16  16
#     4  12  24  44  76 112 148 200 262 322 380 464
#     4  10  24  46  72 108 150 198 257 319 387 459
#     4  10  22  46  73 106 150 199 260 312 380 472
#     4  10  24  47  75 109 158 202 256 325 386 462
#
# _framework density 24.227823000000001
#
# number of rings (size 3 to 8) (size 9 to 14) (size 15 to 20)
#    0.000    1.846    1.538    0.000    0.000   12.923 
#    5.538    0.000    0.000    0.000    0.000    0.000 
#    0.000    0.000    0.000    0.000    0.000    0.000 
#
# Total GULP energy -72393.874180 kJ/mol
# GULP energy per Si atom -5568.759552 kJ/mol
# Density = 2.417268 g / cm^3
# Si number density = 24.227823 Si / 1000 Ang^3
#
#
#
# Elastic Constant Matrix: (Units=GPa)
#
#
# Indices 1 2 3 4 5 6 
#
# 1 116.9447 91.2431 22.8909 0.0000 0.0000 0.0000
# 2 91.2431 167.7375 58.6430 0.0000 0.0000 0.0000
# 3 22.8909 58.6430 137.6265 0.0000 0.0000 0.0000
# 4 0.0000 0.0000 0.0000 48.9079 0.0000 0.0000
# 5 0.0000 0.0000 0.0000 0.0000 -8.9688 0.0000
# 6 0.0000 0.0000 0.0000 0.0000 0.0000 30.7416
#
#
#
# Elastic Compliance Matrix: (Units=1/GPa)
#
#
# Indices 1 2 3 4 5 6 
#
# 1 0.015011 -0.008569 0.001155 0.000000 0.000000 0.000000
# 2 -0.008569 0.011897 -0.003644 0.000000 0.000000 0.000000
# 3 0.001155 -0.003644 0.008627 0.000000 0.000000 0.000000
# 4 0.000000 0.000000 0.000000 0.020447 0.000000 0.000000
# 5 0.000000 0.000000 0.000000 0.000000 -0.111498 0.000000
# 6 0.000000 0.000000 0.000000 0.000000 0.000000 0.032529
#
#
# Mechanical properties :
#
#
# Convention : Reuss Voigt Hill
#
# Bulk Modulus (GPa) = 74.52942 85.31810 79.92376
# Shear Modulus (GPa) = 1388.25001 30.77159 709.51080
#
# Velocity S-wave (km/s) = 23.96335 3.56770 17.13141
# Velocity P-wave (km/s) = 28.22206 7.22930 20.60034
#
# Compressibility (1/GPa) = 0.01341752
#
# Stress axis : x y z
#
# Youngs Moduli (GPa) = 66.61887 84.05543 115.91848
#
# Poissons Ratio (x) = 0.72027 -0.13384
# Poissons Ratio (y) = 0.57085 0.42241
# Poissons Ratio (z) = -0.07692 0.30630
#
# Static dielectric constant tensor:
#      x y z
#    x 1.907900 0.000000 0.000000 
#    y 0.000000 2.056250 0.000000 
#    z 0.000000 0.000000 2.003090 
# 
# From -- ./inp_files/14282.got.cif
#   From: 2010.05.17/outbox.cif.g08.bks.cpg/sg22_8_cif.got.tgz:14282.got - 2010.06.03 23:40:54.
