data_PCOD9328627
_publ_section_title
;
Structure prediction by ZEFSAII (Michael W. Deem and Ramdas Pophale) SiO2 
 PCOD9328627
Probable space group: F 2 2 2
;
_chemical_formula_sum "Si O2"
_cell_formula_units_Z 64
_cell_length_a 18.661092
_cell_length_b 10.926368
_cell_length_c 13.947127
_cell_angle_alpha 90.000000
_cell_angle_beta 90.000000
_cell_angle_gamma 90.000000
_cell_volume 2843.790722
_symmetry_space_group_name_H-M "F 2 2 2"
_symmetry_group_IT_number 22
_symmetry_cell_setting 'orthorhombic'
loop_
_space_group_symop_operation_xyz
x,y,z
-x,-y,z
x,-y,-z
-x,y,-z
x,1/2+y,1/2+z
-x,1/2-y,1/2+z
x,1/2-y,1/2-z
-x,1/2+y,1/2-z
1/2+x,y,1/2+z
1/2-x,-y,1/2+z
1/2+x,-y,1/2-z
1/2-x,y,1/2-z
1/2+x,1/2+y,z
1/2-x,1/2-y,z
1/2+x,1/2-y,-z
1/2-x,1/2+y,-z
loop_
_atom_site_type_symbol
_atom_site_label
_atom_site_fract_x
_atom_site_fract_y
_atom_site_fract_z
Si Si1 0.038293 0.870318 0.691319
Si Si2 0.575324 0.291761 0.974753
Si Si3 0.676717 0.304849 0.144761
Si Si4 0.177960 0.589238 0.688354
O O1 0.009576 0.750000 0.750000
O O2 0.048340 0.825754 0.583482
O O3 0.116502 0.893986 0.733682
O O4 0.000000 0.000000 0.703361
O O5 0.638288 0.348018 0.905136
O O6 0.500000 0.360999 0.000000
O O7 0.612861 0.270319 0.075261
O O8 0.666533 0.250000 0.250000
O O9 0.750000 0.250000 0.104104
O O10 0.685774 0.449485 0.155768
O O11 0.250000 0.621772 0.750000
#
# Coordination Sequence:
#
# PCOD9328627 Si02
#       4
#    16  16  16  16
#     4  10  26  48  80 114 162 208 266 337 406 484
#     4  11  28  47  76 116 154 207 270 335 409 483
#     4  11  25  47  73 108 156 205 262 328 405 479
#     4  11  25  47  77 111 158 214 266 331 406 487
#
# _framework density 22.505172999999999
#
# number of rings (size 3 to 8) (size 9 to 14) (size 15 to 20)
#    0.000    1.250    2.500    0.750   14.000    5.000 
#    0.000    0.000    0.000    0.000    0.000    0.000 
#    0.000    0.000    0.000    0.000    0.000    0.000 
#
# Total GULP energy -89230.216650 kJ/mol
# GULP energy per Si atom -5576.888541 kJ/mol
# Density = 2.245395 g / cm^3
# Si number density = 22.505173 Si / 1000 Ang^3
#
#
#
# Elastic Constant Matrix: (Units=GPa)
#
#
# Indices 1 2 3 4 5 6 
#
# 1 173.1560 56.3695 77.3660 0.0000 0.0000 0.0000
# 2 56.3695 157.4016 26.8984 0.0000 0.0000 0.0000
# 3 77.3660 26.8984 108.1279 0.0000 0.0000 0.0000
# 4 0.0000 0.0000 0.0000 -17.8672 0.0000 0.0000
# 5 0.0000 0.0000 0.0000 0.0000 55.9900 0.0000
# 6 0.0000 0.0000 0.0000 0.0000 0.0000 -68.8496
#
#
#
# Elastic Compliance Matrix: (Units=1/GPa)
#
#
# Indices 1 2 3 4 5 6 
#
# 1 0.009203 -0.002267 -0.006021 0.000000 0.000000 0.000000
# 2 -0.002267 0.007194 -0.000167 0.000000 0.000000 0.000000
# 3 -0.006021 -0.000167 0.013598 0.000000 0.000000 0.000000
# 4 0.000000 0.000000 0.000000 -0.055968 0.000000 0.000000
# 5 0.000000 0.000000 0.000000 0.000000 0.017860 0.000000
# 6 0.000000 0.000000 0.000000 0.000000 0.000000 -0.014524
#
#
# Mechanical properties :
#
#
# Convention : Reuss Voigt Hill
#
# Bulk Modulus (GPa) = 76.42946 84.43927 80.43437
# Shear Modulus (GPa) = -3663.23248 12.39141 -1825.42054
#
# Velocity S-wave (km/s) = -40.38889 2.34904 -28.51092
# Velocity P-wave (km/s) = 46.27075 6.70512 32.37301
#
# Compressibility (1/GPa) = 0.01308396
#
# Stress axis : x y z
#
# Youngs Moduli (GPa) = 108.65586 139.01113 73.53969
#
# Poissons Ratio (x) = 0.31514 0.44279
# Poissons Ratio (y) = 0.24632 0.01232
# Poissons Ratio (z) = 0.65423 0.02328
#
# Static dielectric constant tensor:
#      x y z
#    x 1.928660 0.000000 0.000000 
#    y 0.000000 1.932770 0.000000 
#    z 0.000000 0.000000 1.972290 
# 
# From -- ./inp_files/20856.got.cif
#   From: 2010.05.17/outbox.cif.g08.bks.cpg/sg22_11_cif.got.tgz:20856.got - 2010.06.03 23:40:54.
