data_PCOD9329906
_publ_section_title
;
Structure prediction by ZEFSAII (Michael W. Deem and Ramdas Pophale) SiO2 
 PCOD9329906
Probable space group: I 2 2 2
;
_chemical_formula_sum "Si O2"
_cell_formula_units_Z 64
_cell_length_a 28.459666
_cell_length_b 9.870810
_cell_length_c 12.115001
_cell_angle_alpha 90.000000
_cell_angle_beta 90.000000
_cell_angle_gamma 90.000000
_cell_volume 3403.345545
_symmetry_space_group_name_H-M "I 2 2 2"
_symmetry_group_IT_number 23
_symmetry_cell_setting 'orthorhombic'
loop_
_space_group_symop_operation_xyz
x,y,z
-x,-y,z
x,-y,-z
-x,y,-z
1/2+x,1/2+y,1/2+z
1/2-x,1/2-y,1/2+z
1/2+x,1/2-y,1/2-z
1/2-x,1/2+y,1/2-z
loop_
_atom_site_type_symbol
_atom_site_label
_atom_site_fract_x
_atom_site_fract_y
_atom_site_fract_z
Si Si1 0.769173 0.019505 0.131649
Si Si2 0.506105 0.188001 0.233500
Si Si3 0.667232 0.990360 0.767037
Si Si4 0.443152 0.705490 0.591044
Si Si5 0.430618 0.956722 0.873152
Si Si6 0.833273 0.270536 0.102486
Si Si7 0.562381 0.400768 0.346265
Si Si8 0.835480 0.789985 0.153177
O O1 0.715219 0.024872 0.165372
O O2 0.792756 0.887063 0.186035
O O3 0.800385 0.153261 0.154748
O O4 0.773109 0.000000 0.000000
O O5 0.476429 0.186379 0.348557
O O6 0.463601 0.174569 0.145931
O O7 0.537299 0.322209 0.247310
O O8 0.542776 0.069734 0.202444
O O9 0.623039 0.051424 0.833837
O O10 0.676120 0.088242 0.662719
O O11 0.654866 0.839741 0.727223
O O12 0.388941 0.741533 0.613250
O O13 0.449795 0.677578 0.461107
O O14 0.450971 0.557101 0.644068
O O15 0.432765 0.000000 0.000000
O O16 0.825823 0.264932 0.970576
O O17 0.618525 0.384580 0.344698
#
# Coordination Sequence:
#
# PCOD9329906 Si02
#       8
#     8   8   8   8   8   8   8   8
#     4  10  21  38  61  84 113 152 187 225 277 349
#     4  11  20  37  55  81 107 153 194 227 287 323
#     4  12  21  38  59  89 107 151 193 238 282 332
#     4  10  19  34  58  88 120 148 180 225 281 355
#     4  11  25  41  56  76 109 152 202 248 279 326
#     4  10  20  36  57  87 119 145 180 229 291 348
#     4  10  19  34  58  88 120 148 180 225 281 355
#     4  10  20  36  57  87 119 145 180 229 291 348
#
# _framework density 18.805026999999999
#
# number of rings (size 3 to 8) (size 9 to 14) (size 15 to 20)
#    0.000    1.500    3.750    3.000    0.000    1.000 
#    0.000    5.000    0.000    6.000    0.000    0.000 
#    0.000    0.000    0.000    0.000    0.000    0.000 
#
# Total GULP energy -178371.251801 kJ/mol
# GULP energy per Si atom -5574.101619 kJ/mol
# Density = 1.876223 g / cm^3
# Si number density = 18.805027 Si / 1000 Ang^3
#
#
#
# Elastic Constant Matrix: (Units=GPa)
#
#
# Indices 1 2 3 4 5 6 
#
# 1 100.3126 14.3790 14.8218 0.0000 0.0000 0.0000
# 2 14.3790 59.4488 20.6364 0.0000 0.0000 0.0000
# 3 14.8218 20.6364 41.0790 0.0000 0.0000 0.0000
# 4 0.0000 0.0000 0.0000 13.5650 0.0000 0.0000
# 5 0.0000 0.0000 0.0000 0.0000 30.1520 0.0000
# 6 0.0000 0.0000 0.0000 0.0000 0.0000 26.6119
#
#
#
# Elastic Compliance Matrix: (Units=1/GPa)
#
#
# Indices 1 2 3 4 5 6 
#
# 1 0.010640 -0.001503 -0.003084 0.000000 0.000000 0.000000
# 2 -0.001503 0.020586 -0.009799 0.000000 0.000000 0.000000
# 3 -0.003084 -0.009799 0.030379 0.000000 0.000000 0.000000
# 4 0.000000 0.000000 0.000000 0.073719 0.000000 0.000000
# 5 0.000000 0.000000 0.000000 0.000000 0.033165 0.000000
# 6 0.000000 0.000000 0.000000 0.000000 0.000000 0.037577
#
#
# Mechanical properties :
#
#
# Convention : Reuss Voigt Hill
#
# Bulk Modulus (GPa) = 30.45772 33.39055 31.92413
# Shear Modulus (GPa) = 20.34310 24.13267 22.23789
#
# Velocity S-wave (km/s) = 3.29263 3.58622 3.44255
# Velocity P-wave (km/s) = 5.53958 5.91123 5.72842
#
# Compressibility (1/GPa) = 0.03283240
#
# Stress axis : x y z
#
# Youngs Moduli (GPa) = 93.98533 48.57578 32.91759
#
# Poissons Ratio (x) = 0.07301 0.10152
# Poissons Ratio (y) = 0.14126 0.32257
# Poissons Ratio (z) = 0.28985 0.47602
#
# Static dielectric constant tensor:
#      x y z
#    x 1.689540 0.000000 0.000000 
#    y 0.000000 1.662140 0.000000 
#    z 0.000000 0.000000 1.642260 
# 
# From -- ./inp_files/18832.got.cif
#   From: 2010.05.17/outbox.cif.g08.bks.cpg/sg23_10_cif.got.tgz:18832.got - 2010.06.04 12:02:01.
