data_PCOD9329611
_publ_section_title
;
Structure prediction by ZEFSAII (Michael W. Deem and Ramdas Pophale) SiO2 
 PCOD9329611
Probable space group: I 2 2 2
;
_chemical_formula_sum "Si O2"
_cell_formula_units_Z 44
_cell_length_a 16.109568
_cell_length_b 12.877532
_cell_length_c 9.372088
_cell_angle_alpha 90.000000
_cell_angle_beta 90.000000
_cell_angle_gamma 90.000000
_cell_volume 1944.253502
_symmetry_space_group_name_H-M "I 2 2 2"
_symmetry_group_IT_number 23
_symmetry_cell_setting 'orthorhombic'
loop_
_space_group_symop_operation_xyz
x,y,z
-x,-y,z
x,-y,-z
-x,y,-z
1/2+x,1/2+y,1/2+z
1/2-x,1/2-y,1/2+z
1/2+x,1/2-y,1/2-z
1/2-x,1/2+y,1/2-z
loop_
_atom_site_type_symbol
_atom_site_label
_atom_site_fract_x
_atom_site_fract_y
_atom_site_fract_z
Si Si1 0.500000 0.273073 0.500000
Si Si2 0.357604 0.655089 0.316915
Si Si3 0.395121 0.889697 0.682761
Si Si4 0.812628 0.633719 0.534620
Si Si5 0.327394 0.903129 0.289810
Si Si6 0.716036 0.370203 0.037970
O O1 0.560983 0.347414 0.411556
O O2 0.545359 0.193037 0.609385
O O3 0.277779 0.611571 0.399201
O O4 0.346017 0.781493 0.306169
O O5 0.353096 0.606195 0.158703
O O6 0.387044 0.881742 0.853261
O O7 0.303372 0.858926 0.623124
O O8 0.397064 0.014822 0.657850
O O9 0.818157 0.582299 0.379268
O O10 0.811209 0.757013 0.511980
O O11 0.246922 0.925467 0.390924
#
# Coordination Sequence:
#
# PCOD9329611 Si02
#       6
#     4   8   8   8   8   8
#     4  12  22  35  56  90 133 158 184 242 315 366
#     4   9  20  34  54  80 115 155 203 233 286 348
#     4  11  21  32  55  90 122 149 193 236 310 356
#     4   9  18  36  56  78 114 158 211 240 263 358
#     4  10  18  33  57  84 113 155 197 243 285 338
#     4   9  18  35  55  77 111 158 208 237 261 356
#
# _framework density 22.630796
#
# number of rings (size 3 to 8) (size 9 to 14) (size 15 to 20)
#    0.000    2.182    3.636    2.182    0.000    1.455 
#    0.000    3.636    0.000    4.364    0.000   10.182 
#   10.909    0.000    0.000    0.000    0.000    0.000 
#
# Total GULP energy -122526.729701 kJ/mol
# GULP energy per Si atom -5569.396805 kJ/mol
# Density = 2.257929 g / cm^3
# Si number density = 22.630796 Si / 1000 Ang^3
#
#
#
# Elastic Constant Matrix: (Units=GPa)
#
#
# Indices 1 2 3 4 5 6 
#
# 1 63.5206 2.7575 44.8647 0.0000 0.0000 0.0000
# 2 2.7575 19.9595 4.4958 0.0000 0.0000 0.0000
# 3 44.8647 4.4958 191.2667 0.0000 0.0000 0.0000
# 4 0.0000 0.0000 0.0000 26.0982 0.0000 0.0000
# 5 0.0000 0.0000 0.0000 0.0000 37.3573 0.0000
# 6 0.0000 0.0000 0.0000 0.0000 0.0000 24.7516
#
#
#
# Elastic Compliance Matrix: (Units=1/GPa)
#
#
# Indices 1 2 3 4 5 6 
#
# 1 0.018921 -0.001623 -0.004400 0.000000 0.000000 0.000000
# 2 -0.001623 0.050507 -0.000807 0.000000 0.000000 0.000000
# 3 -0.004400 -0.000807 0.006279 0.000000 0.000000 0.000000
# 4 0.000000 0.000000 0.000000 0.038317 0.000000 0.000000
# 5 0.000000 0.000000 0.000000 0.000000 0.026769 0.000000
# 6 0.000000 0.000000 0.000000 0.000000 0.000000 0.040401
#
#
# Mechanical properties :
#
#
# Convention : Reuss Voigt Hill
#
# Bulk Modulus (GPa) = 16.11636 42.10920 29.11278
# Shear Modulus (GPa) = 23.19791 32.48335 27.84063
#
# Velocity S-wave (km/s) = 3.20513 3.79273 3.51124
# Velocity P-wave (km/s) = 4.56443 6.15038 5.41577
#
# Compressibility (1/GPa) = 0.06204875
#
# Stress axis : x y z
#
# Youngs Moduli (GPa) = 52.85079 19.79912 159.25142
#
# Poissons Ratio (x) = 0.03213 0.70073
# Poissons Ratio (y) = 0.08577 0.12844
# Poissons Ratio (z) = 0.23255 0.01597
#
# Static dielectric constant tensor:
#      x y z
#    x 1.819870 0.000000 0.000000 
#    y 0.000000 1.915170 0.000000 
#    z 0.000000 0.000000 1.949920 
# 
# From -- ./inp_files/10982.got.cif
#   From: 2010.05.17/outbox.cif.g08.bks.cpg/sg23_6_cif.got.tgz:10982.got - 2010.06.04 12:02:01.
