data_PCOD9329632
_publ_section_title
;
Structure prediction by ZEFSAII (Michael W. Deem and Ramdas Pophale) SiO2 
 PCOD9329632
Probable space group: I 2 2 2
;
_chemical_formula_sum "Si O2"
_cell_formula_units_Z 40
_cell_length_a 19.684250
_cell_length_b 11.995510
_cell_length_c 7.786929
_cell_angle_alpha 90.000000
_cell_angle_beta 90.000000
_cell_angle_gamma 90.000000
_cell_volume 1838.670059
_symmetry_space_group_name_H-M "I 2 2 2"
_symmetry_group_IT_number 23
_symmetry_cell_setting 'orthorhombic'
loop_
_space_group_symop_operation_xyz
x,y,z
-x,-y,z
x,-y,-z
-x,y,-z
1/2+x,1/2+y,1/2+z
1/2-x,1/2-y,1/2+z
1/2+x,1/2-y,1/2-z
1/2-x,1/2+y,1/2-z
loop_
_atom_site_type_symbol
_atom_site_label
_atom_site_fract_x
_atom_site_fract_y
_atom_site_fract_z
Si Si1 0.691675 0.219555 0.527383
Si Si2 0.836931 0.160093 0.663178
Si Si3 0.356657 0.973532 0.742444
Si Si4 0.295187 0.552884 0.689847
Si Si5 0.076935 0.348913 0.443355
O O1 0.770081 0.182138 0.548330
O O2 0.677976 0.275858 0.344259
O O3 0.646746 0.113356 0.585094
O O4 0.683690 0.320104 0.665096
O O5 0.901556 0.222871 0.590232
O O6 0.841205 0.028969 0.697642
O O7 0.282616 0.031561 0.752359
O O8 0.409790 0.072657 0.777252
O O9 0.372262 0.895720 0.909200
O O10 0.297062 0.500000 0.500000
O O11 0.000000 0.360742 0.500000
#
# Coordination Sequence:
#
# PCOD9329632 Si02
#       5
#     8   8   8   8   8
#     4  10  19  32  57  85 123 146 193 258 304 374
#     4  10  19  33  53  87 116 157 196 242 315 360
#     4  10  18  34  54  81 112 157 199 234 312 355
#     4   9  15  30  53  80 118 144 179 246 312 362
#     4  11  21  37  57  77 116 164 207 240 293 370
#
# _framework density 21.754854000000002
#
# number of rings (size 3 to 8) (size 9 to 14) (size 15 to 20)
#    0.000    2.000    4.000    3.600    0.000    0.800 
#    0.000    4.000    0.000    8.400    0.000    4.200 
#    0.000    0.000    0.000    0.000    0.000    0.000 
#
# Total GULP energy -111701.879113 kJ/mol
# GULP energy per Si atom -5585.093956 kJ/mol
# Density = 2.170534 g / cm^3
# Si number density = 21.754854 Si / 1000 Ang^3
#
#
#
# Elastic Constant Matrix: (Units=GPa)
#
#
# Indices 1 2 3 4 5 6 
#
# 1 81.8710 48.5767 24.3746 0.0000 0.0000 0.0000
# 2 48.5767 115.0000 2.2730 0.0000 0.0000 0.0000
# 3 24.3746 2.2730 90.6792 0.0000 0.0000 0.0000
# 4 0.0000 0.0000 0.0000 38.4769 0.0000 0.0000
# 5 0.0000 0.0000 0.0000 0.0000 24.7042 0.0000
# 6 0.0000 0.0000 0.0000 0.0000 0.0000 20.9137
#
#
#
# Elastic Compliance Matrix: (Units=1/GPa)
#
#
# Indices 1 2 3 4 5 6 
#
# 1 0.018082 -0.007546 -0.004671 0.000000 0.000000 0.000000
# 2 -0.007546 0.011849 0.001731 0.000000 0.000000 0.000000
# 3 -0.004671 0.001731 0.012240 0.000000 0.000000 0.000000
# 4 0.000000 0.000000 0.000000 0.025990 0.000000 0.000000
# 5 0.000000 0.000000 0.000000 0.000000 0.040479 0.000000
# 6 0.000000 0.000000 0.000000 0.000000 0.000000 0.047815
#
#
# Mechanical properties :
#
#
# Convention : Reuss Voigt Hill
#
# Bulk Modulus (GPa) = 47.17074 48.66653 47.91863
# Shear Modulus (GPa) = 27.10124 30.97401 29.03763
#
# Velocity S-wave (km/s) = 3.53336 3.77739 3.65741
# Velocity P-wave (km/s) = 6.19484 6.43769 6.31743
#
# Compressibility (1/GPa) = 0.02119958
#
# Stress axis : x y z
#
# Youngs Moduli (GPa) = 55.30297 84.39682 81.69830
#
# Poissons Ratio (x) = 0.63683 0.38164
# Poissons Ratio (y) = 0.41730 -0.14144
# Poissons Ratio (z) = 0.25834 -0.14612
#
# Static dielectric constant tensor:
#      x y z
#    x 1.708900 0.000000 0.000000 
#    y 0.000000 1.853610 0.000000 
#    z 0.000000 0.000000 1.922710 
# 
# From -- ./inp_files/10717.got.cif
#   From: 2010.05.17/outbox.cif.g08.bks.cpg/sg23_6_cif.got.tgz:10717.got - 2010.06.04 12:02:01.
