data_PCOD9329417
_publ_section_title
;
Structure prediction by ZEFSAII (Michael W. Deem and Ramdas Pophale) SiO2 
 PCOD9329417
Probable space group: I 2 2 2
;
_chemical_formula_sum "Si O2"
_cell_formula_units_Z 56
_cell_length_a 24.596933
_cell_length_b 7.459867
_cell_length_c 13.882895
_cell_angle_alpha 90.000000
_cell_angle_beta 90.000000
_cell_angle_gamma 90.000000
_cell_volume 2547.370304
_symmetry_space_group_name_H-M "I 2 2 2"
_symmetry_group_IT_number 23
_symmetry_cell_setting 'orthorhombic'
loop_
_space_group_symop_operation_xyz
x,y,z
-x,-y,z
x,-y,-z
-x,y,-z
1/2+x,1/2+y,1/2+z
1/2-x,1/2-y,1/2+z
1/2+x,1/2-y,1/2-z
1/2-x,1/2+y,1/2-z
loop_
_atom_site_type_symbol
_atom_site_label
_atom_site_fract_x
_atom_site_fract_y
_atom_site_fract_z
Si Si1 0.871156 0.286554 0.186400
Si Si2 0.062553 0.280394 0.000000
Si Si3 0.637026 0.715260 0.105590
Si Si4 0.637026 0.284737 0.105589
Si Si5 0.239692 0.285779 0.110838
Si Si6 0.760308 0.714223 0.889163
Si Si7 0.371156 0.786557 0.313599
O O1 0.907226 0.220383 0.097540
O O2 0.892400 0.257092 0.294382
O O3 0.809309 0.213731 0.175417
O O4 0.867189 0.499999 0.173407
O O5 0.063511 0.500000 0.000000
O O6 0.092774 0.220385 0.097542
O O7 0.000000 0.225271 0.000000
O O8 0.639570 0.499999 0.100521
O O9 0.699123 0.785880 0.117461
O O10 0.616887 0.776782 0.000001
O O11 0.699123 0.214117 0.117459
O O12 0.607600 0.242904 0.205617
O O13 0.243946 0.500001 0.126833
O O14 0.190691 0.213734 0.175418
O O15 0.221974 0.261018 0.000001
#
# Coordination Sequence:
#
# PCOD9329417 Si02
#       7
#     8   8   8   8   8   8   8
#     4  10  17  28  49  70  91 121 157 196 232 274
#     4   9  18  32  51  75  97 119 153 199 248 285
#     4   9  18  30  44  65  97 131 156 183 225 279
#     4   9  18  30  44  65  97 131 156 183 225 279
#     4   8  13  24  42  65  93 125 156 183 223 279
#     4   8  13  24  42  65  93 125 156 183 223 279
#     4  10  17  28  49  70  91 121 157 196 232 274
#
# _framework density 21.983456
#
# number of rings (size 3 to 8) (size 9 to 14) (size 15 to 20)
#    0.000    3.000    1.429    2.571    0.000    0.571 
#    0.000    0.714    0.000    4.286    0.000    6.000 
#    0.000    0.000    0.000    0.000    0.000    0.000 
#
# Total GULP energy -156090.701302 kJ/mol
# GULP energy per Si atom -5574.667904 kJ/mol
# Density = 2.193342 g / cm^3
# Si number density = 21.983456 Si / 1000 Ang^3
#
#
#
# Elastic Constant Matrix: (Units=GPa)
#
#
# Indices 1 2 3 4 5 6 
#
# 1 28.0708 2.7235 47.1306 0.0000 0.0000 0.0000
# 2 2.7235 65.1629 1.7842 0.0000 0.0000 0.0000
# 3 47.1306 1.7842 213.5766 0.0000 0.0000 0.0000
# 4 0.0000 0.0000 0.0000 19.8429 0.0000 0.0000
# 5 0.0000 0.0000 0.0000 0.0000 11.6434 0.0000
# 6 0.0000 0.0000 0.0000 0.0000 0.0000 -8.2389
#
#
#
# Elastic Compliance Matrix: (Units=1/GPa)
#
#
# Indices 1 2 3 4 5 6 
#
# 1 0.056860 -0.002033 -0.012531 0.000000 0.000000 0.000000
# 2 -0.002033 0.015422 0.000320 0.000000 0.000000 0.000000
# 3 -0.012531 0.000320 0.007445 0.000000 0.000000 0.000000
# 4 0.000000 0.000000 0.000000 0.050396 0.000000 0.000000
# 5 0.000000 0.000000 0.000000 0.000000 0.085885 0.000000
# 6 0.000000 0.000000 0.000000 0.000000 0.000000 -0.121375
#
#
# Mechanical properties :
#
#
# Convention : Reuss Voigt Hill
#
# Bulk Modulus (GPa) = 19.51637 45.56522 32.54079
# Shear Modulus (GPa) = 35.66300 21.66094 28.66197
#
# Velocity S-wave (km/s) = 4.03211 3.14240 3.61473
# Velocity P-wave (km/s) = 5.52939 5.82566 5.67946
#
# Compressibility (1/GPa) = 0.05123904
#
# Stress axis : x y z
#
# Youngs Moduli (GPa) = 17.58700 64.84085 134.32477
#
# Poissons Ratio (x) = 0.13185 1.68316
# Poissons Ratio (y) = 0.03576 -0.04297
# Poissons Ratio (z) = 0.22037 -0.02074
#
# Static dielectric constant tensor:
#      x y z
#    x 1.774010 0.000000 0.000000 
#    y 0.000000 1.847480 0.000000 
#    z 0.000000 0.000000 1.884930 
# 
# From -- ./inp_files/18385.got.cif
#   From: 2010.05.17/outbox.cif.g08.bks.cpg/sg23_10_cif.got.tgz:18385.got - 2010.06.04 12:02:01.
