data_PCOD9329388
_publ_section_title
;
Structure prediction by ZEFSAII (Michael W. Deem and Ramdas Pophale) SiO2 
 PCOD9329388
Probable space group: I 2 2 2
;
_chemical_formula_sum "Si O2"
_cell_formula_units_Z 36
_cell_length_a 15.442260
_cell_length_b 13.550967
_cell_length_c 8.609003
_cell_angle_alpha 90.000000
_cell_angle_beta 90.000000
_cell_angle_gamma 90.000000
_cell_volume 1801.498924
_symmetry_space_group_name_H-M "I 2 2 2"
_symmetry_group_IT_number 23
_symmetry_cell_setting 'orthorhombic'
loop_
_space_group_symop_operation_xyz
x,y,z
-x,-y,z
x,-y,-z
-x,y,-z
1/2+x,1/2+y,1/2+z
1/2-x,1/2-y,1/2+z
1/2+x,1/2-y,1/2-z
1/2-x,1/2+y,1/2-z
loop_
_atom_site_type_symbol
_atom_site_label
_atom_site_fract_x
_atom_site_fract_y
_atom_site_fract_z
Si Si1 0.624718 0.069887 0.254235
Si Si2 0.500000 0.000000 0.000000
Si Si3 0.246273 0.621108 0.190166
Si Si4 0.000000 0.500000 0.000000
Si Si5 0.101641 0.993961 0.187097
Si Si6 0.216865 0.178657 0.668107
O O1 0.693112 0.156098 0.242964
O O2 0.683042 0.972628 0.286814
O O3 0.559390 0.070593 0.397284
O O4 0.563896 0.062294 0.106610
O O5 0.339604 0.583628 0.249860
O O6 0.203188 0.707653 0.291788
O O7 0.261080 0.652264 0.010743
O O8 0.144757 0.895061 0.261087
O O9 0.000000 0.000000 0.227201
O O10 0.109435 0.000000 0.000000
#
# Coordination Sequence:
#
# PCOD9329388 Si02
#       6
#     8   2   8   2   8   8
#     4  10  21  40  60  87 122 157 194 250 302 350
#     4  10  24  34  64  90 118 156 196 246 300 358
#     4  11  23  40  64  89 122 161 202 248 305 355
#     4  10  16  42  60  82 118 156 200 238 308 354
#     4  10  22  43  65  89 123 162 202 251 302 364
#     4  11  23  40  64  89 122 161 202 248 305 355
#
# _framework density 19.983357999999999
#
# number of rings (size 3 to 8) (size 9 to 14) (size 15 to 20)
#    0.000    1.556    2.222    3.333    9.333    1.778 
#    8.000    0.000    0.000    0.000    0.000    0.000 
#    0.000    0.000    0.000    0.000    0.000    0.000 
#
# Total GULP energy -100449.900678 kJ/mol
# GULP energy per Si atom -5580.550038 kJ/mol
# Density = 1.993788 g / cm^3
# Si number density = 19.983358 Si / 1000 Ang^3
#
#
#
# Elastic Constant Matrix: (Units=GPa)
#
#
# Indices 1 2 3 4 5 6 
#
# 1 127.7343 9.7561 44.2558 0.0000 0.0000 0.0000
# 2 9.7561 69.0709 10.5023 0.0000 0.0000 0.0000
# 3 44.2558 10.5023 95.7112 0.0000 0.0000 0.0000
# 4 0.0000 0.0000 0.0000 13.4986 0.0000 0.0000
# 5 0.0000 0.0000 0.0000 0.0000 19.9547 0.0000
# 6 0.0000 0.0000 0.0000 0.0000 0.0000 9.6957
#
#
#
# Elastic Compliance Matrix: (Units=1/GPa)
#
#
# Indices 1 2 3 4 5 6 
#
# 1 0.009353 -0.000675 -0.004251 0.000000 0.000000 0.000000
# 2 -0.000675 0.014772 -0.001309 0.000000 0.000000 0.000000
# 3 -0.004251 -0.001309 0.012557 0.000000 0.000000 0.000000
# 4 0.000000 0.000000 0.000000 0.074082 0.000000 0.000000
# 5 0.000000 0.000000 0.000000 0.000000 0.050113 0.000000
# 6 0.000000 0.000000 0.000000 0.000000 0.000000 0.103138
#
#
# Mechanical properties :
#
#
# Convention : Reuss Voigt Hill
#
# Bulk Modulus (GPa) = 41.29904 46.83830 44.06867
# Shear Modulus (GPa) = 17.57125 23.82997 20.70061
#
# Velocity S-wave (km/s) = 2.96851 3.45699 3.22202
# Velocity P-wave (km/s) = 5.69745 6.27885 5.99520
#
# Compressibility (1/GPa) = 0.02421364
#
# Stress axis : x y z
#
# Youngs Moduli (GPa) = 106.91739 67.69472 79.63563
#
# Poissons Ratio (x) = 0.04568 0.33851
# Poissons Ratio (y) = 0.07214 0.10424
# Poissons Ratio (z) = 0.45447 0.08861
#
# Static dielectric constant tensor:
#      x y z
#    x 1.701400 0.000000 0.000000 
#    y 0.000000 1.676620 0.000000 
#    z 0.000000 0.000000 1.796950 
# 
# From -- ./inp_files/9504.got.cif
#   From: 2010.05.17/outbox.cif.g08.bks.cpg/sg23_5_cif.got.tgz:9504.got - 2010.06.04 12:02:01.
