data_PCOD9329046
_publ_section_title
;
Structure prediction by ZEFSAII (Michael W. Deem and Ramdas Pophale) SiO2 
 PCOD9329046
Probable space group: F 2 2 2
;
_chemical_formula_sum "Si O2"
_cell_formula_units_Z 56
_cell_length_a 12.950493
_cell_length_b 8.483193
_cell_length_c 19.476773
_cell_angle_alpha 90.000000
_cell_angle_beta 90.000000
_cell_angle_gamma 90.000000
_cell_volume 2139.748112
_symmetry_space_group_name_H-M "F 2 2 2"
_symmetry_group_IT_number 22
_symmetry_cell_setting 'orthorhombic'
loop_
_space_group_symop_operation_xyz
x,y,z
-x,-y,z
x,-y,-z
-x,y,-z
x,1/2+y,1/2+z
-x,1/2-y,1/2+z
x,1/2-y,1/2-z
-x,1/2+y,1/2-z
1/2+x,y,1/2+z
1/2-x,-y,1/2+z
1/2+x,-y,1/2-z
1/2-x,y,1/2-z
1/2+x,1/2+y,z
1/2-x,1/2-y,z
1/2+x,1/2-y,-z
1/2-x,1/2+y,-z
loop_
_atom_site_type_symbol
_atom_site_label
_atom_site_fract_x
_atom_site_fract_y
_atom_site_fract_z
Si Si1 0.195102 0.500000 0.000000
Si Si2 0.909620 0.813096 0.683306
Si Si3 0.218568 0.478540 0.637211
Si Si4 0.936724 0.272515 0.567392
O O1 0.260508 0.577141 0.059881
O O2 0.132285 0.364759 0.036515
O O3 0.972623 0.750000 0.750000
O O4 0.840781 0.655710 0.677222
O O5 0.832168 0.965384 0.675513
O O6 0.980618 0.807375 0.617153
O O7 0.138990 0.620738 0.616676
O O8 0.000000 0.337078 0.500000
#
# Coordination Sequence:
#
# PCOD9329046 Si02
#       4
#     8  16  16  16
#     4  12  25  46  75 118 160 200 271 348 407 482
#     4  11  26  51  74 113 163 217 273 337 406 493
#     4  11  24  45  74 108 157 211 266 329 408 478
#     4  12  25  48  77 119 157 210 272 343 409 490
#
# _framework density 26.171305
#
# number of rings (size 3 to 8) (size 9 to 14) (size 15 to 20)
#    0.000    0.571    2.857    5.571    4.000    1.143 
#   15.429    0.000    0.000    0.000    0.000    0.000 
#    0.000    0.000    0.000    0.000    0.000    0.000 
#
# Total GULP energy -77953.537163 kJ/mol
# GULP energy per Si atom -5568.109797 kJ/mol
# Density = 2.611174 g / cm^3
# Si number density = 26.171305 Si / 1000 Ang^3
#
#
#
# Elastic Constant Matrix: (Units=GPa)
#
#
# Indices 1 2 3 4 5 6 
#
# 1 102.2738 35.5046 -0.2788 0.0000 0.0000 0.0000
# 2 35.5046 112.6893 -16.1736 0.0000 0.0000 0.0000
# 3 -0.2788 -16.1736 84.9228 0.0000 0.0000 0.0000
# 4 0.0000 0.0000 0.0000 25.0550 0.0000 0.0000
# 5 0.0000 0.0000 0.0000 0.0000 44.5609 0.0000
# 6 0.0000 0.0000 0.0000 0.0000 0.0000 42.8424
#
#
#
# Elastic Compliance Matrix: (Units=1/GPa)
#
#
# Indices 1 2 3 4 5 6 
#
# 1 0.011012 -0.003562 -0.000642 0.000000 0.000000 0.000000
# 2 -0.003562 0.010275 0.001945 0.000000 0.000000 0.000000
# 3 -0.000642 0.001945 0.012144 0.000000 0.000000 0.000000
# 4 0.000000 0.000000 0.000000 0.039912 0.000000 0.000000
# 5 0.000000 0.000000 0.000000 0.000000 0.022441 0.000000
# 6 0.000000 0.000000 0.000000 0.000000 0.000000 0.023341
#
#
# Mechanical properties :
#
#
# Convention : Reuss Voigt Hill
#
# Bulk Modulus (GPa) = 34.58528 37.55448 36.06988
# Shear Modulus (GPa) = 37.51448 41.21388 39.36418
#
# Velocity S-wave (km/s) = 3.79016 3.97265 3.88248
# Velocity P-wave (km/s) = 5.69187 5.95174 5.82326
#
# Compressibility (1/GPa) = 0.02891404
#
# Stress axis : x y z
#
# Youngs Moduli (GPa) = 90.80662 97.32021 82.34673
#
# Poissons Ratio (x) = 0.34664 0.05288
# Poissons Ratio (y) = 0.32344 -0.16019
# Poissons Ratio (z) = 0.05832 -0.18931
#
# Static dielectric constant tensor:
#      x y z
#    x 2.251040 0.000000 0.000000 
#    y 0.000000 2.211890 0.000000 
#    z 0.000000 0.000000 2.459930 
# 
# From -- ./inp_files/43198.got.cif
#   From: 2010.05.17/outbox.cif.g08.bks.cpg/sg22_22_cif.got.tgz:43198.got - 2010.06.03 23:40:54.
