data_PCOD9329851
_publ_section_title
;
Structure prediction by ZEFSAII (Michael W. Deem and Ramdas Pophale) SiO2 
 PCOD9329851
Probable space group: I 2 2 2
;
_chemical_formula_sum "Si O2"
_cell_formula_units_Z 64
_cell_length_a 20.213802
_cell_length_b 13.896305
_cell_length_c 12.128891
_cell_angle_alpha 90.000000
_cell_angle_beta 90.000000
_cell_angle_gamma 90.000000
_cell_volume 3406.971009
_symmetry_space_group_name_H-M "I 2 2 2"
_symmetry_group_IT_number 23
_symmetry_cell_setting 'orthorhombic'
loop_
_space_group_symop_operation_xyz
x,y,z
-x,-y,z
x,-y,-z
-x,y,-z
1/2+x,1/2+y,1/2+z
1/2-x,1/2-y,1/2+z
1/2+x,1/2-y,1/2-z
1/2-x,1/2+y,1/2-z
loop_
_atom_site_type_symbol
_atom_site_label
_atom_site_fract_x
_atom_site_fract_y
_atom_site_fract_z
Si Si1 0.499387 0.114682 0.234626
Si Si2 0.746856 0.168415 0.306545
Si Si3 0.359791 0.811947 0.845667
Si Si4 0.562285 0.771901 0.566623
Si Si5 0.434566 0.253995 0.939937
Si Si6 0.821139 0.608469 0.972037
Si Si7 0.640656 0.667548 0.742747
Si Si8 0.761972 0.453710 0.261133
O O1 0.424532 0.155484 0.223294
O O2 0.535017 0.148108 0.346872
O O3 0.539800 0.165388 0.135585
O O4 0.500000 0.000000 0.225393
O O5 0.817330 0.221828 0.298937
O O6 0.730963 0.143543 0.434953
O O7 0.692141 0.242985 0.263165
O O8 0.735359 0.067914 0.245460
O O9 0.308843 0.901491 0.849253
O O10 0.385899 0.782884 0.965654
O O11 0.500000 0.736496 0.500000
O O12 0.617459 0.820073 0.488570
O O13 0.592841 0.688502 0.641182
O O14 0.398903 0.326465 0.856531
O O15 0.500000 0.294391 0.000000
O O16 0.788048 0.595446 0.853152
O O17 0.844131 0.500000 0.000000
O O18 0.685986 0.575577 0.727412
#
# Coordination Sequence:
#
# PCOD9329851 Si02
#       8
#     8   8   8   8   8   8   8   8
#     4  10  22  33  51  79 108 146 178 217 271 329
#     4   9  19  34  51  78 104 138 178 222 269 323
#     4  10  20  33  53  75 108 142 179 221 271 319
#     4  10  20  31  50  78 111 139 173 226 274 325
#     4   9  19  35  51  73 106 142 179 221 268 323
#     4   9  18  29  50  78 106 132 172 222 276 325
#     4   9  19  35  52  76 109 139 177 226 269 321
#     4  10  19  33  55  78 105 143 178 224 272 318
#
# _framework density 18.785015000000001
#
# number of rings (size 3 to 8) (size 9 to 14) (size 15 to 20)
#    0.000    2.500    0.000    1.500    8.750    2.250 
#    0.000    0.000    0.000    9.000    0.000    4.375 
#    0.000    0.000    0.000    0.000    0.000    0.000 
#
# Total GULP energy -178483.909990 kJ/mol
# GULP energy per Si atom -5577.622187 kJ/mol
# Density = 1.874226 g / cm^3
# Si number density = 18.785015 Si / 1000 Ang^3
#
#
#
# Elastic Constant Matrix: (Units=GPa)
#
#
# Indices 1 2 3 4 5 6 
#
# 1 87.7317 10.0462 23.8531 0.0000 0.0000 0.0000
# 2 10.0462 33.8746 -2.3983 0.0000 0.0000 0.0000
# 3 23.8531 -2.3983 41.1329 0.0000 0.0000 0.0000
# 4 0.0000 0.0000 0.0000 5.0483 0.0000 0.0000
# 5 0.0000 0.0000 0.0000 0.0000 22.0062 0.0000
# 6 0.0000 0.0000 0.0000 0.0000 0.0000 12.1023
#
#
#
# Elastic Compliance Matrix: (Units=1/GPa)
#
#
# Indices 1 2 3 4 5 6 
#
# 1 0.014281 -0.004842 -0.008564 0.000000 0.000000 0.000000
# 2 -0.004842 0.031285 0.004632 0.000000 0.000000 0.000000
# 3 -0.008564 0.004632 0.029548 0.000000 0.000000 0.000000
# 4 0.000000 0.000000 0.000000 0.198086 0.000000 0.000000
# 5 0.000000 0.000000 0.000000 0.000000 0.045442 0.000000
# 6 0.000000 0.000000 0.000000 0.000000 0.000000 0.082629
#
#
# Mechanical properties :
#
#
# Convention : Reuss Voigt Hill
#
# Bulk Modulus (GPa) = 17.37147 25.08234 21.22690
# Shear Modulus (GPa) = 11.41534 16.58058 13.99796
#
# Velocity S-wave (km/s) = 2.46780 2.97416 2.73273
# Velocity P-wave (km/s) = 4.16985 5.01752 4.61319
#
# Compressibility (1/GPa) = 0.05756567
#
# Stress axis : x y z
#
# Youngs Moduli (GPa) = 70.02174 31.96470 33.84346
#
# Poissons Ratio (x) = 0.15477 0.28984
# Poissons Ratio (y) = 0.33903 -0.15676
# Poissons Ratio (z) = 0.59967 -0.14806
#
# Static dielectric constant tensor:
#      x y z
#    x 1.675020 0.000000 0.000000 
#    y 0.000000 1.608850 0.000000 
#    z 0.000000 0.000000 1.677000 
# 
# From -- ./inp_files/17574.got.cif
#   From: 2010.05.17/outbox.cif.g08.bks.cpg/sg23_9_cif.got.tgz:17574.got - 2010.06.04 12:02:01.
