data_PCOD9329401
_publ_section_title
;
Structure prediction by ZEFSAII (Michael W. Deem and Ramdas Pophale) SiO2 
 PCOD9329401
Probable space group: I 2 2 2
;
_chemical_formula_sum "Si O2"
_cell_formula_units_Z 64
_cell_length_a 24.718477
_cell_length_b 15.036896
_cell_length_c 9.036488
_cell_angle_alpha 90.000000
_cell_angle_beta 90.000000
_cell_angle_gamma 90.000000
_cell_volume 3358.764706
_symmetry_space_group_name_H-M "I 2 2 2"
_symmetry_group_IT_number 23
_symmetry_cell_setting 'orthorhombic'
loop_
_space_group_symop_operation_xyz
x,y,z
-x,-y,z
x,-y,-z
-x,y,-z
1/2+x,1/2+y,1/2+z
1/2-x,1/2-y,1/2+z
1/2+x,1/2-y,1/2-z
1/2-x,1/2+y,1/2-z
loop_
_atom_site_type_symbol
_atom_site_label
_atom_site_fract_x
_atom_site_fract_y
_atom_site_fract_z
Si Si1 0.624234 0.214495 0.153049
Si Si2 0.810921 0.148468 0.861729
Si Si3 0.021950 0.721455 0.848481
Si Si4 0.281196 0.479697 0.160797
Si Si5 0.449870 0.290929 0.106123
Si Si6 0.095065 0.967204 0.346466
Si Si7 0.721585 0.901648 0.927298
Si Si8 0.577119 0.409893 0.417923
O O1 0.663198 0.276535 0.255633
O O2 0.574671 0.185960 0.260764
O O3 0.662204 0.137310 0.091391
O O4 0.596817 0.261846 0.009233
O O5 0.861505 0.115891 0.965117
O O6 0.791136 0.070277 0.752394
O O7 0.760251 0.161215 0.971745
O O8 0.041935 0.821622 0.897645
O O9 0.973685 0.724118 0.728222
O O10 0.000000 0.678956 0.000000
O O11 0.341901 0.444158 0.135646
O O12 0.247715 0.414855 0.265407
O O13 0.256894 0.500000 0.000000
O O14 0.433750 0.377520 0.199786
O O15 0.500000 0.312747 0.000000
O O16 0.072053 0.000000 0.500000
O O17 0.087075 0.050911 0.243892
O O18 0.721303 0.000000 0.000000
O O19 0.558570 0.500000 0.500000
#
# Coordination Sequence:
#
# PCOD9329401 Si02
#       8
#     8   8   8   8   8   8   8   8
#     4  10  21  37  55  80 109 143 188 227 275 343
#     4   9  18  33  51  77 113 147 178 219 271 333
#     4  10  21  35  51  75 108 146 187 239 288 324
#     4   9  17  31  51  77 111 146 177 218 274 328
#     4  10  20  33  48  69 105 145 185 234 274 313
#     4  10  17  26  44  70 103 144 182 212 253 315
#     4  10  21  38  59  82 111 145 184 233 283 336
#     4  10  18  29  46  73 110 147 182 214 257 325
#
# _framework density 19.054624
#
# number of rings (size 3 to 8) (size 9 to 14) (size 15 to 20)
#    0.000    2.250    0.000    6.375    0.000    6.000 
#    0.000    2.500    0.000    3.375    0.000    0.875 
#    0.000    0.000    0.000    0.000    0.000    0.000 
#
# Total GULP energy -178203.978406 kJ/mol
# GULP energy per Si atom -5568.874325 kJ/mol
# Density = 1.901125 g / cm^3
# Si number density = 19.054624 Si / 1000 Ang^3
#
#
#
# Elastic Constant Matrix: (Units=GPa)
#
#
# Indices 1 2 3 4 5 6 
#
# 1 81.4533 19.4715 42.8928 0.0000 0.0000 0.0000
# 2 19.4715 15.7214 5.7305 0.0000 0.0000 0.0000
# 3 42.8928 5.7305 79.6494 0.0000 0.0000 0.0000
# 4 0.0000 0.0000 0.0000 12.0455 0.0000 0.0000
# 5 0.0000 0.0000 0.0000 0.0000 9.0899 0.0000
# 6 0.0000 0.0000 0.0000 0.0000 0.0000 21.8081
#
#
#
# Elastic Compliance Matrix: (Units=1/GPa)
#
#
# Indices 1 2 3 4 5 6 
#
# 1 0.024499 -0.026222 -0.011307 0.000000 0.000000 0.000000
# 2 -0.026222 0.093386 0.007402 0.000000 0.000000 0.000000
# 3 -0.011307 0.007402 0.018111 0.000000 0.000000 0.000000
# 4 0.000000 0.000000 0.000000 0.083019 0.000000 0.000000
# 5 0.000000 0.000000 0.000000 0.000000 0.110012 0.000000
# 6 0.000000 0.000000 0.000000 0.000000 0.000000 0.045854
#
#
# Mechanical properties :
#
#
# Convention : Reuss Voigt Hill
#
# Bulk Modulus (GPa) = 13.20241 34.77930 23.99086
# Shear Modulus (GPa) = 10.86051 15.83732 13.34891
#
# Velocity S-wave (km/s) = 2.38999 2.88610 2.64968
# Velocity P-wave (km/s) = 3.81573 5.42201 4.68818
#
# Compressibility (1/GPa) = 0.07574375
#
# Stress axis : x y z
#
# Youngs Moduli (GPa) = 40.81721 10.70823 55.21381
#
# Poissons Ratio (x) = 0.28079 0.62429
# Poissons Ratio (y) = 1.07031 -0.40870
# Poissons Ratio (z) = 0.46151 -0.07926
#
# Static dielectric constant tensor:
#      x y z
#    x 1.692650 0.000000 0.000000 
#    y 0.000000 1.678510 0.000000 
#    z 0.000000 0.000000 1.725400 
# 
# From -- ./inp_files/12723.got.cif
#   From: 2010.05.17/outbox.cif.g08.bks.cpg/sg23_7_cif.got.tgz:12723.got - 2010.06.04 12:02:01.
