data_PCOD9329049
_publ_section_title
;
Structure prediction by ZEFSAII (Michael W. Deem and Ramdas Pophale) SiO2 
 PCOD9329049
Probable space group: F 2 2 2
;
_chemical_formula_sum "Si O2"
_cell_formula_units_Z 28
_cell_length_a 9.557422
_cell_length_b 5.073844
_cell_length_c 23.596499
_cell_angle_alpha 90.000000
_cell_angle_beta 90.000000
_cell_angle_gamma 90.000000
_cell_volume 1144.261918
_symmetry_space_group_name_H-M "F 2 2 2"
_symmetry_group_IT_number 22
_symmetry_cell_setting 'orthorhombic'
loop_
_space_group_symop_operation_xyz
x,y,z
-x,-y,z
x,-y,-z
-x,y,-z
x,1/2+y,1/2+z
-x,1/2-y,1/2+z
x,1/2-y,1/2-z
-x,1/2+y,1/2-z
1/2+x,y,1/2+z
1/2-x,-y,1/2+z
1/2+x,-y,1/2-z
1/2-x,y,1/2-z
1/2+x,1/2+y,z
1/2-x,1/2-y,z
1/2+x,1/2-y,-z
1/2-x,1/2+y,-z
loop_
_atom_site_type_symbol
_atom_site_label
_atom_site_fract_x
_atom_site_fract_y
_atom_site_fract_z
Si Si1 0.250000 0.250000 0.572130
Si Si2 0.500000 0.000000 0.000000
Si Si3 0.429193 0.750000 0.750000
Si Si4 0.250000 0.750000 0.648618
O O1 0.389377 0.329071 0.536886
O O2 0.210518 0.507069 0.608940
O O3 0.500000 0.500000 0.777533
O O4 0.352329 0.623767 0.695891
#
# Coordination Sequence:
#
# PCOD9329049 Si02
#       4
#     8   4   8   8
#     4  12  29  53  83 112 161 211 267 340 398 470
#     4  12  32  56  80 122 160 212 288 334 396 474
#     4  11  24  45  74 116 152 197 258 321 388 507
#     4  11  27  46  77 114 153 206 257 323 410 470
#
# _framework density 24.469923999999999
#
# number of rings (size 3 to 8) (size 9 to 14) (size 15 to 20)
#    0.000    0.571    0.000    5.143   12.000   12.571 
#    0.000    0.000    0.000    0.000    0.000    0.000 
#    0.000    0.000    0.000    0.000    0.000    0.000 
#
# Total GULP energy -39016.278939 kJ/mol
# GULP energy per Si atom -5573.754134 kJ/mol
# Density = 2.441423 g / cm^3
# Si number density = 24.469924 Si / 1000 Ang^3
#
#
#
# Elastic Constant Matrix: (Units=GPa)
#
#
# Indices 1 2 3 4 5 6 
#
# 1 118.5805 27.7468 74.6959 0.0000 0.0000 0.0000
# 2 27.7468 143.0493 82.4531 0.0000 0.0000 0.0000
# 3 74.6959 82.4531 180.0005 0.0000 0.0000 0.0000
# 4 0.0000 0.0000 0.0000 39.4296 0.0000 0.0000
# 5 0.0000 0.0000 0.0000 0.0000 111.2179 0.0000
# 6 0.0000 0.0000 0.0000 0.0000 0.0000 39.4615
#
#
#
# Elastic Compliance Matrix: (Units=1/GPa)
#
#
# Indices 1 2 3 4 5 6 
#
# 1 0.011470 0.000705 -0.005083 0.000000 0.000000 0.000000
# 2 0.000705 0.009542 -0.004663 0.000000 0.000000 0.000000
# 3 -0.005083 -0.004663 0.009801 0.000000 0.000000 0.000000
# 4 0.000000 0.000000 0.000000 0.025362 0.000000 0.000000
# 5 0.000000 0.000000 0.000000 0.000000 0.008991 0.000000
# 6 0.000000 0.000000 0.000000 0.000000 0.000000 0.025341
#
#
# Mechanical properties :
#
#
# Convention : Reuss Voigt Hill
#
# Bulk Modulus (GPa) = 78.55279 90.15799 84.35539
# Shear Modulus (GPa) = 44.31368 55.13744 49.72556
#
# Velocity S-wave (km/s) = 4.26014 4.75202 4.51278
# Velocity P-wave (km/s) = 7.50798 8.18738 7.85503
#
# Compressibility (1/GPa) = 0.01273029
#
# Stress axis : x y z
#
# Youngs Moduli (GPa) = 87.18588 104.80204 102.03253
#
# Poissons Ratio (x) = -0.07386 0.51858
# Poissons Ratio (y) = -0.06145 0.47581
# Poissons Ratio (z) = 0.44312 0.48872
#
# Static dielectric constant tensor:
#      x y z
#    x 2.759600 0.000000 0.000000 
#    y 0.000000 1.625710 0.000000 
#    z 0.000000 0.000000 1.851400 
# 
# From -- ./inp_files/199.got.cif
#   From: 2010.05.17/outbox.cif.g08.bks.cpg/sg22_1_cif.got.tgz:199.got - 2010.06.03 23:40:54.
