data_PCOD9329392
_publ_section_title
;
Structure prediction by ZEFSAII (Michael W. Deem and Ramdas Pophale) SiO2 
 PCOD9329392
Probable space group: I 2 2 2
;
_chemical_formula_sum "Si O2"
_cell_formula_units_Z 40
_cell_length_a 12.965561
_cell_length_b 16.718833
_cell_length_c 8.786869
_cell_angle_alpha 90.000000
_cell_angle_beta 90.000000
_cell_angle_gamma 90.000000
_cell_volume 1904.721238
_symmetry_space_group_name_H-M "I 2 2 2"
_symmetry_group_IT_number 23
_symmetry_cell_setting 'orthorhombic'
loop_
_space_group_symop_operation_xyz
x,y,z
-x,-y,z
x,-y,-z
-x,y,-z
1/2+x,1/2+y,1/2+z
1/2-x,1/2-y,1/2+z
1/2+x,1/2-y,1/2-z
1/2-x,1/2+y,1/2-z
loop_
_atom_site_type_symbol
_atom_site_label
_atom_site_fract_x
_atom_site_fract_y
_atom_site_fract_z
Si Si1 0.295105 0.358530 0.156858
Si Si2 0.500000 0.500000 0.000000
Si Si3 0.000000 0.627266 0.500000
Si Si4 0.826897 0.500000 0.000000
Si Si5 0.834886 0.258700 0.605987
Si Si6 0.000000 0.000000 0.000000
Si Si7 0.000000 0.500000 0.237537
Si Si8 0.462875 0.618261 0.240925
O O1 0.236775 0.315106 0.294625
O O2 0.240743 0.438823 0.098650
O O3 0.282508 0.301633 0.010300
O O4 0.433448 0.441581 0.895714
O O5 0.585982 0.369950 0.788273
O O6 0.096420 0.686238 0.495539
O O7 0.979215 0.572844 0.352939
O O8 0.907303 0.530041 0.870409
O O9 0.905112 0.201831 0.716159
O O10 0.942754 0.063516 0.889133
#
# Coordination Sequence:
#
# PCOD9329392 Si02
#       8
#     8   2   4   4   8   2   4   8
#     4  12  26  44  70 103 133 181 230 278 340 411
#     4  10  16  42  76  86 128 182 218 250 352 406
#     4  11  21  50  67  95 136 186 214 279 349 392
#     4  11  25  44  68 104 130 182 230 280 330 418
#     4  12  26  45  71 101 137 180 227 286 343 401
#     4  10  28  42  68  98 132 182 224 274 332 406
#     4  10  24  46  72  92 138 182 230 278 336 406
#     4  11  23  47  68  97 136 181 220 286 343 399
#
# _framework density 21.000447000000001
#
# number of rings (size 3 to 8) (size 9 to 14) (size 15 to 20)
#    0.000    0.800    6.000    0.600    8.400    0.000 
#    3.600    0.000    0.000    0.000    0.000    0.000 
#    0.000    0.000    0.000    0.000    0.000    0.000 
#
# Total GULP energy -111505.144990 kJ/mol
# GULP energy per Si atom -5575.257249 kJ/mol
# Density = 2.095265 g / cm^3
# Si number density = 21.000447 Si / 1000 Ang^3
#
#
#
# Elastic Constant Matrix: (Units=GPa)
#
#
# Indices 1 2 3 4 5 6 
#
# 1 82.2613 21.2102 10.6604 0.0000 0.0000 0.0000
# 2 21.2102 77.6908 5.0694 0.0000 0.0000 0.0000
# 3 10.6604 5.0694 81.9848 0.0000 0.0000 0.0000
# 4 0.0000 0.0000 0.0000 38.9321 0.0000 0.0000
# 5 0.0000 0.0000 0.0000 0.0000 25.2452 0.0000
# 6 0.0000 0.0000 0.0000 0.0000 0.0000 -1.5493
#
#
#
# Elastic Compliance Matrix: (Units=1/GPa)
#
#
# Indices 1 2 3 4 5 6 
#
# 1 0.013260 -0.003522 -0.001506 0.000000 0.000000 0.000000
# 2 -0.003522 0.013859 -0.000399 0.000000 0.000000 0.000000
# 3 -0.001506 -0.000399 0.012418 0.000000 0.000000 0.000000
# 4 0.000000 0.000000 0.000000 0.025686 0.000000 0.000000
# 5 0.000000 0.000000 0.000000 0.000000 0.039611 0.000000
# 6 0.000000 0.000000 0.000000 0.000000 0.000000 -0.645459
#
#
# Mechanical properties :
#
#
# Convention : Reuss Voigt Hill
#
# Bulk Modulus (GPa) = 34.86462 35.09079 34.97770
# Shear Modulus (GPa) = -9.61150 26.19207 8.29028
#
# Velocity S-wave (km/s) = -2.14167 3.53542 1.98903
# Velocity P-wave (km/s) = 3.24380 5.78026 4.68688
#
# Compressibility (1/GPa) = 0.02868237
#
# Stress axis : x y z
#
# Youngs Moduli (GPa) = 75.41692 72.15520 80.52871
#
# Poissons Ratio (x) = 0.25411 0.12131
# Poissons Ratio (y) = 0.26559 0.03213
# Poissons Ratio (z) = 0.11361 0.02879
#
# Static dielectric constant tensor:
#      x y z
#    x 1.789780 0.000000 0.000000 
#    y 0.000000 1.766280 0.000000 
#    z 0.000000 0.000000 1.774950 
# 
# From -- ./inp_files/9832.got.cif
#   From: 2010.05.17/outbox.cif.g08.bks.cpg/sg23_5_cif.got.tgz:9832.got - 2010.06.04 12:02:01.
