data_PCOD9329899
_publ_section_title
;
Structure prediction by ZEFSAII (Michael W. Deem and Ramdas Pophale) SiO2 
 PCOD9329899
Probable space group: I 2 2 2
;
_chemical_formula_sum "Si O2"
_cell_formula_units_Z 56
_cell_length_a 19.553740
_cell_length_b 7.292737
_cell_length_c 16.126901
_cell_angle_alpha 90.000000
_cell_angle_beta 90.000000
_cell_angle_gamma 90.000000
_cell_volume 2299.700650
_symmetry_space_group_name_H-M "I 2 2 2"
_symmetry_group_IT_number 23
_symmetry_cell_setting 'orthorhombic'
loop_
_space_group_symop_operation_xyz
x,y,z
-x,-y,z
x,-y,-z
-x,y,-z
1/2+x,1/2+y,1/2+z
1/2-x,1/2-y,1/2+z
1/2+x,1/2-y,1/2-z
1/2-x,1/2+y,1/2-z
loop_
_atom_site_type_symbol
_atom_site_label
_atom_site_fract_x
_atom_site_fract_y
_atom_site_fract_z
Si Si1 0.922935 0.224343 0.819933
Si Si2 0.877382 0.779776 1.000000
Si Si3 0.500000 0.780455 0.097607
Si Si4 0.147842 0.205996 0.335397
Si Si5 0.147843 0.794006 0.335397
Si Si6 0.783015 0.215136 0.500000
Si Si7 0.422935 0.724341 0.680066
O O1 0.863805 0.287336 0.756257
O O2 0.000000 0.280212 0.795747
O O3 0.921364 0.000001 0.817676
O O4 0.909759 0.283704 0.913894
O O5 0.909760 0.716297 0.913895
O O6 0.797761 0.732776 0.999999
O O7 0.884606 0.000000 0.000000
O O8 0.430681 0.700793 0.134141
O O9 0.569320 0.700794 0.134140
O O10 0.500000 0.000000 0.109882
O O11 0.500000 0.744753 0.000000
O O12 0.187744 0.292079 0.413125
O O13 0.175777 0.000001 0.324291
O O14 0.187746 0.707922 0.413124
O O15 0.136195 0.712666 0.243742
O O16 0.803857 0.000000 0.500000
#
# Coordination Sequence:
#
# PCOD9329899 Si02
#       7
#     8   8   8   8   8   8   8
#     4   9  17  32  58  85 104 131 182 233 266 309
#     4  10  21  36  55  79 108 143 181 225 272 310
#     4  11  21  31  49  82 117 140 166 217 281 324
#     4  10  19  34  57  80 104 142 185 218 257 319
#     4  10  19  34  57  80 104 142 185 218 257 319
#     4  10  22  36  52  77 109 145 184 217 258 323
#     4   9  17  32  58  85 104 131 182 233 266 309
#
# _framework density 24.350992999999999
#
# number of rings (size 3 to 8) (size 9 to 14) (size 15 to 20)
#    0.000    2.143    2.857    0.857    0.000    4.571 
#    0.000    1.429    0.000    0.857    0.000    0.000 
#    0.000    0.000    0.000    0.000    0.000    0.000 
#
# Total GULP energy -156406.079766 kJ/mol
# GULP energy per Si atom -5585.931420 kJ/mol
# Density = 2.429557 g / cm^3
# Si number density = 24.350993 Si / 1000 Ang^3
#
#
#
# Elastic Constant Matrix: (Units=GPa)
#
#
# Indices 1 2 3 4 5 6 
#
# 1 64.2922 -14.3641 31.3918 0.0000 0.0000 0.0000
# 2 -14.3641 105.0622 11.7394 0.0000 0.0000 0.0000
# 3 31.3918 11.7394 210.0784 0.0000 0.0000 0.0000
# 4 0.0000 0.0000 0.0000 -17.9896 0.0000 0.0000
# 5 0.0000 0.0000 0.0000 0.0000 22.8410 0.0000
# 6 0.0000 0.0000 0.0000 0.0000 0.0000 6.3731
#
#
#
# Elastic Compliance Matrix: (Units=1/GPa)
#
#
# Indices 1 2 3 4 5 6 
#
# 1 0.017509 0.002703 -0.002767 0.000000 0.000000 0.000000
# 2 0.002703 0.009995 -0.000962 0.000000 0.000000 0.000000
# 3 -0.002767 -0.000962 0.005227 0.000000 0.000000 0.000000
# 4 0.000000 0.000000 0.000000 -0.055588 0.000000 0.000000
# 5 0.000000 0.000000 0.000000 0.000000 0.043781 0.000000
# 6 0.000000 0.000000 0.000000 0.000000 0.000000 0.156910
#
#
# Mechanical properties :
#
#
# Convention : Reuss Voigt Hill
#
# Bulk Modulus (GPa) = 32.59640 48.55189 40.57414
# Shear Modulus (GPa) = 26.29984 25.62261 25.96123
#
# Velocity S-wave (km/s) = 3.28995 3.24731 3.26870
# Velocity P-wave (km/s) = 5.27701 5.83453 5.56276
#
# Compressibility (1/GPa) = 0.03067824
#
# Stress axis : x y z
#
# Youngs Moduli (GPa) = 57.11303 100.04725 191.29810
#
# Poissons Ratio (x) = -0.27043 0.52940
# Poissons Ratio (y) = -0.15438 0.18412
# Poissons Ratio (z) = 0.15806 0.09629
#
# Static dielectric constant tensor:
#      x y z
#    x 1.826390 0.000000 0.000000 
#    y 0.000000 1.916450 0.000000 
#    z 0.000000 0.000000 2.009320 
# 
# From -- ./inp_files/22387.got.cif
#   From: 2010.05.17/outbox.cif.g08.bks.cpg/sg23_12_cif.got.tgz:22387.got - 2010.06.04 12:02:01.
