data_PCOD9329098
_publ_section_title
;
Structure prediction by ZEFSAII (Michael W. Deem and Ramdas Pophale) SiO2 
 PCOD9329098
Probable space group: F 2 2 2
;
_chemical_formula_sum "Si O2"
_cell_formula_units_Z 56
_cell_length_a 6.634900
_cell_length_b 17.158066
_cell_length_c 22.239198
_cell_angle_alpha 90.000000
_cell_angle_beta 90.000000
_cell_angle_gamma 90.000000
_cell_volume 2531.755937
_symmetry_space_group_name_H-M "F 2 2 2"
_symmetry_group_IT_number 22
_symmetry_cell_setting 'orthorhombic'
loop_
_space_group_symop_operation_xyz
x,y,z
-x,-y,z
x,-y,-z
-x,y,-z
x,1/2+y,1/2+z
-x,1/2-y,1/2+z
x,1/2-y,1/2-z
-x,1/2+y,1/2-z
1/2+x,y,1/2+z
1/2-x,-y,1/2+z
1/2+x,-y,1/2-z
1/2-x,y,1/2-z
1/2+x,1/2+y,z
1/2-x,1/2-y,z
1/2+x,1/2-y,-z
1/2-x,1/2+y,-z
loop_
_atom_site_type_symbol
_atom_site_label
_atom_site_fract_x
_atom_site_fract_y
_atom_site_fract_z
Si Si1 0.250000 0.250000 0.146039
Si Si2 0.595004 0.900436 0.304378
Si Si3 0.781468 0.533175 0.854166
Si Si4 0.904489 0.676239 0.935060
O O1 0.379137 0.310018 0.184680
O O2 0.410938 0.202907 0.106964
O O3 0.750000 0.918640 0.250000
O O4 0.362669 0.925902 0.304373
O O5 0.669471 0.950161 0.362680
O O6 0.808150 0.598228 0.905679
O O7 0.000000 0.500000 0.836810
O O8 0.750000 0.750000 0.938348
O O9 0.000000 0.660161 0.000000
#
# Coordination Sequence:
#
# PCOD9329098 Si02
#       4
#     8  16  16  16
#     4  12  23  46  72 108 148 186 261 310 364 458
#     4  11  26  45  74 106 148 198 249 313 382 445
#     4  11  25  44  71 105 151 189 249 311 373 456
#     4  12  25  45  74 107 146 196 244 314 381 445
#
# _framework density 22.119036999999999
#
# number of rings (size 3 to 8) (size 9 to 14) (size 15 to 20)
#    0.000    0.571    7.143    0.429    4.000    0.571 
#    0.000    0.000    6.286    0.000    0.000    0.000 
#    0.000    0.000    0.000    0.000    0.000    0.000 
#
# Total GULP energy -77971.680771 kJ/mol
# GULP energy per Si atom -5569.405769 kJ/mol
# Density = 2.206869 g / cm^3
# Si number density = 22.119037 Si / 1000 Ang^3
#
#
#
# Elastic Constant Matrix: (Units=GPa)
#
#
# Indices 1 2 3 4 5 6 
#
# 1 125.8582 47.3700 57.3333 0.0000 0.0000 0.0000
# 2 47.3700 161.3014 69.7267 0.0000 0.0000 0.0000
# 3 57.3333 69.7267 96.6474 0.0000 0.0000 0.0000
# 4 0.0000 0.0000 0.0000 19.3994 0.0000 0.0000
# 5 0.0000 0.0000 0.0000 0.0000 32.8408 0.0000
# 6 0.0000 0.0000 0.0000 0.0000 0.0000 51.3092
#
#
#
# Elastic Compliance Matrix: (Units=1/GPa)
#
#
# Indices 1 2 3 4 5 6 
#
# 1 0.010926 -0.000591 -0.006055 0.000000 0.000000 0.000000
# 2 -0.000591 0.009041 -0.006172 0.000000 0.000000 0.000000
# 3 -0.006055 -0.006172 0.018392 0.000000 0.000000 0.000000
# 4 0.000000 0.000000 0.000000 0.051548 0.000000 0.000000
# 5 0.000000 0.000000 0.000000 0.000000 0.030450 0.000000
# 6 0.000000 0.000000 0.000000 0.000000 0.000000 0.019490
#
#
# Mechanical properties :
#
#
# Convention : Reuss Voigt Hill
#
# Bulk Modulus (GPa) = 78.60179 81.40746 80.00462
# Shear Modulus (GPa) = 29.45943 34.66835 32.06389
#
# Velocity S-wave (km/s) = 3.65342 3.96328 3.81150
# Velocity P-wave (km/s) = 7.30819 7.60444 7.45779
#
# Compressibility (1/GPa) = 0.01272236
#
# Stress axis : x y z
#
# Youngs Moduli (GPa) = 91.52181 110.60392 54.37197
#
# Poissons Ratio (x) = 0.06540 0.32923
# Poissons Ratio (y) = 0.05412 0.33559
# Poissons Ratio (z) = 0.55418 0.68266
#
# Static dielectric constant tensor:
#      x y z
#    x 1.925490 0.000000 0.000000 
#    y 0.000000 1.814330 0.000000 
#    z 0.000000 0.000000 1.810200 
# 
# From -- ./inp_files/46344.got.cif
#   From: 2010.05.17/outbox.cif.g08.bks.cpg/sg22_24_cif.got.tgz:46344.got - 2010.06.03 23:40:54.
