data_PCOD9329115
_publ_section_title
;
Structure prediction by ZEFSAII (Michael W. Deem and Ramdas Pophale) SiO2 
 PCOD9329115
Probable space group: F 2 2 2
;
_chemical_formula_sum "Si O2"
_cell_formula_units_Z 116
_cell_length_a 9.552882
_cell_length_b 25.077512
_cell_length_c 20.914384
_cell_angle_alpha 90.000000
_cell_angle_beta 90.000000
_cell_angle_gamma 90.000000
_cell_volume 5010.302389
_symmetry_space_group_name_H-M "F 2 2 2"
_symmetry_group_IT_number 22
_symmetry_cell_setting 'orthorhombic'
loop_
_space_group_symop_operation_xyz
x,y,z
-x,-y,z
x,-y,-z
-x,y,-z
x,1/2+y,1/2+z
-x,1/2-y,1/2+z
x,1/2-y,1/2-z
-x,1/2+y,1/2-z
1/2+x,y,1/2+z
1/2-x,-y,1/2+z
1/2+x,-y,1/2-z
1/2-x,y,1/2-z
1/2+x,1/2+y,z
1/2-x,1/2-y,z
1/2+x,1/2-y,-z
1/2-x,1/2+y,-z
loop_
_atom_site_type_symbol
_atom_site_label
_atom_site_fract_x
_atom_site_fract_y
_atom_site_fract_z
Si Si1 0.403484 0.723761 0.436905
Si Si2 0.523731 0.057441 0.377388
Si Si3 0.568830 0.349030 0.216723
Si Si4 0.367851 0.289407 0.140334
Si Si5 0.210584 0.551723 0.040835
Si Si6 0.256848 0.384491 0.420239
Si Si7 0.750000 0.250000 0.250000
Si Si8 0.446530 0.384364 0.638686
O O1 0.500000 0.716857 0.500000
O O2 0.250000 0.750000 0.447258
O O3 0.500642 0.760347 0.391273
O O4 0.392288 0.667884 0.399196
O O5 0.593299 0.103705 0.334009
O O6 0.629426 0.048144 0.435910
O O7 0.373469 0.078389 0.400854
O O8 0.500000 0.000000 0.344705
O O9 0.415611 0.328219 0.197068
O O10 0.656344 0.293811 0.213375
O O11 0.917623 0.373573 0.212988
O O12 0.250000 0.250000 0.163815
O O13 0.299735 0.324922 0.084577
O O14 0.121578 0.564734 0.103800
O O15 0.170644 0.500000 0.000000
O O16 0.195251 0.599511 0.990480
O O17 0.387613 0.388790 0.373104
#
# Coordination Sequence:
#
# PCOD9329115 Si02
#       8
#    16  16  16  16  16  16   4  16
#     4  12  28  47  74 112 160 208 262 329 392 485
#     4  11  25  51  79 117 152 207 265 339 402 491
#     4  11  28  48  81 113 165 212 276 323 408 496
#     4  11  25  47  75 116 157 214 259 322 408 479
#     4  12  26  49  80 110 147 201 263 332 404 481
#     4  11  25  46  76 112 151 198 261 325 398 479
#     4  12  24  48  74 120 152 220 270 326 396 486
#     4  12  28  50  71 114 158 204 260 328 398 477
#
# _framework density 23.152296
#
# number of rings (size 3 to 8) (size 9 to 14) (size 15 to 20)
#    0.000    0.552    2.759    3.724    9.655    3.310 
#    4.966    1.379    1.517    0.000    0.000    0.000 
#    0.000    0.000    0.000    0.000    0.000    0.000 
#
# Total GULP energy -162240.447453 kJ/mol
# GULP energy per Si atom -5594.498188 kJ/mol
# Density = 2.309960 g / cm^3
# Si number density = 23.152296 Si / 1000 Ang^3
#
#
#
# Elastic Constant Matrix: (Units=GPa)
#
#
# Indices 1 2 3 4 5 6 
#
# 1 108.9609 33.9274 24.5872 0.0000 0.0000 0.0000
# 2 33.9274 116.3837 43.5649 0.0000 0.0000 0.0000
# 3 24.5872 43.5649 125.6181 0.0000 0.0000 0.0000
# 4 0.0000 0.0000 0.0000 33.6851 0.0000 0.0000
# 5 0.0000 0.0000 0.0000 0.0000 -126.3619 0.0000
# 6 0.0000 0.0000 0.0000 0.0000 0.0000 35.7966
#
#
#
# Elastic Compliance Matrix: (Units=1/GPa)
#
#
# Indices 1 2 3 4 5 6 
#
# 1 0.010227 -0.002565 -0.001112 0.000000 0.000000 0.000000
# 2 -0.002565 0.010517 -0.003145 0.000000 0.000000 0.000000
# 3 -0.001112 -0.003145 0.009269 0.000000 0.000000 0.000000
# 4 0.000000 0.000000 0.000000 0.029687 0.000000 0.000000
# 5 0.000000 0.000000 0.000000 0.000000 -0.007914 0.000000
# 6 0.000000 0.000000 0.000000 0.000000 0.000000 0.027936
#
#
# Mechanical properties :
#
#
# Convention : Reuss Voigt Hill
#
# Bulk Modulus (GPa) = 61.09304 61.68017 61.38661
# Shear Modulus (GPa) = 50.59501 5.21618 27.90559
#
# Velocity S-wave (km/s) = 4.67980 1.50262 3.47552
# Velocity P-wave (km/s) = 7.45959 5.45063 6.53280
#
# Compressibility (1/GPa) = 0.01636848
#
# Stress axis : x y z
#
# Youngs Moduli (GPa) = 97.77785 95.08034 107.88444
#
# Poissons Ratio (x) = 0.24389 0.11999
# Poissons Ratio (y) = 0.25081 0.33934
# Poissons Ratio (z) = 0.10875 0.29907
#
# Static dielectric constant tensor:
#      x y z
#    x 1.831240 0.000000 0.000000 
#    y 0.000000 1.984370 0.000000 
#    z 0.000000 0.000000 1.821250 
# 
# From -- ./inp_files/52128.got.cif
#   From: 2010.05.17/outbox.cif.g08.bks.cpg/sg22_27_cif.got.tgz:52128.got - 2010.06.03 23:40:54.
