data_PCOD9329745
_publ_section_title
;
Structure prediction by ZEFSAII (Michael W. Deem and Ramdas Pophale) SiO2 
 PCOD9329745
Probable space group: I 2 2 2
;
_chemical_formula_sum "Si O2"
_cell_formula_units_Z 64
_cell_length_a 7.595512
_cell_length_b 24.492403
_cell_length_c 19.569431
_cell_angle_alpha 90.000000
_cell_angle_beta 90.000000
_cell_angle_gamma 90.000000
_cell_volume 3640.547059
_symmetry_space_group_name_H-M "I 2 2 2"
_symmetry_group_IT_number 23
_symmetry_cell_setting 'orthorhombic'
loop_
_space_group_symop_operation_xyz
x,y,z
-x,-y,z
x,-y,-z
-x,y,-z
1/2+x,1/2+y,1/2+z
1/2-x,1/2-y,1/2+z
1/2+x,1/2-y,1/2-z
1/2-x,1/2+y,1/2-z
loop_
_atom_site_type_symbol
_atom_site_label
_atom_site_fract_x
_atom_site_fract_y
_atom_site_fract_z
Si Si1 0.785189 0.616410 1.000000
Si Si2 0.215948 0.437563 0.142744
Si Si3 0.207656 0.262933 0.349386
Si Si4 0.296744 0.841094 0.734012
Si Si5 0.296744 0.158906 0.734012
Si Si6 0.292343 0.762933 0.849386
Si Si7 0.215948 0.562437 0.142744
Si Si8 0.210136 0.257914 1.000000
O O1 0.729922 0.585581 0.931225
O O2 0.724695 0.679241 1.000000
O O3 0.729922 0.585581 0.068774
O O4 0.000000 0.617099 0.000000
O O5 0.279688 0.395652 0.200887
O O6 0.270208 0.500000 0.152118
O O7 0.000000 0.436359 0.143153
O O8 0.290980 0.206065 0.324058
O O9 0.278806 0.311541 0.301252
O O10 0.232704 0.269913 0.429647
O O11 1.000000 0.257685 0.334804
O O12 0.500000 0.853549 0.749997
O O13 0.221193 0.811541 0.801252
O O14 0.220312 0.895652 0.700887
O O15 0.290981 0.206066 0.675941
O O16 0.267296 0.769914 0.929648
O O17 0.000000 0.259784 0.000000
#
# Coordination Sequence:
#
# PCOD9329745 Si02
#       8
#     8   8   8   8   8   8   8   8
#     4   9  15  23  38  62  90 115 143 179 207 244
#     4   9  15  24  41  65  90 117 151 185 215 250
#     4  10  19  29  44  65  91 118 148 184 225 266
#     4   9  17  30  45  65  90 118 150 185 220 260
#     4   9  17  30  45  65  90 118 150 185 220 260
#     4  10  19  29  44  65  91 118 148 184 225 266
#     4   9  15  24  41  65  90 117 151 185 215 250
#     4  11  19  30  47  65  89 119 152 185 222 267
#
# _framework density 17.579775999999999
#
# number of rings (size 3 to 8) (size 9 to 14) (size 15 to 20)
#    0.000    2.500    2.500    1.500    0.000    2.500 
#    0.000    0.000    0.000    0.750    0.000    2.625 
#    0.000    7.000    0.000    0.000    0.000    0.000 
#
# Total GULP energy -178463.755741 kJ/mol
# GULP energy per Si atom -5576.992367 kJ/mol
# Density = 1.753976 g / cm^3
# Si number density = 17.579776 Si / 1000 Ang^3
#
#
#
# Elastic Constant Matrix: (Units=GPa)
#
#
# Indices 1 2 3 4 5 6 
#
# 1 42.1993 4.2778 -5.4868 0.0000 0.0000 0.0000
# 2 4.2778 122.5199 75.8070 0.0000 0.0000 0.0000
# 3 -5.4868 75.8070 135.9703 0.0000 0.0000 0.0000
# 4 0.0000 0.0000 0.0000 23.8370 0.0000 0.0000
# 5 0.0000 0.0000 0.0000 0.0000 10.1512 0.0000
# 6 0.0000 0.0000 0.0000 0.0000 0.0000 5.6387
#
#
#
# Elastic Compliance Matrix: (Units=1/GPa)
#
#
# Indices 1 2 3 4 5 6 
#
# 1 0.024209 -0.002213 0.002211 0.000000 0.000000 0.000000
# 2 -0.002213 0.012663 -0.007149 0.000000 0.000000 0.000000
# 3 0.002211 -0.007149 0.011430 0.000000 0.000000 0.000000
# 4 0.000000 0.000000 0.000000 0.041952 0.000000 0.000000
# 5 0.000000 0.000000 0.000000 0.000000 0.098511 0.000000
# 6 0.000000 0.000000 0.000000 0.000000 0.000000 0.177346
#
#
# Mechanical properties :
#
#
# Convention : Reuss Voigt Hill
#
# Bulk Modulus (GPa) = 29.41333 49.98728 39.70031
# Shear Modulus (GPa) = 12.76343 22.99814 17.88078
#
# Velocity S-wave (km/s) = 2.69742 3.62085 3.19270
# Velocity P-wave (km/s) = 5.14481 6.78064 6.01856
#
# Compressibility (1/GPa) = 0.03399818
#
# Stress axis : x y z
#
# Youngs Moduli (GPa) = 41.30719 78.97324 87.49283
#
# Poissons Ratio (x) = 0.17478 -0.19343
# Poissons Ratio (y) = 0.09142 0.62549
# Poissons Ratio (z) = -0.09132 0.56458
#
# Static dielectric constant tensor:
#      x y z
#    x 1.674270 0.000000 0.000000 
#    y 0.000000 1.590150 0.000000 
#    z 0.000000 0.000000 1.604720 
# 
# From -- ./inp_files/12765.got.cif
#   From: 2010.05.17/outbox.cif.g08.bks.cpg/sg23_7_cif.got.tgz:12765.got - 2010.06.04 12:02:01.
