data_PCOD9329696
_publ_section_title
;
Structure prediction by ZEFSAII (Michael W. Deem and Ramdas Pophale) SiO2 
 PCOD9329696
Probable space group: I 2 2 2
;
_chemical_formula_sum "Si O2"
_cell_formula_units_Z 54
_cell_length_a 5.990376
_cell_length_b 14.717925
_cell_length_c 28.909094
_cell_angle_alpha 90.000000
_cell_angle_beta 90.000000
_cell_angle_gamma 90.000000
_cell_volume 2548.796426
_symmetry_space_group_name_H-M "I 2 2 2"
_symmetry_group_IT_number 23
_symmetry_cell_setting 'orthorhombic'
loop_
_space_group_symop_operation_xyz
x,y,z
-x,-y,z
x,-y,-z
-x,y,-z
1/2+x,1/2+y,1/2+z
1/2-x,1/2-y,1/2+z
1/2+x,1/2-y,1/2-z
1/2-x,1/2+y,1/2-z
loop_
_atom_site_type_symbol
_atom_site_label
_atom_site_fract_x
_atom_site_fract_y
_atom_site_fract_z
Si Si1 0.624407 0.095900 0.743628
Si Si2 0.845143 0.363021 0.671779
Si Si3 0.543900 0.809560 0.351658
Si Si4 0.500000 0.500000 0.707135
Si Si5 0.238958 0.833520 0.990440
Si Si6 0.721977 0.658811 0.942803
Si Si7 0.646470 0.224645 0.892385
Si Si8 0.000000 0.000000 0.500000
O O1 0.481486 0.153891 0.780655
O O2 0.604985 0.129174 0.691620
O O3 0.874070 0.075828 0.761837
O O4 0.500000 0.000000 0.745254
O O5 0.688121 0.280430 0.657264
O O6 0.691300 0.450770 0.677789
O O7 0.023817 0.360644 0.630859
O O8 0.595086 0.851310 0.402343
O O9 0.291922 0.774917 0.354010
O O10 0.222125 0.811908 0.936263
O O11 0.500000 0.867325 0.000000
O O12 0.229686 0.739441 0.020392
O O13 0.000000 0.882819 0.000000
O O14 0.514962 0.699766 0.914068
O O15 0.652071 0.567387 0.969009
#
# Coordination Sequence:
#
# PCOD9329696 Si02
#       8
#     8   8   8   4   8   8   8   2
#     4  10  24  41  60  88 129 174 220 277 341 400
#     4  10  23  37  64  92 122 171 221 283 339 406
#     4  11  23  37  62  92 127 173 233 276 326 402
#     4  10  22  45  62  88 130 170 218 279 354 410
#     4  10  18  37  60  85 129 172 215 287 331 394
#     4  10  22  36  56  86 127 179 233 277 327 389
#     4  10  20  37  58  89 125 166 227 273 329 400
#     4  12  20  38  58  84 134 196 232 278 330 396
#
# _framework density 21.18647
#
# number of rings (size 3 to 8) (size 9 to 14) (size 15 to 20)
#    0.000    1.778    3.704    0.889    4.148    5.333 
#    0.000    2.593    0.000    0.000    0.000    0.000 
#    0.000  503.111    0.000    0.000    0.000    0.000 
#
# Total GULP energy -150459.584046 kJ/mol
# GULP energy per Si atom -5572.577187 kJ/mol
# Density = 2.113825 g / cm^3
# Si number density = 21.186470 Si / 1000 Ang^3
#
#
#
# Elastic Constant Matrix: (Units=GPa)
#
#
# Indices 1 2 3 4 5 6 
#
# 1 108.6775 26.8252 36.8557 0.0000 0.0000 0.0000
# 2 26.8252 45.1035 46.8022 0.0000 0.0000 0.0000
# 3 36.8557 46.8022 125.1784 0.0000 0.0000 0.0000
# 4 0.0000 0.0000 0.0000 -107.1283 0.0000 0.0000
# 5 0.0000 0.0000 0.0000 0.0000 20.7439 0.0000
# 6 0.0000 0.0000 0.0000 0.0000 0.0000 5.3649
#
#
#
# Elastic Compliance Matrix: (Units=1/GPa)
#
#
# Indices 1 2 3 4 5 6 
#
# 1 0.010910 -0.005156 -0.001284 0.000000 0.000000 0.000000
# 2 -0.005156 0.038662 -0.012937 0.000000 0.000000 0.000000
# 3 -0.001284 -0.012937 0.013204 0.000000 0.000000 0.000000
# 4 0.000000 0.000000 0.000000 -0.009335 0.000000 0.000000
# 5 0.000000 0.000000 0.000000 0.000000 0.048207 0.000000
# 6 0.000000 0.000000 0.000000 0.000000 0.000000 0.186396
#
#
# Mechanical properties :
#
#
# Convention : Reuss Voigt Hill
#
# Bulk Modulus (GPa) = 41.63048 55.54729 48.58889
# Shear Modulus (GPa) = 14.93405 -4.97214 4.98096
#
# Velocity S-wave (km/s) = 2.65785 -1.53360 1.53496
# Velocity P-wave (km/s) = 5.39547 4.81033 5.11128
#
# Compressibility (1/GPa) = 0.02402086
#
# Stress axis : x y z
#
# Youngs Moduli (GPa) = 91.66126 25.86530 75.73609
#
# Poissons Ratio (x) = 0.13335 0.09728
# Poissons Ratio (y) = 0.47258 0.97980
# Poissons Ratio (z) = 0.11774 0.33462
#
# Static dielectric constant tensor:
#      x y z
#    x 2.214310 0.000000 0.000000 
#    y 0.000000 1.743170 0.000000 
#    z 0.000000 0.000000 1.782360 
# 
# From -- ./inp_files/29980.got.cif
#   From: 2010.05.17/outbox.cif.g08.bks.cpg/sg23_15_cif.got.tgz:29980.got - 2010.06.04 12:02:01.
