data_PCOD9329660
_publ_section_title
;
Structure prediction by ZEFSAII (Michael W. Deem and Ramdas Pophale) SiO2 
 PCOD9329660
Probable space group: I 2 2 2
;
_chemical_formula_sum "Si O2"
_cell_formula_units_Z 44
_cell_length_a 5.115002
_cell_length_b 28.698304
_cell_length_c 13.046127
_cell_angle_alpha 90.000000
_cell_angle_beta 90.000000
_cell_angle_gamma 90.000000
_cell_volume 1915.065540
_symmetry_space_group_name_H-M "I 2 2 2"
_symmetry_group_IT_number 23
_symmetry_cell_setting 'orthorhombic'
loop_
_space_group_symop_operation_xyz
x,y,z
-x,-y,z
x,-y,-z
-x,y,-z
1/2+x,1/2+y,1/2+z
1/2-x,1/2-y,1/2+z
1/2+x,1/2-y,1/2-z
1/2-x,1/2+y,1/2-z
loop_
_atom_site_type_symbol
_atom_site_label
_atom_site_fract_x
_atom_site_fract_y
_atom_site_fract_z
Si Si1 0.634472 0.297379 0.150295
Si Si2 0.371145 0.903191 0.176265
Si Si3 0.000000 0.000000 0.327730
Si Si4 0.000000 0.331697 0.500000
Si Si5 0.500000 0.000000 0.821346
Si Si6 0.370496 0.598643 0.180218
Si Si7 0.139781 0.236165 0.116282
O O1 0.631368 0.351844 0.123809
O O2 0.363497 0.275178 0.117823
O O3 0.642056 0.290366 0.273918
O O4 0.872535 0.265684 0.109518
O O5 0.583322 0.902631 0.268297
O O6 0.085608 0.900122 0.227492
O O7 0.446612 0.951952 0.121022
O O8 0.412144 0.862124 0.096691
O O9 0.954203 0.949152 0.378534
O O10 0.250411 0.999767 0.253530
O O11 0.244225 0.301216 0.537419
#
# Coordination Sequence:
#
# PCOD9329660 Si02
#       7
#     8   8   4   4   4   8   8
#     4  10  20  38  53  73 101 143 186 229 284 330
#     4  10  21  31  53  74 106 144 183 235 270 326
#     4   8  16  28  52  77 102 129 178 232 260 320
#     4  12  24  37  52  82 108 145 198 242 280 322
#     4   8  16  33  44  72 104 140 182 219 276 309
#     4  10  18  35  54  77 103 142 183 225 280 327
#     4  10  23  34  53  74 103 139 192 236 270 329
#
# _framework density 22.975715000000001
#
# number of rings (size 3 to 8) (size 9 to 14) (size 15 to 20)
#    0.000    2.182    1.818    1.091    5.091    3.273 
#    0.000    0.000    0.000    6.545    0.000    0.000 
#    0.000    0.727    0.000    5.818    0.364    5.636 
#
# Total GULP energy -122759.118826 kJ/mol
# GULP energy per Si atom -5579.959947 kJ/mol
# Density = 2.292342 g / cm^3
# Si number density = 22.975715 Si / 1000 Ang^3
#
#
#
# Elastic Constant Matrix: (Units=GPa)
#
#
# Indices 1 2 3 4 5 6 
#
# 1 128.0218 10.3182 22.5189 0.0000 0.0000 0.0000
# 2 10.3182 185.9734 38.3740 0.0000 0.0000 0.0000
# 3 22.5189 38.3740 58.4867 0.0001 0.0000 0.0000
# 4 0.0000 0.0000 0.0001 62.2547 0.0000 0.0000
# 5 0.0000 0.0000 0.0000 0.0000 15.8648 0.0000
# 6 0.0000 0.0000 0.0000 0.0000 0.0000 10.2784
#
#
#
# Elastic Compliance Matrix: (Units=1/GPa)
#
#
# Indices 1 2 3 4 5 6 
#
# 1 0.008387 0.000232 -0.003382 0.000000 0.000000 0.000000
# 2 0.000232 0.006226 -0.004174 0.000000 0.000000 0.000000
# 3 -0.003382 -0.004174 0.021139 0.000000 0.000000 0.000000
# 4 0.000000 0.000000 0.000000 0.016063 0.000000 0.000000
# 5 0.000000 0.000000 0.000000 0.000000 0.063033 0.000000
# 6 0.000000 0.000000 0.000000 0.000000 0.000000 0.097291
#
#
# Mechanical properties :
#
#
# Convention : Reuss Voigt Hill
#
# Bulk Modulus (GPa) = 47.38337 57.21158 52.29748
# Shear Modulus (GPa) = 21.38390 37.76430 29.57410
#
# Velocity S-wave (km/s) = 3.05408 4.05861 3.59163
# Velocity P-wave (km/s) = 5.75365 6.84967 6.32545
#
# Compressibility (1/GPa) = 0.02110445
#
# Stress axis : x y z
#
# Youngs Moduli (GPa) = 119.22792 160.62917 47.30653
#
# Poissons Ratio (x) = -0.03734 0.15998
# Poissons Ratio (y) = -0.02772 0.19747
# Poissons Ratio (z) = 0.40321 0.67049
#
# Static dielectric constant tensor:
#      x y z
#    x 1.803820 0.000000 0.000000 
#    y 0.000000 1.997890 0.000000 
#    z 0.000000 0.000000 1.929780 
# 
# From -- ./inp_files/2526.got.cif
#   From: 2010.05.17/outbox.cif.g08.bks.cpg/sg23_2_cif.got.tgz:2526.got - 2010.06.04 12:02:01.
