data_PCOD9329246
_publ_section_title
;
Structure prediction by ZEFSAII (Michael W. Deem and Ramdas Pophale) SiO2 
 PCOD9329246
Probable space group: F 2 2 2
;
_chemical_formula_sum "Si O2"
_cell_formula_units_Z 44
_cell_length_a 17.200521
_cell_length_b 4.799632
_cell_length_c 23.871594
_cell_angle_alpha 90.000000
_cell_angle_beta 90.000000
_cell_angle_gamma 90.000000
_cell_volume 1970.747397
_symmetry_space_group_name_H-M "F 2 2 2"
_symmetry_group_IT_number 22
_symmetry_cell_setting 'orthorhombic'
loop_
_space_group_symop_operation_xyz
x,y,z
-x,-y,z
x,-y,-z
-x,y,-z
x,1/2+y,1/2+z
-x,1/2-y,1/2+z
x,1/2-y,1/2-z
-x,1/2+y,1/2-z
1/2+x,y,1/2+z
1/2-x,-y,1/2+z
1/2+x,-y,1/2-z
1/2-x,y,1/2-z
1/2+x,1/2+y,z
1/2-x,1/2-y,z
1/2+x,1/2-y,-z
1/2-x,1/2+y,-z
loop_
_atom_site_type_symbol
_atom_site_label
_atom_site_fract_x
_atom_site_fract_y
_atom_site_fract_z
Si Si1 0.250000 0.750000 0.250000
Si Si2 0.191708 0.000000 0.000000
Si Si3 0.170529 0.895548 0.654780
Si Si4 0.909835 0.062835 0.107500
O O1 0.199036 0.554256 0.209785
O O2 0.250000 0.250000 0.987282
O O3 0.135998 0.045620 0.052961
O O4 0.250000 0.750000 0.631213
O O5 0.115164 0.630261 0.659857
O O6 0.123149 0.127147 0.619122
O O7 0.000000 0.000000 0.098461
#
# Coordination Sequence:
#
# PCOD9329246 Si02
#       4
#     4   8  16  16
#     4  12  26  44  82  96 134 184 252 304 330 418
#     4  12  25  42  73 108 136 190 242 276 337 436
#     4  12  24  45  75 101 133 192 242 292 344 420
#     4  12  26  45  70 107 153 183 224 298 366 420
#
# _framework density 22.326554000000002
#
# number of rings (size 3 to 8) (size 9 to 14) (size 15 to 20)
#    0.000    0.000    3.636    7.636    0.000    0.000 
#    0.000    9.091    0.000    0.000    0.000    0.000 
#    0.000    0.000    0.000    0.000    0.000    0.000 
#
# Total GULP energy -61437.295401 kJ/mol
# GULP energy per Si atom -5585.208673 kJ/mol
# Density = 2.227574 g / cm^3
# Si number density = 22.326554 Si / 1000 Ang^3
#
#
#
# Elastic Constant Matrix: (Units=GPa)
#
#
# Indices 1 2 3 4 5 6 
#
# 1 215.7091 70.5245 61.6472 0.0000 -0.0001 0.0000
# 2 70.5245 151.5390 28.6683 0.0001 0.0001 0.0039
# 3 61.6472 28.6683 72.6972 0.0003 0.0000 -0.0014
# 4 0.0000 0.0001 0.0003 26.4941 -0.0002 0.0000
# 5 -0.0001 0.0001 0.0000 -0.0002 30.7425 0.0001
# 6 0.0000 0.0039 -0.0014 0.0000 0.0001 35.6921
#
#
#
# Elastic Compliance Matrix: (Units=1/GPa)
#
#
# Indices 1 2 3 4 5 6 
#
# 1 0.006748 -0.002224 -0.004845 0.000000 0.000000 0.000000
# 2 -0.002224 0.007864 -0.001215 0.000000 0.000000 -0.000001
# 3 -0.004845 -0.001215 0.018344 0.000000 0.000000 0.000001
# 4 0.000000 0.000000 0.000000 0.037744 0.000000 0.000000
# 5 0.000000 0.000000 0.000000 0.000000 0.032528 0.000000
# 6 0.000000 -0.000001 0.000001 0.000000 0.000000 0.028017
#
#
# Mechanical properties :
#
#
# Convention : Reuss Voigt Hill
#
# Bulk Modulus (GPa) = 61.02519 84.62503 72.82511
# Shear Modulus (GPa) = 32.62108 37.19277 34.90693
#
# Velocity S-wave (km/s) = 3.82657 4.08591 3.95837
# Velocity P-wave (km/s) = 6.84951 7.76178 7.31987
#
# Compressibility (1/GPa) = 0.01638668
#
# Stress axis : x y z
#
# Youngs Moduli (GPa) = 148.20252 127.16570 54.51500
#
# Poissons Ratio (x) = 0.28277 0.26413
# Poissons Ratio (y) = 0.32955 0.06626
# Poissons Ratio (z) = 0.71804 0.15456
#
# Static dielectric constant tensor:
#      x y z
#    x 1.848140 0.000000 0.000000 
#    y 0.000000 1.760670 0.000000 
#    z 0.000000 0.000000 1.835080 
# 
# From -- ./inp_files/1565.got.cif
#   From: 2010.05.17/outbox.cif.g08.bks.cpg/sg22_1_cif.got.tgz:1565.got - 2010.06.03 23:40:54.
