data_PCOD9329221
_publ_section_title
;
Structure prediction by ZEFSAII (Michael W. Deem and Ramdas Pophale) SiO2 
 PCOD9329221
Probable space group: F 2 2 2
;
_chemical_formula_sum "Si O2"
_cell_formula_units_Z 44
_cell_length_a 4.849151
_cell_length_b 25.212171
_cell_length_c 15.122115
_cell_angle_alpha 90.000000
_cell_angle_beta 90.000000
_cell_angle_gamma 90.000000
_cell_volume 1848.793853
_symmetry_space_group_name_H-M "F 2 2 2"
_symmetry_group_IT_number 22
_symmetry_cell_setting 'orthorhombic'
loop_
_space_group_symop_operation_xyz
x,y,z
-x,-y,z
x,-y,-z
-x,y,-z
x,1/2+y,1/2+z
-x,1/2-y,1/2+z
x,1/2-y,1/2-z
-x,1/2+y,1/2-z
1/2+x,y,1/2+z
1/2-x,-y,1/2+z
1/2+x,-y,1/2-z
1/2-x,y,1/2-z
1/2+x,1/2+y,z
1/2-x,1/2-y,z
1/2+x,1/2-y,-z
1/2-x,1/2+y,-z
loop_
_atom_site_type_symbol
_atom_site_label
_atom_site_fract_x
_atom_site_fract_y
_atom_site_fract_z
Si Si1 0.750000 0.535494 0.750000
Si Si2 0.854685 0.833867 0.343618
Si Si3 0.250000 0.250000 0.750000
Si Si4 0.872337 0.611645 0.589238
O O1 0.500000 0.500000 0.714363
O O2 0.875462 0.570411 0.670363
O O3 0.750000 0.857267 0.250000
O O4 0.566262 0.835981 0.394930
O O5 0.040466 0.784757 0.310129
O O6 0.059909 0.868528 0.402356
O O7 0.000000 0.588015 0.500000
#
# Coordination Sequence:
#
# PCOD9329221 Si02
#       4
#     8  16   4  16
#     4  12  25  46  80 105 142 191 250 310 385 458
#     4  12  22  44  75 100 142 200 244 298 365 440
#     4  12  24  40  82 100 146 194 254 296 372 428
#     4  12  26  47  74 105 149 196 245 304 381 453
#
# _framework density 23.799299999999999
#
# number of rings (size 3 to 8) (size 9 to 14) (size 15 to 20)
#    0.000    0.000    7.273    3.818    0.000    0.727 
#    0.000    5.455    0.000    0.000    0.000    0.000 
#    0.000    0.000    0.000    0.000    0.000    0.000 
#
# Total GULP energy -61271.343923 kJ/mol
# GULP energy per Si atom -5570.122175 kJ/mol
# Density = 2.374513 g / cm^3
# Si number density = 23.799300 Si / 1000 Ang^3
#
#
#
# Elastic Constant Matrix: (Units=GPa)
#
#
# Indices 1 2 3 4 5 6 
#
# 1 179.8514 46.2998 48.2925 0.0000 0.0000 0.0000
# 2 46.2998 86.7667 48.5144 0.0000 0.0000 0.0000
# 3 48.2925 48.5144 178.5761 0.0000 0.0000 0.0000
# 4 0.0000 0.0000 0.0000 38.6064 0.0000 0.0000
# 5 0.0000 0.0000 0.0000 0.0000 50.4278 0.0000
# 6 0.0000 0.0000 0.0000 0.0000 0.0000 343.3841
#
#
#
# Elastic Compliance Matrix: (Units=1/GPa)
#
#
# Indices 1 2 3 4 5 6 
#
# 1 0.006586 -0.002970 -0.000974 0.000000 0.000000 0.000000
# 2 -0.002970 0.014928 -0.003253 0.000000 0.000000 0.000000
# 3 -0.000974 -0.003253 0.006747 0.000000 0.000000 0.000000
# 4 0.000000 0.000000 0.000000 0.025902 0.000000 0.000000
# 5 0.000000 0.000000 0.000000 0.000000 0.019830 0.000000
# 6 0.000000 0.000000 0.000000 0.000000 0.000000 0.002912
#
#
# Mechanical properties :
#
#
# Convention : Reuss Voigt Hill
#
# Bulk Modulus (GPa) = 72.10603 81.26750 76.68676
# Shear Modulus (GPa) = 52.12526 106.62282 79.37404
#
# Velocity S-wave (km/s) = 4.68504 6.70060 5.78133
# Velocity P-wave (km/s) = 7.72201 9.69976 8.76683
#
# Compressibility (1/GPa) = 0.01386847
#
# Stress axis : x y z
#
# Youngs Moduli (GPa) = 151.83091 66.98607 148.21451
#
# Poissons Ratio (x) = 0.19893 0.14441
# Poissons Ratio (y) = 0.45090 0.48208
# Poissons Ratio (z) = 0.14793 0.21788
#
# Static dielectric constant tensor:
#      x y z
#    x 1.857760 0.000000 0.000000 
#    y 0.000000 1.957630 0.000000 
#    z 0.000000 0.000000 1.914530 
# 
# From -- ./inp_files/26003.got.cif
#   From: 2010.05.17/outbox.cif.g08.bks.cpg/sg22_14_cif.got.tgz:26003.got - 2010.06.03 23:40:54.
