data_PCOD9329748
_publ_section_title
;
Structure prediction by ZEFSAII (Michael W. Deem and Ramdas Pophale) SiO2 
 PCOD9329748
Probable space group: I 2 2 2
;
_chemical_formula_sum "Si O2"
_cell_formula_units_Z 52
_cell_length_a 28.700403
_cell_length_b 5.315707
_cell_length_c 22.081915
_cell_angle_alpha 90.000000
_cell_angle_beta 90.000000
_cell_angle_gamma 90.000000
_cell_volume 3368.881722
_symmetry_space_group_name_H-M "I 2 2 2"
_symmetry_group_IT_number 23
_symmetry_cell_setting 'orthorhombic'
loop_
_space_group_symop_operation_xyz
x,y,z
-x,-y,z
x,-y,-z
-x,y,-z
1/2+x,1/2+y,1/2+z
1/2-x,1/2-y,1/2+z
1/2+x,1/2-y,1/2-z
1/2-x,1/2+y,1/2-z
loop_
_atom_site_type_symbol
_atom_site_label
_atom_site_fract_x
_atom_site_fract_y
_atom_site_fract_z
Si Si1 0.054353 0.491350 0.883171
Si Si2 0.713692 0.653211 0.666510
Si Si3 0.554178 0.508257 0.696546
Si Si4 0.353651 0.440682 0.241122
Si Si5 0.709538 0.249474 0.473391
Si Si6 0.695738 0.928331 0.784435
Si Si7 0.880904 0.500000 0.000000
O O1 0.062468 0.730486 0.839286
O O2 0.087580 0.502815 0.940798
O O3 0.000000 0.500000 0.902092
O O4 0.061455 0.230851 0.847502
O O5 0.707352 0.746019 0.598868
O O6 0.716307 0.877110 0.716464
O O7 0.670682 0.489734 0.692796
O O8 0.760855 0.494318 0.673566
O O9 0.500000 0.500000 0.715672
O O10 0.591776 0.478944 0.749469
O O11 0.330932 0.668026 0.202501
O O12 0.338175 0.167607 0.218972
O O13 0.731242 0.500000 0.500000
O O14 0.656516 0.225793 0.498497
O O15 0.733150 0.000000 0.500000
#
# Coordination Sequence:
#
# PCOD9329748 Si02
#       7
#     8   8   8   8   8   8   4
#     4  10  21  33  46  60  83 120 162 204 245 276
#     4  10  20  35  49  70 100 109 166 198 247 291
#     4  10  21  34  48  66  90 122 153 202 251 286
#     4  10  19  29  50  71  88 116 155 198 247 281
#     4  10  25  32  46  68  92 127 152 189 253 290
#     4  10  20  30  53  73  85 122 146 213 244 272
#     4  10  23  32  46  64  84 122 162 200 249 272
#
# _framework density 15.43539
#
# number of rings (size 3 to 8) (size 9 to 14) (size 15 to 20)
#    1.385    0.615    1.538    2.077    8.615    0.000 
#    0.000    2.308    0.000    0.000    0.000    0.000 
#    0.000    0.000    0.000    0.000    0.000   11.538 
#
# Total GULP energy -144748.770521 kJ/mol
# GULP energy per Si atom -5567.260405 kJ/mol
# Density = 1.540026 g / cm^3
# Si number density = 15.435390 Si / 1000 Ang^3
#
#
#
# Elastic Constant Matrix: (Units=GPa)
#
#
# Indices 1 2 3 4 5 6 
#
# 1 60.5369 10.1714 -5.5467 0.0000 0.0000 0.0000
# 2 10.1714 92.8455 -1.2897 0.0000 0.0000 0.0000
# 3 -5.5467 -1.2897 7.9122 0.0000 0.0000 0.0000
# 4 0.0000 0.0000 0.0000 13.5428 0.0000 0.0000
# 5 0.0000 0.0000 0.0000 0.0000 13.1069 0.0000
# 6 0.0000 0.0000 0.0000 0.0000 0.0000 12.0989
#
#
#
# Elastic Compliance Matrix: (Units=1/GPa)
#
#
# Indices 1 2 3 4 5 6 
#
# 1 0.017946 -0.001795 0.012288 0.000000 0.000000 0.000000
# 2 -0.001795 0.010975 0.000530 0.000000 0.000000 0.000000
# 3 0.012288 0.000530 0.135088 0.000000 0.000000 0.000000
# 4 0.000000 0.000000 0.000000 0.073840 0.000000 0.000000
# 5 0.000000 0.000000 0.000000 0.000000 0.076296 0.000000
# 6 0.000000 0.000000 0.000000 0.000000 0.000000 0.082652
#
#
# Mechanical properties :
#
#
# Convention : Reuss Voigt Hill
#
# Bulk Modulus (GPa) = 5.37475 18.66274 12.01874
# Shear Modulus (GPa) = 11.44772 18.28037 14.86404
#
# Velocity S-wave (km/s) = 2.72629 3.44512 3.10657
# Velocity P-wave (km/s) = 3.66058 5.28605 4.54654
#
# Compressibility (1/GPa) = 0.18605521
#
# Stress axis : x y z
#
# Youngs Moduli (GPa) = 55.72136 91.11926 7.40260
#
# Poissons Ratio (x) = 0.16359 -0.09097
# Poissons Ratio (y) = 0.10004 -0.00393
# Poissons Ratio (z) = -0.68472 -0.04832
#
# Static dielectric constant tensor:
#      x y z
#    x 1.532330 0.000000 0.000000 
#    y 0.000000 1.565830 0.000000 
#    z 0.000000 0.000000 1.482180 
# 
# From -- ./inp_files/27429.got.cif
#   From: 2010.05.17/outbox.cif.g08.bks.cpg/sg23_14_cif.got.tgz:27429.got - 2010.06.04 12:02:01.
