data_PCOD9329687
_publ_section_title
;
Structure prediction by ZEFSAII (Michael W. Deem and Ramdas Pophale) SiO2 
 PCOD9329687
Probable space group: I 2 2 2
;
_chemical_formula_sum "Si O2"
_cell_formula_units_Z 60
_cell_length_a 12.239004
_cell_length_b 22.474295
_cell_length_c 11.332364
_cell_angle_alpha 90.000000
_cell_angle_beta 90.000000
_cell_angle_gamma 90.000000
_cell_volume 3117.113885
_symmetry_space_group_name_H-M "I 2 2 2"
_symmetry_group_IT_number 23
_symmetry_cell_setting 'orthorhombic'
loop_
_space_group_symop_operation_xyz
x,y,z
-x,-y,z
x,-y,-z
-x,y,-z
1/2+x,1/2+y,1/2+z
1/2-x,1/2-y,1/2+z
1/2+x,1/2-y,1/2-z
1/2-x,1/2+y,1/2-z
loop_
_atom_site_type_symbol
_atom_site_label
_atom_site_fract_x
_atom_site_fract_y
_atom_site_fract_z
Si Si1 0.098193 0.755330 0.591390
Si Si2 0.454383 0.144191 0.755350
Si Si3 0.143457 0.858285 0.762991
Si Si4 0.844343 0.426825 0.359593
Si Si5 0.170409 0.788549 0.007108
Si Si6 0.707396 0.939776 0.865547
Si Si7 0.000000 0.315865 0.000000
Si Si8 0.438494 0.596881 0.620477
O O1 0.055788 0.710536 0.692986
O O2 0.136343 0.817066 0.649132
O O3 0.203421 0.724236 0.532674
O O4 0.000000 0.763523 0.500000
O O5 0.546514 0.108516 0.828143
O O6 0.342203 0.109825 0.781015
O O7 0.482195 0.146893 0.618169
O O8 0.247711 0.900403 0.779014
O O9 0.153486 0.814199 0.876090
O O10 0.031148 0.894132 0.782502
O O11 0.850990 0.497569 0.342997
O O12 0.813686 0.420487 0.498254
O O13 0.102408 0.728178 0.019548
O O14 0.118050 0.838961 0.091885
O O15 0.837586 0.945706 0.851793
O O16 0.500000 0.578722 0.500000
#
# Coordination Sequence:
#
# PCOD9329687 Si02
#       8
#     8   8   8   8   8   8   4   8
#     4  12  24  36  64  91 127 165 203 252 325 375
#     4  12  23  41  61  92 127 165 210 260 310 385
#     4  11  21  38  57  89 129 156 201 257 306 376
#     4  11  23  40  62  92 126 161 210 265 316 368
#     4  11  19  38  56  89 122 161 198 255 303 378
#     4  11  22  39  65  93 120 166 210 265 323 357
#     4  12  24  40  65  88 129 176 206 250 328 372
#     4  10  18  36  60  85 124 152 200 254 309 369
#
# _framework density 19.248576
#
# number of rings (size 3 to 8) (size 9 to 14) (size 15 to 20)
#    0.000    0.800    7.333    3.200    0.000    3.733 
#    0.000    1.333    0.000    0.000    0.000    0.933 
#    0.000    0.000    0.000    0.000    0.000    0.000 
#
# Total GULP energy -167710.106985 kJ/mol
# GULP energy per Si atom -5590.336899 kJ/mol
# Density = 1.920477 g / cm^3
# Si number density = 19.248576 Si / 1000 Ang^3
#
#
#
# Elastic Constant Matrix: (Units=GPa)
#
#
# Indices 1 2 3 4 5 6 
#
# 1 102.1462 5.1690 12.2732 0.0000 0.0000 0.0000
# 2 5.1690 57.4269 16.6003 0.0001 0.0000 0.0000
# 3 12.2732 16.6003 61.0627 0.0001 0.0000 0.0000
# 4 0.0000 0.0001 0.0001 20.7434 0.0000 0.0000
# 5 0.0000 0.0000 0.0000 0.0000 17.5863 0.0000
# 6 0.0000 0.0000 0.0000 0.0000 0.0000 25.5941
#
#
#
# Elastic Compliance Matrix: (Units=1/GPa)
#
#
# Indices 1 2 3 4 5 6 
#
# 1 0.010039 -0.000348 -0.001923 0.000000 0.000000 0.000000
# 2 -0.000348 0.018911 -0.005071 0.000000 0.000000 0.000000
# 3 -0.001923 -0.005071 0.018142 0.000000 0.000000 0.000000
# 4 0.000000 0.000000 0.000000 0.048208 0.000000 0.000000
# 5 0.000000 0.000000 0.000000 0.000000 0.056863 0.000000
# 6 0.000000 0.000000 0.000000 0.000000 0.000000 0.039071
#
#
# Mechanical properties :
#
#
# Convention : Reuss Voigt Hill
#
# Bulk Modulus (GPa) = 30.85742 32.08008 31.46875
# Shear Modulus (GPa) = 23.07131 25.22430 24.14780
#
# Velocity S-wave (km/s) = 3.46583 3.62394 3.54577
# Velocity P-wave (km/s) = 5.66408 5.84919 5.75738
#
# Compressibility (1/GPa) = 0.03240711
#
# Stress axis : x y z
#
# Youngs Moduli (GPa) = 99.61594 52.88024 55.12141
#
# Poissons Ratio (x) = 0.01838 0.10601
# Poissons Ratio (y) = 0.03463 0.27953
# Poissons Ratio (z) = 0.19158 0.26816
#
# Static dielectric constant tensor:
#      x y z
#    x 1.692770 0.000000 0.000000 
#    y 0.000000 1.679340 0.000000 
#    z 0.000000 0.000000 1.638030 
# 
# From -- ./inp_files/15986.got.cif
#   From: 2010.05.17/outbox.cif.g08.bks.cpg/sg23_8_cif.got.tgz:15986.got - 2010.06.04 12:02:01.
