data_PCOD9329921
_publ_section_title
;
Structure prediction by ZEFSAII (Michael W. Deem and Ramdas Pophale) SiO2 
 PCOD9329921
Probable space group: I 2 2 2
;
_chemical_formula_sum "Si O2"
_cell_formula_units_Z 52
_cell_length_a 8.135386
_cell_length_b 19.304148
_cell_length_c 14.158678
_cell_angle_alpha 90.000000
_cell_angle_beta 90.000000
_cell_angle_gamma 90.000000
_cell_volume 2223.573591
_symmetry_space_group_name_H-M "I 2 2 2"
_symmetry_group_IT_number 23
_symmetry_cell_setting 'orthorhombic'
loop_
_space_group_symop_operation_xyz
x,y,z
-x,-y,z
x,-y,-z
-x,y,-z
1/2+x,1/2+y,1/2+z
1/2-x,1/2-y,1/2+z
1/2+x,1/2-y,1/2-z
1/2-x,1/2+y,1/2-z
loop_
_atom_site_type_symbol
_atom_site_label
_atom_site_fract_x
_atom_site_fract_y
_atom_site_fract_z
Si Si1 0.165228 0.371761 0.383262
Si Si2 0.887832 0.714377 0.717371
Si Si3 0.500000 0.000000 0.812247
Si Si4 0.694575 0.378846 0.975742
Si Si5 0.408093 0.620543 0.775575
Si Si6 0.775970 0.588625 0.826998
Si Si7 0.185171 0.778888 0.962567
O O1 0.059870 0.440114 0.381066
O O2 0.324323 0.394912 0.323274
O O3 0.212282 0.334786 0.478685
O O4 0.055679 0.316107 0.325798
O O5 0.913967 0.795783 0.726344
O O6 0.847408 0.666197 0.806471
O O7 0.733836 0.706024 0.645519
O O8 0.371948 0.963557 0.740479
O O9 0.704938 0.400653 0.866069
O O10 0.753995 0.299393 0.980535
O O11 0.500000 0.379213 0.000000
O O12 0.780514 0.421075 0.059914
O O13 0.586189 0.589555 0.794671
O O14 0.000000 0.784194 0.000000
#
# Coordination Sequence:
#
# PCOD9329921 Si02
#       7
#     8   8   4   8   8   8   8
#     4  11  22  40  58  81 120 159 194 239 287 343
#     4  10  20  35  59  93 122 151 184 234 306 362
#     4  10  26  42  58  78 112 168 210 236 280 338
#     4   9  19  36  61  93 123 149 182 236 304 361
#     4  10  19  34  63  93 117 148 190 243 303 355
#     4  10  20  39  59  84 122 158 196 239 284 347
#     4  11  21  34  60  95 121 145 185 241 303 361
#
# _framework density 23.385777999999998
#
# number of rings (size 3 to 8) (size 9 to 14) (size 15 to 20)
#    0.000    1.846    0.000    6.000    0.000    6.769 
#    0.000    7.692    0.000    6.462    0.000    0.000 
#    0.000    0.000    0.000    0.000    0.000    0.000 
#
# Total GULP energy -145440.673120 kJ/mol
# GULP energy per Si atom -5593.872043 kJ/mol
# Density = 2.333255 g / cm^3
# Si number density = 23.385778 Si / 1000 Ang^3
#
#
#
# Elastic Constant Matrix: (Units=GPa)
#
#
# Indices 1 2 3 4 5 6 
#
# 1 69.2703 18.1610 22.0454 0.0000 0.0000 0.0000
# 2 18.1610 43.2523 10.6129 0.0000 0.0000 0.0000
# 3 22.0454 10.6129 85.0235 0.0001 0.0000 0.0000
# 4 0.0000 0.0000 0.0001 15.4187 0.0000 0.0000
# 5 0.0000 0.0000 0.0000 0.0000 18.4485 0.0000
# 6 0.0000 0.0000 0.0000 0.0000 0.0000 7.1257
#
#
#
# Elastic Compliance Matrix: (Units=1/GPa)
#
#
# Indices 1 2 3 4 5 6 
#
# 1 0.017274 -0.006348 -0.003686 0.000000 0.000000 0.000000
# 2 -0.006348 0.026184 -0.001622 0.000000 0.000000 0.000000
# 3 -0.003686 -0.001622 0.012920 0.000000 0.000000 0.000000
# 4 0.000000 0.000000 0.000000 0.064856 0.000000 0.000000
# 5 0.000000 0.000000 0.000000 0.000000 0.054205 0.000000
# 6 0.000000 0.000000 0.000000 0.000000 0.000000 0.140337
#
#
# Mechanical properties :
#
#
# Convention : Reuss Voigt Hill
#
# Bulk Modulus (GPa) = 30.24518 33.24274 31.74396
# Shear Modulus (GPa) = 14.28118 17.98038 16.13078
#
# Velocity S-wave (km/s) = 2.47387 2.77584 2.62919
# Velocity P-wave (km/s) = 4.59579 4.95172 4.77707
#
# Compressibility (1/GPa) = 0.03306312
#
# Stress axis : x y z
#
# Youngs Moduli (GPa) = 57.89103 38.19147 77.40068
#
# Poissons Ratio (x) = 0.24246 0.28533
# Poissons Ratio (y) = 0.36752 0.12556
# Poissons Ratio (z) = 0.21341 0.06196
#
# Static dielectric constant tensor:
#      x y z
#    x 1.911170 0.000000 0.000000 
#    y 0.000000 1.846630 0.000000 
#    z 0.000000 0.000000 1.895180 
# 
# From -- ./inp_files/20164.got.cif
#   From: 2010.05.17/outbox.cif.g08.bks.cpg/sg23_11_cif.got.tgz:20164.got - 2010.06.04 12:02:01.
