data_PCOD9329910
_publ_section_title
;
Structure prediction by ZEFSAII (Michael W. Deem and Ramdas Pophale) SiO2 
 PCOD9329910
Probable space group: I 2 2 2
;
_chemical_formula_sum "Si O2"
_cell_formula_units_Z 52
_cell_length_a 10.404686
_cell_length_b 25.608619
_cell_length_c 9.320202
_cell_angle_alpha 90.000000
_cell_angle_beta 90.000000
_cell_angle_gamma 90.000000
_cell_volume 2483.364464
_symmetry_space_group_name_H-M "I 2 2 2"
_symmetry_group_IT_number 23
_symmetry_cell_setting 'orthorhombic'
loop_
_space_group_symop_operation_xyz
x,y,z
-x,-y,z
x,-y,-z
-x,y,-z
1/2+x,1/2+y,1/2+z
1/2-x,1/2-y,1/2+z
1/2+x,1/2-y,1/2-z
1/2-x,1/2+y,1/2-z
loop_
_atom_site_type_symbol
_atom_site_label
_atom_site_fract_x
_atom_site_fract_y
_atom_site_fract_z
Si Si1 0.824499 0.848779 0.434460
Si Si2 0.575880 0.216488 0.638014
Si Si3 0.869210 0.477049 0.663747
Si Si4 0.500000 0.607032 0.500000
Si Si5 0.780954 0.067825 0.789798
Si Si6 0.505432 0.128092 0.840099
Si Si7 0.571723 0.676567 0.231079
O O1 0.694030 0.817879 0.414238
O O2 0.824264 0.904541 0.356144
O O3 0.853705 0.850957 0.601985
O O4 0.930783 0.817742 0.341069
O O5 0.500000 0.236838 0.500000
O O6 0.493713 0.174849 0.729027
O O7 0.619512 0.265715 0.731389
O O8 0.866750 0.500000 0.500000
O O9 0.749774 0.506816 0.730841
O O10 0.000000 0.500000 0.731851
O O11 0.893903 0.415762 0.669436
O O12 0.385954 0.576484 0.415641
O O13 0.562282 0.642632 0.375012
O O14 0.644701 0.098238 0.824604
O O15 0.500000 0.150029 0.000000
#
# Coordination Sequence:
#
# PCOD9329910 Si02
#       7
#     8   8   8   4   8   8   8
#     4   9  22  38  55  84 121 169 205 253 319 385
#     4  11  24  36  55  92 127 160 214 264 313 388
#     4   9  14  31  58  85 112 151 201 261 312 367
#     4  10  20  36  59  90 118 160 211 260 294 384
#     4   9  18  34  58  87 118 155 209 259 316 372
#     4  10  19  34  59  88 118 160 208 256 322 374
#     4  10  21  40  59  80 127 171 207 253 313 373
#
# _framework density 20.939333000000001
#
# number of rings (size 3 to 8) (size 9 to 14) (size 15 to 20)
#    0.000    2.308    3.846    0.000    4.308    2.462 
#    0.000    0.385    0.000   13.385    0.000    0.000 
#    0.000    0.000    0.000    0.000    0.000    0.000 
#
# Total GULP energy -144936.769725 kJ/mol
# GULP energy per Si atom -5574.491143 kJ/mol
# Density = 2.089167 g / cm^3
# Si number density = 20.939333 Si / 1000 Ang^3
#
#
#
# Elastic Constant Matrix: (Units=GPa)
#
#
# Indices 1 2 3 4 5 6 
#
# 1 48.7430 33.9820 34.0094 -0.0001 0.0000 0.0000
# 2 33.9820 77.2474 54.7582 0.0002 0.0000 0.0000
# 3 34.0094 54.7582 136.9078 0.0004 -0.0003 0.0000
# 4 -0.0001 0.0002 0.0004 12.9482 0.0001 -0.0001
# 5 0.0000 0.0000 -0.0003 0.0001 18.0574 0.0000
# 6 0.0000 0.0000 0.0000 -0.0001 0.0000 25.2459
#
#
#
# Elastic Compliance Matrix: (Units=1/GPa)
#
#
# Indices 1 2 3 4 5 6 
#
# 1 0.030497 -0.011229 -0.003084 0.000000 0.000000 0.000000
# 2 -0.011229 0.022203 -0.006091 0.000000 0.000000 0.000000
# 3 -0.003084 -0.006091 0.010507 0.000000 0.000000 0.000000
# 4 0.000000 0.000000 0.000000 0.077231 0.000000 0.000000
# 5 0.000000 0.000000 0.000000 0.000000 0.055379 0.000000
# 6 0.000000 0.000000 0.000000 0.000000 0.000000 0.039610
#
#
# Mechanical properties :
#
#
# Convention : Reuss Voigt Hill
#
# Bulk Modulus (GPa) = 44.64920 56.48861 50.56891
# Shear Modulus (GPa) = 17.62420 20.59355 19.10888
#
# Velocity S-wave (km/s) = 2.90432 3.13946 3.02418
# Velocity P-wave (km/s) = 5.71106 6.33857 6.03298
#
# Compressibility (1/GPa) = 0.02239682
#
# Stress axis : x y z
#
# Youngs Moduli (GPa) = 32.79060 45.03901 95.17907
#
# Poissons Ratio (x) = 0.50576 0.29356
# Poissons Ratio (y) = 0.36822 0.57973
# Poissons Ratio (z) = 0.10114 0.27433
#
# Static dielectric constant tensor:
#      x y z
#    x 1.819440 0.000000 0.000000 
#    y 0.000000 1.748860 0.000000 
#    z 0.000000 0.000000 1.753440 
# 
# From -- ./inp_files/8810.got.cif
#   From: 2010.05.17/outbox.cif.g08.bks.cpg/sg23_5_cif.got.tgz:8810.got - 2010.06.04 12:02:01.
