data_PCOD9329599
_publ_section_title
;
Structure prediction by ZEFSAII (Michael W. Deem and Ramdas Pophale) SiO2 
 PCOD9329599
Probable space group: I 2 2 2
;
_chemical_formula_sum "Si O2"
_cell_formula_units_Z 26
_cell_length_a 15.022643
_cell_length_b 14.350712
_cell_length_c 5.129284
_cell_angle_alpha 90.000000
_cell_angle_beta 90.000000
_cell_angle_gamma 90.000000
_cell_volume 1105.799888
_symmetry_space_group_name_H-M "I 2 2 2"
_symmetry_group_IT_number 23
_symmetry_cell_setting 'orthorhombic'
loop_
_space_group_symop_operation_xyz
x,y,z
-x,-y,z
x,-y,-z
-x,y,-z
1/2+x,1/2+y,1/2+z
1/2-x,1/2-y,1/2+z
1/2+x,1/2-y,1/2-z
1/2-x,1/2+y,1/2-z
loop_
_atom_site_type_symbol
_atom_site_label
_atom_site_fract_x
_atom_site_fract_y
_atom_site_fract_z
Si Si1 0.500000 0.000000 0.000000
Si Si2 0.247034 0.183893 0.652478
Si Si3 0.584805 0.862768 0.343981
Si Si4 0.557343 0.358001 0.747252
O O1 0.425183 0.075313 0.094061
O O2 0.226293 0.259131 0.416131
O O3 0.328757 0.130390 0.521911
O O4 0.161744 0.119613 0.717463
O O5 0.500000 0.898645 0.500000
O O6 0.567181 0.754352 0.283843
O O7 0.500000 0.390693 0.500000
O O8 0.500000 0.380475 0.000000
#
# Coordination Sequence:
#
# PCOD9329599 Si02
#       4
#     2   8   8   8
#     4  12  22  36  52  78 124 182 198 222 282 364
#     4  10  20  33  56  81 111 158 200 246 298 349
#     4  10  21  34  51  77 118 162 202 232 286 355
#     4  10  18  33  53  80 110 149 190 248 297 341
#
# _framework density 23.512392999999999
#
# number of rings (size 3 to 8) (size 9 to 14) (size 15 to 20)
#    0.000    1.846    1.538    6.000    4.308    0.000 
#    0.000    0.000    0.000    0.000    0.000    0.000 
#    0.000    7.385   48.000    2.462    0.000    0.000 
#
# Total GULP energy -72449.218991 kJ/mol
# GULP energy per Si atom -5573.016845 kJ/mol
# Density = 2.345888 g / cm^3
# Si number density = 23.512393 Si / 1000 Ang^3
#
#
#
# Elastic Constant Matrix: (Units=GPa)
#
#
# Indices 1 2 3 4 5 6 
#
# 1 212.8344 10.0222 61.7677 0.0000 0.0000 0.0000
# 2 10.0222 49.2920 -3.5183 0.0000 0.0000 0.0000
# 3 61.7677 -3.5183 137.3267 0.0000 0.0000 0.0000
# 4 0.0000 0.0000 0.0000 -42.5195 0.0000 0.0000
# 5 0.0000 0.0000 0.0000 0.0000 47.4226 0.0000
# 6 0.0000 0.0000 0.0000 0.0000 0.0000 7.9083
#
#
#
# Elastic Compliance Matrix: (Units=1/GPa)
#
#
# Indices 1 2 3 4 5 6 
#
# 1 0.005485 -0.001294 -0.002500 0.000000 0.000000 0.000000
# 2 -0.001294 0.020630 0.001110 0.000000 0.000000 0.000000
# 3 -0.002500 0.001110 0.008435 0.000000 0.000000 0.000000
# 4 0.000000 0.000000 0.000000 -0.023519 0.000000 0.000000
# 5 0.000000 0.000000 0.000000 0.000000 0.021087 0.000000
# 6 0.000000 0.000000 0.000000 0.000000 0.000000 0.126450
#
#
# Mechanical properties :
#
#
# Convention : Reuss Voigt Hill
#
# Bulk Modulus (GPa) = 34.26711 59.55514 46.91113
# Shear Modulus (GPa) = 28.79156 24.64105 26.71631
#
# Velocity S-wave (km/s) = 3.50312 3.24080 3.37451
# Velocity P-wave (km/s) = 5.56491 6.27598 5.93111
#
# Compressibility (1/GPa) = 0.02918250
#
# Stress axis : x y z
#
# Youngs Moduli (GPa) = 182.31510 48.47409 118.55473
#
# Poissons Ratio (x) = 0.06271 0.29641
# Poissons Ratio (y) = 0.23586 -0.13164
# Poissons Ratio (z) = 0.45583 -0.05383
#
# Static dielectric constant tensor:
#      x y z
#    x 1.944360 0.000000 0.000000 
#    y 0.000000 1.875940 0.000000 
#    z 0.000000 0.000000 1.207220 
# 
# From -- ./inp_files/2021.got.cif
#   From: 2010.05.17/outbox.cif.g08.bks.cpg/sg23_2_cif.got.tgz:2021.got - 2010.06.04 12:02:01.
