data_PCOD9330097
_publ_section_title
;
Structure prediction by ZEFSAII (Michael W. Deem and Ramdas Pophale) SiO2 
 PCOD9330097
Probable space group: I 2 2 2
;
_chemical_formula_sum "Si O2"
_cell_formula_units_Z 30
_cell_length_a 5.405251
_cell_length_b 16.847624
_cell_length_c 15.714597
_cell_angle_alpha 90.000000
_cell_angle_beta 90.000000
_cell_angle_gamma 90.000000
_cell_volume 1431.059778
_symmetry_space_group_name_H-M "I 2 2 2"
_symmetry_group_IT_number 23
_symmetry_cell_setting 'orthorhombic'
loop_
_space_group_symop_operation_xyz
x,y,z
-x,-y,z
x,-y,-z
-x,y,-z
1/2+x,1/2+y,1/2+z
1/2-x,1/2-y,1/2+z
1/2+x,1/2-y,1/2-z
1/2-x,1/2+y,1/2-z
loop_
_atom_site_type_symbol
_atom_site_label
_atom_site_fract_x
_atom_site_fract_y
_atom_site_fract_z
Si Si1 0.252179 0.156325 0.532151
Si Si2 0.000000 0.193010 0.000000
Si Si3 0.797282 0.701280 0.229520
Si Si4 0.642108 0.421170 0.634604
Si Si5 0.000000 0.500000 0.500000
O O1 0.500000 0.113439 0.500000
O O2 0.278797 0.243956 0.487288
O O3 0.268587 0.173859 0.631968
O O4 0.000000 0.119285 0.500000
O O5 0.034640 0.139708 0.083216
O O6 0.061430 0.743172 0.246494
O O7 0.772400 0.624983 0.290122
O O8 0.500000 0.500000 0.662819
O O9 0.831636 0.447517 0.561425
#
# Coordination Sequence:
#
# PCOD9330097 Si02
#       5
#     8   4   8   8   2
#     4  10  21  38  63  94 125 171 224 276 332 381
#     4  10  19  38  56  88 136 173 210 260 329 400
#     4  12  25  42  66 100 136 179 235 287 331 404
#     4  12  25  40  62  99 142 180 220 272 350 420
#     4  12  26  40  68  94 150 184 216 264 366 444
#
# _framework density 20.963487000000001
#
# number of rings (size 3 to 8) (size 9 to 14) (size 15 to 20)
#    0.800    0.000    5.333    3.200    9.333    0.000 
#    0.000    0.000    0.000    0.800    0.000    0.000 
#    0.000    0.000    0.000    0.000    0.000    0.000 
#
# Total GULP energy -83744.390615 kJ/mol
# GULP energy per Si atom -5582.959374 kJ/mol
# Density = 2.091577 g / cm^3
# Si number density = 20.963487 Si / 1000 Ang^3
#
#
#
# Elastic Constant Matrix: (Units=GPa)
#
#
# Indices 1 2 3 4 5 6 
#
# 1 136.3521 7.2697 32.2634 0.0000 0.0000 0.0000
# 2 7.2697 61.6865 15.7799 0.0000 0.0000 0.0000
# 3 32.2634 15.7799 134.4302 0.0000 0.0000 0.0000
# 4 0.0000 0.0000 0.0000 31.4386 0.0000 0.0000
# 5 0.0000 0.0000 0.0000 0.0000 28.2003 0.0000
# 6 0.0000 0.0000 0.0000 0.0000 0.0000 7.4418
#
#
#
# Elastic Compliance Matrix: (Units=1/GPa)
#
#
# Indices 1 2 3 4 5 6 
#
# 1 0.007788 -0.000453 -0.001816 0.000000 0.000000 0.000000
# 2 -0.000453 0.016739 -0.001856 0.000000 0.000000 0.000000
# 3 -0.001816 -0.001856 0.008092 0.000000 0.000000 0.000000
# 4 0.000000 0.000000 0.000000 0.031808 0.000000 0.000000
# 5 0.000000 0.000000 0.000000 0.000000 0.035461 0.000000
# 6 0.000000 0.000000 0.000000 0.000000 0.000000 0.134377
#
#
# Mechanical properties :
#
#
# Convention : Reuss Voigt Hill
#
# Bulk Modulus (GPa) = 41.03578 49.23275 45.13426
# Shear Modulus (GPa) = 19.94904 31.89319 25.92112
#
# Velocity S-wave (km/s) = 3.08816 3.90470 3.52019
# Velocity P-wave (km/s) = 5.68621 6.62306 6.17244
#
# Compressibility (1/GPa) = 0.02436898
#
# Stress axis : x y z
#
# Youngs Moduli (GPa) = 128.40619 59.73990 123.57132
#
# Poissons Ratio (x) = 0.02708 0.22439
# Poissons Ratio (y) = 0.05820 0.22936
# Poissons Ratio (z) = 0.23317 0.11089
#
# Static dielectric constant tensor:
#      x y z
#    x 1.884780 0.000000 0.000000 
#    y 0.000000 1.781640 0.000000 
#    z 0.000000 0.000000 1.723570 
# 
# From -- ./inp_files/2947.got.cif
#   From: 2010.05.17/outbox.cif.g08.bks.cpg/sg23_2_cif.got.tgz:2947.got - 2010.06.04 12:02:01.
