data_PCOD9330534
_publ_section_title
;
Structure prediction by ZEFSAII (Michael W. Deem and Ramdas Pophale) SiO2 
 PCOD9330534
Probable space group: I 2 2 2
;
_chemical_formula_sum "Si O2"
_cell_formula_units_Z 64
_cell_length_a 14.953056
_cell_length_b 7.276207
_cell_length_c 24.507412
_cell_angle_alpha 90.000000
_cell_angle_beta 90.000000
_cell_angle_gamma 90.000000
_cell_volume 2666.443940
_symmetry_space_group_name_H-M "I 2 2 2"
_symmetry_group_IT_number 23
_symmetry_cell_setting 'orthorhombic'
loop_
_space_group_symop_operation_xyz
x,y,z
-x,-y,z
x,-y,-z
-x,y,-z
1/2+x,1/2+y,1/2+z
1/2-x,1/2-y,1/2+z
1/2+x,1/2-y,1/2-z
1/2-x,1/2+y,1/2-z
loop_
_atom_site_type_symbol
_atom_site_label
_atom_site_fract_x
_atom_site_fract_y
_atom_site_fract_z
Si Si1 0.523348 0.283814 0.061811
Si Si2 0.296049 0.689173 0.022217
Si Si3 0.992534 0.707544 0.681313
Si Si4 0.669561 0.764639 0.389970
Si Si5 0.012357 0.778020 0.937199
Si Si6 0.289128 0.333173 0.584308
Si Si7 0.308506 0.768330 0.201304
Si Si8 0.801069 0.705599 0.692360
O O1 0.500000 0.500000 0.066827
O O2 0.479330 0.199762 0.115519
O O3 0.500000 0.224235 0.000000
O O4 0.628818 0.236533 0.063079
O O5 0.265536 0.810748 0.971653
O O6 0.336791 0.500000 0.000000
O O7 0.211203 0.636138 0.057711
O O8 0.899561 0.785413 0.704673
O O9 0.000000 0.500000 0.702944
O O10 0.089450 0.798547 0.691700
O O11 0.563392 0.790395 0.395046
O O12 0.690632 0.548007 0.403139
O O13 0.729211 0.811065 0.337292
O O14 0.113585 0.742546 0.920330
O O15 0.000000 0.000000 0.938534
O O16 0.000000 0.716539 0.000000
O O17 0.233885 0.242246 0.632892
O O18 0.272917 0.745262 0.262438
O O19 0.311841 0.985671 0.190061
#
# Coordination Sequence:
#
# PCOD9330534 Si02
#       8
#     8   8   8   8   8   8   8   8
#     4  11  22  38  54  84 123 160 194 233 298 361
#     4  12  22  35  56  86 123 156 190 246 297 356
#     4  10  22  42  62  90 119 150 197 251 291 345
#     4  10  20  38  61  86 117 158 201 243 292 352
#     4   9  16  31  58  87 115 149 194 244 285 339
#     4  10  21  38  60  88 118 157 203 243 292 353
#     4  10  22  41  62  88 118 153 199 242 297 347
#     4  10  23  39  63  88 118 154 196 247 293 350
#
# _framework density 24.002005
#
# number of rings (size 3 to 8) (size 9 to 14) (size 15 to 20)
#    0.000    1.750    3.750    1.125    0.000    3.250 
#    2.250    2.500    0.000    0.000    0.000    0.000 
#    0.000    0.000    0.000    0.000    0.000    0.000 
#
# Total GULP energy -178755.444051 kJ/mol
# GULP energy per Si atom -5586.107627 kJ/mol
# Density = 2.394738 g / cm^3
# Si number density = 24.002005 Si / 1000 Ang^3
#
#
#
# Elastic Constant Matrix: (Units=GPa)
#
#
# Indices 1 2 3 4 5 6 
#
# 1 184.2710 3.8334 47.2046 0.0000 0.0000 0.0000
# 2 3.8334 67.4834 -8.0281 0.0000 0.0000 0.0000
# 3 47.2046 -8.0281 87.2430 0.0000 0.0000 0.0000
# 4 0.0000 0.0000 0.0000 18.3888 0.0000 0.0000
# 5 0.0000 0.0000 0.0000 0.0000 32.4913 0.0000
# 6 0.0000 0.0000 0.0000 0.0000 0.0000 7.5098
#
#
#
# Elastic Compliance Matrix: (Units=1/GPa)
#
#
# Indices 1 2 3 4 5 6 
#
# 1 0.006340 -0.000777 -0.003502 0.000000 0.000000 0.000000
# 2 -0.000777 0.015078 0.001808 0.000000 0.000000 0.000000
# 3 -0.003502 0.001808 0.013523 0.000000 0.000000 0.000000
# 4 0.000000 0.000000 0.000000 0.054381 0.000000 0.000000
# 5 0.000000 0.000000 0.000000 0.000000 0.030777 0.000000
# 6 0.000000 0.000000 0.000000 0.000000 0.000000 0.133159
#
#
# Mechanical properties :
#
#
# Convention : Reuss Voigt Hill
#
# Bulk Modulus (GPa) = 33.33422 47.22413 40.27917
# Shear Modulus (GPa) = 18.64284 31.41049 25.02666
#
# Velocity S-wave (km/s) = 2.78999 3.62147 3.23258
# Velocity P-wave (km/s) = 4.92920 6.09955 5.54533
#
# Compressibility (1/GPa) = 0.02999920
#
# Stress axis : x y z
#
# Youngs Moduli (GPa) = 157.72817 66.32339 73.94620
#
# Poissons Ratio (x) = 0.05152 0.25895
# Poissons Ratio (y) = 0.12251 -0.13367
# Poissons Ratio (z) = 0.55234 -0.11989
#
# Static dielectric constant tensor:
#      x y z
#    x 1.978010 0.000000 0.000000 
#    y 0.000000 2.002370 0.000000 
#    z 0.000000 0.000000 1.882670 
# 
# From -- ./inp_files/28573.got.cif
#   From: 2010.05.17/outbox.cif.g08.bks.cpg/sg23_15_cif.got.tgz:28573.got - 2010.06.04 12:02:01.
