data_PCOD9330981
_publ_section_title
;
Structure prediction by ZEFSAII (Michael W. Deem and Ramdas Pophale) SiO2 
 PCOD9330981
Probable space group: I 2 2 2
;
_chemical_formula_sum "Si O2"
_cell_formula_units_Z 44
_cell_length_a 16.452274
_cell_length_b 9.039411
_cell_length_c 14.518470
_cell_angle_alpha 90.000000
_cell_angle_beta 90.000000
_cell_angle_gamma 90.000000
_cell_volume 2159.170403
_symmetry_space_group_name_H-M "I 2 2 2"
_symmetry_group_IT_number 23
_symmetry_cell_setting 'orthorhombic'
loop_
_space_group_symop_operation_xyz
x,y,z
-x,-y,z
x,-y,-z
-x,y,-z
1/2+x,1/2+y,1/2+z
1/2-x,1/2-y,1/2+z
1/2+x,1/2-y,1/2-z
1/2-x,1/2+y,1/2-z
loop_
_atom_site_type_symbol
_atom_site_label
_atom_site_fract_x
_atom_site_fract_y
_atom_site_fract_z
Si Si1 0.622945 0.271119 0.411950
Si Si2 0.912028 0.435019 0.757783
Si Si3 0.268598 0.653314 0.557895
Si Si4 0.500000 0.500000 0.500000
Si Si5 0.371668 0.668497 0.122215
Si Si6 0.000000 0.000000 0.500000
Si Si7 0.234199 0.041339 0.223034
O O1 0.590480 0.127603 0.361607
O O2 0.662210 0.249464 0.511730
O O3 0.555857 0.397502 0.433761
O O4 0.694733 0.332969 0.343704
O O5 0.904008 0.290688 0.693207
O O6 0.831628 0.535274 0.738348
O O7 0.000000 0.500000 0.738752
O O8 0.264553 0.500000 0.500000
O O9 0.185877 0.741931 0.552936
O O10 0.283306 0.607456 0.663669
O O11 0.442527 0.593372 0.066655
O O12 0.314681 0.557898 0.181968
#
# Coordination Sequence:
#
# PCOD9330981 Si02
#       7
#     8   8   8   2   8   2   8
#     4  10  21  38  65  96 126 169 210 259 323 374
#     4  10  23  43  64  99 125 166 215 264 319 373
#     4   9  18  40  66  90 120 170 217 248 318 386
#     4  12  20  38  62 100 126 158 208 270 306 372
#     4  10  24  41  62  94 131 169 211 258 317 379
#     4  12  28  42  58 108 124 172 208 262 318 364
#     4   9  19  41  62  89 123 167 211 248 319 375
#
# _framework density 20.378198000000001
#
# number of rings (size 3 to 8) (size 9 to 14) (size 15 to 20)
#    0.000    2.182    2.727    0.000    2.545    8.727 
#    9.818    2.273    0.000    0.000    0.000    0.000 
#    0.000    0.000    0.000    0.000    0.000    0.000 
#
# Total GULP energy -122601.669336 kJ/mol
# GULP energy per Si atom -5572.803152 kJ/mol
# Density = 2.033182 g / cm^3
# Si number density = 20.378198 Si / 1000 Ang^3
#
#
#
# Elastic Constant Matrix: (Units=GPa)
#
#
# Indices 1 2 3 4 5 6 
#
# 1 156.1915 54.9879 61.2495 0.0000 0.0000 0.0000
# 2 54.9879 46.4209 25.2539 0.0000 0.0000 0.0000
# 3 61.2495 25.2539 68.4907 0.0000 0.0000 0.0000
# 4 0.0000 0.0000 0.0000 5.8203 0.0000 0.0000
# 5 0.0000 0.0000 0.0000 0.0000 29.3283 0.0000
# 6 0.0000 0.0000 0.0000 0.0000 0.0000 40.7270
#
#
#
# Elastic Compliance Matrix: (Units=1/GPa)
#
#
# Indices 1 2 3 4 5 6 
#
# 1 0.013676 -0.011942 -0.007827 0.000000 0.000000 0.000000
# 2 -0.011942 0.037375 -0.003102 0.000000 0.000000 0.000000
# 3 -0.007827 -0.003102 0.022743 0.000000 0.000000 0.000000
# 4 0.000000 0.000000 0.000000 0.171812 0.000000 0.000000
# 5 0.000000 0.000000 0.000000 0.000000 0.034097 0.000000
# 6 0.000000 0.000000 0.000000 0.000000 0.000000 0.024554
#
#
# Mechanical properties :
#
#
# Convention : Reuss Voigt Hill
#
# Bulk Modulus (GPa) = 35.64579 61.56509 48.60544
# Shear Modulus (GPa) = 13.91409 23.81591 18.86500
#
# Velocity S-wave (km/s) = 2.61587 3.42233 3.04591
# Velocity P-wave (km/s) = 5.16273 6.77446 6.02275
#
# Compressibility (1/GPa) = 0.02805381
#
# Stress axis : x y z
#
# Youngs Moduli (GPa) = 73.12234 26.75590 43.96872
#
# Poissons Ratio (x) = 0.31951 0.34413
# Poissons Ratio (y) = 0.87320 0.13638
# Poissons Ratio (z) = 0.57231 0.08299
#
# Static dielectric constant tensor:
#      x y z
#    x 1.762690 0.000000 0.000000 
#    y 0.000000 1.757310 0.000000 
#    z 0.000000 0.000000 1.787950 
# 
# From -- ./inp_files/21976.got.cif
#   From: 2010.05.17/outbox.cif.g08.bks.cpg/sg23_11_cif.got.tgz:21976.got - 2010.06.04 12:02:01.
