data_PCOD9330339
_publ_section_title
;
Structure prediction by ZEFSAII (Michael W. Deem and Ramdas Pophale) SiO2 
 PCOD9330339
Probable space group: I 2 2 2
;
_chemical_formula_sum "Si O2"
_cell_formula_units_Z 64
_cell_length_a 19.462773
_cell_length_b 19.462773
_cell_length_c 9.370983
_cell_angle_alpha 90.000000
_cell_angle_beta 90.000000
_cell_angle_gamma 90.000000
_cell_volume 3549.723983
_symmetry_space_group_name_H-M "I 2 2 2"
_symmetry_group_IT_number 23
_symmetry_cell_setting 'orthorhombic'
loop_
_space_group_symop_operation_xyz
x,y,z
-x,-y,z
x,-y,-z
-x,y,-z
1/2+x,1/2+y,1/2+z
1/2-x,1/2-y,1/2+z
1/2+x,1/2-y,1/2-z
1/2-x,1/2+y,1/2-z
loop_
_atom_site_type_symbol
_atom_site_label
_atom_site_fract_x
_atom_site_fract_y
_atom_site_fract_z
Si Si1 0.649666 0.629584 0.265853
Si Si2 0.208835 0.985091 0.830672
Si Si3 0.629584 0.649666 0.765853
Si Si4 0.557966 0.170323 0.617768
Si Si5 0.225805 0.169090 0.510774
Si Si6 0.985091 0.791165 0.669328
Si Si7 0.330910 0.725805 0.489226
Si Si8 0.170323 0.557966 0.117768
O O1 0.668604 0.549999 0.263299
O O2 0.579301 0.658797 0.200666
O O3 0.653402 0.656832 0.425947
O O4 0.709455 0.666159 0.176141
O O5 0.158797 0.920699 0.799334
O O6 0.281325 0.971149 0.746843
O O7 0.219204 0.000000 0.000000
O O8 0.656832 0.653402 0.925947
O O9 0.549999 0.668604 0.763299
O O10 0.666159 0.709455 0.676141
O O11 0.500000 0.152304 0.500000
O O12 0.528851 0.218675 0.746843
O O13 0.611010 0.220771 0.536368
O O14 0.603578 0.103578 0.662104
O O15 0.258449 0.241551 0.472235
O O16 0.279229 0.111010 0.463632
O O17 0.000000 0.780796 0.500000
O O18 0.152304 0.500000 0.000000
#
# Coordination Sequence:
#
# PCOD9330339 Si02
#       8
#     8   8   8   8   8   8   8   8
#     4  11  21  37  59  84 123 157 201 249 299 364
#     4  11  23  41  59  90 125 163 202 251 306 361
#     4  11  21  37  59  84 123 157 201 249 299 364
#     4  10  21  39  64  89 120 158 202 252 300 358
#     4  10  20  35  58  87 115 154 200 249 300 350
#     4  11  23  41  59  90 125 163 202 251 306 361
#     4  10  20  35  58  87 115 154 200 249 300 350
#     4  10  21  39  64  89 120 158 202 252 300 358
#
# _framework density 18.029571000000001
#
# number of rings (size 3 to 8) (size 9 to 14) (size 15 to 20)
#    0.000    1.500    5.000    0.750    0.000    1.750 
#    0.000    2.500    0.000    0.000    0.000    0.000 
#    0.000    0.000    0.000    0.000    0.000    0.000 
#
# Total GULP energy -178135.999998 kJ/mol
# GULP energy per Si atom -5566.750000 kJ/mol
# Density = 1.798854 g / cm^3
# Si number density = 18.029571 Si / 1000 Ang^3
#
#
#
# Elastic Constant Matrix: (Units=GPa)
#
#
# Indices 1 2 3 4 5 6 
#
# 1 99.6602 59.4449 42.3481 0.0000 0.0000 0.0000
# 2 59.4449 99.6602 42.3481 0.0000 0.0000 0.0000
# 3 42.3481 42.3481 96.7782 0.0000 0.0000 0.0000
# 4 0.0000 0.0000 0.0000 23.9398 0.0000 0.0000
# 5 0.0000 0.0000 0.0000 0.0000 23.9398 0.0000
# 6 0.0000 0.0000 0.0000 0.0000 0.0000 24.5830
#
#
#
# Elastic Compliance Matrix: (Units=1/GPa)
#
#
# Indices 1 2 3 4 5 6 
#
# 1 0.016530 -0.008336 -0.003585 0.000000 0.000000 0.000000
# 2 -0.008336 0.016530 -0.003585 0.000000 0.000000 0.000000
# 3 -0.003585 -0.003585 0.013471 0.000000 0.000000 0.000000
# 4 0.000000 0.000000 0.000000 0.041772 0.000000 0.000000
# 5 0.000000 0.000000 0.000000 0.000000 0.041772 0.000000
# 6 0.000000 0.000000 0.000000 0.000000 0.000000 0.040679
#
#
# Mechanical properties :
#
#
# Convention : Reuss Voigt Hill
#
# Bulk Modulus (GPa) = 64.44723 64.93122 64.68923
# Shear Modulus (GPa) = 24.16177 24.62300 24.39238
#
# Velocity S-wave (km/s) = 3.66473 3.69955 3.68218
# Velocity P-wave (km/s) = 7.33007 7.37162 7.35088
#
# Compressibility (1/GPa) = 0.01551657
#
# Stress axis : x y z
#
# Youngs Moduli (GPa) = 60.49618 60.49619 74.23509
#
# Poissons Ratio (x) = 0.50431 0.26616
# Poissons Ratio (y) = 0.50431 0.26616
# Poissons Ratio (z) = 0.21690 0.21690
#
# Static dielectric constant tensor:
#      x y z
#    x 1.620420 0.000000 0.000000 
#    y 0.000000 1.620420 0.000000 
#    z 0.000000 0.000000 1.612500 
# 
# From -- ./inp_files/11423.got.cif
#   From: 2010.05.17/outbox.cif.g08.bks.cpg/sg23_6_cif.got.tgz:11423.got - 2010.06.04 12:02:01.
