data_PCOD9330512
_publ_section_title
;
Structure prediction by ZEFSAII (Michael W. Deem and Ramdas Pophale) SiO2 
 PCOD9330512
Probable space group: I 2 2 2
;
_chemical_formula_sum "Si O2"
_cell_formula_units_Z 56
_cell_length_a 8.077610
_cell_length_b 20.301472
_cell_length_c 17.659817
_cell_angle_alpha 90.000000
_cell_angle_beta 90.000000
_cell_angle_gamma 90.000000
_cell_volume 2895.987002
_symmetry_space_group_name_H-M "I 2 2 2"
_symmetry_group_IT_number 23
_symmetry_cell_setting 'orthorhombic'
loop_
_space_group_symop_operation_xyz
x,y,z
-x,-y,z
x,-y,-z
-x,y,-z
1/2+x,1/2+y,1/2+z
1/2-x,1/2-y,1/2+z
1/2+x,1/2-y,1/2-z
1/2-x,1/2+y,1/2-z
loop_
_atom_site_type_symbol
_atom_site_label
_atom_site_fract_x
_atom_site_fract_y
_atom_site_fract_z
Si Si1 0.970191 0.693087 0.683072
Si Si2 0.670779 0.683192 0.468056
Si Si3 0.307097 0.503999 0.311804
Si Si4 0.579870 0.700578 0.925205
Si Si5 0.625913 0.916934 0.066204
Si Si6 0.814810 0.143419 0.203982
Si Si7 0.173631 0.861749 0.723030
O O1 0.957348 0.756458 0.628698
O O2 0.153552 0.688517 0.719827
O O3 0.963133 0.630982 0.626024
O O4 0.820474 0.681623 0.740505
O O5 0.500000 0.709789 0.500000
O O6 0.798322 0.742714 0.456624
O O7 0.734696 0.628167 0.526494
O O8 0.650343 0.651259 0.385468
O O9 0.500000 0.500000 0.333876
O O10 0.202272 0.524092 0.385348
O O11 0.264266 0.432290 0.280187
O O12 0.293283 0.563593 0.251514
O O13 0.665111 0.650798 0.866587
O O14 0.500000 0.669886 0.000000
O O15 0.500000 0.932668 0.000000
O O16 0.991297 0.156293 0.243653
#
# Coordination Sequence:
#
# PCOD9330512 Si02
#       7
#     8   8   8   8   8   8   8
#     4  10  20  38  56  85 116 155 197 234 291 352
#     4  11  20  35  54  82 119 156 191 234 294 353
#     4   9  20  38  58  81 116 154 204 242 286 355
#     4  11  22  39  57  86 123 153 196 248 296 350
#     4  11  18  36  52  80 121 155 188 239 289 349
#     4  10  21  38  58  85 115 153 201 242 286 352
#     4  10  23  38  59  83 115 155 200 243 291 343
#
# _framework density 19.337104
#
# number of rings (size 3 to 8) (size 9 to 14) (size 15 to 20)
#    0.000    1.714    4.286    2.571    4.000    2.857 
#    5.143    2.857    0.000    3.857    0.000    0.000 
#    0.000    0.000    0.000    0.000    0.000    0.000 
#
# Total GULP energy -156310.904850 kJ/mol
# GULP energy per Si atom -5582.532316 kJ/mol
# Density = 1.929309 g / cm^3
# Si number density = 19.337104 Si / 1000 Ang^3
#
#
#
# Elastic Constant Matrix: (Units=GPa)
#
#
# Indices 1 2 3 4 5 6 
#
# 1 73.0027 26.0828 51.8807 0.0000 0.0000 0.0000
# 2 26.0828 47.2410 38.5593 0.0000 0.0000 0.0000
# 3 51.8807 38.5593 104.9388 0.0000 0.0000 0.0000
# 4 0.0000 0.0000 0.0000 9.3602 0.0000 0.0000
# 5 0.0000 0.0000 0.0000 0.0000 27.0842 0.0000
# 6 0.0000 0.0000 0.0000 0.0000 0.0000 12.7550
#
#
#
# Elastic Compliance Matrix: (Units=1/GPa)
#
#
# Indices 1 2 3 4 5 6 
#
# 1 0.021804 -0.004628 -0.009079 0.000000 0.000000 0.000000
# 2 -0.004628 0.031219 -0.009183 0.000000 0.000000 0.000000
# 3 -0.009079 -0.009183 0.017392 0.000000 0.000000 0.000000
# 4 0.000000 0.000000 0.000000 0.106836 0.000000 0.000000
# 5 0.000000 0.000000 0.000000 0.000000 0.036922 0.000000
# 6 0.000000 0.000000 0.000000 0.000000 0.000000 0.078401
#
#
# Mechanical properties :
#
#
# Convention : Reuss Voigt Hill
#
# Bulk Modulus (GPa) = 40.59334 50.91423 45.75378
# Shear Modulus (GPa) = 14.42729 17.08383 15.75556
#
# Velocity S-wave (km/s) = 2.73443 2.97555 2.85754
# Velocity P-wave (km/s) = 5.56844 6.17998 5.88217
#
# Compressibility (1/GPa) = 0.02463459
#
# Stress axis : x y z
#
# Youngs Moduli (GPa) = 45.86346 32.03200 57.49649
#
# Poissons Ratio (x) = 0.14824 0.52202
# Poissons Ratio (y) = 0.21225 0.52801
# Poissons Ratio (z) = 0.41640 0.29416
#
# Static dielectric constant tensor:
#      x y z
#    x 1.725890 0.000000 0.000000 
#    y 0.000000 1.716110 0.000000 
#    z 0.000000 0.000000 1.670840 
# 
# From -- ./inp_files/23964.got.cif
#   From: 2010.05.17/outbox.cif.g08.bks.cpg/sg23_12_cif.got.tgz:23964.got - 2010.06.04 12:02:01.
