data_PCOD9330940
_publ_section_title
;
Structure prediction by ZEFSAII (Michael W. Deem and Ramdas Pophale) SiO2 
 PCOD9330940
Probable space group: I 2 2 2
;
_chemical_formula_sum "Si O2"
_cell_formula_units_Z 64
_cell_length_a 11.121643
_cell_length_b 8.954760
_cell_length_c 33.497724
_cell_angle_alpha 90.000000
_cell_angle_beta 90.000000
_cell_angle_gamma 90.000000
_cell_volume 3336.093399
_symmetry_space_group_name_H-M "I 2 2 2"
_symmetry_group_IT_number 23
_symmetry_cell_setting 'orthorhombic'
loop_
_space_group_symop_operation_xyz
x,y,z
-x,-y,z
x,-y,-z
-x,y,-z
1/2+x,1/2+y,1/2+z
1/2-x,1/2-y,1/2+z
1/2+x,1/2-y,1/2-z
1/2-x,1/2+y,1/2-z
loop_
_atom_site_type_symbol
_atom_site_label
_atom_site_fract_x
_atom_site_fract_y
_atom_site_fract_z
Si Si1 0.568863 0.225499 0.313727
Si Si2 0.525490 0.172738 0.840247
Si Si3 0.912842 0.864526 0.269097
Si Si4 0.648691 0.828925 0.456941
Si Si5 0.816161 0.592137 0.822003
Si Si6 0.298470 0.209500 0.890167
Si Si7 0.219538 0.129628 0.124066
Si Si8 0.627123 0.185306 0.449543
O O1 0.615319 0.270289 0.270246
O O2 0.427445 0.196149 0.309302
O O3 0.606675 0.344506 0.346878
O O4 0.629181 0.071210 0.328308
O O5 0.483368 0.270939 0.802970
O O6 0.437975 0.207291 0.877742
O O7 0.662831 0.192581 0.852903
O O8 0.500000 0.000000 0.829728
O O9 0.788836 0.915060 0.289403
O O10 0.000000 0.000000 0.257471
O O11 0.758006 0.753632 0.434070
O O12 0.514937 0.783948 0.442240
O O13 0.652354 0.786870 0.503629
O O14 0.650897 0.006894 0.448018
O O15 0.762026 0.668213 0.861244
O O16 0.246473 0.044634 0.882083
O O17 0.198646 0.218234 0.082779
#
# Coordination Sequence:
#
# PCOD9330940 Si02
#       8
#     8   8   8   8   8   8   8   8
#     4  11  25  38  59  82 114 151 187 245 294 348
#     4   9  22  42  59  80 115 161 195 239 298 352
#     4  11  25  39  62  84 112 150 202 243 291 349
#     4   9  18  36  59  85 121 152 193 229 295 355
#     4  10  24  41  56  83 114 152 191 232 300 350
#     4  10  21  38  60  84 116 155 195 241 288 356
#     4  11  22  37  60  86 118 150 198 246 294 344
#     4   9  19  35  59  87 117 157 185 240 290 353
#
# _framework density 19.184114999999998
#
# number of rings (size 3 to 8) (size 9 to 14) (size 15 to 20)
#    0.000    2.000    0.000    3.000    7.000    6.000 
#    0.000    1.875    0.000    3.750    0.000    0.000 
#    0.000    0.000    0.000    0.000    0.000    0.000 
#
# Total GULP energy -178644.241606 kJ/mol
# GULP energy per Si atom -5582.632550 kJ/mol
# Density = 1.914045 g / cm^3
# Si number density = 19.184115 Si / 1000 Ang^3
#
#
#
# Elastic Constant Matrix: (Units=GPa)
#
#
# Indices 1 2 3 4 5 6 
#
# 1 54.8741 25.4751 12.0924 0.0000 0.0000 0.0000
# 2 25.4751 38.4471 20.1938 0.0000 0.0000 0.0000
# 3 12.0924 20.1938 57.0016 0.0000 0.0000 0.0000
# 4 0.0000 0.0000 0.0000 29.9788 0.0000 0.0000
# 5 0.0000 0.0000 0.0000 0.0000 23.3153 0.0000
# 6 0.0000 0.0000 0.0000 0.0000 0.0000 26.2399
#
#
#
# Elastic Compliance Matrix: (Units=1/GPa)
#
#
# Indices 1 2 3 4 5 6 
#
# 1 0.026345 -0.017840 0.000731 0.000000 0.000000 0.000000
# 2 -0.017840 0.044037 -0.011816 0.000000 0.000000 0.000000
# 3 0.000731 -0.011816 0.021574 0.000000 0.000000 0.000000
# 4 0.000000 0.000000 0.000000 0.033357 0.000000 0.000000
# 5 0.000000 0.000000 0.000000 0.000000 0.042890 0.000000
# 6 0.000000 0.000000 0.000000 0.000000 0.000000 0.038110
#
#
# Mechanical properties :
#
#
# Convention : Reuss Voigt Hill
#
# Bulk Modulus (GPa) = 29.32038 29.53836 29.42937
# Shear Modulus (GPa) = 18.14678 22.07758 20.11218
#
# Velocity S-wave (km/s) = 3.07893 3.39606 3.24138
# Velocity P-wave (km/s) = 5.28740 5.55053 5.42056
#
# Compressibility (1/GPa) = 0.03410596
#
# Stress axis : x y z
#
# Youngs Moduli (GPa) = 37.95854 22.70827 46.35143
#
# Poissons Ratio (x) = 0.40512 -0.03390
# Poissons Ratio (y) = 0.67718 0.54770
# Poissons Ratio (z) = -0.02776 0.26833
#
# Static dielectric constant tensor:
#      x y z
#    x 1.663470 0.000000 0.000000 
#    y 0.000000 1.672460 0.000000 
#    z 0.000000 0.000000 1.656060 
# 
# From -- ./inp_files/30470.got.cif
#   From: 2010.05.17/outbox.cif.g08.bks.cpg/sg23_16_cif.got.tgz:30470.got - 2010.06.04 12:02:01.
