data_PCOD9330346
_publ_section_title
;
Structure prediction by ZEFSAII (Michael W. Deem and Ramdas Pophale) SiO2 
 PCOD9330346
Probable space group: I 2 2 2
;
_chemical_formula_sum "Si O2"
_cell_formula_units_Z 48
_cell_length_a 7.685921
_cell_length_b 27.973858
_cell_length_c 9.415910
_cell_angle_alpha 90.000000
_cell_angle_beta 90.000000
_cell_angle_gamma 90.000000
_cell_volume 2024.466436
_symmetry_space_group_name_H-M "I 2 2 2"
_symmetry_group_IT_number 23
_symmetry_cell_setting 'orthorhombic'
loop_
_space_group_symop_operation_xyz
x,y,z
-x,-y,z
x,-y,-z
-x,y,-z
1/2+x,1/2+y,1/2+z
1/2-x,1/2-y,1/2+z
1/2+x,1/2-y,1/2-z
1/2-x,1/2+y,1/2-z
loop_
_atom_site_type_symbol
_atom_site_label
_atom_site_fract_x
_atom_site_fract_y
_atom_site_fract_z
Si Si1 0.154726 0.685816 0.849446
Si Si2 0.288252 0.995123 0.337256
Si Si3 0.456100 0.241832 0.147125
Si Si4 0.775229 0.587844 0.658837
Si Si5 0.151938 0.158992 0.393676
Si Si6 0.197398 0.401814 0.333272
O O1 0.271169 0.733346 0.861439
O O2 0.982445 0.706951 0.778000
O O3 0.235486 0.649576 0.734277
O O4 0.182286 0.660489 0.000072
O O5 0.241255 0.944378 0.269004
O O6 0.500000 0.000000 0.340668
O O7 0.228189 0.000000 0.500000
O O8 0.229992 0.037431 0.232339
O O9 0.583947 0.288024 0.146591
O O10 0.500000 0.215025 0.000000
O O11 0.686849 0.627759 0.756500
O O12 0.733785 0.591508 0.492419
O O13 0.985706 0.594130 0.666398
O O14 0.000000 0.140099 0.500000
#
# Coordination Sequence:
#
# PCOD9330346 Si02
#       6
#     8   8   8   8   8   8
#     4  10  21  39  61  85 118 160 202 252 304 369
#     4   9  17  32  55  89 123 154 195 244 299 369
#     4   9  22  40  58  84 121 152 205 256 300 359
#     4  10  20  35  59  87 128 158 195 254 305 371
#     4   9  21  41  59  84 119 161 206 258 306 365
#     4  10  21  33  58  91 124 158 199 249 315 364
#
# _framework density 23.709949999999999
#
# number of rings (size 3 to 8) (size 9 to 14) (size 15 to 20)
#    0.000    2.833    0.000    1.500    4.667    5.333 
#    3.000   10.000    0.000   12.500    0.000   14.000 
#    0.000    0.000    0.000    0.000    0.000    0.000 
#
# Total GULP energy -134105.348748 kJ/mol
# GULP energy per Si atom -5587.722865 kJ/mol
# Density = 2.365598 g / cm^3
# Si number density = 23.709950 Si / 1000 Ang^3
#
#
#
# Elastic Constant Matrix: (Units=GPa)
#
#
# Indices 1 2 3 4 5 6 
#
# 1 36.9018 -5.5542 14.5951 0.0003 0.0001 0.0000
# 2 -5.5542 49.9774 61.6567 0.0007 0.0002 0.0001
# 3 14.5951 61.6567 209.8901 0.0013 0.0003 0.0002
# 4 0.0003 0.0007 0.0013 51.2638 0.0002 0.0001
# 5 0.0001 0.0002 0.0003 0.0002 28.9420 0.0001
# 6 0.0000 0.0001 0.0002 0.0001 0.0001 10.1496
#
#
#
# Elastic Compliance Matrix: (Units=1/GPa)
#
#
# Indices 1 2 3 4 5 6 
#
# 1 0.030444 0.009403 -0.004879 0.000000 0.000000 0.000000
# 2 0.009403 0.034286 -0.010726 0.000000 0.000000 0.000000
# 3 -0.004879 -0.010726 0.008254 0.000000 0.000000 0.000000
# 4 0.000000 0.000000 0.000000 0.019507 0.000000 0.000000
# 5 0.000000 0.000000 0.000000 0.000000 0.034552 0.000000
# 6 0.000000 0.000000 0.000000 0.000000 0.000000 0.098526
#
#
# Mechanical properties :
#
#
# Convention : Reuss Voigt Hill
#
# Bulk Modulus (GPa) = 16.50702 48.68493 32.59597
# Shear Modulus (GPa) = 19.36737 33.14255 26.25496
#
# Velocity S-wave (km/s) = 2.86115 3.74282 3.33128
# Velocity P-wave (km/s) = 4.22991 6.26549 5.34549
#
# Compressibility (1/GPa) = 0.06058029
#
# Stress axis : x y z
#
# Youngs Moduli (GPa) = 32.84729 29.16639 121.14769
#
# Poissons Ratio (x) = -0.27424 0.59109
# Poissons Ratio (y) = -0.30885 1.29938
# Poissons Ratio (z) = 0.16026 0.31283
#
# Static dielectric constant tensor:
#      x y z
#    x 2.059550 0.000000 0.000000 
#    y 0.000000 1.840920 0.000000 
#    z 0.000000 0.000000 1.882380 
# 
# From -- ./inp_files/7328.got.cif
#   From: 2010.05.17/outbox.cif.g08.bks.cpg/sg23_4_cif.got.tgz:7328.got - 2010.06.04 12:02:01.
