data_PCOD9330639
_publ_section_title
;
Structure prediction by ZEFSAII (Michael W. Deem and Ramdas Pophale) SiO2 
 PCOD9330639
Probable space group: I 2 2 2
;
_chemical_formula_sum "Si O2"
_cell_formula_units_Z 32
_cell_length_a 5.522251
_cell_length_b 7.570077
_cell_length_c 32.813927
_cell_angle_alpha 90.000000
_cell_angle_beta 90.000000
_cell_angle_gamma 90.000000
_cell_volume 1371.748984
_symmetry_space_group_name_H-M "I 2 2 2"
_symmetry_group_IT_number 23
_symmetry_cell_setting 'orthorhombic'
loop_
_space_group_symop_operation_xyz
x,y,z
-x,-y,z
x,-y,-z
-x,y,-z
1/2+x,1/2+y,1/2+z
1/2-x,1/2-y,1/2+z
1/2+x,1/2-y,1/2-z
1/2-x,1/2+y,1/2-z
loop_
_atom_site_type_symbol
_atom_site_label
_atom_site_fract_x
_atom_site_fract_y
_atom_site_fract_z
Si Si1 0.664491 0.823485 0.888305
Si Si2 0.749981 0.203925 0.016564
Si Si3 0.753970 0.242645 0.275125
Si Si4 0.000000 0.000000 0.335284
Si Si5 0.500000 0.500000 0.330295
O O1 0.739074 0.793039 0.934784
O O2 0.539526 0.662426 0.865629
O O3 0.896758 0.854043 0.860182
O O4 0.500000 0.000000 0.887725
O O5 0.500000 0.283591 0.000000
O O6 0.000000 0.282619 0.000000
O O7 0.749958 0.000000 0.000000
O O8 0.506199 0.233694 0.249109
O O9 0.206454 0.084421 0.197424
O O10 0.794562 0.072423 0.304152
#
# Coordination Sequence:
#
# PCOD9330639 Si02
#       5
#     8   8   8   4   4
#     4  12  25  48  76 114 156 204 255 327 390 464
#     4  10  20  39  73 106 145 202 247 295 376 460
#     4  12  29  51  77 112 153 207 262 327 398 475
#     4  12  29  50  81 116 156 200 268 330 395 466
#     4  12  27  46  77 102 154 202 254 316 405 456
#
# _framework density 23.327884999999998
#
# number of rings (size 3 to 8) (size 9 to 14) (size 15 to 20)
#    0.000    0.500    5.000    3.750    0.000   10.000 
#    0.000    0.625    0.000    3.000    0.000    0.000 
#    0.000    0.000    0.000    0.000    0.000    0.000 
#
# Total GULP energy -89522.433570 kJ/mol
# GULP energy per Si atom -5595.152098 kJ/mol
# Density = 2.327479 g / cm^3
# Si number density = 23.327885 Si / 1000 Ang^3
#
#
#
# Elastic Constant Matrix: (Units=GPa)
#
#
# Indices 1 2 3 4 5 6 
#
# 1 193.7061 47.4242 108.9809 0.0000 0.0000 0.0000
# 2 47.4242 100.3238 60.9655 0.0000 0.0000 0.0000
# 3 108.9809 60.9655 222.4762 0.0000 0.0000 0.0000
# 4 0.0000 0.0000 0.0000 18.0578 0.0000 0.0000
# 5 0.0000 0.0000 0.0000 0.0000 54.0953 0.0000
# 6 0.0000 0.0000 0.0000 0.0000 0.0000 25.9538
#
#
#
# Elastic Compliance Matrix: (Units=1/GPa)
#
#
# Indices 1 2 3 4 5 6 
#
# 1 0.007319 -0.001537 -0.003164 0.000000 0.000000 0.000000
# 2 -0.001537 0.012282 -0.002613 0.000000 0.000000 0.000000
# 3 -0.003164 -0.002613 0.006761 0.000000 0.000000 0.000000
# 4 0.000000 0.000000 0.000000 0.055378 0.000000 0.000000
# 5 0.000000 0.000000 0.000000 0.000000 0.018486 0.000000
# 6 0.000000 0.000000 0.000000 0.000000 0.000000 0.038530
#
#
# Mechanical properties :
#
#
# Convention : Reuss Voigt Hill
#
# Bulk Modulus (GPa) = 85.22150 105.69417 95.45784
# Shear Modulus (GPa) = 31.78760 39.56375 35.67567
#
# Velocity S-wave (km/s) = 3.69541 4.12270 3.91489
# Velocity P-wave (km/s) = 7.40401 8.25037 7.83862
#
# Compressibility (1/GPa) = 0.01173413
#
# Stress axis : x y z
#
# Youngs Moduli (GPa) = 136.63367 81.41982 147.91297
#
# Poissons Ratio (x) = 0.12514 0.46799
# Poissons Ratio (y) = 0.21000 0.38646
# Poissons Ratio (z) = 0.43231 0.21273
#
# Static dielectric constant tensor:
#      x y z
#    x 1.954650 0.000000 0.000000 
#    y 0.000000 1.851040 0.000000 
#    z 0.000000 0.000000 1.833890 
# 
# From -- ./inp_files/5167.got.cif
#   From: 2010.05.17/outbox.cif.g08.bks.cpg/sg23_3_cif.got.tgz:5167.got - 2010.06.04 12:02:01.
