data_PCOD9330706
_publ_section_title
;
Structure prediction by ZEFSAII (Michael W. Deem and Ramdas Pophale) SiO2 
 PCOD9330706
Probable space group: I 2 2 2
;
_chemical_formula_sum "Si O2"
_cell_formula_units_Z 48
_cell_length_a 17.576430
_cell_length_b 9.198214
_cell_length_c 14.946392
_cell_angle_alpha 90.000000
_cell_angle_beta 90.000000
_cell_angle_gamma 90.000000
_cell_volume 2416.409567
_symmetry_space_group_name_H-M "I 2 2 2"
_symmetry_group_IT_number 23
_symmetry_cell_setting 'orthorhombic'
loop_
_space_group_symop_operation_xyz
x,y,z
-x,-y,z
x,-y,-z
-x,y,-z
1/2+x,1/2+y,1/2+z
1/2-x,1/2-y,1/2+z
1/2+x,1/2-y,1/2-z
1/2-x,1/2+y,1/2-z
loop_
_atom_site_type_symbol
_atom_site_label
_atom_site_fract_x
_atom_site_fract_y
_atom_site_fract_z
Si Si1 0.567802 0.088434 0.091695
Si Si2 0.934821 0.373312 0.169063
Si Si3 0.472166 0.662231 0.198802
Si Si4 0.091722 0.828130 0.002266
Si Si5 0.698901 0.970198 0.778813
Si Si6 0.324449 0.696833 0.320249
O O1 0.538827 0.252116 0.105238
O O2 0.500000 0.000000 0.141617
O O3 0.648495 0.082254 0.138152
O O4 0.574658 0.000000 0.000000
O O5 0.899569 0.281740 0.085740
O O6 0.863447 0.444717 0.219352
O O7 0.000000 0.500000 0.147331
O O8 0.973508 0.254459 0.234749
O O9 0.500000 0.500000 0.187229
O O10 0.392441 0.663647 0.251367
O O11 0.134884 0.769756 0.914432
O O12 0.000000 0.831832 0.000000
O O13 0.114620 0.000000 0.000000
O O14 0.767744 0.062415 0.816674
O O15 0.721747 0.834084 0.718027
#
# Coordination Sequence:
#
# PCOD9330706 Si02
#       6
#     8   8   8   8   8   8
#     4  10  20  41  68  91 123 174 231 274 328 407
#     4  12  21  43  73  98 133 185 230 285 342 420
#     4  11  21  40  70 101 128 171 231 282 340 407
#     4  11  23  39  66 105 139 171 226 292 342 403
#     4  11  24  42  64  94 135 184 221 278 343 415
#     4  11  25  41  63 101 136 182 224 274 354 407
#
# _framework density 19.864182
#
# number of rings (size 3 to 8) (size 9 to 14) (size 15 to 20)
#    0.000    1.000    6.667    1.000    4.667    3.000 
#    3.000    1.667    0.000    0.000    0.000    0.000 
#    0.000    0.000    0.000    0.000    0.000    0.000 
#
# Total GULP energy -133679.878188 kJ/mol
# GULP energy per Si atom -5569.994925 kJ/mol
# Density = 1.981897 g / cm^3
# Si number density = 19.864182 Si / 1000 Ang^3
#
#
#
# Elastic Constant Matrix: (Units=GPa)
#
#
# Indices 1 2 3 4 5 6 
#
# 1 36.6893 17.5801 25.4129 0.0000 0.0000 0.0000
# 2 17.5801 139.1074 65.3526 0.0000 0.0000 0.0000
# 3 25.4129 65.3526 124.7827 0.0000 0.0000 0.0000
# 4 0.0000 0.0000 0.0000 19.4697 0.0000 0.0000
# 5 0.0000 0.0000 0.0000 0.0000 17.2602 0.0000
# 6 0.0000 0.0000 0.0000 0.0000 0.0000 31.9440
#
#
#
# Elastic Compliance Matrix: (Units=1/GPa)
#
#
# Indices 1 2 3 4 5 6 
#
# 1 0.031908 -0.001299 -0.005818 0.000000 0.000000 0.000000
# 2 -0.001299 0.009588 -0.004757 0.000000 0.000000 0.000000
# 3 -0.005818 -0.004757 0.011690 0.000000 0.000000 0.000000
# 4 0.000000 0.000000 0.000000 0.051362 0.000000 0.000000
# 5 0.000000 0.000000 0.000000 0.000000 0.057937 0.000000
# 6 0.000000 0.000000 0.000000 0.000000 0.000000 0.031305
#
#
# Mechanical properties :
#
#
# Convention : Reuss Voigt Hill
#
# Bulk Modulus (GPa) = 33.96951 57.47451 45.72201
# Shear Modulus (GPa) = 21.99255 26.55036 24.27146
#
# Velocity S-wave (km/s) = 3.33099 3.65991 3.49932
# Velocity P-wave (km/s) = 5.65084 6.84518 6.27648
#
# Compressibility (1/GPa) = 0.02943816
#
# Stress axis : x y z
#
# Youngs Moduli (GPa) = 31.33984 104.30141 85.54300
#
# Poissons Ratio (x) = 0.13551 0.49768
# Poissons Ratio (y) = 0.04072 0.40690
# Poissons Ratio (z) = 0.18233 0.49613
#
# Static dielectric constant tensor:
#      x y z
#    x 1.692680 0.000000 0.000000 
#    y 0.000000 1.783520 0.000000 
#    z 0.000000 0.000000 1.796310 
# 
# From -- ./inp_files/9940.got.cif
#   From: 2010.05.17/outbox.cif.g08.bks.cpg/sg23_5_cif.got.tgz:9940.got - 2010.06.04 12:02:01.
