data_PCOD9330958
_publ_section_title
;
Structure prediction by ZEFSAII (Michael W. Deem and Ramdas Pophale) SiO2 
 PCOD9330958
Probable space group: I 2 2 2
;
_chemical_formula_sum "Si O2"
_cell_formula_units_Z 56
_cell_length_a 22.713830
_cell_length_b 15.090360
_cell_length_c 7.589736
_cell_angle_alpha 90.000000
_cell_angle_beta 90.000000
_cell_angle_gamma 90.000000
_cell_volume 2601.456937
_symmetry_space_group_name_H-M "I 2 2 2"
_symmetry_group_IT_number 23
_symmetry_cell_setting 'orthorhombic'
loop_
_space_group_symop_operation_xyz
x,y,z
-x,-y,z
x,-y,-z
-x,y,-z
1/2+x,1/2+y,1/2+z
1/2-x,1/2-y,1/2+z
1/2+x,1/2-y,1/2-z
1/2-x,1/2+y,1/2-z
loop_
_atom_site_type_symbol
_atom_site_label
_atom_site_fract_x
_atom_site_fract_y
_atom_site_fract_z
Si Si1 0.759030 0.836468 0.875895
Si Si2 0.543090 0.223873 0.143058
Si Si3 0.821886 0.500000 0.000000
Si Si4 0.096838 0.098224 0.512739
Si Si5 0.615403 0.399104 0.568210
Si Si6 0.226313 0.137348 0.459295
Si Si7 0.000000 0.211633 0.000000
Si Si8 0.861131 0.425563 0.635879
O O1 0.820643 0.856516 0.972918
O O2 0.769428 0.856939 0.670927
O O3 0.704081 0.896950 0.930187
O O4 0.739424 0.734857 0.890028
O O5 0.507486 0.231187 0.324421
O O6 0.600419 0.163245 0.146616
O O7 0.500000 0.182963 0.000000
O O8 0.560869 0.322005 0.073571
O O9 0.778190 0.428887 0.090801
O O10 0.857396 0.459901 0.837141
O O11 0.106165 0.110515 0.721271
O O12 0.161295 0.100919 0.419966
O O13 0.070843 0.000000 0.500000
O O14 0.615143 0.500000 0.500000
O O15 0.558896 0.347766 0.494770
O O16 0.883477 0.500000 0.500000
#
# Coordination Sequence:
#
# PCOD9330958 Si02
#       8
#     8   8   4   8   8   8   4   8
#     4  10  23  38  67 104 138 186 230 295 361 428
#     4  12  27  50  73 102 139 195 250 298 366 430
#     4  10  24  42  68 111 147 178 230 300 366 442
#     4  11  22  42  68 100 143 187 230 295 357 431
#     4  11  24  41  65 103 144 187 235 289 356 430
#     4  10  21  38  63 100 142 179 227 285 365 425
#     4  12  27  46  70 101 146 190 240 295 352 433
#     4  11  26  47  75 105 146 188 242 308 367 430
#
# _framework density 21.526398
#
# number of rings (size 3 to 8) (size 9 to 14) (size 15 to 20)
#    0.000    1.143    3.571    1.500    6.000    2.857 
#    0.000    0.000    0.000    0.000    0.000    0.000 
#    0.000    0.000    0.000    0.000    0.000    0.000 
#
# Total GULP energy -156531.820398 kJ/mol
# GULP energy per Si atom -5590.422157 kJ/mol
# Density = 2.147740 g / cm^3
# Si number density = 21.526398 Si / 1000 Ang^3
#
#
#
# Elastic Constant Matrix: (Units=GPa)
#
#
# Indices 1 2 3 4 5 6 
#
# 1 112.1729 39.7341 34.2734 0.0000 0.0000 0.0000
# 2 39.7341 111.2281 25.3517 0.0000 0.0000 0.0000
# 3 34.2734 25.3517 81.9747 0.0000 0.0000 0.0000
# 4 0.0000 0.0000 0.0000 15.7477 0.0000 0.0000
# 5 0.0000 0.0000 0.0000 0.0000 27.1343 0.0000
# 6 0.0000 0.0000 0.0000 0.0000 0.0000 26.2400
#
#
#
# Elastic Compliance Matrix: (Units=1/GPa)
#
#
# Indices 1 2 3 4 5 6 
#
# 1 0.011157 -0.003144 -0.003692 0.000000 0.000000 0.000000
# 2 -0.003144 0.010558 -0.001951 0.000000 0.000000 0.000000
# 3 -0.003692 -0.001951 0.014346 0.000000 0.000000 0.000000
# 4 0.000000 0.000000 0.000000 0.063501 0.000000 0.000000
# 5 0.000000 0.000000 0.000000 0.000000 0.036854 0.000000
# 6 0.000000 0.000000 0.000000 0.000000 0.000000 0.038110
#
#
# Mechanical properties :
#
#
# Convention : Reuss Voigt Hill
#
# Bulk Modulus (GPa) = 54.09257 56.01045 55.05151
# Shear Modulus (GPa) = 25.21920 27.55885 26.38903
#
# Velocity S-wave (km/s) = 3.42650 3.58192 3.50507
# Velocity P-wave (km/s) = 6.39043 6.57136 6.48153
#
# Compressibility (1/GPa) = 0.01848683
#
# Stress axis : x y z
#
# Youngs Moduli (GPa) = 89.63320 94.71237 69.70629
#
# Poissons Ratio (x) = 0.29777 0.25737
# Poissons Ratio (y) = 0.28180 0.13598
# Poissons Ratio (z) = 0.33095 0.18477
#
# Static dielectric constant tensor:
#      x y z
#    x 1.791090 0.000000 0.000000 
#    y 0.000000 1.697630 0.000000 
#    z 0.000000 0.000000 1.799610 
# 
# From -- ./inp_files/12086.got.cif
#   From: 2010.05.17/outbox.cif.g08.bks.cpg/sg23_7_cif.got.tgz:12086.got - 2010.06.04 12:02:01.
