data_PCOD9330934
_publ_section_title
;
Structure prediction by ZEFSAII (Michael W. Deem and Ramdas Pophale) SiO2 
 PCOD9330934
Probable space group: I 2 2 2
;
_chemical_formula_sum "Si O2"
_cell_formula_units_Z 56
_cell_length_a 22.042805
_cell_length_b 13.648296
_cell_length_c 9.073107
_cell_angle_alpha 90.000000
_cell_angle_beta 90.000000
_cell_angle_gamma 90.000000
_cell_volume 2729.614547
_symmetry_space_group_name_H-M "I 2 2 2"
_symmetry_group_IT_number 23
_symmetry_cell_setting 'orthorhombic'
loop_
_space_group_symop_operation_xyz
x,y,z
-x,-y,z
x,-y,-z
-x,y,-z
1/2+x,1/2+y,1/2+z
1/2-x,1/2-y,1/2+z
1/2+x,1/2-y,1/2-z
1/2-x,1/2+y,1/2-z
loop_
_atom_site_type_symbol
_atom_site_label
_atom_site_fract_x
_atom_site_fract_y
_atom_site_fract_z
Si Si1 0.316778 0.029230 0.664379
Si Si2 0.196541 0.747585 0.542063
Si Si3 0.994426 0.617147 0.321074
Si Si4 0.872644 0.643708 0.696638
Si Si5 0.669150 0.311385 0.599351
Si Si6 0.622713 0.233642 0.305803
Si Si7 0.683781 0.440671 0.862290
O O1 0.332287 0.141704 0.676919
O O2 0.245959 0.004935 0.681800
O O3 0.335568 0.000000 0.500000
O O4 0.355898 0.968246 0.779106
O O5 0.147935 0.677017 0.463454
O O6 0.259000 0.687993 0.561223
O O7 0.159488 0.791016 0.679981
O O8 0.206941 0.839561 0.436430
O O9 0.939760 0.681166 0.249457
O O10 0.000000 0.500000 0.283451
O O11 0.000000 0.622408 0.500000
O O12 0.057745 0.662645 0.268801
O O13 0.835734 0.709645 0.810768
O O14 0.626941 0.296361 0.455847
O O15 0.652874 0.400225 0.712205
O O16 0.654091 0.500000 0.000000
#
# Coordination Sequence:
#
# PCOD9330934 Si02
#       7
#     8   8   8   8   8   8   8
#     4  11  19  34  55  87 125 168 210 246 308 376
#     4  11  21  38  58  85 124 167 213 266 328 380
#     4  11  23  37  55  87 129 176 220 250 299 394
#     4  11  22  37  59  85 127 177 209 251 315 390
#     4  11  21  37  57  87 117 163 218 267 325 375
#     4  12  21  36  58  86 126 168 213 264 304 375
#     4  10  21  38  59  82 120 163 210 269 330 390
#
# _framework density 20.515718
#
# number of rings (size 3 to 8) (size 9 to 14) (size 15 to 20)
#    0.000    1.000    7.143    1.714    0.000    1.143 
#    0.000    3.571    0.000    0.000    0.000    8.000 
#    0.000    9.143    0.000    0.000    0.000    0.000 
#
# Total GULP energy -155952.790084 kJ/mol
# GULP energy per Si atom -5569.742503 kJ/mol
# Density = 2.046902 g / cm^3
# Si number density = 20.515718 Si / 1000 Ang^3
#
#
#
# Elastic Constant Matrix: (Units=GPa)
#
#
# Indices 1 2 3 4 5 6 
#
# 1 98.9912 26.2069 34.7584 0.0000 0.0000 0.0000
# 2 26.2069 35.4824 29.2264 0.0000 0.0000 0.0000
# 3 34.7584 29.2264 105.3057 0.0000 0.0000 0.0000
# 4 0.0000 0.0000 0.0000 42.7752 0.0000 0.0000
# 5 0.0000 0.0000 0.0000 0.0000 19.2273 0.0000
# 6 0.0000 0.0000 0.0000 0.0000 0.0000 13.5395
#
#
#
# Elastic Compliance Matrix: (Units=1/GPa)
#
#
# Indices 1 2 3 4 5 6 
#
# 1 0.012903 -0.007807 -0.002092 0.000000 0.000000 0.000000
# 2 -0.007807 0.041258 -0.008874 0.000000 0.000000 0.000000
# 3 -0.002092 -0.008874 0.012650 0.000000 0.000000 0.000000
# 4 0.000000 0.000000 0.000000 0.023378 0.000000 0.000000
# 5 0.000000 0.000000 0.000000 0.000000 0.052009 0.000000
# 6 0.000000 0.000000 0.000000 0.000000 0.000000 0.073858
#
#
# Mechanical properties :
#
#
# Convention : Reuss Voigt Hill
#
# Bulk Modulus (GPa) = 34.17041 46.68473 40.42757
# Shear Modulus (GPa) = 18.98557 25.08091 22.03324
#
# Velocity S-wave (km/s) = 3.04536 3.50025 3.28070
# Velocity P-wave (km/s) = 5.39050 6.25625 5.83944
#
# Compressibility (1/GPa) = 0.02926509
#
# Stress axis : x y z
#
# Youngs Moduli (GPa) = 77.49924 24.23751 79.05353
#
# Poissons Ratio (x) = 0.18922 0.16541
# Poissons Ratio (y) = 0.60502 0.70152
# Poissons Ratio (z) = 0.16215 0.21508
#
# Static dielectric constant tensor:
#      x y z
#    x 1.716470 0.000000 0.000000 
#    y 0.000000 1.776940 0.000000 
#    z 0.000000 0.000000 2.341460 
# 
# From -- ./inp_files/12035.got.cif
#   From: 2010.05.17/outbox.cif.g08.bks.cpg/sg23_7_cif.got.tgz:12035.got - 2010.06.04 12:02:01.
