data_PCOD9330936
_publ_section_title
;
Structure prediction by ZEFSAII (Michael W. Deem and Ramdas Pophale) SiO2 
 PCOD9330936
Probable space group: I 2 2 2
;
_chemical_formula_sum "Si O2"
_cell_formula_units_Z 56
_cell_length_a 15.599789
_cell_length_b 7.875308
_cell_length_c 22.700172
_cell_angle_alpha 90.000000
_cell_angle_beta 90.000000
_cell_angle_gamma 90.000000
_cell_volume 2788.787479
_symmetry_space_group_name_H-M "I 2 2 2"
_symmetry_group_IT_number 23
_symmetry_cell_setting 'orthorhombic'
loop_
_space_group_symop_operation_xyz
x,y,z
-x,-y,z
x,-y,-z
-x,y,-z
1/2+x,1/2+y,1/2+z
1/2-x,1/2-y,1/2+z
1/2+x,1/2-y,1/2-z
1/2-x,1/2+y,1/2-z
loop_
_atom_site_type_symbol
_atom_site_label
_atom_site_fract_x
_atom_site_fract_y
_atom_site_fract_z
Si Si1 0.933739 0.143960 0.750513
Si Si2 0.061571 0.766420 0.621706
Si Si3 0.250185 0.761462 0.782884
Si Si4 0.500000 0.000000 0.702167
Si Si5 0.118819 0.384025 0.617497
Si Si6 0.778535 0.850682 0.452185
Si Si7 0.211777 0.500000 0.500000
Si Si8 0.183512 0.591539 0.169980
O O1 0.920789 0.126456 0.680272
O O2 0.840881 0.140778 0.780507
O O3 0.973239 0.332496 0.761010
O O4 0.000000 0.000000 0.770586
O O5 0.089260 0.572627 0.635543
O O6 0.121939 0.826297 0.568291
O O7 0.960186 0.746502 0.611371
O O8 0.314190 0.825697 0.833294
O O9 0.223336 0.572956 0.799106
O O10 0.294493 0.767089 0.718800
O O11 0.582506 0.058328 0.665505
O O12 0.157877 0.417189 0.553210
O O13 0.743745 0.667780 0.474426
O O14 0.727662 0.887373 0.392404
O O15 0.770722 0.000000 0.500000
#
# Coordination Sequence:
#
# PCOD9330936 Si02
#       8
#     8   8   8   4   8   8   4   8
#     4  11  23  37  60  94 128 169 217 268 335 392
#     4  10  21  38  59  90 127 171 215 261 326 389
#     4  11  23  38  63  96 128 173 217 277 337 394
#     4  10  24  42  61  90 130 165 212 272 334 398
#     4  10  21  39  64  88 130 172 217 266 323 399
#     4  11  24  43  63  95 131 170 224 275 327 405
#     4  10  24  41  64  90 127 178 214 260 325 396
#     4  11  24  42  65  95 130 170 220 275 343 397
#
# _framework density 20.080411999999999
#
# number of rings (size 3 to 8) (size 9 to 14) (size 15 to 20)
#    0.000    1.429    1.429    4.286    6.000    5.714 
#    0.000    2.500    0.000    0.000    0.000   15.500 
#    0.000    0.000    0.000    0.000    0.000    0.000 
#
# Total GULP energy -156417.466021 kJ/mol
# GULP energy per Si atom -5586.338072 kJ/mol
# Density = 2.003471 g / cm^3
# Si number density = 20.080412 Si / 1000 Ang^3
#
#
#
# Elastic Constant Matrix: (Units=GPa)
#
#
# Indices 1 2 3 4 5 6 
#
# 1 107.1858 45.4913 56.0292 0.0000 0.0000 0.0000
# 2 45.4913 93.9721 44.1445 0.0000 0.0000 0.0000
# 3 56.0292 44.1445 125.0581 0.0000 0.0000 0.0000
# 4 0.0000 0.0000 0.0000 19.3866 0.0000 0.0000
# 5 0.0000 0.0000 0.0000 0.0000 14.1551 0.0000
# 6 0.0000 0.0000 0.0000 0.0000 0.0000 24.7722
#
#
#
# Elastic Compliance Matrix: (Units=1/GPa)
#
#
# Indices 1 2 3 4 5 6 
#
# 1 0.013578 -0.004454 -0.004511 0.000000 0.000000 0.000000
# 2 -0.004454 0.014218 -0.003023 0.000000 0.000000 0.000000
# 3 -0.004511 -0.003023 0.011085 0.000000 0.000000 0.000000
# 4 0.000000 0.000000 0.000000 0.051582 0.000000 0.000000
# 5 0.000000 0.000000 0.000000 0.000000 0.070646 0.000000
# 6 0.000000 0.000000 0.000000 0.000000 0.000000 0.040368
#
#
# Mechanical properties :
#
#
# Convention : Reuss Voigt Hill
#
# Bulk Modulus (GPa) = 67.09713 68.61622 67.85667
# Shear Modulus (GPa) = 21.69943 23.69949 22.69946
#
# Velocity S-wave (km/s) = 3.29085 3.43917 3.36583
# Velocity P-wave (km/s) = 6.92289 7.07216 6.99792
#
# Compressibility (1/GPa) = 0.01490377
#
# Stress axis : x y z
#
# Youngs Moduli (GPa) = 73.64869 70.33441 90.21539
#
# Poissons Ratio (x) = 0.31326 0.40697
# Poissons Ratio (y) = 0.32802 0.27275
# Poissons Ratio (z) = 0.33224 0.21264
#
# Static dielectric constant tensor:
#      x y z
#    x 1.733580 0.000000 0.000000 
#    y 0.000000 1.767360 0.000000 
#    z 0.000000 0.000000 1.759790 
# 
# From -- ./inp_files/27031.got.cif
#   From: 2010.05.17/outbox.cif.g08.bks.cpg/sg23_14_cif.got.tgz:27031.got - 2010.06.04 12:02:01.
