data_PCOD9330287
_publ_section_title
;
Structure prediction by ZEFSAII (Michael W. Deem and Ramdas Pophale) SiO2 
 PCOD9330287
Probable space group: I 2 2 2
;
_chemical_formula_sum "Si O2"
_cell_formula_units_Z 52
_cell_length_a 7.548470
_cell_length_b 22.696451
_cell_length_c 14.585389
_cell_angle_alpha 90.000000
_cell_angle_beta 90.000000
_cell_angle_gamma 90.000000
_cell_volume 2498.819593
_symmetry_space_group_name_H-M "I 2 2 2"
_symmetry_group_IT_number 23
_symmetry_cell_setting 'orthorhombic'
loop_
_space_group_symop_operation_xyz
x,y,z
-x,-y,z
x,-y,-z
-x,y,-z
1/2+x,1/2+y,1/2+z
1/2-x,1/2-y,1/2+z
1/2+x,1/2-y,1/2-z
1/2-x,1/2+y,1/2-z
loop_
_atom_site_type_symbol
_atom_site_label
_atom_site_fract_x
_atom_site_fract_y
_atom_site_fract_z
Si Si1 0.307998 0.089861 0.957917
Si Si2 0.192361 0.680896 0.887899
Si Si3 0.297626 0.674989 0.688692
Si Si4 0.306077 0.807073 0.697357
Si Si5 0.825806 0.886493 0.454247
Si Si6 0.000000 0.000000 0.000000
Si Si7 0.000000 0.000000 0.500000
Si Si8 0.810638 0.187644 0.897440
O O1 0.316376 0.124705 0.861224
O O2 0.500000 0.069737 0.000000
O O3 0.243023 0.139457 0.029574
O O4 0.146054 0.042535 0.950338
O O5 0.313087 0.666582 0.798844
O O6 0.221965 0.745535 0.932229
O O7 0.002932 0.689685 0.840925
O O8 0.190326 0.631014 0.965368
O O9 0.227348 0.742063 0.678777
O O10 0.488239 0.677002 0.637746
O O11 0.209624 0.857320 0.641332
O O12 0.301222 0.817034 0.804802
O O13 0.000000 0.857794 0.500000
O O14 0.874312 0.954968 0.445829
#
# Coordination Sequence:
#
# PCOD9330287 Si02
#       8
#     8   8   8   8   8   2   2   8
#     4  12  24  42  66  89 123 167 215 258 311 369
#     4  10  20  34  60  93 123 153 198 253 318 379
#     4  10  20  37  59  92 128 157 192 254 319 379
#     4  10  20  34  60  93 123 153 198 253 318 379
#     4  10  20  38  56  78 113 160 202 249 299 362
#     4  12  26  48  62  90 124 178 218 262 298 362
#     4   8  24  40  56  80 112 162 226 230 294 364
#     4  10  20  37  59  92 128 157 192 254 319 379
#
# _framework density 20.809826000000001
#
# number of rings (size 3 to 8) (size 9 to 14) (size 15 to 20)
#    0.462    1.231    1.538    3.462    0.000    7.385 
#    0.000    4.615    0.000    0.000    0.000    0.000 
#    0.000    0.000    0.000    0.000    0.000    0.000 
#
# Total GULP energy -144894.723020 kJ/mol
# GULP energy per Si atom -5572.873962 kJ/mol
# Density = 2.076246 g / cm^3
# Si number density = 20.809826 Si / 1000 Ang^3
#
#
#
# Elastic Constant Matrix: (Units=GPa)
#
#
# Indices 1 2 3 4 5 6 
#
# 1 81.7589 30.8474 12.3170 0.0000 0.0000 0.0000
# 2 30.8474 115.7866 40.4500 0.0000 0.0000 -0.0001
# 3 12.3170 40.4500 52.6833 0.0000 0.0000 0.0006
# 4 0.0000 0.0000 0.0000 12.0513 0.0000 0.0002
# 5 0.0000 0.0000 0.0000 0.0000 28.9100 -0.0001
# 6 0.0000 -0.0001 0.0006 0.0002 -0.0001 99.8005
#
#
#
# Elastic Compliance Matrix: (Units=1/GPa)
#
#
# Indices 1 2 3 4 5 6 
#
# 1 0.013609 -0.003436 -0.000544 0.000000 0.000000 0.000000
# 2 -0.003436 0.012670 -0.008924 0.000000 0.000000 0.000000
# 3 -0.000544 -0.008924 0.025961 0.000000 0.000000 0.000000
# 4 0.000000 0.000000 0.000000 0.082978 0.000000 0.000000
# 5 0.000000 0.000000 0.000000 0.000000 0.034590 0.000000
# 6 0.000000 0.000000 0.000000 0.000000 0.000000 0.010020
#
#
# Mechanical properties :
#
#
# Convention : Reuss Voigt Hill
#
# Bulk Modulus (GPa) = 37.83355 46.38419 42.10887
# Shear Modulus (GPa) = 23.31581 39.25999 31.28790
#
# Velocity S-wave (km/s) = 3.35090 4.34822 3.88173
# Velocity P-wave (km/s) = 5.76121 6.89546 6.35369
#
# Compressibility (1/GPa) = 0.02643157
#
# Stress axis : x y z
#
# Youngs Moduli (GPa) = 73.47915 78.92855 38.51979
#
# Poissons Ratio (x) = 0.27118 0.02095
# Poissons Ratio (y) = 0.25246 0.34377
# Poissons Ratio (z) = 0.03996 0.70440
#
# Static dielectric constant tensor:
#      x y z
#    x 1.868100 0.000000 0.000000 
#    y 0.000000 1.743330 0.000000 
#    z 0.000000 0.000000 1.770630 
# 
# From -- ./inp_files/20167.got.cif
#   From: 2010.05.17/outbox.cif.g08.bks.cpg/sg23_11_cif.got.tgz:20167.got - 2010.06.04 12:02:01.
