data_PCOD9330044
_publ_section_title
;
Structure prediction by ZEFSAII (Michael W. Deem and Ramdas Pophale) SiO2 
 PCOD9330044
Probable space group: I 2 2 2
;
_chemical_formula_sum "Si O2"
_cell_formula_units_Z 60
_cell_length_a 22.233096
_cell_length_b 14.639967
_cell_length_c 9.408797
_cell_angle_alpha 90.000000
_cell_angle_beta 90.000000
_cell_angle_gamma 90.000000
_cell_volume 3062.486194
_symmetry_space_group_name_H-M "I 2 2 2"
_symmetry_group_IT_number 23
_symmetry_cell_setting 'orthorhombic'
loop_
_space_group_symop_operation_xyz
x,y,z
-x,-y,z
x,-y,-z
-x,y,-z
1/2+x,1/2+y,1/2+z
1/2-x,1/2-y,1/2+z
1/2+x,1/2-y,1/2-z
1/2-x,1/2+y,1/2-z
loop_
_atom_site_type_symbol
_atom_site_label
_atom_site_fract_x
_atom_site_fract_y
_atom_site_fract_z
Si Si1 0.290341 0.691881 0.063749
Si Si2 0.902579 0.237957 0.742510
Si Si3 0.753824 0.940086 0.182198
Si Si4 0.963933 0.412462 0.646617
Si Si5 0.563397 0.532488 0.835336
Si Si6 0.328161 0.596628 0.779293
Si Si7 0.675388 0.691290 0.499818
Si Si8 0.852422 0.500000 0.500000
O O1 0.342393 0.748751 0.144181
O O2 0.261331 0.625013 0.181755
O O3 0.320755 0.635180 0.936857
O O4 0.236084 0.749159 0.997559
O O5 0.950980 0.318493 0.727337
O O6 0.928287 0.140081 0.690392
O O7 0.876945 0.230877 0.902112
O O8 0.804114 0.903405 0.072962
O O9 0.768056 0.042422 0.233802
O O10 0.691274 0.939546 0.098495
O O11 0.897810 0.446436 0.602006
O O12 0.000000 0.500000 0.711329
O O13 0.000000 0.392572 0.500000
O O14 0.500000 0.500000 0.772948
O O15 0.619401 0.477878 0.772134
O O16 0.563170 0.500000 0.000000
O O17 0.340457 0.674134 0.663454
#
# Coordination Sequence:
#
# PCOD9330044 Si02
#       8
#     8   8   8   8   8   8   8   4
#     4  11  23  36  58  96 132 170 212 256 326 401
#     4  11  22  40  63  93 129 165 218 275 323 394
#     4  11  20  35  59  88 126 171 204 259 328 385
#     4   9  22  41  63  95 124 167 233 283 322 379
#     4  11  23  40  63  95 119 170 214 264 329 379
#     4  12  20  40  57  89 138 167 205 268 320 401
#     4  11  23  35  59  91 131 167 207 259 330 390
#     4  10  19  36  64  94 121 170 218 268 330 378
#
# _framework density 19.591923999999999
#
# number of rings (size 3 to 8) (size 9 to 14) (size 15 to 20)
#    0.000    1.333    5.333    2.800    3.733    0.000 
#    0.000    1.333    0.000    0.000    0.000    8.400 
#    0.000    0.000    0.000    0.000    0.000    0.000 
#
# Total GULP energy -167380.144516 kJ/mol
# GULP energy per Si atom -5579.338151 kJ/mol
# Density = 1.954733 g / cm^3
# Si number density = 19.591924 Si / 1000 Ang^3
#
#
#
# Elastic Constant Matrix: (Units=GPa)
#
#
# Indices 1 2 3 4 5 6 
#
# 1 97.1432 50.9237 29.1984 0.0000 0.0000 0.0000
# 2 50.9237 109.9821 35.4982 0.0000 0.0000 0.0000
# 3 29.1984 35.4982 83.8527 0.0000 0.0000 0.0000
# 4 0.0000 0.0000 0.0000 26.3700 0.0000 0.0000
# 5 0.0000 0.0000 0.0000 0.0000 17.5866 0.0000
# 6 0.0000 0.0000 0.0000 0.0000 0.0000 28.5937
#
#
#
# Elastic Compliance Matrix: (Units=1/GPa)
#
#
# Indices 1 2 3 4 5 6 
#
# 1 0.014022 -0.005695 -0.002472 0.000000 0.000000 0.000000
# 2 -0.005695 0.012844 -0.003454 0.000000 0.000000 0.000000
# 3 -0.002472 -0.003454 0.014249 0.000000 0.000000 0.000000
# 4 0.000000 0.000000 0.000000 0.037922 0.000000 0.000000
# 5 0.000000 0.000000 0.000000 0.000000 0.056861 0.000000
# 6 0.000000 0.000000 0.000000 0.000000 0.000000 0.034973
#
#
# Mechanical properties :
#
#
# Convention : Reuss Voigt Hill
#
# Bulk Modulus (GPa) = 55.95014 58.02427 56.98720
# Shear Modulus (GPa) = 24.99110 26.20058 25.59584
#
# Velocity S-wave (km/s) = 3.57540 3.66090 3.61840
# Velocity P-wave (km/s) = 6.75755 6.89567 6.82696
#
# Compressibility (1/GPa) = 0.01787306
#
# Stress axis : x y z
#
# Youngs Moduli (GPa) = 71.31482 77.85657 70.18116
#
# Poissons Ratio (x) = 0.44337 0.17348
# Poissons Ratio (y) = 0.40612 0.24244
# Poissons Ratio (z) = 0.17628 0.26895
#
# Static dielectric constant tensor:
#      x y z
#    x 1.690760 0.000000 0.000000 
#    y 0.000000 1.743400 0.000000 
#    z 0.000000 0.000000 1.699780 
# 
# From -- ./inp_files/12691.got.cif
#   From: 2010.05.17/outbox.cif.g08.bks.cpg/sg23_7_cif.got.tgz:12691.got - 2010.06.04 12:02:01.
