data_PCOD9330207
_publ_section_title
;
Structure prediction by ZEFSAII (Michael W. Deem and Ramdas Pophale) SiO2 
 PCOD9330207
Probable space group: I 2 2 2
;
_chemical_formula_sum "Si O2"
_cell_formula_units_Z 52
_cell_length_a 9.191035
_cell_length_b 9.640917
_cell_length_c 29.348102
_cell_angle_alpha 90.000000
_cell_angle_beta 90.000000
_cell_angle_gamma 90.000000
_cell_volume 2600.535482
_symmetry_space_group_name_H-M "I 2 2 2"
_symmetry_group_IT_number 23
_symmetry_cell_setting 'orthorhombic'
loop_
_space_group_symop_operation_xyz
x,y,z
-x,-y,z
x,-y,-z
-x,y,-z
1/2+x,1/2+y,1/2+z
1/2-x,1/2-y,1/2+z
1/2+x,1/2-y,1/2-z
1/2-x,1/2+y,1/2-z
loop_
_atom_site_type_symbol
_atom_site_label
_atom_site_fract_x
_atom_site_fract_y
_atom_site_fract_z
Si Si1 0.010869 0.733597 0.950902
Si Si2 0.000000 0.000000 0.785261
Si Si3 0.733552 0.818171 0.703830
Si Si4 0.046591 0.749612 0.719981
Si Si5 0.203550 0.088496 0.352545
Si Si6 0.243160 0.499970 0.950062
Si Si7 0.966830 0.211601 0.146706
O O1 0.160263 0.646973 0.943558
O O2 0.885533 0.615093 0.953803
O O3 0.981042 0.823125 0.906239
O O4 0.000000 0.805072 0.000000
O O5 0.932587 0.112953 0.751750
O O6 0.094285 0.091087 0.820699
O O7 0.641401 0.854754 0.749460
O O8 0.622945 0.749442 0.667973
O O9 0.874026 0.727424 0.717742
O O10 0.796742 0.952512 0.678501
O O11 0.104670 0.793355 0.670587
O O12 0.172081 0.044403 0.404534
O O13 0.365411 0.153392 0.350706
O O14 0.316243 0.500000 0.000000
#
# Coordination Sequence:
#
# PCOD9330207 Si02
#       7
#     8   4   8   8   8   8   8
#     4   8  13  25  45  74 101 128 168 212 254 306
#     4  10  20  34  43  68 105 132 162 212 262 292
#     4  11  21  35  51  73  99 136 178 213 259 317
#     4  11  22  36  51  72 106 138 170 218 263 315
#     4  11  19  33  56  78 100 137 180 214 268 318
#     4   8  14  25  45  77 103 126 167 219 258 308
#     4  10  20  32  53  74 100 137 170 215 263 313
#
# _framework density 19.995882000000002
#
# number of rings (size 3 to 8) (size 9 to 14) (size 15 to 20)
#    0.000    2.154    3.077    3.231    0.000    0.000 
#    0.000    0.385    0.000    1.846    0.000    0.000 
#    0.000    0.000    0.000   15.077    0.615    0.000 
#
# Total GULP energy -144757.416067 kJ/mol
# GULP energy per Si atom -5567.592926 kJ/mol
# Density = 1.995037 g / cm^3
# Si number density = 19.995882 Si / 1000 Ang^3
#
#
#
# Elastic Constant Matrix: (Units=GPa)
#
#
# Indices 1 2 3 4 5 6 
#
# 1 83.4553 -9.1554 32.0946 0.0000 0.0000 0.0000
# 2 -9.1554 22.5555 12.1665 0.0000 0.0000 0.0000
# 3 32.0946 12.1665 165.7818 0.0000 0.0000 0.0000
# 4 0.0000 0.0000 0.0000 27.8677 0.0000 0.0000
# 5 0.0000 0.0000 0.0000 0.0000 17.9838 0.0000
# 6 0.0000 0.0000 0.0000 0.0000 0.0000 14.0886
#
#
#
# Elastic Compliance Matrix: (Units=1/GPa)
#
#
# Indices 1 2 3 4 5 6 
#
# 1 0.014060 0.007471 -0.003270 0.000000 0.000000 0.000000
# 2 0.007471 0.050132 -0.005125 0.000000 0.000000 0.000000
# 3 -0.003270 -0.005125 0.007041 0.000000 0.000000 0.000000
# 4 0.000000 0.000000 0.000000 0.035884 0.000000 0.000000
# 5 0.000000 0.000000 0.000000 0.000000 0.055605 0.000000
# 6 0.000000 0.000000 0.000000 0.000000 0.000000 0.070979
#
#
# Mechanical properties :
#
#
# Convention : Reuss Voigt Hill
#
# Bulk Modulus (GPa) = 14.41264 38.00045 26.20655
# Shear Modulus (GPa) = 19.32895 27.76715 23.54805
#
# Velocity S-wave (km/s) = 3.11247 3.73049 3.43541
# Velocity P-wave (km/s) = 4.48777 6.13195 5.37312
#
# Compressibility (1/GPa) = 0.06938352
#
# Stress axis : x y z
#
# Youngs Moduli (GPa) = 71.12551 19.94725 142.01993
#
# Poissons Ratio (x) = -0.14902 0.46443
# Poissons Ratio (y) = -0.53136 0.72792
# Poissons Ratio (z) = 0.23259 0.10224
#
# Static dielectric constant tensor:
#      x y z
#    x 1.745810 0.000000 0.000000 
#    y 0.000000 1.776330 0.000000 
#    z 0.000000 0.000000 1.767230 
# 
# From -- ./inp_files/30305.got.cif
#   From: 2010.05.17/outbox.cif.g08.bks.cpg/sg23_16_cif.got.tgz:30305.got - 2010.06.04 12:02:01.
