data_PCOD9330572
_publ_section_title
;
Structure prediction by ZEFSAII (Michael W. Deem and Ramdas Pophale) SiO2 
 PCOD9330572
Probable space group: I 2 2 2
;
_chemical_formula_sum "Si O2"
_cell_formula_units_Z 58
_cell_length_a 13.468879
_cell_length_b 9.133576
_cell_length_c 22.227353
_cell_angle_alpha 90.000000
_cell_angle_beta 90.000000
_cell_angle_gamma 90.000000
_cell_volume 2734.387405
_symmetry_space_group_name_H-M "I 2 2 2"
_symmetry_group_IT_number 23
_symmetry_cell_setting 'orthorhombic'
loop_
_space_group_symop_operation_xyz
x,y,z
-x,-y,z
x,-y,-z
-x,y,-z
1/2+x,1/2+y,1/2+z
1/2-x,1/2-y,1/2+z
1/2+x,1/2-y,1/2-z
1/2-x,1/2+y,1/2-z
loop_
_atom_site_type_symbol
_atom_site_label
_atom_site_fract_x
_atom_site_fract_y
_atom_site_fract_z
Si Si1 0.570493 0.125530 0.336134
Si Si2 0.761471 0.570834 0.774895
Si Si3 0.182789 0.094531 0.141886
Si Si4 0.276582 0.865460 0.541743
Si Si5 0.881996 0.217158 0.153204
Si Si6 0.617457 0.472204 0.873282
Si Si7 0.167595 0.680832 0.441279
Si Si8 0.000000 0.500000 0.500000
O O1 0.635123 0.245762 0.371534
O O2 0.481903 0.229278 0.313070
O O3 0.500000 0.000000 0.365659
O O4 0.646999 0.038983 0.292907
O O5 0.737481 0.596498 0.705984
O O6 0.792776 0.725783 0.804608
O O7 0.664636 0.508421 0.808641
O O8 0.262617 0.064445 0.090852
O O9 0.112767 0.954777 0.143903
O O10 0.354457 0.795036 0.588993
O O11 0.227541 0.750016 0.496661
O O12 0.315942 0.000000 0.500000
O O13 0.184981 0.931333 0.580972
O O14 0.500000 0.500000 0.877072
O O15 0.640985 0.307799 0.893926
O O16 0.068561 0.604265 0.461302
#
# Coordination Sequence:
#
# PCOD9330572 Si02
#       8
#     8   8   8   8   8   8   8   2
#     4  10  22  43  67  93 131 174 226 276 335 410
#     4  10  22  43  64  93 137 175 223 278 338 413
#     4  12  23  41  65  99 139 182 215 286 354 404
#     4   9  20  40  67  95 129 177 227 286 343 417
#     4  10  22  39  68  98 128 177 228 281 337 406
#     4  10  20  38  67  94 124 173 234 276 337 417
#     4  11  23  40  65  90 142 176 222 286 354 401
#     4  12  24  40  58 104 134 180 228 294 346 424
#
# _framework density 21.211334000000001
#
# number of rings (size 3 to 8) (size 9 to 14) (size 15 to 20)
#    0.000    1.655    1.379    2.897    1.931    4.138 
#    6.207    0.690    3.034    1.655    0.000    0.000 
#    0.000    0.000    0.000    0.000    0.000    0.000 
#
# Total GULP energy -161679.497990 kJ/mol
# GULP energy per Si atom -5575.155103 kJ/mol
# Density = 2.116306 g / cm^3
# Si number density = 21.211334 Si / 1000 Ang^3
#
#
#
# Elastic Constant Matrix: (Units=GPa)
#
#
# Indices 1 2 3 4 5 6 
#
# 1 90.4828 38.5034 14.8769 0.0000 0.0000 0.0000
# 2 38.5034 98.6339 27.2230 0.0000 0.0000 0.0000
# 3 14.8769 27.2230 74.1253 0.0000 0.0000 0.0000
# 4 0.0000 0.0000 0.0000 13.8484 0.0000 0.0000
# 5 0.0000 0.0000 0.0000 0.0000 42.0269 0.0000
# 6 0.0000 0.0000 0.0000 0.0000 0.0000 24.9578
#
#
#
# Elastic Compliance Matrix: (Units=1/GPa)
#
#
# Indices 1 2 3 4 5 6 
#
# 1 0.013301 -0.004958 -0.000849 0.000000 0.000000 0.000000
# 2 -0.004958 0.013130 -0.003827 0.000000 0.000000 0.000000
# 3 -0.000849 -0.003827 0.015067 0.000000 0.000000 0.000000
# 4 0.000000 0.000000 0.000000 0.072211 0.000000 0.000000
# 5 0.000000 0.000000 0.000000 0.000000 0.023794 0.000000
# 6 0.000000 0.000000 0.000000 0.000000 0.000000 0.040068
#
#
# Mechanical properties :
#
#
# Convention : Reuss Voigt Hill
#
# Bulk Modulus (GPa) = 44.98368 47.16096 46.07232
# Shear Modulus (GPa) = 24.48001 28.34253 26.41127
#
# Velocity S-wave (km/s) = 3.40089 3.65937 3.53249
# Velocity P-wave (km/s) = 6.05597 6.33536 6.19724
#
# Compressibility (1/GPa) = 0.02223028
#
# Stress axis : x y z
#
# Youngs Moduli (GPa) = 75.18119 76.15990 66.37236
#
# Poissons Ratio (x) = 0.37761 0.05633
# Poissons Ratio (y) = 0.37276 0.25401
# Poissons Ratio (z) = 0.06380 0.29147
#
# Static dielectric constant tensor:
#      x y z
#    x 1.784440 0.000000 0.000000 
#    y 0.000000 1.570320 0.000000 
#    z 0.000000 0.000000 1.769210 
# 
# From -- ./inp_files/29471.got.cif
#   From: 2010.05.17/outbox.cif.g08.bks.cpg/sg23_15_cif.got.tgz:29471.got - 2010.06.04 12:02:01.
