data_PCOD9330799
_publ_section_title
;
Structure prediction by ZEFSAII (Michael W. Deem and Ramdas Pophale) SiO2 
 PCOD9330799
Probable space group: I 2 2 2
;
_chemical_formula_sum "Si O2"
_cell_formula_units_Z 56
_cell_length_a 11.210955
_cell_length_b 11.782638
_cell_length_c 19.077933
_cell_angle_alpha 90.000000
_cell_angle_beta 90.000000
_cell_angle_gamma 90.000000
_cell_volume 2520.092394
_symmetry_space_group_name_H-M "I 2 2 2"
_symmetry_group_IT_number 23
_symmetry_cell_setting 'orthorhombic'
loop_
_space_group_symop_operation_xyz
x,y,z
-x,-y,z
x,-y,-z
-x,y,-z
1/2+x,1/2+y,1/2+z
1/2-x,1/2-y,1/2+z
1/2+x,1/2-y,1/2-z
1/2-x,1/2+y,1/2-z
loop_
_atom_site_type_symbol
_atom_site_label
_atom_site_fract_x
_atom_site_fract_y
_atom_site_fract_z
Si Si1 0.241706 0.367019 0.473683
Si Si2 0.786004 0.149897 0.262105
Si Si3 0.359490 0.367370 0.981268
Si Si4 0.802922 0.145123 0.822128
Si Si5 0.458214 0.630729 0.628996
Si Si6 0.124384 0.558722 0.655651
Si Si7 0.627864 0.440820 0.170874
O O1 0.252764 0.500000 0.500000
O O2 0.206519 0.246769 0.511204
O O3 0.365850 0.343846 0.432626
O O4 0.133005 0.380090 0.418331
O O5 0.795432 0.262264 0.306326
O O6 0.887372 0.147296 0.202159
O O7 0.663741 0.139746 0.218522
O O8 0.786037 0.047051 0.316293
O O9 0.342875 0.367511 0.896588
O O10 0.324418 0.500000 0.000000
O O11 0.500000 0.359014 0.000000
O O12 0.731417 0.034803 0.846766
O O13 0.862154 0.117247 0.746632
O O14 0.911671 0.188212 0.869797
O O15 0.500000 0.500000 0.625066
O O16 0.000000 0.500000 0.667497
O O17 0.500000 0.500000 0.160644
#
# Coordination Sequence:
#
# PCOD9330799 Si02
#       7
#     8   8   8   8   8   8   8
#     4  11  26  44  69  97 131 183 237 303 341 395
#     4  10  21  34  61  95 130 177 213 272 335 412
#     4  11  25  44  67  98 136 181 234 284 354 426
#     4  11  21  37  65  99 135 178 219 273 346 415
#     4  11  19  44  62  96 134 174 241 273 333 435
#     4  10  23  39  56  99 137 165 219 286 339 403
#     4  11  18  38  64  89 130 175 216 268 332 414
#
# _framework density 22.221406999999999
#
# number of rings (size 3 to 8) (size 9 to 14) (size 15 to 20)
#    0.000    1.286    7.143    1.714    4.000    2.571 
#    0.000    0.000    0.000    0.000    0.000    0.000 
#    0.000    0.000    0.000    0.000    0.000    0.000 
#
# Total GULP energy -155976.674802 kJ/mol
# GULP energy per Si atom -5570.595529 kJ/mol
# Density = 2.217083 g / cm^3
# Si number density = 22.221407 Si / 1000 Ang^3
#
#
#
# Elastic Constant Matrix: (Units=GPa)
#
#
# Indices 1 2 3 4 5 6 
#
# 1 80.7068 28.4862 8.4156 0.0000 0.0000 0.0000
# 2 28.4862 133.5805 21.6486 0.0000 0.0000 0.0000
# 3 8.4156 21.6486 64.1741 0.0000 0.0000 0.0000
# 4 0.0000 0.0000 0.0000 41.3431 0.0000 0.0000
# 5 0.0000 0.0000 0.0000 0.0000 18.3097 0.0000
# 6 0.0000 0.0000 0.0000 0.0000 0.0000 18.3188
#
#
#
# Elastic Compliance Matrix: (Units=1/GPa)
#
#
# Indices 1 2 3 4 5 6 
#
# 1 0.013442 -0.002730 -0.000842 0.000000 0.000000 0.000000
# 2 -0.002730 0.008474 -0.002500 0.000000 0.000000 0.000000
# 3 -0.000842 -0.002500 0.016537 0.000000 0.000000 0.000000
# 4 0.000000 0.000000 0.000000 0.024188 0.000000 0.000000
# 5 0.000000 0.000000 0.000000 0.000000 0.054616 0.000000
# 6 0.000000 0.000000 0.000000 0.000000 0.000000 0.054589
#
#
# Mechanical properties :
#
#
# Convention : Reuss Voigt Hill
#
# Bulk Modulus (GPa) = 38.01221 43.95137 40.98179
# Shear Modulus (GPa) = 25.93926 30.25507 28.09716
#
# Velocity S-wave (km/s) = 3.42030 3.69389 3.55972
# Velocity P-wave (km/s) = 5.72199 6.16562 5.94794
#
# Compressibility (1/GPa) = 0.02630733
#
# Stress axis : x y z
#
# Youngs Moduli (GPa) = 74.39420 118.01423 60.47228
#
# Poissons Ratio (x) = 0.32219 0.05090
# Poissons Ratio (y) = 0.20310 0.15121
# Poissons Ratio (z) = 0.06262 0.29509
#
# Static dielectric constant tensor:
#      x y z
#    x 1.785830 0.000000 0.000000 
#    y 0.000000 1.957240 0.000000 
#    z 0.000000 0.000000 1.887090 
# 
# From -- ./inp_files/26720.got.cif
#   From: 2010.05.17/outbox.cif.g08.bks.cpg/sg23_14_cif.got.tgz:26720.got - 2010.06.04 12:02:01.
