data_PCOD9330701
_publ_section_title
;
Structure prediction by ZEFSAII (Michael W. Deem and Ramdas Pophale) SiO2 
 PCOD9330701
Probable space group: I 2 2 2
;
_chemical_formula_sum "Si O2"
_cell_formula_units_Z 42
_cell_length_a 23.171869
_cell_length_b 8.520774
_cell_length_c 10.825620
_cell_angle_alpha 90.000000
_cell_angle_beta 90.000000
_cell_angle_gamma 90.000000
_cell_volume 2137.434867
_symmetry_space_group_name_H-M "I 2 2 2"
_symmetry_group_IT_number 23
_symmetry_cell_setting 'orthorhombic'
loop_
_space_group_symop_operation_xyz
x,y,z
-x,-y,z
x,-y,-z
-x,y,-z
1/2+x,1/2+y,1/2+z
1/2-x,1/2-y,1/2+z
1/2+x,1/2-y,1/2-z
1/2-x,1/2+y,1/2-z
loop_
_atom_site_type_symbol
_atom_site_label
_atom_site_fract_x
_atom_site_fract_y
_atom_site_fract_z
Si Si1 0.928209 0.227080 0.169632
Si Si2 0.000000 0.000000 0.000000
Si Si3 0.588957 0.000000 0.000000
Si Si4 0.249003 0.359556 0.149673
Si Si5 0.794646 0.293533 0.108846
Si Si6 0.119262 0.848669 0.424149
Si Si7 0.000000 0.500000 0.279395
O O1 0.958784 0.107384 0.080903
O O2 0.862613 0.262785 0.127441
O O3 0.921075 0.157145 0.305662
O O4 0.970431 0.373502 0.190912
O O5 0.619775 0.167954 0.974524
O O6 0.550656 0.960220 0.878290
O O7 0.215815 0.523639 0.140933
O O8 0.254340 0.293202 0.288793
O O9 0.315423 0.385947 0.114006
O O10 0.223089 0.260675 0.033816
O O11 0.099485 0.000000 0.500000
#
# Coordination Sequence:
#
# PCOD9330701 Si02
#       7
#     8   2   4   8   8   8   4
#     4  10  25  42  63  90 128 169 223 261 324 385
#     4  12  28  46  56  92 126 178 228 258 324 384
#     4   9  20  36  67 102 127 156 214 265 340 380
#     4  10  22  40  62  95 129 165 213 257 331 390
#     4  10  22  41  61  95 125 166 214 264 321 394
#     4  10  20  41  67 100 129 164 211 273 327 390
#     4   9  20  43  60  94 122 165 213 272 318 384
#
# _framework density 19.649723000000002
#
# number of rings (size 3 to 8) (size 9 to 14) (size 15 to 20)
#    0.000    2.095    1.905    0.000    2.667   11.810 
#    0.000    0.000    0.000    0.000    0.000    0.000 
#    0.000    0.000    0.000    0.000    0.000    0.000 
#
# Total GULP energy -116930.778025 kJ/mol
# GULP energy per Si atom -5568.132287 kJ/mol
# Density = 1.960500 g / cm^3
# Si number density = 19.649723 Si / 1000 Ang^3
#
#
#
# Elastic Constant Matrix: (Units=GPa)
#
#
# Indices 1 2 3 4 5 6 
#
# 1 87.9985 64.6448 45.1677 0.0000 0.0000 0.0000
# 2 64.6448 98.8720 60.3528 0.0000 0.0000 0.0000
# 3 45.1677 60.3528 70.5180 0.0000 0.0000 0.0000
# 4 0.0000 0.0000 0.0000 42.8959 0.0000 0.0000
# 5 0.0000 0.0000 0.0000 0.0000 7.5634 0.0000
# 6 0.0000 0.0000 0.0000 0.0000 0.0000 31.9048
#
#
#
# Elastic Compliance Matrix: (Units=1/GPa)
#
#
# Indices 1 2 3 4 5 6 
#
# 1 0.022339 -0.012295 -0.003786 0.000000 0.000000 0.000000
# 2 -0.012295 0.027945 -0.016041 0.000000 0.000000 0.000000
# 3 -0.003786 -0.016041 0.030335 0.000000 0.000000 0.000000
# 4 0.000000 0.000000 0.000000 0.023312 0.000000 0.000000
# 5 0.000000 0.000000 0.000000 0.000000 0.132215 0.000000
# 6 0.000000 0.000000 0.000000 0.000000 0.000000 0.031343
#
#
# Mechanical properties :
#
#
# Convention : Reuss Voigt Hill
#
# Bulk Modulus (GPa) = 61.07206 66.41324 63.74265
# Shear Modulus (GPa) = 14.82839 22.28771 18.55805
#
# Velocity S-wave (km/s) = 2.75004 3.37152 3.07651
# Velocity P-wave (km/s) = 6.42118 7.00201 6.71787
#
# Compressibility (1/GPa) = 0.01637410
#
# Stress axis : x y z
#
# Youngs Moduli (GPa) = 44.76490 35.78507 32.96546
#
# Poissons Ratio (x) = 0.43997 0.12480
# Poissons Ratio (y) = 0.55037 0.52881
# Poissons Ratio (z) = 0.16948 0.57404
#
# Static dielectric constant tensor:
#      x y z
#    x 1.647290 0.000000 0.000000 
#    y 0.000000 1.677710 0.000000 
#    z 0.000000 0.000000 1.742010 
# 
# From -- ./inp_files/18268.got.cif
#   From: 2010.05.17/outbox.cif.g08.bks.cpg/sg23_10_cif.got.tgz:18268.got - 2010.06.04 12:02:01.
