data_PCOD9330063
_publ_section_title
;
Structure prediction by ZEFSAII (Michael W. Deem and Ramdas Pophale) SiO2 
 PCOD9330063
Probable space group: I 2 2 2
;
_chemical_formula_sum "Si O2"
_cell_formula_units_Z 52
_cell_length_a 24.583001
_cell_length_b 10.811778
_cell_length_c 9.993700
_cell_angle_alpha 90.000000
_cell_angle_beta 90.000000
_cell_angle_gamma 90.000000
_cell_volume 2656.185042
_symmetry_space_group_name_H-M "I 2 2 2"
_symmetry_group_IT_number 23
_symmetry_cell_setting 'orthorhombic'
loop_
_space_group_symop_operation_xyz
x,y,z
-x,-y,z
x,-y,-z
-x,y,-z
1/2+x,1/2+y,1/2+z
1/2-x,1/2-y,1/2+z
1/2+x,1/2-y,1/2-z
1/2-x,1/2+y,1/2-z
loop_
_atom_site_type_symbol
_atom_site_label
_atom_site_fract_x
_atom_site_fract_y
_atom_site_fract_z
Si Si1 0.549260 0.157882 0.728928
Si Si2 0.167632 0.000000 0.500000
Si Si3 0.602087 0.247087 0.975564
Si Si4 0.869803 0.360488 0.012921
Si Si5 0.785165 0.636692 0.548277
Si Si6 0.927208 0.633594 0.241063
Si Si7 0.748044 0.150385 0.649724
O O1 0.590758 0.206613 0.616825
O O2 0.486991 0.163391 0.683188
O O3 0.567479 0.015383 0.760974
O O4 0.556102 0.233900 0.864673
O O5 0.129982 0.881652 0.474139
O O6 0.209654 0.960081 0.617585
O O7 0.582154 0.202135 0.119431
O O8 0.650504 0.153789 0.932717
O O9 0.810499 0.370483 0.078280
O O10 0.892136 0.500000 0.000000
O O11 0.879466 0.321298 0.859945
O O12 0.771502 0.500000 0.500000
O O13 0.769873 0.730606 0.429852
O O14 0.758756 0.666582 0.691877
#
# Coordination Sequence:
#
# PCOD9330063 Si02
#       7
#     8   4   8   8   8   8   8
#     4  10  19  37  59  91 120 155 197 259 309 376
#     4  10  26  40  61  82 129 160 216 248 310 368
#     4  11  22  39  60  87 119 159 202 259 307 374
#     4  10  20  34  59  86 124 159 192 247 314 367
#     4  11  26  39  64  90 127 167 214 253 320 377
#     4  10  21  34  61  91 122 152 202 251 319 370
#     4  11  24  41  61  90 125 166 212 263 306 379
#
# _framework density 19.57695
#
# number of rings (size 3 to 8) (size 9 to 14) (size 15 to 20)
#    0.000    1.538    2.308    2.308   10.769    3.077 
#    0.000    1.538    0.000    0.000    0.000    2.154 
#    0.000    0.000    0.000    0.000    0.000    0.000 
#
# Total GULP energy -144955.699279 kJ/mol
# GULP energy per Si atom -5575.219203 kJ/mol
# Density = 1.953239 g / cm^3
# Si number density = 19.576950 Si / 1000 Ang^3
#
#
#
# Elastic Constant Matrix: (Units=GPa)
#
#
# Indices 1 2 3 4 5 6 
#
# 1 63.1476 19.6317 14.5497 0.0000 0.0000 0.0000
# 2 19.6317 56.8848 31.9188 0.0000 0.0000 0.0000
# 3 14.5497 31.9188 83.0480 0.0000 0.0000 0.0000
# 4 0.0000 0.0000 0.0000 16.0193 0.0000 0.0000
# 5 0.0000 0.0000 0.0000 0.0000 33.0355 0.0000
# 6 0.0000 0.0000 0.0000 0.0000 0.0000 21.0779
#
#
#
# Elastic Compliance Matrix: (Units=1/GPa)
#
#
# Indices 1 2 3 4 5 6 
#
# 1 0.017800 -0.005601 -0.000966 0.000000 0.000000 0.000000
# 2 -0.005601 0.024175 -0.008310 0.000000 0.000000 0.000000
# 3 -0.000966 -0.008310 0.015404 0.000000 0.000000 0.000000
# 4 0.000000 0.000000 0.000000 0.062425 0.000000 0.000000
# 5 0.000000 0.000000 0.000000 0.000000 0.030270 0.000000
# 6 0.000000 0.000000 0.000000 0.000000 0.000000 0.047443
#
#
# Mechanical properties :
#
#
# Convention : Reuss Voigt Hill
#
# Bulk Modulus (GPa) = 36.19863 37.25342 36.72602
# Shear Modulus (GPa) = 21.14338 23.15854 22.15096
#
# Velocity S-wave (km/s) = 3.28992 3.44313 3.36740
# Velocity P-wave (km/s) = 5.74126 5.90571 5.82406
#
# Compressibility (1/GPa) = 0.02762535
#
# Stress axis : x y z
#
# Youngs Moduli (GPa) = 56.18067 41.36426 64.91637
#
# Poissons Ratio (x) = 0.23168 0.06269
# Poissons Ratio (y) = 0.31467 0.53948
# Poissons Ratio (z) = 0.05425 0.34375
#
# Static dielectric constant tensor:
#      x y z
#    x 1.720940 0.000000 0.000000 
#    y 0.000000 1.679370 0.000000 
#    z 0.000000 0.000000 1.727680 
# 
# From -- ./inp_files/13023.got.cif
#   From: 2010.05.17/outbox.cif.g08.bks.cpg/sg23_7_cif.got.tgz:13023.got - 2010.06.04 12:02:01.
