data_PCOD9330743
_publ_section_title
;
Structure prediction by ZEFSAII (Michael W. Deem and Ramdas Pophale) SiO2 
 PCOD9330743
Probable space group: I 2 2 2
;
_chemical_formula_sum "Si O2"
_cell_formula_units_Z 40
_cell_length_a 23.271515
_cell_length_b 8.009633
_cell_length_c 10.882458
_cell_angle_alpha 90.000000
_cell_angle_beta 90.000000
_cell_angle_gamma 90.000000
_cell_volume 2028.449846
_symmetry_space_group_name_H-M "I 2 2 2"
_symmetry_group_IT_number 23
_symmetry_cell_setting 'orthorhombic'
loop_
_space_group_symop_operation_xyz
x,y,z
-x,-y,z
x,-y,-z
-x,y,-z
1/2+x,1/2+y,1/2+z
1/2-x,1/2-y,1/2+z
1/2+x,1/2-y,1/2-z
1/2-x,1/2+y,1/2-z
loop_
_atom_site_type_symbol
_atom_site_label
_atom_site_fract_x
_atom_site_fract_y
_atom_site_fract_z
Si Si1 0.349941 0.350205 0.251610
Si Si2 0.690907 0.500000 0.500000
Si Si3 0.879069 0.515321 0.145615
Si Si4 0.734735 0.156196 0.404984
Si Si5 0.500000 0.000000 0.752753
Si Si6 0.031995 0.151300 0.631656
O O1 0.345698 0.460297 0.376365
O O2 0.362864 0.163116 0.297941
O O3 0.289087 0.353026 0.183493
O O4 0.400876 0.389624 0.154279
O O5 0.728485 0.333694 0.473760
O O6 0.824915 0.634533 0.170683
O O7 0.943013 0.563982 0.183931
O O8 0.881257 0.500000 0.000000
O O9 0.738595 0.000000 0.500000
O O10 0.478153 0.838135 0.823420
O O11 0.000000 0.154831 0.500000
O O12 0.000000 0.000000 0.701891
#
# Coordination Sequence:
#
# PCOD9330743 Si02
#       6
#     8   4   8   8   4   8
#     4  11  24  44  68  99 137 177 226 276 344 394
#     4  12  24  42  71 100 135 178 228 272 346 402
#     4  10  20  43  62  94 132 167 221 272 331 390
#     4  11  24  44  66  99 137 177 224 283 330 407
#     4  10  22  40  68  90 128 178 216 274 326 402
#     4  10  24  44  63  96 129 171 222 274 337 402
#
# _framework density 19.719491000000001
#
# number of rings (size 3 to 8) (size 9 to 14) (size 15 to 20)
#    0.000    1.400    4.000    1.800    5.600    0.000 
#   10.800    0.500    0.000    0.000    0.000    0.000 
#    0.000    0.000    0.000    0.000    0.000    0.000 
#
# Total GULP energy -111353.960366 kJ/mol
# GULP energy per Si atom -5567.698018 kJ/mol
# Density = 1.967461 g / cm^3
# Si number density = 19.719491 Si / 1000 Ang^3
#
#
#
# Elastic Constant Matrix: (Units=GPa)
#
#
# Indices 1 2 3 4 5 6 
#
# 1 188.6621 29.8321 71.4802 0.0000 0.0000 0.0000
# 2 29.8321 106.2787 20.8372 0.0000 0.0000 0.0000
# 3 71.4802 20.8372 88.1241 0.0000 0.0000 0.0000
# 4 0.0000 0.0000 0.0000 38.2123 0.0000 0.0000
# 5 0.0000 0.0000 0.0000 0.0000-1458.2051 0.0000
# 6 0.0000 0.0000 0.0000 0.0000 0.0000 26.7867
#
#
#
# Elastic Compliance Matrix: (Units=1/GPa)
#
#
# Indices 1 2 3 4 5 6 
#
# 1 0.007750 -0.000989 -0.006052 0.000000 0.000000 0.000000
# 2 -0.000989 0.009993 -0.001561 0.000000 0.000000 0.000000
# 3 -0.006052 -0.001561 0.016626 0.000000 0.000000 0.000000
# 4 0.000000 0.000000 0.000000 0.026170 0.000000 0.000000
# 5 0.000000 0.000000 0.000000 0.000000 -0.000686 0.000000
# 6 0.000000 0.000000 0.000000 0.000000 0.000000 0.037332
#
#
# Mechanical properties :
#
#
# Convention : Reuss Voigt Hill
#
# Bulk Modulus (GPa) = 58.25893 69.70710 63.98301
# Shear Modulus (GPa) = 41.62843 -261.24687 -109.80922
#
# Velocity S-wave (km/s) = 4.59958 -11.52255 -7.47038
# Velocity P-wave (km/s) = 7.60369 11.89956 6.47238
#
# Compressibility (1/GPa) = 0.01716475
#
# Stress axis : x y z
#
# Youngs Moduli (GPa) = 129.03266 100.07225 60.14661
#
# Poissons Ratio (x) = 0.09895 0.36403
# Poissons Ratio (y) = 0.12758 0.09388
# Poissons Ratio (z) = 0.78096 0.15620
#
# Static dielectric constant tensor:
#      x y z
#    x 1.734190 0.000000 0.000000 
#    y 0.000000 2.245840 0.000000 
#    z 0.000000 0.000000 1.531800 
# 
# From -- ./inp_files/17891.got.cif
#   From: 2010.05.17/outbox.cif.g08.bks.cpg/sg23_9_cif.got.tgz:17891.got - 2010.06.04 12:02:01.
