data_PCOD9330089
_publ_section_title
;
Structure prediction by ZEFSAII (Michael W. Deem and Ramdas Pophale) SiO2 
 PCOD9330089
Probable space group: I 2 2 2
;
_chemical_formula_sum "Si O2"
_cell_formula_units_Z 52
_cell_length_a 18.210053
_cell_length_b 8.941945
_cell_length_c 12.290894
_cell_angle_alpha 90.000000
_cell_angle_beta 90.000000
_cell_angle_gamma 90.000000
_cell_volume 2001.366736
_symmetry_space_group_name_H-M "I 2 2 2"
_symmetry_group_IT_number 23
_symmetry_cell_setting 'orthorhombic'
loop_
_space_group_symop_operation_xyz
x,y,z
-x,-y,z
x,-y,-z
-x,y,-z
1/2+x,1/2+y,1/2+z
1/2-x,1/2-y,1/2+z
1/2+x,1/2-y,1/2-z
1/2-x,1/2+y,1/2-z
loop_
_atom_site_type_symbol
_atom_site_label
_atom_site_fract_x
_atom_site_fract_y
_atom_site_fract_z
Si Si1 0.378387 0.978432 0.619231
Si Si2 0.500000 0.000000 0.198691
Si Si3 0.523106 0.323635 0.894928
Si Si4 0.143459 0.844495 0.595793
Si Si5 0.209300 0.176878 0.925750
Si Si6 0.815550 0.201385 0.836764
Si Si7 0.823163 0.141313 0.301350
O O1 0.432632 0.983744 0.719132
O O2 0.327254 0.120680 0.638552
O O3 0.414224 0.000000 0.500000
O O4 0.333385 0.826508 0.609022
O O5 0.494717 0.847586 0.129863
O O6 0.500000 0.500000 0.866832
O O7 0.431199 0.332246 0.981841
O O8 0.592614 0.316745 0.811046
O O9 0.204741 0.723522 0.561928
O O10 0.134823 0.821850 0.728048
O O11 0.178482 0.010830 0.606990
O O12 0.199057 0.076053 0.817220
O O13 0.175598 0.136609 0.042105
O O14 0.728462 0.214782 0.814124
#
# Coordination Sequence:
#
# PCOD9330089 Si02
#       7
#     8   4   8   8   8   8   8
#     4  10  19  37  67  91 115 152 197 250 303 354
#     4  12  22  42  60  92 124 156 196 248 298 362
#     4  12  26  41  60  87 122 164 199 244 301 355
#     4  11  23  40  62  88 123 159 201 246 295 359
#     4  10  21  39  64  91 117 153 199 250 303 354
#     4  10  21  39  64  91 117 153 199 250 303 354
#     4  11  23  40  62  88 123 159 201 246 295 359
#
# _framework density 25.982244000000001
#
# number of rings (size 3 to 8) (size 9 to 14) (size 15 to 20)
#    0.000    1.231    4.615    1.846    0.000    3.077 
#    0.000    0.769    0.000    1.846    0.000    0.000 
#    0.000    0.000    0.000    0.000    0.000    0.000 
#
# Total GULP energy -144787.390131 kJ/mol
# GULP energy per Si atom -5568.745774 kJ/mol
# Density = 2.592311 g / cm^3
# Si number density = 25.982244 Si / 1000 Ang^3
#
#
#
# Elastic Constant Matrix: (Units=GPa)
#
#
# Indices 1 2 3 4 5 6 
#
# 1 136.4415 60.6154 60.5453 0.0000 0.0000 0.0000
# 2 60.6154 97.0129 86.8404 0.0000 0.0000 0.0000
# 3 60.5453 86.8404 225.7777 0.0000 0.0000 0.0000
# 4 0.0000 0.0000 0.0000 58.7565 0.0000 0.0000
# 5 0.0000 0.0000 0.0000 0.0000 57.4517 0.0000
# 6 0.0000 0.0000 0.0000 0.0000 0.0000 24.5699
#
#
#
# Elastic Compliance Matrix: (Units=1/GPa)
#
#
# Indices 1 2 3 4 5 6 
#
# 1 0.010173 -0.005970 -0.000432 0.000000 0.000000 0.000000
# 2 -0.005970 0.019223 -0.005793 0.000000 0.000000 0.000000
# 3 -0.000432 -0.005793 0.006773 0.000000 0.000000 0.000000
# 4 0.000000 0.000000 0.000000 0.017019 0.000000 0.000000
# 5 0.000000 0.000000 0.000000 0.000000 0.017406 0.000000
# 6 0.000000 0.000000 0.000000 0.000000 0.000000 0.040700
#
#
# Mechanical properties :
#
#
# Convention : Reuss Voigt Hill
#
# Bulk Modulus (GPa) = 84.88722 97.24826 91.06774
# Shear Modulus (GPa) = 35.81391 44.90437 40.35914
#
# Velocity S-wave (km/s) = 3.71671 4.16176 3.94551
# Velocity P-wave (km/s) = 7.15267 7.78483 7.47544
#
# Compressibility (1/GPa) = 0.01178034
#
# Stress axis : x y z
#
# Youngs Moduli (GPa) = 98.30105 52.02004 147.64224
#
# Poissons Ratio (x) = 0.31053 0.06377
# Poissons Ratio (y) = 0.58681 0.85530
# Poissons Ratio (z) = 0.04246 0.30135
#
# Static dielectric constant tensor:
#      x y z
#    x 2.404930 0.000000 0.000000 
#    y 0.000000 2.238840 0.000000 
#    z 0.000000 0.000000 2.175750 
# 
# From -- ./inp_files/22366.got.cif
#   From: 2010.05.17/outbox.cif.g08.bks.cpg/sg23_12_cif.got.tgz:22366.got - 2010.06.04 12:02:01.
