data_PCOD9330440
_publ_section_title
;
Structure prediction by ZEFSAII (Michael W. Deem and Ramdas Pophale) SiO2 
 PCOD9330440
Probable space group: I 2 2 2
;
_chemical_formula_sum "Si O2"
_cell_formula_units_Z 48
_cell_length_a 21.036450
_cell_length_b 14.334440
_cell_length_c 8.895103
_cell_angle_alpha 90.000000
_cell_angle_beta 90.000000
_cell_angle_gamma 90.000000
_cell_volume 2682.280331
_symmetry_space_group_name_H-M "I 2 2 2"
_symmetry_group_IT_number 23
_symmetry_cell_setting 'orthorhombic'
loop_
_space_group_symop_operation_xyz
x,y,z
-x,-y,z
x,-y,-z
-x,y,-z
1/2+x,1/2+y,1/2+z
1/2-x,1/2-y,1/2+z
1/2+x,1/2-y,1/2-z
1/2-x,1/2+y,1/2-z
loop_
_atom_site_type_symbol
_atom_site_label
_atom_site_fract_x
_atom_site_fract_y
_atom_site_fract_z
Si Si1 0.639841 0.642829 0.824169
Si Si2 0.064541 0.776816 0.409082
Si Si3 0.818735 0.336439 0.334168
Si Si4 0.238498 0.302986 0.341273
Si Si5 0.490746 0.605445 0.323529
Si Si6 0.244404 0.500298 0.176514
O O1 0.678563 0.738121 0.795961
O O2 0.581018 0.633417 0.714017
O O3 0.688986 0.557407 0.812119
O O4 0.608092 0.654117 0.989195
O O5 0.109668 0.689088 0.378275
O O6 0.000000 0.754607 0.500000
O O7 0.040329 0.828463 0.260977
O O8 0.774030 0.322204 0.482135
O O9 0.797072 0.262919 0.205711
O O10 0.805916 0.438108 0.269190
O O11 0.245878 0.397998 0.248314
O O12 0.500000 0.500000 0.266003
O O13 0.500000 0.607278 0.500000
O O14 0.228587 0.500000 0.000000
#
# Coordination Sequence:
#
# PCOD9330440 Si02
#       6
#     8   8   8   8   8   8
#     4   9  21  37  55  81 112 152 189 226 280 345
#     4   9  19  37  59  77 111 150 189 229 279 336
#     4  10  21  37  57  86 112 152 191 232 287 338
#     4  10  20  37  55  81 115 148 186 235 282 334
#     4  10  22  35  51  85 111 146 187 232 285 328
#     4  11  22  35  57  86 114 151 191 233 289 339
#
# _framework density 17.895220999999999
#
# number of rings (size 3 to 8) (size 9 to 14) (size 15 to 20)
#    0.000    2.167    0.000    3.500    4.667    6.333 
#    6.000    0.000    0.000   17.000    0.000   11.667 
#    0.000    0.000    0.000    0.000    0.000    0.000 
#
# Total GULP energy -133876.862936 kJ/mol
# GULP energy per Si atom -5578.202622 kJ/mol
# Density = 1.785449 g / cm^3
# Si number density = 17.895221 Si / 1000 Ang^3
#
#
#
# Elastic Constant Matrix: (Units=GPa)
#
#
# Indices 1 2 3 4 5 6 
#
# 1 86.3238 26.2567 19.9490 0.0000 0.0000 0.0000
# 2 26.2567 81.5838 11.3133 0.0000 0.0000 0.0000
# 3 19.9490 11.3133 59.9101 0.0000 0.0000 0.0000
# 4 0.0000 0.0000 0.0000 21.1886 0.0000 0.0000
# 5 0.0000 0.0000 0.0000 0.0000 8.4850 0.0000
# 6 0.0000 0.0000 0.0000 0.0000 0.0000 17.0216
#
#
#
# Elastic Compliance Matrix: (Units=1/GPa)
#
#
# Indices 1 2 3 4 5 6 
#
# 1 0.013640 -0.003861 -0.003813 0.000000 0.000000 0.000000
# 2 -0.003861 0.013680 -0.001298 0.000000 0.000000 0.000000
# 3 -0.003813 -0.001298 0.018206 0.000000 0.000000 0.000000
# 4 0.000000 0.000000 0.000000 0.047195 0.000000 0.000000
# 5 0.000000 0.000000 0.000000 0.000000 0.117856 0.000000
# 6 0.000000 0.000000 0.000000 0.000000 0.000000 0.058749
#
#
# Mechanical properties :
#
#
# Convention : Reuss Voigt Hill
#
# Bulk Modulus (GPa) = 36.25396 38.09509 37.17453
# Shear Modulus (GPa) = 16.86551 20.69227 18.77889
#
# Velocity S-wave (km/s) = 3.07328 3.40413 3.24293
# Velocity P-wave (km/s) = 5.73554 6.06506 5.90260
#
# Compressibility (1/GPa) = 0.02758319
#
# Stress axis : x y z
#
# Youngs Moduli (GPa) = 73.31487 73.09982 54.92615
#
# Poissons Ratio (x) = 0.28224 0.20942
# Poissons Ratio (y) = 0.28308 0.07127
# Poissons Ratio (z) = 0.27953 0.09486
#
# Static dielectric constant tensor:
#      x y z
#    x 1.670950 0.000000 0.000000 
#    y 0.000000 1.601760 0.000000 
#    z 0.000000 0.000000 1.632910 
# 
# From -- ./inp_files/10091.got.cif
#   From: 2010.05.17/outbox.cif.g08.bks.cpg/sg23_6_cif.got.tgz:10091.got - 2010.06.04 12:02:01.
