data_PCOD9330007
_publ_section_title
;
Structure prediction by ZEFSAII (Michael W. Deem and Ramdas Pophale) SiO2 
 PCOD9330007
Probable space group: I 2 2 2
;
_chemical_formula_sum "Si O2"
_cell_formula_units_Z 58
_cell_length_a 8.327238
_cell_length_b 29.970861
_cell_length_c 11.066003
_cell_angle_alpha 90.000000
_cell_angle_beta 90.000000
_cell_angle_gamma 90.000000
_cell_volume 2761.792084
_symmetry_space_group_name_H-M "I 2 2 2"
_symmetry_group_IT_number 23
_symmetry_cell_setting 'orthorhombic'
loop_
_space_group_symop_operation_xyz
x,y,z
-x,-y,z
x,-y,-z
-x,y,-z
1/2+x,1/2+y,1/2+z
1/2-x,1/2-y,1/2+z
1/2+x,1/2-y,1/2-z
1/2-x,1/2+y,1/2-z
loop_
_atom_site_type_symbol
_atom_site_label
_atom_site_fract_x
_atom_site_fract_y
_atom_site_fract_z
Si Si1 0.773965 0.373271 0.908635
Si Si2 0.013690 0.449075 0.147111
Si Si3 0.521455 0.801163 0.695636
Si Si4 0.843829 0.658633 0.442599
Si Si5 0.293760 0.289777 0.661391
Si Si6 0.674335 0.577614 0.852635
Si Si7 0.051242 0.866130 0.203354
Si Si8 0.000000 0.000000 0.500000
O O1 0.926418 0.341081 0.893468
O O2 0.638751 0.351338 0.827005
O O3 0.828496 0.419120 0.838743
O O4 0.701896 0.386940 0.037599
O O5 0.853669 0.426755 0.198494
O O6 0.000000 0.500000 0.185841
O O7 0.000000 0.448578 0.000000
O O8 0.595329 0.817649 0.822120
O O9 0.613298 0.756701 0.656054
O O10 0.334946 0.792430 0.728229
O O11 0.794919 0.696782 0.537752
O O12 0.687098 0.630739 0.400422
O O13 0.000000 0.634227 0.500000
O O14 0.425276 0.328247 0.672604
O O15 0.550968 0.591699 0.749335
O O16 0.611066 0.532594 0.918624
#
# Coordination Sequence:
#
# PCOD9330007 Si02
#       8
#     8   8   8   8   8   8   8   2
#     4  10  19  36  52  85 124 165 204 254 306 374
#     4   9  18  32  52  78 117 164 200 236 297 375
#     4  10  21  37  61  86 126 162 216 266 320 381
#     4   9  21  40  60  82 117 158 213 262 317 370
#     4  11  22  39  59  90 120 167 213 266 321 376
#     4  11  21  34  57  88 128 170 204 252 319 387
#     4  11  21  35  56  84 121 154 213 250 308 378
#     4  12  20  36  58  92 138 168 198 256 328 388
#
# _framework density 21.000855999999999
#
# number of rings (size 3 to 8) (size 9 to 14) (size 15 to 20)
#    0.000    1.793    1.379    4.552    0.000    1.103 
#    0.000    9.655    0.000    0.000    0.000    1.931 
#    8.276    0.000    0.000    0.000    0.000    0.000 
#
# Total GULP energy -161679.285696 kJ/mol
# GULP energy per Si atom -5575.147783 kJ/mol
# Density = 2.095306 g / cm^3
# Si number density = 21.000856 Si / 1000 Ang^3
#
#
#
# Elastic Constant Matrix: (Units=GPa)
#
#
# Indices 1 2 3 4 5 6 
#
# 1 124.4645 26.8882 35.1446 0.0001 0.0000 0.0000
# 2 26.8882 78.7212 25.0498 0.0002 0.0000 0.0000
# 3 35.1446 25.0498 65.4827 0.0007 0.0001 -0.0001
# 4 0.0001 0.0002 0.0007 9.9086 0.0002 0.0001
# 5 0.0000 0.0000 0.0001 0.0002 37.3879 0.0001
# 6 0.0000 0.0000 -0.0001 0.0001 0.0001 18.5770
#
#
#
# Elastic Compliance Matrix: (Units=1/GPa)
#
#
# Indices 1 2 3 4 5 6 
#
# 1 0.009710 -0.001888 -0.004489 0.000000 0.000000 0.000000
# 2 -0.001888 0.014831 -0.004660 0.000000 0.000000 0.000000
# 3 -0.004489 -0.004660 0.019463 -0.000001 0.000000 0.000000
# 4 0.000000 0.000000 -0.000001 0.100923 -0.000001 0.000000
# 5 0.000000 0.000000 0.000000 -0.000001 0.026747 0.000000
# 6 0.000000 0.000000 0.000000 0.000000 0.000000 0.053830
#
#
# Mechanical properties :
#
#
# Convention : Reuss Voigt Hill
#
# Bulk Modulus (GPa) = 45.60066 49.20373 47.40220
# Shear Modulus (GPa) = 19.61652 25.28041 22.44846
#
# Velocity S-wave (km/s) = 3.05959 3.47332 3.27300
# Velocity P-wave (km/s) = 5.85169 6.29011 6.07486
#
# Compressibility (1/GPa) = 0.02192951
#
# Stress axis : x y z
#
# Youngs Moduli (GPa) = 102.98823 67.42709 51.37916
#
# Poissons Ratio (x) = 0.12731 0.23064
# Poissons Ratio (y) = 0.19445 0.23943
# Poissons Ratio (z) = 0.46232 0.31421
#
# Static dielectric constant tensor:
#      x y z
#    x 1.884900 0.000000 0.000000 
#    y 0.000000 1.769550 0.000000 
#    z 0.000000 0.000000 1.749020 
# 
# From -- ./inp_files/14911.got.cif
#   From: 2010.05.17/outbox.cif.g08.bks.cpg/sg23_8_cif.got.tgz:14911.got - 2010.06.04 12:02:01.
