data_PCOD9331677
_publ_section_title
;
Structure prediction by ZEFSAII (Michael W. Deem and Ramdas Pophale) SiO2 
 PCOD9331677
Probable space group: I 2 2 2
;
_chemical_formula_sum "Si O2"
_cell_formula_units_Z 28
_cell_length_a 18.193406
_cell_length_b 7.543599
_cell_length_c 6.985718
_cell_angle_alpha 90.000000
_cell_angle_beta 90.000000
_cell_angle_gamma 90.000000
_cell_volume 958.746200
_symmetry_space_group_name_H-M "I 2 2 2"
_symmetry_group_IT_number 23
_symmetry_cell_setting 'orthorhombic'
loop_
_space_group_symop_operation_xyz
x,y,z
-x,-y,z
x,-y,-z
-x,y,-z
1/2+x,1/2+y,1/2+z
1/2-x,1/2-y,1/2+z
1/2+x,1/2-y,1/2-z
1/2-x,1/2+y,1/2-z
loop_
_atom_site_type_symbol
_atom_site_label
_atom_site_fract_x
_atom_site_fract_y
_atom_site_fract_z
Si Si1 0.500000 0.000000 0.500000
Si Si2 0.729069 0.145217 0.667138
Si Si3 0.404492 0.662132 0.629615
Si Si4 0.500000 0.000000 0.000000
Si Si5 0.871419 0.271096 0.515427
O O1 0.444328 0.851135 0.590335
O O2 0.682371 0.312549 0.594230
O O3 0.814848 0.192964 0.666787
O O4 0.682052 0.121810 0.861552
O O5 0.722860 0.000000 0.500000
O O6 0.428333 0.500000 0.500000
O O7 0.408610 0.640256 0.858790
O O8 0.559505 0.875179 0.895552
#
# Coordination Sequence:
#
# PCOD9331677 Si02
#       5
#     2   8   8   2   8
#     4  12  20  48  64 116 154 206 262 350 414 458
#     4  10  24  43  74 111 151 206 268 326 402 485
#     4  10  23  41  72 111 153 208 266 330 403 488
#     4  12  26  52  80 124 174 204 274 344 432 460
#     4  10  26  44  78 112 158 213 258 341 396 490
#
# _framework density 29.204810999999999
#
# number of rings (size 3 to 8) (size 9 to 14) (size 15 to 20)
#    1.714    0.000    1.429    1.286   10.000    0.000 
#    0.000    3.571    0.000    0.000    0.000    0.000 
#    0.000    0.000    0.000    0.000    0.000    0.000 
#
# Total GULP energy -78057.724560 kJ/mol
# GULP energy per Si atom -5575.551754 kJ/mol
# Density = 2.913834 g / cm^3
# Si number density = 29.204811 Si / 1000 Ang^3
#
#
#
# Elastic Constant Matrix: (Units=GPa)
#
#
# Indices 1 2 3 4 5 6 
#
# 1 229.4011 68.2014 38.4072 0.0000 0.0000 0.0000
# 2 68.2014 175.4790 76.5895 0.0000 0.0000 0.0000
# 3 38.4072 76.5895 162.2093 0.0000 0.0000 0.0000
# 4 0.0000 0.0000 0.0000 59.1163 0.0000 0.0000
# 5 0.0000 0.0000 0.0000 0.0000 17.7283 0.0000
# 6 0.0000 0.0000 0.0000 0.0000 0.0000 61.9718
#
#
#
# Elastic Compliance Matrix: (Units=1/GPa)
#
#
# Indices 1 2 3 4 5 6 
#
# 1 0.004943 -0.001776 -0.000332 0.000000 0.000000 0.000000
# 2 -0.001776 0.007816 -0.003270 0.000000 0.000000 0.000000
# 3 -0.000332 -0.003270 0.007787 0.000000 0.000000 0.000000
# 4 0.000000 0.000000 0.000000 0.016916 0.000000 0.000000
# 5 0.000000 0.000000 0.000000 0.000000 0.056407 0.000000
# 6 0.000000 0.000000 0.000000 0.000000 0.000000 0.016136
#
#
# Mechanical properties :
#
#
# Convention : Reuss Voigt Hill
#
# Bulk Modulus (GPa) = 102.13878 103.72063 102.92970
# Shear Modulus (GPa) = 40.31447 53.35604 46.83526
#
# Velocity S-wave (km/s) = 3.71941 4.27893 4.00895
# Velocity P-wave (km/s) = 7.31400 7.74625 7.53322
#
# Compressibility (1/GPa) = 0.00979060
#
# Stress axis : x y z
#
# Youngs Moduli (GPa) = 202.31436 127.93796 128.41316
#
# Poissons Ratio (x) = 0.22726 0.04258
# Poissons Ratio (y) = 0.35938 0.41991
# Poissons Ratio (z) = 0.06709 0.41836
#
# Static dielectric constant tensor:
#      x y z
#    x 2.140100 0.000000 0.000000 
#    y 0.000000 2.569120 0.000000 
#    z 0.000000 0.000000 2.318670 
# 
# From -- ./inp_files/10578.got.cif
#   From: 2010.05.17/outbox.cif.g08.bks.cpg/sg23_6_cif.got.tgz:10578.got - 2010.06.04 12:02:01.
