data_PCOD9331813
_publ_section_title
;
Structure prediction by ZEFSAII (Michael W. Deem and Ramdas Pophale) SiO2 
 PCOD9331813
Probable space group: I 2 2 2
;
_chemical_formula_sum "Si O2"
_cell_formula_units_Z 48
_cell_length_a 8.522259
_cell_length_b 8.426864
_cell_length_c 29.633162
_cell_angle_alpha 90.000000
_cell_angle_beta 90.000000
_cell_angle_gamma 90.000000
_cell_volume 2128.132719
_symmetry_space_group_name_H-M "I 2 2 2"
_symmetry_group_IT_number 23
_symmetry_cell_setting 'orthorhombic'
loop_
_space_group_symop_operation_xyz
x,y,z
-x,-y,z
x,-y,-z
-x,y,-z
1/2+x,1/2+y,1/2+z
1/2-x,1/2-y,1/2+z
1/2+x,1/2-y,1/2-z
1/2-x,1/2+y,1/2-z
loop_
_atom_site_type_symbol
_atom_site_label
_atom_site_fract_x
_atom_site_fract_y
_atom_site_fract_z
Si Si1 0.385349 0.862890 0.128583
Si Si2 0.168234 0.420655 0.142492
Si Si3 0.232859 0.663443 0.209860
Si Si4 0.812618 0.046541 0.948419
Si Si5 0.109259 0.862252 0.430343
Si Si6 0.917620 0.165798 0.801265
O O1 0.304531 0.781128 0.171864
O O2 0.492676 0.738526 0.101390
O O3 0.500000 0.000000 0.146325
O O4 0.273209 0.943143 0.090649
O O5 0.246280 0.491385 0.187350
O O6 0.274445 0.462184 0.101002
O O7 0.152988 0.234678 0.152622
O O8 0.000000 0.500000 0.135711
O O9 0.303830 0.658832 0.259060
O O10 0.052002 0.710361 0.212667
O O11 0.732345 0.225717 0.948259
O O12 0.000000 0.000000 0.943215
O O13 0.774328 0.000000 0.000000
O O14 0.000000 0.000000 0.453125
O O15 0.000000 0.000000 0.808994
#
# Coordination Sequence:
#
# PCOD9331813 Si02
#       6
#     8   8   8   8   8   8
#     4  10  24  40  68 102 136 185 236 293 364 445
#     4  10  24  42  61  94 136 182 237 300 358 423
#     4  11  24  41  60  92 137 180 241 296 369 420
#     4  10  25  49  76 109 149 187 236 302 376 466
#     4  11  23  41  75 102 141 186 236 305 356 441
#     4  11  26  38  62  90 127 192 236 308 356 437
#
# _framework density 22.554984000000001
#
# number of rings (size 3 to 8) (size 9 to 14) (size 15 to 20)
#    0.000    1.500    1.667    1.000   14.000    5.000 
#    0.000    1.667    0.000    2.000    0.000    0.000 
#    0.000    0.000    0.000    0.000    0.000    0.000 
#
# Total GULP energy -133818.243849 kJ/mol
# GULP energy per Si atom -5575.760160 kJ/mol
# Density = 2.250365 g / cm^3
# Si number density = 22.554984 Si / 1000 Ang^3
#
#
#
# Elastic Constant Matrix: (Units=GPa)
#
#
# Indices 1 2 3 4 5 6 
#
# 1 95.9110 40.5321 46.2148 0.0000 0.0000 0.0000
# 2 40.5321 96.3387 22.9469 0.0000 0.0000 0.0000
# 3 46.2148 22.9469 69.9199 0.0000 0.0000 0.0000
# 4 0.0000 0.0000 0.0000 11.9735 0.0000 0.0000
# 5 0.0000 0.0000 0.0000 0.0000 -2.2400 0.0000
# 6 0.0000 0.0000 0.0000 0.0000 0.0000 38.0223
#
#
#
# Elastic Compliance Matrix: (Units=1/GPa)
#
#
# Indices 1 2 3 4 5 6 
#
# 1 0.017206 -0.004914 -0.009760 0.000000 0.000000 0.000000
# 2 -0.004914 0.012664 -0.000908 0.000000 0.000000 0.000000
# 3 -0.009760 -0.000908 0.021051 0.000000 0.000000 0.000000
# 4 0.000000 0.000000 0.000000 0.083518 0.000000 0.000000
# 5 0.000000 0.000000 0.000000 0.000000 -0.446419 0.000000
# 6 0.000000 0.000000 0.000000 0.000000 0.000000 0.026300
#
#
# Mechanical properties :
#
#
# Convention : Reuss Voigt Hill
#
# Bulk Modulus (GPa) = 50.61560 53.50637 52.06099
# Shear Modulus (GPa) = -20.16692 19.71620 -0.22536
#
# Velocity S-wave (km/s) = -2.99343 2.95979 -0.31644
# Velocity P-wave (km/s) = 3.24687 5.95438 4.79567
#
# Compressibility (1/GPa) = 0.01975675
#
# Stress axis : x y z
#
# Youngs Moduli (GPa) = 58.11985 78.96483 47.50391
#
# Poissons Ratio (x) = 0.38805 0.46362
# Poissons Ratio (y) = 0.28562 0.04313
# Poissons Ratio (z) = 0.56723 0.07170
#
# Static dielectric constant tensor:
#      x y z
#    x 1.975160 0.000000 0.000000 
#    y 0.000000 1.929020 0.000000 
#    z 0.000000 0.000000 1.791170 
# 
# From -- ./inp_files/13334.got.cif
#   From: 2010.05.17/outbox.cif.g08.bks.cpg/sg23_7_cif.got.tgz:13334.got - 2010.06.04 12:02:01.
