data_PCOD9331076
_publ_section_title
;
Structure prediction by ZEFSAII (Michael W. Deem and Ramdas Pophale) SiO2 
 PCOD9331076
Probable space group: I 2 2 2
;
_chemical_formula_sum "Si O2"
_cell_formula_units_Z 40
_cell_length_a 5.419702
_cell_length_b 11.930183
_cell_length_c 28.512904
_cell_angle_alpha 90.000000
_cell_angle_beta 90.000000
_cell_angle_gamma 90.000000
_cell_volume 1843.588392
_symmetry_space_group_name_H-M "I 2 2 2"
_symmetry_group_IT_number 23
_symmetry_cell_setting 'orthorhombic'
loop_
_space_group_symop_operation_xyz
x,y,z
-x,-y,z
x,-y,-z
-x,y,-z
1/2+x,1/2+y,1/2+z
1/2-x,1/2-y,1/2+z
1/2+x,1/2-y,1/2-z
1/2-x,1/2+y,1/2-z
loop_
_atom_site_type_symbol
_atom_site_label
_atom_site_fract_x
_atom_site_fract_y
_atom_site_fract_z
Si Si1 0.198507 0.266718 0.398365
Si Si2 0.500000 0.000000 0.874387
Si Si3 0.205225 0.906677 0.786000
Si Si4 0.746367 0.549260 0.947313
Si Si5 0.800203 0.297177 0.842994
Si Si6 0.500000 0.000000 0.703587
O O1 0.135832 0.399658 0.402701
O O2 0.220983 0.183498 0.443081
O O3 0.461544 0.243384 0.373348
O O4 0.963395 0.224218 0.367751
O O5 0.314427 0.944758 0.836720
O O6 0.166138 0.777362 0.796208
O O7 0.367452 0.917752 0.739939
O O8 0.000000 0.000000 0.777702
O O9 0.500000 0.500000 0.924493
O O10 0.000000 0.500000 0.926731
O O11 0.746764 0.500000 0.000000
O O12 0.824256 0.425462 0.828173
#
# Coordination Sequence:
#
# PCOD9331076 Si02
#       6
#     8   4   8   8   8   4
#     4  11  23  41  65  94 130 165 215 276 318 395
#     4   9  20  40  60  91 118 173 221 264 317 376
#     4  10  21  40  57  78 122 172 215 269 323 377
#     4  10  22  41  67  98 134 167 201 249 338 408
#     4  11  26  40  61  92 125 168 225 272 329 378
#     4  11  28  36  60  84 123 171 221 277 328 388
#
# _framework density 21.696818
#
# number of rings (size 3 to 8) (size 9 to 14) (size 15 to 20)
#    0.000    1.600    2.000    1.200    9.800    0.000 
#    0.000    0.000    0.000    2.400    0.000    5.600 
#    0.000    0.000    0.000    0.000    0.000    0.000 
#
# Total GULP energy -111387.031710 kJ/mol
# GULP energy per Si atom -5569.351585 kJ/mol
# Density = 2.164743 g / cm^3
# Si number density = 21.696818 Si / 1000 Ang^3
#
#
#
# Elastic Constant Matrix: (Units=GPa)
#
#
# Indices 1 2 3 4 5 6 
#
# 1 111.7808 5.4946 11.5520 0.0000 0.0000 0.0000
# 2 5.4946 121.9785 32.9744 0.0000 0.0000 0.0000
# 3 11.5520 32.9744 61.8801 0.0000 0.0000 0.0000
# 4 0.0000 0.0000 0.0000 238.2696 0.0000 0.0000
# 5 0.0000 0.0000 0.0000 0.0000 -0.7435 0.0000
# 6 0.0000 0.0000 0.0000 0.0000 0.0000 38.2419
#
#
#
# Elastic Compliance Matrix: (Units=1/GPa)
#
#
# Indices 1 2 3 4 5 6 
#
# 1 0.009122 0.000058 -0.001734 0.000000 0.000000 0.000000
# 2 0.000058 0.009578 -0.005115 0.000000 0.000000 0.000000
# 3 -0.001734 -0.005115 0.019210 0.000000 0.000000 0.000000
# 4 0.000000 0.000000 0.000000 0.004197 0.000000 0.000000
# 5 0.000000 0.000000 0.000000 0.000000 -1.344963 0.000000
# 6 0.000000 0.000000 0.000000 0.000000 0.000000 0.026149
#
#
# Mechanical properties :
#
#
# Convention : Reuss Voigt Hill
#
# Bulk Modulus (GPa) = 41.10402 43.96462 42.53432
# Shear Modulus (GPa) = -3.98401 71.52815 33.77207
#
# Velocity S-wave (km/s) = -1.35654 5.74793 3.94959
# Velocity P-wave (km/s) = 4.06599 8.02239 6.35968
#
# Compressibility (1/GPa) = 0.02432852
#
# Stress axis : x y z
#
# Youngs Moduli (GPa) = 109.62000 104.40327 52.05756
#
# Poissons Ratio (x) = -0.00603 0.09026
# Poissons Ratio (y) = -0.00633 0.26626
# Poissons Ratio (z) = 0.19006 0.53400
#
# Static dielectric constant tensor:
#      x y z
#    x 1.167700 0.000000 0.000000 
#    y 0.000000 1.925910 0.000000 
#    z 0.000000 0.000000 1.898280 
# 
# From -- ./inp_files/1855.got.cif
#   From: 2010.05.17/outbox.cif.g08.bks.cpg/sg23_1_cif.got.tgz:1855.got - 2010.06.04 12:02:01.
