data_PCOD9331294
_publ_section_title
;
Structure prediction by ZEFSAII (Michael W. Deem and Ramdas Pophale) SiO2 
 PCOD9331294
Probable space group: I 2 2 2
;
_chemical_formula_sum "Si O2"
_cell_formula_units_Z 32
_cell_length_a 14.316423
_cell_length_b 19.063786
_cell_length_c 5.390633
_cell_angle_alpha 90.000000
_cell_angle_beta 90.000000
_cell_angle_gamma 90.000000
_cell_volume 1471.239721
_symmetry_space_group_name_H-M "I 2 2 2"
_symmetry_group_IT_number 23
_symmetry_cell_setting 'orthorhombic'
loop_
_space_group_symop_operation_xyz
x,y,z
-x,-y,z
x,-y,-z
-x,y,-z
1/2+x,1/2+y,1/2+z
1/2-x,1/2-y,1/2+z
1/2+x,1/2-y,1/2-z
1/2-x,1/2+y,1/2-z
loop_
_atom_site_type_symbol
_atom_site_label
_atom_site_fract_x
_atom_site_fract_y
_atom_site_fract_z
Si Si1 0.000000 0.702366 0.500000
Si Si2 0.722564 0.420425 0.896616
Si Si3 0.713352 0.000000 0.000000
Si Si4 0.191912 0.226689 0.404710
Si Si5 0.590617 0.090980 0.637555
O O1 0.912910 0.742980 0.378157
O O2 0.946038 0.654362 0.698259
O O3 0.722232 0.437613 0.605527
O O4 0.703934 0.500000 0.000000
O O5 0.673101 0.355503 0.024575
O O6 0.829342 0.394397 0.938809
O O7 0.643331 0.965526 0.194802
O O8 0.247500 0.259162 0.650298
O O9 0.500000 0.066864 0.500000
#
# Coordination Sequence:
#
# PCOD9331294 Si02
#       5
#     4   8   4   8   8
#     4  12  26  41  69  98 140 186 244 298 370 434
#     4  10  23  41  64  95 136 188 234 295 363 429
#     4  10  22  37  60  90 139 182 222 283 370 431
#     4  12  26  47  72 105 147 191 244 305 368 443
#     4  11  21  36  55  94 130 172 223 283 351 431
#
# _framework density 21.750364999999999
#
# number of rings (size 3 to 8) (size 9 to 14) (size 15 to 20)
#    0.000    1.000    2.500    4.500    3.500   12.000 
#    0.000    0.625    0.000    0.000    0.000    0.000 
#    0.000    0.000    0.000    0.000    0.000    0.000 
#
# Total GULP energy -89073.324995 kJ/mol
# GULP energy per Si atom -5567.082812 kJ/mol
# Density = 2.170086 g / cm^3
# Si number density = 21.750365 Si / 1000 Ang^3
#
#
#
# Elastic Constant Matrix: (Units=GPa)
#
#
# Indices 1 2 3 4 5 6 
#
# 1 56.0725 12.4627 -5.7465 0.0000 0.0000 0.0000
# 2 12.4627 126.6264 9.9611 0.0000 0.0000 0.0000
# 3 -5.7465 9.9611 63.6312 0.0000 0.0000 0.0000
# 4 0.0000 0.0000 0.0000 51.5841 0.0000 0.0000
# 5 0.0000 0.0000 0.0000 0.0000 17.8304 0.0000
# 6 0.0000 0.0000 0.0000 0.0000 0.0000 -45.2147
#
#
#
# Elastic Compliance Matrix: (Units=1/GPa)
#
#
# Indices 1 2 3 4 5 6 
#
# 1 0.018475 -0.001974 0.001978 0.000000 0.000000 0.000000
# 2 -0.001974 0.008207 -0.001463 0.000000 0.000000 0.000000
# 3 0.001978 -0.001463 0.016123 0.000000 0.000000 0.000000
# 4 0.000000 0.000000 0.000000 0.019386 0.000000 0.000000
# 5 0.000000 0.000000 0.000000 0.000000 0.056084 0.000000
# 6 0.000000 0.000000 0.000000 0.000000 0.000000 -0.022117
#
#
# Mechanical properties :
#
#
# Convention : Reuss Voigt Hill
#
# Bulk Modulus (GPa) = 25.07115 31.07607 28.07361
# Shear Modulus (GPa) = 44.49486 20.15016 32.32251
#
# Velocity S-wave (km/s) = 4.52786 3.04703 3.85914
# Velocity P-wave (km/s) = 6.23595 5.16699 5.72647
#
# Compressibility (1/GPa) = 0.03988648
#
# Stress axis : x y z
#
# Youngs Moduli (GPa) = 54.12586 121.85306 62.02258
#
# Poissons Ratio (x) = 0.24053 -0.12265
# Poissons Ratio (y) = 0.10684 0.09074
# Poissons Ratio (z) = -0.10704 0.17827
#
# Static dielectric constant tensor:
#      x y z
#    x 1.696970 0.000000 0.000000 
#    y 0.000000 1.959370 0.000000 
#    z 0.000000 0.000000 2.065770 
# 
# From -- ./inp_files/2193.got.cif
#   From: 2010.05.17/outbox.cif.g08.bks.cpg/sg23_2_cif.got.tgz:2193.got - 2010.06.04 12:02:01.
