data_PCOD9331275
_publ_section_title
;
Structure prediction by ZEFSAII (Michael W. Deem and Ramdas Pophale) SiO2 
 PCOD9331275
Probable space group: I 2 2 2
;
_chemical_formula_sum "Si O2"
_cell_formula_units_Z 40
_cell_length_a 10.924928
_cell_length_b 9.377744
_cell_length_c 17.265569
_cell_angle_alpha 90.000000
_cell_angle_beta 90.000000
_cell_angle_gamma 90.000000
_cell_volume 1768.877883
_symmetry_space_group_name_H-M "I 2 2 2"
_symmetry_group_IT_number 23
_symmetry_cell_setting 'orthorhombic'
loop_
_space_group_symop_operation_xyz
x,y,z
-x,-y,z
x,-y,-z
-x,y,-z
1/2+x,1/2+y,1/2+z
1/2-x,1/2-y,1/2+z
1/2+x,1/2-y,1/2-z
1/2-x,1/2+y,1/2-z
loop_
_atom_site_type_symbol
_atom_site_label
_atom_site_fract_x
_atom_site_fract_y
_atom_site_fract_z
Si Si1 0.000000 0.500000 0.211737
Si Si2 0.000000 0.000000 0.000000
Si Si3 0.338218 0.720632 0.094953
Si Si4 0.269632 0.469240 0.202555
Si Si5 0.412770 0.193714 0.153485
Si Si6 0.206408 0.005610 0.888540
Si Si7 0.500000 0.500000 0.000000
O O1 0.872640 0.565169 0.178664
O O2 0.936392 0.378049 0.263469
O O3 0.094333 0.937973 0.935617
O O4 0.298908 0.623597 0.167511
O O5 0.454227 0.814454 0.117761
O O6 0.233571 0.835878 0.077821
O O7 0.401700 0.608481 0.038093
O O8 0.359175 0.351354 0.165101
O O9 0.298934 0.472278 0.294831
O O10 0.318960 0.102113 0.103995
#
# Coordination Sequence:
#
# PCOD9331275 Si02
#       7
#     4   2   8   8   8   8   2
#     4  10  22  36  64 112 136 176 222 290 362 394
#     4  12  32  42  66 102 144 198 224 284 356 410
#     4  12  24  46  69 104 134 185 235 294 349 414
#     4  11  23  42  74 103 140 175 235 297 353 416
#     4  11  21  42  70 101 131 181 231 291 345 400
#     4  11  26  46  66 101 142 182 236 284 352 418
#     4  12  28  42  70  98 144 182 238 272 358 422
#
# _framework density 22.613205000000001
#
# number of rings (size 3 to 8) (size 9 to 14) (size 15 to 20)
#    0.000    0.800    6.000    2.400    5.600    1.600 
#    0.000    0.000    0.000    1.200    0.000    0.000 
#    0.000    0.000    0.000    0.000    0.000    0.000 
#
# Total GULP energy -111359.128098 kJ/mol
# GULP energy per Si atom -5567.956405 kJ/mol
# Density = 2.256174 g / cm^3
# Si number density = 22.613205 Si / 1000 Ang^3
#
#
#
# Elastic Constant Matrix: (Units=GPa)
#
#
# Indices 1 2 3 4 5 6 
#
# 1 108.1459 0.5208 20.2991 0.0000 0.0000 0.0000
# 2 0.5208 70.2460 12.6783 0.0000 0.0000 0.0000
# 3 20.2991 12.6783 64.6979 0.0000 0.0000 0.0000
# 4 0.0000 0.0000 0.0000 54.8668 0.0000 0.0000
# 5 0.0000 0.0000 0.0000 0.0000 37.8777 0.0000
# 6 0.0000 0.0000 0.0000 0.0000 0.0000 29.5602
#
#
#
# Elastic Compliance Matrix: (Units=1/GPa)
#
#
# Indices 1 2 3 4 5 6 
#
# 1 0.009842 0.000502 -0.003186 0.000000 0.000000 0.000000
# 2 0.000502 0.014783 -0.003054 0.000000 0.000000 0.000000
# 3 -0.003186 -0.003054 0.017055 0.000000 0.000000 0.000000
# 4 0.000000 0.000000 0.000000 0.018226 0.000000 0.000000
# 5 0.000000 0.000000 0.000000 0.000000 0.026401 0.000000
# 6 0.000000 0.000000 0.000000 0.000000 0.000000 0.033829
#
#
# Mechanical properties :
#
#
# Convention : Reuss Voigt Hill
#
# Bulk Modulus (GPa) = 33.10953 34.45403 33.78178
# Shear Modulus (GPa) = 35.29038 38.43373 36.86206
#
# Velocity S-wave (km/s) = 3.95474 4.12711 4.04184
# Velocity P-wave (km/s) = 5.96043 6.16280 6.06246
#
# Compressibility (1/GPa) = 0.03020279
#
# Stress axis : x y z
#
# Youngs Moduli (GPa) = 101.60070 67.64415 58.63461
#
# Poissons Ratio (x) = -0.03397 0.18684
# Poissons Ratio (y) = -0.05102 0.17910
# Poissons Ratio (z) = 0.32375 0.20662
#
# Static dielectric constant tensor:
#      x y z
#    x 1.861220 0.000000 0.000000 
#    y 0.000000 2.068890 0.000000 
#    z 0.000000 0.000000 1.958520 
# 
# From -- ./inp_files/8537.got.cif
#   From: 2010.05.17/outbox.cif.g08.bks.cpg/sg23_5_cif.got.tgz:8537.got - 2010.06.04 12:02:01.
