data_PCOD9331837
_publ_section_title
;
Structure prediction by ZEFSAII (Michael W. Deem and Ramdas Pophale) SiO2 
 PCOD9331837
Probable space group: I 2 2 2
;
_chemical_formula_sum "Si O2"
_cell_formula_units_Z 32
_cell_length_a 4.752271
_cell_length_b 12.192844
_cell_length_c 21.888691
_cell_angle_alpha 90.000000
_cell_angle_beta 90.000000
_cell_angle_gamma 90.000000
_cell_volume 1268.311722
_symmetry_space_group_name_H-M "I 2 2 2"
_symmetry_group_IT_number 23
_symmetry_cell_setting 'orthorhombic'
loop_
_space_group_symop_operation_xyz
x,y,z
-x,-y,z
x,-y,-z
-x,y,-z
1/2+x,1/2+y,1/2+z
1/2-x,1/2-y,1/2+z
1/2+x,1/2-y,1/2-z
1/2-x,1/2+y,1/2-z
loop_
_atom_site_type_symbol
_atom_site_label
_atom_site_fract_x
_atom_site_fract_y
_atom_site_fract_z
Si Si1 0.017805 0.669780 0.908404
Si Si2 0.500000 0.000000 0.310476
Si Si3 0.774912 0.175739 0.230958
Si Si4 0.000000 0.500000 0.500000
Si Si5 0.029763 0.318728 0.402314
Si Si6 0.500000 0.000000 0.500000
O O1 0.882895 0.594802 0.855345
O O2 0.269432 0.743131 0.884884
O O3 0.772667 0.746348 0.935187
O O4 0.154124 0.583557 0.955411
O O5 0.284800 0.933934 0.268812
O O6 0.079969 0.224797 0.243752
O O7 0.687271 0.149156 0.160824
O O8 0.093809 0.589325 0.448090
#
# Coordination Sequence:
#
# PCOD9331837 Si02
#       6
#     8   4   8   2   8   2
#     4  11  25  43  72  97 145 172 244 285 353 422
#     4  11  23  43  70 101 133 193 216 300 348 409
#     4  12  24  44  71 104 145 184 237 296 354 428
#     4  12  30  46  82  96 158 190 244 284 376 424
#     4  12  25  49  66 109 136 194 230 298 345 436
#     4  10  24  42  66 104 124 188 220 292 352 414
#
# _framework density 25.230388999999999
#
# number of rings (size 3 to 8) (size 9 to 14) (size 15 to 20)
#    0.000    0.500    5.000    2.250    0.000   10.000 
#    0.000    5.000    0.000    0.000    0.000    0.000 
#    0.000    0.000    0.000    0.000    0.000    0.000 
#
# Total GULP energy -89279.625135 kJ/mol
# GULP energy per Si atom -5579.976571 kJ/mol
# Density = 2.517296 g / cm^3
# Si number density = 25.230389 Si / 1000 Ang^3
#
#
#
# Elastic Constant Matrix: (Units=GPa)
#
#
# Indices 1 2 3 4 5 6 
#
# 1 71.1952 20.4104 -4.8085 0.0000 0.0000 0.0000
# 2 20.4104 114.0590 51.2123 0.0000 0.0000 0.0000
# 3 -4.8085 51.2123 144.9957 0.0000 0.0000 0.0000
# 4 0.0000 0.0000 0.0000 58.3986 0.0000 0.0000
# 5 0.0000 0.0000 0.0000 0.0000 9.9055 0.0000
# 6 0.0000 0.0000 0.0000 0.0000 0.0000 10.9043
#
#
#
# Elastic Compliance Matrix: (Units=1/GPa)
#
#
# Indices 1 2 3 4 5 6 
#
# 1 0.015165 -0.003493 0.001737 0.000000 0.000000 0.000000
# 2 -0.003493 0.011225 -0.004080 0.000000 0.000000 0.000000
# 3 0.001737 -0.004080 0.008396 0.000000 0.000000 0.000000
# 4 0.000000 0.000000 0.000000 0.017124 0.000000 0.000000
# 5 0.000000 0.000000 0.000000 0.000000 0.100954 0.000000
# 6 0.000000 0.000000 0.000000 0.000000 0.000000 0.091707
#
#
# Mechanical properties :
#
#
# Convention : Reuss Voigt Hill
#
# Bulk Modulus (GPa) = 43.26992 51.54204 47.40598
# Shear Modulus (GPa) = 18.94322 33.40408 26.17365
#
# Velocity S-wave (km/s) = 2.74306 3.64258 3.22434
# Velocity P-wave (km/s) = 5.21725 6.17771 5.71768
#
# Compressibility (1/GPa) = 0.02311074
#
# Stress axis : x y z
#
# Youngs Moduli (GPa) = 65.94259 89.08993 119.11100
#
# Poissons Ratio (x) = 0.31123 -0.20687
# Poissons Ratio (y) = 0.23037 0.48602
# Poissons Ratio (z) = -0.11453 0.36352
#
# Static dielectric constant tensor:
#      x y z
#    x 1.908750 0.000000 0.000000 
#    y 0.000000 1.977250 0.000000 
#    z 0.000000 0.000000 2.096240 
# 
# From -- ./inp_files/13822.got.cif
#   From: 2010.05.17/outbox.cif.g08.bks.cpg/sg23_7_cif.got.tgz:13822.got - 2010.06.04 12:02:01.
