data_PCOD9331125
_publ_section_title
;
Structure prediction by ZEFSAII (Michael W. Deem and Ramdas Pophale) SiO2 
 PCOD9331125
Probable space group: I 2 2 2
;
_chemical_formula_sum "Si O2"
_cell_formula_units_Z 64
_cell_length_a 7.854413
_cell_length_b 21.499270
_cell_length_c 18.377384
_cell_angle_alpha 90.000000
_cell_angle_beta 90.000000
_cell_angle_gamma 90.000000
_cell_volume 3103.281251
_symmetry_space_group_name_H-M "I 2 2 2"
_symmetry_group_IT_number 23
_symmetry_cell_setting 'orthorhombic'
loop_
_space_group_symop_operation_xyz
x,y,z
-x,-y,z
x,-y,-z
-x,y,-z
1/2+x,1/2+y,1/2+z
1/2-x,1/2-y,1/2+z
1/2+x,1/2-y,1/2-z
1/2-x,1/2+y,1/2-z
loop_
_atom_site_type_symbol
_atom_site_label
_atom_site_fract_x
_atom_site_fract_y
_atom_site_fract_z
Si Si1 0.674854 0.375990 0.598212
Si Si2 0.492773 0.646736 0.919348
Si Si3 0.216026 0.145387 0.066107
Si Si4 0.650954 0.921938 0.630720
Si Si5 0.308082 0.008019 0.087784
Si Si6 0.208993 0.545117 0.072446
Si Si7 0.366963 0.167363 0.758895
Si Si8 0.871947 0.745496 0.666342
O O1 0.484691 0.352290 0.583764
O O2 0.759526 0.361719 0.519606
O O3 0.688958 0.450645 0.611715
O O4 0.763787 0.344608 0.666878
O O5 0.306532 0.616003 0.905957
O O6 0.637627 0.593462 0.919580
O O7 0.505156 0.702032 0.861136
O O8 0.500000 0.674248 0.000000
O O9 0.264057 0.079349 0.102421
O O10 0.302596 0.205869 0.099028
O O11 0.475409 0.922339 0.583763
O O12 0.618528 0.893293 0.709295
O O13 0.711740 0.993016 0.635038
O O14 0.500000 0.000000 0.114740
O O15 0.306664 0.000000 0.000000
O O16 0.220431 0.500000 0.000000
O O17 0.272432 0.217466 0.708662
O O18 0.545506 0.195798 0.780620
#
# Coordination Sequence:
#
# PCOD9331125 Si02
#       8
#     8   8   8   8   8   8   8   8
#     4  10  21  40  67  96 129 173 222 291 349 403
#     4  11  24  40  69 105 134 178 234 287 355 415
#     4  10  21  41  67  97 128 171 232 284 339 409
#     4  10  23  42  65 102 136 178 223 283 365 430
#     4   9  17  33  61  95 123 153 206 275 333 382
#     4  11  22  42  75 103 138 177 225 302 360 422
#     4  11  25  45  62  90 138 182 228 279 351 427
#     4  11  26  44  65  91 138 185 233 281 343 431
#
# _framework density 20.623332000000001
#
# number of rings (size 3 to 8) (size 9 to 14) (size 15 to 20)
#    0.000    1.625    1.250    3.000    3.500    2.500 
#    6.750    2.500    0.000    0.000    0.000    0.000 
#    0.000    0.000    0.000    0.000    0.000    0.000 
#
# Total GULP energy -178489.657658 kJ/mol
# GULP energy per Si atom -5577.801802 kJ/mol
# Density = 2.057639 g / cm^3
# Si number density = 20.623332 Si / 1000 Ang^3
#
#
#
# Elastic Constant Matrix: (Units=GPa)
#
#
# Indices 1 2 3 4 5 6 
#
# 1 66.8505 31.6021 20.8342 0.0000 0.0000 0.0000
# 2 31.6021 104.1749 48.4080 0.0000 0.0000 0.0000
# 3 20.8342 48.4080 74.9847 0.0000 0.0000 0.0000
# 4 0.0000 0.0000 0.0000 33.1662 0.0000 0.0000
# 5 0.0000 0.0000 0.0000 0.0000 21.6105 0.0000
# 6 0.0000 0.0000 0.0000 0.0000 0.0000 31.7428
#
#
#
# Elastic Compliance Matrix: (Units=1/GPa)
#
#
# Indices 1 2 3 4 5 6 
#
# 1 0.017686 -0.004402 -0.002072 0.000000 0.000000 0.000000
# 2 -0.004402 0.014809 -0.008337 0.000000 0.000000 0.000000
# 3 -0.002072 -0.008337 0.019294 0.000000 0.000000 0.000000
# 4 0.000000 0.000000 0.000000 0.030151 0.000000 0.000000
# 5 0.000000 0.000000 0.000000 0.000000 0.046274 0.000000
# 6 0.000000 0.000000 0.000000 0.000000 0.000000 0.031503
#
#
# Mechanical properties :
#
#
# Convention : Reuss Voigt Hill
#
# Bulk Modulus (GPa) = 45.11432 49.74429 47.42931
# Shear Modulus (GPa) = 25.41592 26.98161 26.19876
#
# Velocity S-wave (km/s) = 3.51434 3.62097 3.56806
# Velocity P-wave (km/s) = 6.19600 6.45404 6.32634
#
# Compressibility (1/GPa) = 0.02216591
#
# Stress axis : x y z
#
# Youngs Moduli (GPa) = 56.54345 67.52781 51.83007
#
# Poissons Ratio (x) = 0.29727 0.10738
# Poissons Ratio (y) = 0.24892 0.43210
# Poissons Ratio (z) = 0.11715 0.56298
#
# Static dielectric constant tensor:
#      x y z
#    x 1.760320 0.000000 0.000000 
#    y 0.000000 1.741470 0.000000 
#    z 0.000000 0.000000 1.764510 
# 
# From -- ./inp_files/23989.got.cif
#   From: 2010.05.17/outbox.cif.g08.bks.cpg/sg23_12_cif.got.tgz:23989.got - 2010.06.04 12:02:01.
