data_PCOD9331302
_publ_section_title
;
Structure prediction by ZEFSAII (Michael W. Deem and Ramdas Pophale) SiO2 
 PCOD9331302
Probable space group: I 2 2 2
;
_chemical_formula_sum "Si O2"
_cell_formula_units_Z 40
_cell_length_a 8.083713
_cell_length_b 16.992354
_cell_length_c 15.542857
_cell_angle_alpha 90.000000
_cell_angle_beta 90.000000
_cell_angle_gamma 90.000000
_cell_volume 2134.987244
_symmetry_space_group_name_H-M "I 2 2 2"
_symmetry_group_IT_number 23
_symmetry_cell_setting 'orthorhombic'
loop_
_space_group_symop_operation_xyz
x,y,z
-x,-y,z
x,-y,-z
-x,y,-z
1/2+x,1/2+y,1/2+z
1/2-x,1/2-y,1/2+z
1/2+x,1/2-y,1/2-z
1/2-x,1/2+y,1/2-z
loop_
_atom_site_type_symbol
_atom_site_label
_atom_site_fract_x
_atom_site_fract_y
_atom_site_fract_z
Si Si1 0.727349 0.427264 0.066946
Si Si2 0.500000 0.288821 0.000000
Si Si3 0.327950 0.351393 0.258205
Si Si4 0.495235 0.908769 0.308539
Si Si5 0.989708 0.286905 0.674158
Si Si6 0.000000 0.000000 0.717580
O O1 0.906360 0.405228 0.103272
O O2 0.624838 0.456298 0.151295
O O3 0.727491 0.500000 0.000000
O O4 0.641451 0.349886 0.029467
O O5 0.548202 0.233447 0.920583
O O6 0.204878 0.310049 0.325832
O O7 0.466382 0.291200 0.227620
O O8 0.410517 0.434829 0.275343
O O9 0.191023 0.374530 0.184671
O O10 0.569380 0.857114 0.230324
O O11 0.500000 0.000000 0.283021
#
# Coordination Sequence:
#
# PCOD9331302 Si02
#       6
#     8   4   8   8   8   4
#     4  12  20  35  60  94 133 160 204 261 339 384
#     4  12  21  36  61  90 134 160 210 270 315 379
#     4  10  22  37  65  87 129 169 215 260 313 407
#     4  10  23  40  58  90 124 175 212 259 307 397
#     4  10  22  40  58  93 120 178 210 261 318 384
#     4  12  19  38  58  96 121 162 202 268 333 390
#
# _framework density 18.735474
#
# number of rings (size 3 to 8) (size 9 to 14) (size 15 to 20)
#    1.200    0.000    6.000    1.200    0.000    0.400 
#    0.000    0.500    0.000    0.000    0.000    1.400 
#    0.000    0.000    0.000    0.000    0.000    0.000 
#
# Total GULP energy -111343.870498 kJ/mol
# GULP energy per Si atom -5567.193525 kJ/mol
# Density = 1.869283 g / cm^3
# Si number density = 18.735474 Si / 1000 Ang^3
#
#
#
# Elastic Constant Matrix: (Units=GPa)
#
#
# Indices 1 2 3 4 5 6 
#
# 1 49.9944 42.5013 1.9096 0.0000 0.0000 0.0000
# 2 42.5013 129.8727 51.9084 0.0000 0.0000 0.0000
# 3 1.9096 51.9084 50.3484 0.0000 0.0000 0.0000
# 4 0.0000 0.0000 0.0000 32.2634 0.0000 0.0000
# 5 0.0000 0.0000 0.0000 0.0000 27.5867 0.0000
# 6 0.0000 0.0000 0.0000 0.0000 0.0000 34.4487
#
#
#
# Elastic Compliance Matrix: (Units=1/GPa)
#
#
# Indices 1 2 3 4 5 6 
#
# 1 0.035204 -0.018688 0.017931 0.000000 0.000000 0.000000
# 2 -0.018688 0.023017 -0.023021 0.000000 0.000000 0.000000
# 3 0.017931 -0.023021 0.042916 0.000000 0.000000 0.000000
# 4 0.000000 0.000000 0.000000 0.030995 0.000000 0.000000
# 5 0.000000 0.000000 0.000000 0.000000 0.036249 0.000000
# 6 0.000000 0.000000 0.000000 0.000000 0.000000 0.029029
#
#
# Mechanical properties :
#
#
# Convention : Reuss Voigt Hill
#
# Bulk Modulus (GPa) = 18.66297 46.98381 32.82339
# Shear Modulus (GPa) = 19.02411 27.78617 23.40514
#
# Velocity S-wave (km/s) = 3.19000 3.85525 3.53830
# Velocity P-wave (km/s) = 4.85294 6.70442 5.85236
#
# Compressibility (1/GPa) = 0.05358203
#
# Stress axis : x y z
#
# Youngs Moduli (GPa) = 28.40583 43.44685 23.30146
#
# Poissons Ratio (x) = 0.81192 -0.41783
# Poissons Ratio (y) = 0.53084 0.53642
# Poissons Ratio (z) = -0.50936 1.00019
#
# Static dielectric constant tensor:
#      x y z
#    x 1.754700 0.000000 0.000000 
#    y 0.000000 1.653250 0.000000 
#    z 0.000000 0.000000 1.644990 
# 
# From -- ./inp_files/23809.got.cif
#   From: 2010.05.17/outbox.cif.g08.bks.cpg/sg23_12_cif.got.tgz:23809.got - 2010.06.04 12:02:01.
