data_PCOD9331891
_publ_section_title
;
Structure prediction by ZEFSAII (Michael W. Deem and Ramdas Pophale) SiO2 
 PCOD9331891
Probable space group: I 2 2 2
;
_chemical_formula_sum "Si O2"
_cell_formula_units_Z 40
_cell_length_a 24.728696
_cell_length_b 8.456828
_cell_length_c 9.011416
_cell_angle_alpha 90.000000
_cell_angle_beta 90.000000
_cell_angle_gamma 90.000000
_cell_volume 1884.524345
_symmetry_space_group_name_H-M "I 2 2 2"
_symmetry_group_IT_number 23
_symmetry_cell_setting 'orthorhombic'
loop_
_space_group_symop_operation_xyz
x,y,z
-x,-y,z
x,-y,-z
-x,y,-z
1/2+x,1/2+y,1/2+z
1/2-x,1/2-y,1/2+z
1/2+x,1/2-y,1/2-z
1/2-x,1/2+y,1/2-z
loop_
_atom_site_type_symbol
_atom_site_label
_atom_site_fract_x
_atom_site_fract_y
_atom_site_fract_z
Si Si1 0.279718 0.315439 0.500619
Si Si2 0.323405 0.806034 0.809320
Si Si3 0.568447 0.664250 0.088371
Si Si4 0.866434 0.602480 0.149133
Si Si5 0.471894 0.828879 0.195369
O O1 0.292623 0.500000 0.500000
O O2 0.291301 0.243262 0.339257
O O3 0.218436 0.297423 0.556104
O O4 0.319321 0.225717 0.614103
O O5 0.374047 0.691993 0.837695
O O6 0.347595 0.979938 0.776415
O O7 0.519437 0.698333 0.201704
O O8 0.565395 0.500000 0.000000
O O9 0.557174 0.797579 0.962844
O O10 0.923284 0.681014 0.189033
O O11 0.873723 0.500000 0.000000
O O12 0.500000 0.000000 0.207004
#
# Coordination Sequence:
#
# PCOD9331891 Si02
#       5
#     8   8   8   8   8
#     4  11  26  44  69 103 134 182 227 285 348 406
#     4  11  25  44  69  98 138 183 228 279 349 415
#     4  11  25  41  67 105 136 176 230 293 340 406
#     4  10  24  45  67 100 137 178 233 280 342 422
#     4  11  22  42  71  98 130 179 232 277 346 411
#
# _framework density 21.225515999999999
#
# number of rings (size 3 to 8) (size 9 to 14) (size 15 to 20)
#    0.000    1.200    2.000    3.600    8.400    2.800 
#    0.000    0.000    0.000    1.200    0.000    0.000 
#    0.000    0.000    0.000    0.000    0.000    0.000 
#
# Total GULP energy -111812.427915 kJ/mol
# GULP energy per Si atom -5590.621396 kJ/mol
# Density = 2.117721 g / cm^3
# Si number density = 21.225516 Si / 1000 Ang^3
#
#
#
# Elastic Constant Matrix: (Units=GPa)
#
#
# Indices 1 2 3 4 5 6 
#
# 1 182.3572 56.0101 65.9033 0.0000 0.0000 0.0000
# 2 56.0101 90.8579 14.5804 0.0000 0.0000 0.0000
# 3 65.9033 14.5804 45.1995 0.0000 0.0000 0.0000
# 4 0.0000 0.0000 0.0000 22.4119 0.0000 0.0000
# 5 0.0000 0.0000 0.0000 0.0000 36.0508 0.0000
# 6 0.0000 0.0000 0.0000 0.0000 0.0000 23.8866
#
#
#
# Elastic Compliance Matrix: (Units=1/GPa)
#
#
# Indices 1 2 3 4 5 6 
#
# 1 0.013841 -0.005583 -0.018380 0.000000 0.000000 0.000000
# 2 -0.005583 0.013859 0.003669 0.000000 0.000000 0.000000
# 3 -0.018380 0.003669 0.047739 0.000000 0.000000 0.000000
# 4 0.000000 0.000000 0.000000 0.044619 0.000000 0.000000
# 5 0.000000 0.000000 0.000000 0.000000 0.027739 0.000000
# 6 0.000000 0.000000 0.000000 0.000000 0.000000 0.041865
#
#
# Mechanical properties :
#
#
# Convention : Reuss Voigt Hill
#
# Bulk Modulus (GPa) = 28.69222 65.71138 47.20180
# Shear Modulus (GPa) = 20.67264 28.59790 24.63527
#
# Velocity S-wave (km/s) = 3.12421 3.67459 3.41052
# Velocity P-wave (km/s) = 5.15377 7.00210 6.14779
#
# Compressibility (1/GPa) = 0.03485265
#
# Stress axis : x y z
#
# Youngs Moduli (GPa) = 72.24954 72.15567 20.94709
#
# Poissons Ratio (x) = 0.40283 0.38501
# Poissons Ratio (y) = 0.40336 -0.07686
# Poissons Ratio (z) = 1.32794 -0.26477
#
# Static dielectric constant tensor:
#      x y z
#    x 1.765240 0.000000 0.000000 
#    y 0.000000 1.763780 0.000000 
#    z 0.000000 0.000000 1.790090 
# 
# From -- ./inp_files/7106.got.cif
#   From: 2010.05.17/outbox.cif.g08.bks.cpg/sg23_4_cif.got.tgz:7106.got - 2010.06.04 12:02:01.
