data_PCOD9331102
_publ_section_title
;
Structure prediction by ZEFSAII (Michael W. Deem and Ramdas Pophale) SiO2 
 PCOD9331102
Probable space group: I 2 2 2
;
_chemical_formula_sum "Si O2"
_cell_formula_units_Z 56
_cell_length_a 19.917257
_cell_length_b 15.672860
_cell_length_c 8.653420
_cell_angle_alpha 90.000000
_cell_angle_beta 90.000000
_cell_angle_gamma 90.000000
_cell_volume 2701.254880
_symmetry_space_group_name_H-M "I 2 2 2"
_symmetry_group_IT_number 23
_symmetry_cell_setting 'orthorhombic'
loop_
_space_group_symop_operation_xyz
x,y,z
-x,-y,z
x,-y,-z
-x,y,-z
1/2+x,1/2+y,1/2+z
1/2-x,1/2-y,1/2+z
1/2+x,1/2-y,1/2-z
1/2-x,1/2+y,1/2-z
loop_
_atom_site_type_symbol
_atom_site_label
_atom_site_fract_x
_atom_site_fract_y
_atom_site_fract_z
Si Si1 0.071213 0.029648 0.320616
Si Si2 0.672277 0.398071 0.697283
Si Si3 0.406596 0.727491 0.209019
Si Si4 0.000000 0.346178 0.500000
Si Si5 0.276372 0.000000 0.000000
Si Si6 0.870728 0.383736 0.318210
Si Si7 0.291964 0.275780 0.029079
Si Si8 0.865481 0.731802 0.958531
O O1 0.071563 0.130217 0.303754
O O2 0.075758 0.000000 0.500000
O O3 0.130757 0.983041 0.231916
O O4 0.000000 0.000000 0.258189
O O5 0.730334 0.426814 0.578282
O O6 0.625708 0.322472 0.629024
O O7 0.697659 0.357442 0.859121
O O8 0.456656 0.785666 0.111645
O O9 0.332701 0.723616 0.131325
O O10 0.403407 0.762660 0.380820
O O11 0.057614 0.394086 0.597039
O O12 0.323793 0.962884 0.864005
O O13 0.827479 0.303374 0.384569
O O14 0.882184 0.350898 0.144216
O O15 0.213988 0.268823 0.994360
#
# Coordination Sequence:
#
# PCOD9331102 Si02
#       8
#     8   8   8   4   4   8   8   8
#     4  11  23  38  60  95 138 184 218 264 324 401
#     4  11  23  39  63  98 136 170 225 273 338 393
#     4  11  22  40  67  93 135 175 223 275 324 401
#     4  10  24  45  67  92 124 184 228 272 334 412
#     4  12  24  43  69 100 132 172 222 298 346 390
#     4  10  24  42  67  94 129 171 227 272 343 399
#     4  10  21  40  64  94 128 175 214 273 329 409
#     4  11  23  40  67 100 129 170 223 277 331 410
#
# _framework density 20.731106
#
# number of rings (size 3 to 8) (size 9 to 14) (size 15 to 20)
#    0.000    1.286    2.857    3.429    8.000    0.857 
#    0.000    2.500    0.000    0.000    3.714    0.000 
#    0.000    0.000    0.000    0.000    0.000    0.000 
#
# Total GULP energy -156382.385285 kJ/mol
# GULP energy per Si atom -5585.085189 kJ/mol
# Density = 2.068392 g / cm^3
# Si number density = 20.731106 Si / 1000 Ang^3
#
#
#
# Elastic Constant Matrix: (Units=GPa)
#
#
# Indices 1 2 3 4 5 6 
#
# 1 62.8556 -5.6590 8.4924 0.0000 0.0000 0.0000
# 2 -5.6590 32.1165 13.7335 0.0000 0.0000 0.0000
# 3 8.4924 13.7335 106.2557 0.0000 0.0000 0.0000
# 4 0.0000 0.0000 0.0000 27.0040 0.0000 0.0000
# 5 0.0000 0.0000 0.0000 0.0000 -37.6591 0.0000
# 6 0.0000 0.0000 0.0000 0.0000 0.0000 -110.4739
#
#
#
# Elastic Compliance Matrix: (Units=1/GPa)
#
#
# Indices 1 2 3 4 5 6 
#
# 1 0.016482 0.003670 -0.001792 0.000000 0.000000 0.000000
# 2 0.003670 0.033776 -0.004659 0.000000 0.000000 0.000000
# 3 -0.001792 -0.004659 0.010157 0.000000 0.000000 0.000000
# 4 0.000000 0.000000 0.000000 0.037032 0.000000 0.000000
# 5 0.000000 0.000000 0.000000 0.000000 -0.026554 0.000000
# 6 0.000000 0.000000 0.000000 0.000000 0.000000 -0.009052
#
#
# Mechanical properties :
#
#
# Convention : Reuss Voigt Hill
#
# Bulk Modulus (GPa) = 18.23030 26.04018 22.13524
# Shear Modulus (GPa) = 58.35337 -11.91508 23.21915
#
# Velocity S-wave (km/s) = 5.31120 -2.39998 3.35029
# Velocity P-wave (km/s) = 6.81356 2.21547 5.06621
#
# Compressibility (1/GPa) = 0.05485372
#
# Stress axis : x y z
#
# Youngs Moduli (GPa) = 60.67222 29.60723 98.45798
#
# Poissons Ratio (x) = -0.10867 0.17641
# Poissons Ratio (y) = -0.22269 0.45870
# Poissons Ratio (z) = 0.10871 0.13794
#
# Static dielectric constant tensor:
#      x y z
#    x 1.730030 0.000000 0.000000 
#    y 0.000000 1.774440 0.000000 
#    z 0.000000 0.000000 1.834500 
# 
# From -- ./inp_files/12099.got.cif
#   From: 2010.05.17/outbox.cif.g08.bks.cpg/sg23_7_cif.got.tgz:12099.got - 2010.06.04 12:02:01.
