data_PCOD9331615
_publ_section_title
;
Structure prediction by ZEFSAII (Michael W. Deem and Ramdas Pophale) SiO2 
 PCOD9331615
Probable space group: I 2 2 2
;
_chemical_formula_sum "Si O2"
_cell_formula_units_Z 22
_cell_length_a 4.902490
_cell_length_b 9.898771
_cell_length_c 18.427894
_cell_angle_alpha 90.000000
_cell_angle_beta 90.000000
_cell_angle_gamma 90.000000
_cell_volume 894.280373
_symmetry_space_group_name_H-M "I 2 2 2"
_symmetry_group_IT_number 23
_symmetry_cell_setting 'orthorhombic'
loop_
_space_group_symop_operation_xyz
x,y,z
-x,-y,z
x,-y,-z
-x,y,-z
1/2+x,1/2+y,1/2+z
1/2-x,1/2-y,1/2+z
1/2+x,1/2-y,1/2-z
1/2-x,1/2+y,1/2-z
loop_
_atom_site_type_symbol
_atom_site_label
_atom_site_fract_x
_atom_site_fract_y
_atom_site_fract_z
Si Si1 0.500000 0.500000 0.735752
Si Si2 0.000000 0.000000 0.000000
Si Si3 0.333188 0.383193 0.125705
Si Si4 0.850115 0.204994 0.115630
O O1 0.279061 0.547731 0.795619
O O2 0.501062 0.627087 0.681771
O O3 0.175170 0.903323 0.051652
O O4 0.500000 0.500000 0.084394
O O5 0.558264 0.265211 0.135786
O O6 0.059671 0.322999 0.093885
#
# Coordination Sequence:
#
# PCOD9331615 Si02
#       4
#     4   2   8   8
#     4   9  22  35  68  89 126 155 194 256 298 347
#     4  10  28  42  70  78 124 164 204 250 288 364
#     4  10  23  36  65  92 124 153 196 252 307 345
#     4  11  22  43  58  95 118 162 204 238 299 360
#
# _framework density 24.600788999999999
#
# number of rings (size 3 to 8) (size 9 to 14) (size 15 to 20)
#    1.091    0.727    0.000    3.273    0.000   11.636 
#    0.000    5.455    0.000    0.000    0.000    0.000 
#    0.000    0.000    0.000    0.000    0.000    0.000 
#
# Total GULP energy -61310.019687 kJ/mol
# GULP energy per Si atom -5573.638153 kJ/mol
# Density = 2.454480 g / cm^3
# Si number density = 24.600789 Si / 1000 Ang^3
#
#
#
# Elastic Constant Matrix: (Units=GPa)
#
#
# Indices 1 2 3 4 5 6 
#
# 1 154.5439 51.0465 23.8184 0.0000 0.0000 0.0000
# 2 51.0465 66.4506 34.0660 0.0000 0.0000 0.0000
# 3 23.8184 34.0660 107.7386 0.0000 0.0000 0.0000
# 4 0.0000 0.0000 0.0000 -38.1958 0.0000 0.0000
# 5 0.0000 0.0000 0.0000 0.0000 7.0451 0.0000
# 6 0.0000 0.0000 0.0000 0.0000 0.0000 17.8222
#
#
#
# Elastic Compliance Matrix: (Units=1/GPa)
#
#
# Indices 1 2 3 4 5 6 
#
# 1 0.008675 -0.006780 0.000226 0.000000 0.000000 0.000000
# 2 -0.006780 0.023259 -0.005855 0.000000 0.000000 0.000000
# 3 0.000226 -0.005855 0.011083 0.000000 0.000000 0.000000
# 4 0.000000 0.000000 0.000000 -0.026181 0.000000 0.000000
# 5 0.000000 0.000000 0.000000 0.000000 0.141942 0.000000
# 6 0.000000 0.000000 0.000000 0.000000 0.000000 0.056110
#
#
# Mechanical properties :
#
#
# Convention : Reuss Voigt Hill
#
# Bulk Modulus (GPa) = 54.95003 60.73276 57.84139
# Shear Modulus (GPa) = 20.34397 11.98779 16.16588
#
# Velocity S-wave (km/s) = 2.87882 2.20987 2.56623
# Velocity P-wave (km/s) = 5.78233 5.59037 5.68716
#
# Compressibility (1/GPa) = 0.01819835
#
# Stress axis : x y z
#
# Youngs Moduli (GPa) = 115.26931 42.99427 90.22666
#
# Poissons Ratio (x) = 0.29151 -0.02038
# Poissons Ratio (y) = 0.78154 0.52831
# Poissons Ratio (z) = -0.02604 0.25175
#
# Static dielectric constant tensor:
#      x y z
#    x 1.928540 0.000000 0.000000 
#    y 0.000000 2.010750 0.000000 
#    z 0.000000 0.000000 1.982270 
# 
# From -- ./inp_files/13696.got.cif
#   From: 2010.05.17/outbox.cif.g08.bks.cpg/sg23_7_cif.got.tgz:13696.got - 2010.06.04 12:02:01.
