data_PCOD9331976
_publ_section_title
;
Structure prediction by ZEFSAII (Michael W. Deem and Ramdas Pophale) SiO2 
 PCOD9331976
Probable space group: I 2 2 2
;
_chemical_formula_sum "Si O2"
_cell_formula_units_Z 64
_cell_length_a 29.095730
_cell_length_b 11.516489
_cell_length_c 9.092647
_cell_angle_alpha 90.000000
_cell_angle_beta 90.000000
_cell_angle_gamma 90.000000
_cell_volume 3046.770108
_symmetry_space_group_name_H-M "I 2 2 2"
_symmetry_group_IT_number 23
_symmetry_cell_setting 'orthorhombic'
loop_
_space_group_symop_operation_xyz
x,y,z
-x,-y,z
x,-y,-z
-x,y,-z
1/2+x,1/2+y,1/2+z
1/2-x,1/2-y,1/2+z
1/2+x,1/2-y,1/2-z
1/2-x,1/2+y,1/2-z
loop_
_atom_site_type_symbol
_atom_site_label
_atom_site_fract_x
_atom_site_fract_y
_atom_site_fract_z
Si Si1 0.157512 0.368228 0.550268
Si Si2 0.726217 0.072674 0.701476
Si Si3 0.084095 0.758861 0.246245
Si Si4 0.417024 0.517984 0.170028
Si Si5 0.174119 0.830206 0.689302
Si Si6 0.081424 0.379793 0.054117
Si Si7 0.318465 0.858259 0.399596
Si Si8 0.515927 0.306762 0.330369
O O1 0.147440 0.500000 0.500000
O O2 0.202685 0.376428 0.653737
O O3 0.114246 0.314259 0.639112
O O4 0.168854 0.278677 0.420308
O O5 0.778857 0.100559 0.670232
O O6 0.697337 0.124485 0.565425
O O7 0.716870 0.934845 0.694984
O O8 0.028672 0.767198 0.261196
O O9 0.096165 0.894572 0.258907
O O10 0.091538 0.700732 0.087354
O O11 0.371032 0.594146 0.170991
O O12 0.456355 0.586529 0.259785
O O13 0.431364 0.500000 0.000000
O O14 0.178057 0.773230 0.850122
O O15 0.130498 0.409415 0.124459
O O16 0.049815 0.303252 0.158011
O O17 0.059604 0.500000 0.000000
O O18 0.500000 0.332134 0.500000
#
# Coordination Sequence:
#
# PCOD9331976 Si02
#       8
#     8   8   8   8   8   8   8   8
#     4  12  24  47  70 103 148 187 230 295 367 424
#     4  11  24  42  70  99 141 184 236 280 354 421
#     4  11  25  43  70 103 137 189 231 292 359 420
#     4  12  26  46  70 102 150 188 232 299 364 426
#     4  12  26  44  71 106 139 188 241 290 351 431
#     4  11  21  44  73 104 141 183 235 293 359 413
#     4  11  21  42  69  98 134 186 229 292 343 412
#     4  10  25  46  75 105 140 188 245 293 356 432
#
# _framework density 21.005849999999999
#
# number of rings (size 3 to 8) (size 9 to 14) (size 15 to 20)
#    0.000    0.750    6.250    1.125    1.750    7.750 
#    0.000    0.000    0.000    0.000    0.000    0.000 
#    0.000    0.000    0.000    0.000    0.000    0.000 
#
# Total GULP energy -178834.573065 kJ/mol
# GULP energy per Si atom -5588.580408 kJ/mol
# Density = 2.095804 g / cm^3
# Si number density = 21.005850 Si / 1000 Ang^3
#
#
#
# Elastic Constant Matrix: (Units=GPa)
#
#
# Indices 1 2 3 4 5 6 
#
# 1 147.6288 50.3464 30.3637 0.0000 0.0000 0.0000
# 2 50.3464 109.9413 22.4311 0.0000 0.0000 0.0000
# 3 30.3637 22.4311 43.4121 0.0000 0.0000 0.0000
# 4 0.0000 0.0000 0.0000 37.4119 0.0000 0.0000
# 5 0.0000 0.0000 0.0000 0.0000 21.5477 0.0000
# 6 0.0000 0.0000 0.0000 0.0000 0.0000 21.2284
#
#
#
# Elastic Compliance Matrix: (Units=1/GPa)
#
#
# Indices 1 2 3 4 5 6 
#
# 1 0.008758 -0.003086 -0.004531 0.000000 0.000000 0.000000
# 2 -0.003086 0.011255 -0.003657 0.000000 0.000000 0.000000
# 3 -0.004531 -0.003657 0.028094 0.000000 0.000000 0.000000
# 4 0.000000 0.000000 0.000000 0.026729 0.000000 0.000000
# 5 0.000000 0.000000 0.000000 0.000000 0.046409 0.000000
# 6 0.000000 0.000000 0.000000 0.000000 0.000000 0.047107
#
#
# Mechanical properties :
#
#
# Convention : Reuss Voigt Hill
#
# Bulk Modulus (GPa) = 39.12576 56.36274 47.74425
# Shear Modulus (GPa) = 25.07269 29.22699 27.14984
#
# Velocity S-wave (km/s) = 3.45861 3.73416 3.59902
# Velocity P-wave (km/s) = 5.88352 6.74404 6.32843
#
# Compressibility (1/GPa) = 0.02555861
#
# Stress axis : x y z
#
# Youngs Moduli (GPa) = 114.17874 88.84778 35.59503
#
# Poissons Ratio (x) = 0.27421 0.16128
# Poissons Ratio (y) = 0.35238 0.13017
# Poissons Ratio (z) = 0.51735 0.32491
#
# Static dielectric constant tensor:
#      x y z
#    x 1.760010 0.000000 0.000000 
#    y 0.000000 1.770870 0.000000 
#    z 0.000000 0.000000 1.833250 
# 
# From -- ./inp_files/13514.got.cif
#   From: 2010.05.17/outbox.cif.g08.bks.cpg/sg23_7_cif.got.tgz:13514.got - 2010.06.04 12:02:01.
