data_PCOD9331153
_publ_section_title
;
Structure prediction by ZEFSAII (Michael W. Deem and Ramdas Pophale) SiO2 
 PCOD9331153
Probable space group: I 2 2 2
;
_chemical_formula_sum "Si O2"
_cell_formula_units_Z 46
_cell_length_a 9.587210
_cell_length_b 28.663124
_cell_length_c 8.213098
_cell_angle_alpha 90.000000
_cell_angle_beta 90.000000
_cell_angle_gamma 90.000000
_cell_volume 2256.954313
_symmetry_space_group_name_H-M "I 2 2 2"
_symmetry_group_IT_number 23
_symmetry_cell_setting 'orthorhombic'
loop_
_space_group_symop_operation_xyz
x,y,z
-x,-y,z
x,-y,-z
-x,y,-z
1/2+x,1/2+y,1/2+z
1/2-x,1/2-y,1/2+z
1/2+x,1/2-y,1/2-z
1/2-x,1/2+y,1/2-z
loop_
_atom_site_type_symbol
_atom_site_label
_atom_site_fract_x
_atom_site_fract_y
_atom_site_fract_z
Si Si1 0.080911 0.391896 0.838271
Si Si2 0.735984 0.792350 0.864172
Si Si3 0.000000 0.840199 0.000000
Si Si4 0.000000 0.643843 0.500000
Si Si5 0.126769 0.920642 0.789541
Si Si6 0.500000 0.500000 0.500000
Si Si7 0.261872 0.189570 0.491225
Si Si8 0.500000 0.620423 0.000000
O O1 0.223307 0.419383 0.796574
O O2 0.003853 0.386900 0.664970
O O3 0.126343 0.339380 0.888564
O O4 0.000000 0.409685 0.000000
O O5 0.695517 0.800559 0.676873
O O6 0.896021 0.808939 0.892438
O O7 0.633683 0.822621 0.977820
O O8 0.724805 0.738195 0.908185
O O9 0.897931 0.874766 0.099357
O O10 0.007985 0.912814 0.654904
O O11 0.095860 0.966239 0.892214
O O12 0.131794 0.154337 0.499188
#
# Coordination Sequence:
#
# PCOD9331153 Si02
#       8
#     8   8   4   4   8   2   8   4
#     4  11  23  42  65 100 136 186 232 277 354 428
#     4  12  24  36  57  87 138 189 249 291 328 386
#     4  11  22  39  62  96 134 186 236 299 338 401
#     4  12  23  40  60  91 129 193 230 287 340 401
#     4  10  22  43  72 105 131 171 227 291 365 431
#     4  10  24  46  80 114 128 158 224 302 380 460
#     4  11  24  36  57  92 134 188 241 287 331 394
#     4  10  21  41  62  94 135 173 220 285 350 409
#
# _framework density 20.381447999999999
#
# number of rings (size 3 to 8) (size 9 to 14) (size 15 to 20)
#    0.000    1.043    5.217    1.565    3.652    1.739 
#    0.000    0.000    0.000    0.522    4.522    0.000 
#    0.000    0.000    0.000    0.000    0.000    0.000 
#
# Total GULP energy -128453.344988 kJ/mol
# GULP energy per Si atom -5584.928043 kJ/mol
# Density = 2.033506 g / cm^3
# Si number density = 20.381448 Si / 1000 Ang^3
#
#
#
# Elastic Constant Matrix: (Units=GPa)
#
#
# Indices 1 2 3 4 5 6 
#
# 1 92.2070 36.6681 34.0873 0.0014 -0.0002 0.0002
# 2 36.6681 87.7125 49.0745 0.0001 -0.0003 -0.0001
# 3 34.0873 49.0745 143.7039 0.0120 -0.0019 0.0031
# 4 0.0014 0.0001 0.0120 23.1710 -0.0002 0.0017
# 5 -0.0002 -0.0003 -0.0019 -0.0002 39.6154 0.0007
# 6 0.0002 -0.0001 0.0031 0.0017 0.0007 7.9503
#
#
#
# Elastic Compliance Matrix: (Units=1/GPa)
#
#
# Indices 1 2 3 4 5 6 
#
# 1 0.013281 -0.004685 -0.001551 0.000000 0.000000 0.000000
# 2 -0.004685 0.015746 -0.004266 0.000002 0.000000 0.000002
# 3 -0.001551 -0.004266 0.008783 -0.000004 0.000000 -0.000003
# 4 0.000000 0.000002 -0.000004 0.043157 0.000000 -0.000009
# 5 0.000000 0.000000 0.000000 0.000000 0.025243 -0.000002
# 6 0.000000 0.000002 -0.000003 -0.000009 -0.000002 0.125782
#
#
# Mechanical properties :
#
#
# Convention : Reuss Voigt Hill
#
# Bulk Modulus (GPa) = 59.49462 62.58701 61.04081
# Shear Modulus (GPa) = 19.33499 27.73357 23.53428
#
# Velocity S-wave (km/s) = 3.08337 3.69280 3.40176
# Velocity P-wave (km/s) = 6.47535 6.99692 6.74118
#
# Compressibility (1/GPa) = 0.01680824
#
# Stress axis : x y z
#
# Youngs Moduli (GPa) = 75.29349 63.50764 113.85115
#
# Poissons Ratio (x) = 0.29751 0.17654
# Poissons Ratio (y) = 0.35273 0.48569
# Poissons Ratio (z) = 0.11675 0.27093
#
# Static dielectric constant tensor:
#      x y z
#    x 1.775620 0.000000 -0.000020 
#    y 0.000000 1.663840 -0.000010 
#    z -0.000020 -0.000010 1.729760 
# 
# From -- ./inp_files/8735.got.cif
#   From: 2010.05.17/outbox.cif.g08.bks.cpg/sg23_5_cif.got.tgz:8735.got - 2010.06.04 12:02:01.
