data_PCOD9331834
_publ_section_title
;
Structure prediction by ZEFSAII (Michael W. Deem and Ramdas Pophale) SiO2 
 PCOD9331834
Probable space group: I 2 2 2
;
_chemical_formula_sum "Si O2"
_cell_formula_units_Z 40
_cell_length_a 8.728510
_cell_length_b 10.628074
_cell_length_c 21.594655
_cell_angle_alpha 90.000000
_cell_angle_beta 90.000000
_cell_angle_gamma 90.000000
_cell_volume 2003.276763
_symmetry_space_group_name_H-M "I 2 2 2"
_symmetry_group_IT_number 23
_symmetry_cell_setting 'orthorhombic'
loop_
_space_group_symop_operation_xyz
x,y,z
-x,-y,z
x,-y,-z
-x,y,-z
1/2+x,1/2+y,1/2+z
1/2-x,1/2-y,1/2+z
1/2+x,1/2-y,1/2-z
1/2-x,1/2+y,1/2-z
loop_
_atom_site_type_symbol
_atom_site_label
_atom_site_fract_x
_atom_site_fract_y
_atom_site_fract_z
Si Si1 0.329876 0.130928 0.972777
Si Si2 0.329978 0.127022 0.525990
Si Si3 0.930066 0.135625 0.254379
Si Si4 0.830012 0.526765 0.158480
Si Si5 0.201551 0.244353 0.340280
O O1 0.330166 0.162917 0.898709
O O2 0.500000 0.132322 0.000000
O O3 0.248615 0.247975 0.004277
O O4 0.261815 0.000000 0.000000
O O5 0.500000 0.128975 0.500000
O O6 0.345483 0.113032 0.598819
O O7 0.251808 0.000000 0.500000
O O8 0.786736 0.095901 0.296805
O O9 0.848909 0.206526 0.197907
O O10 0.055914 0.215872 0.294096
O O11 0.000000 0.000000 0.235172
O O12 0.752317 0.395010 0.138107
O O13 0.000000 0.500000 0.184374
#
# Coordination Sequence:
#
# PCOD9331834 Si02
#       5
#     8   8   8   8   8
#     4  11  25  45  62  97 136 177 220 268 340 406
#     4  11  20  39  65  98 127 167 220 268 328 394
#     4  10  24  42  65  98 126 177 225 278 343 389
#     4  11  20  39  66  97 129 165 221 275 330 397
#     4  11  22  45  65  95 135 170 229 277 336 410
#
# _framework density 19.967286000000001
#
# number of rings (size 3 to 8) (size 9 to 14) (size 15 to 20)
#    0.000    1.200    4.000    2.400    0.000    0.800 
#   32.400    0.000    0.000    0.000    0.000    0.000 
#    0.000    0.000    0.000    0.000    0.000    0.000 
#
# Total GULP energy -111550.031326 kJ/mol
# GULP energy per Si atom -5577.501566 kJ/mol
# Density = 1.992184 g / cm^3
# Si number density = 19.967286 Si / 1000 Ang^3
#
#
#
# Elastic Constant Matrix: (Units=GPa)
#
#
# Indices 1 2 3 4 5 6 
#
# 1 95.8440 42.3507 42.2636 0.0000 0.0000 0.0000
# 2 42.3507 142.5108 56.8252 0.0000 0.0000 0.0000
# 3 42.2636 56.8252 107.5586 0.0000 0.0000 0.0000
# 4 0.0000 0.0000 0.0000 30.1231 0.0000 0.0000
# 5 0.0000 0.0000 0.0000 0.0000 28.8878 0.0000
# 6 0.0000 0.0000 0.0000 0.0000 0.0000 24.3276
#
#
#
# Elastic Compliance Matrix: (Units=1/GPa)
#
#
# Indices 1 2 3 4 5 6 
#
# 1 0.013215 -0.002352 -0.003950 0.000000 0.000000 0.000000
# 2 -0.002352 0.009308 -0.003994 0.000000 0.000000 0.000000
# 3 -0.003950 -0.003994 0.012959 0.000000 0.000000 0.000000
# 4 0.000000 0.000000 0.000000 0.033197 0.000000 0.000000
# 5 0.000000 0.000000 0.000000 0.000000 0.034617 0.000000
# 6 0.000000 0.000000 0.000000 0.000000 0.000000 0.041106
#
#
# Mechanical properties :
#
#
# Convention : Reuss Voigt Hill
#
# Bulk Modulus (GPa) = 67.15381 69.86584 68.50983
# Shear Modulus (GPa) = 29.41930 30.29930 29.85930
#
# Velocity S-wave (km/s) = 3.84262 3.89967 3.87125
# Velocity P-wave (km/s) = 7.30702 7.43927 7.37344
#
# Compressibility (1/GPa) = 0.01489119
#
# Stress axis : x y z
#
# Youngs Moduli (GPa) = 75.67337 107.42975 77.16534
#
# Poissons Ratio (x) = 0.25269 0.30479
# Poissons Ratio (y) = 0.17799 0.30817
# Poissons Ratio (z) = 0.29890 0.42903
#
# Static dielectric constant tensor:
#      x y z
#    x 1.714590 0.000000 0.000000 
#    y 0.000000 1.823040 0.000000 
#    z 0.000000 0.000000 1.723890 
# 
# From -- ./inp_files/11818.got.cif
#   From: 2010.05.17/outbox.cif.g08.bks.cpg/sg23_6_cif.got.tgz:11818.got - 2010.06.04 12:02:01.
