data_PCOD9331596
_publ_section_title
;
Structure prediction by ZEFSAII (Michael W. Deem and Ramdas Pophale) SiO2 
 PCOD9331596
Probable space group: I 2 2 2
;
_chemical_formula_sum "Si O2"
_cell_formula_units_Z 32
_cell_length_a 11.004676
_cell_length_b 9.329736
_cell_length_c 13.548168
_cell_angle_alpha 90.000000
_cell_angle_beta 90.000000
_cell_angle_gamma 90.000000
_cell_volume 1391.000188
_symmetry_space_group_name_H-M "I 2 2 2"
_symmetry_group_IT_number 23
_symmetry_cell_setting 'orthorhombic'
loop_
_space_group_symop_operation_xyz
x,y,z
-x,-y,z
x,-y,-z
-x,y,-z
1/2+x,1/2+y,1/2+z
1/2-x,1/2-y,1/2+z
1/2+x,1/2-y,1/2-z
1/2-x,1/2+y,1/2-z
loop_
_atom_site_type_symbol
_atom_site_label
_atom_site_fract_x
_atom_site_fract_y
_atom_site_fract_z
Si Si1 0.118807 0.923510 0.893827
Si Si2 0.348811 0.093845 0.592689
Si Si3 0.065118 0.850867 0.398520
Si Si4 0.884438 0.425258 0.296322
O O1 0.095600 0.752974 0.901886
O O2 0.249574 0.940835 0.841378
O O3 0.000000 0.000000 0.848897
O O4 0.132942 0.000000 0.000000
O O5 0.205277 0.120189 0.579666
O O6 0.383581 0.000000 0.500000
O O7 0.372447 0.000227 0.690300
O O8 0.073716 0.739138 0.308594
O O9 0.000000 0.796273 0.500000
O O10 0.000000 0.000000 0.375578
O O11 0.000000 0.500000 0.348679
#
# Coordination Sequence:
#
# PCOD9331596 Si02
#       4
#     8   8   8   8
#     4  10  26  49  76 106 153 209 260 334 407 486
#     4  11  25  48  75 112 157 209 263 334 407 485
#     4  10  22  46  80 115 155 213 271 334 404 485
#     4  11  28  43  74 119 155 206 264 334 399 492
#
# _framework density 23.005027999999999
#
# number of rings (size 3 to 8) (size 9 to 14) (size 15 to 20)
#    0.000    1.500    2.500    0.000    7.000   17.500 
#    0.000    1.250    0.000    0.000    0.000    0.000 
#    0.000    0.000    0.000    0.000    0.000    0.000 
#
# Total GULP energy -89353.247309 kJ/mol
# GULP energy per Si atom -5584.577957 kJ/mol
# Density = 2.295267 g / cm^3
# Si number density = 23.005028 Si / 1000 Ang^3
#
#
#
# Elastic Constant Matrix: (Units=GPa)
#
#
# Indices 1 2 3 4 5 6 
#
# 1 186.8399 76.6567 36.7152 0.0000 0.0000 0.0000
# 2 76.6567 216.6023 100.1937 0.0000 0.0000 0.0000
# 3 36.7152 100.1937 143.2470 0.0000 0.0000 0.0000
# 4 0.0000 0.0000 0.0000 306.6148 0.0000 0.0000
# 5 0.0000 0.0000 0.0000 0.0000 14.2802 0.0000
# 6 0.0000 0.0000 0.0000 0.0000 0.0000 45.8755
#
#
#
# Elastic Compliance Matrix: (Units=1/GPa)
#
#
# Indices 1 2 3 4 5 6 
#
# 1 0.006262 -0.002179 -0.000081 0.000000 0.000000 0.000000
# 2 -0.002179 0.007583 -0.004745 0.000000 0.000000 0.000000
# 3 -0.000081 -0.004745 0.010321 0.000000 0.000000 0.000000
# 4 0.000000 0.000000 0.000000 0.003261 0.000000 0.000000
# 5 0.000000 0.000000 0.000000 0.000000 0.070027 0.000000
# 6 0.000000 0.000000 0.000000 0.000000 0.000000 0.021798
#
#
# Mechanical properties :
#
#
# Convention : Reuss Voigt Hill
#
# Bulk Modulus (GPa) = 98.47007 108.20225 103.33616
# Shear Modulus (GPa) = 36.59041 95.56235 66.07638
#
# Velocity S-wave (km/s) = 3.99248 6.45213 5.36516
# Velocity P-wave (km/s) = 8.00936 10.13128 9.13216
#
# Compressibility (1/GPa) = 0.01015537
#
# Stress axis : x y z
#
# Youngs Moduli (GPa) = 159.69442 131.87647 96.89061
#
# Poissons Ratio (x) = 0.28730 0.00787
# Poissons Ratio (y) = 0.34791 0.45979
# Poissons Ratio (z) = 0.01296 0.62581
#
# Static dielectric constant tensor:
#      x y z
#    x 1.880930 0.000000 0.000000 
#    y 0.000000 1.941210 0.000000 
#    z 0.000000 0.000000 1.920150 
# 
# From -- ./inp_files/9290.got.cif
#   From: 2010.05.17/outbox.cif.g08.bks.cpg/sg23_5_cif.got.tgz:9290.got - 2010.06.04 12:02:01.
