data_PCOD9331514
_publ_section_title
;
Structure prediction by ZEFSAII (Michael W. Deem and Ramdas Pophale) SiO2 
 PCOD9331514
Probable space group: I 2 2 2
;
_chemical_formula_sum "Si O2"
_cell_formula_units_Z 24
_cell_length_a 7.995662
_cell_length_b 14.284840
_cell_length_c 8.355012
_cell_angle_alpha 90.000000
_cell_angle_beta 90.000000
_cell_angle_gamma 90.000000
_cell_volume 954.282337
_symmetry_space_group_name_H-M "I 2 2 2"
_symmetry_group_IT_number 23
_symmetry_cell_setting 'orthorhombic'
loop_
_space_group_symop_operation_xyz
x,y,z
-x,-y,z
x,-y,-z
-x,y,-z
1/2+x,1/2+y,1/2+z
1/2-x,1/2-y,1/2+z
1/2+x,1/2-y,1/2-z
1/2-x,1/2+y,1/2-z
loop_
_atom_site_type_symbol
_atom_site_label
_atom_site_fract_x
_atom_site_fract_y
_atom_site_fract_z
Si Si1 0.180638 0.816367 0.693510
Si Si2 0.500000 0.500000 0.235887
Si Si3 0.755902 0.500000 0.500000
Si Si4 0.000000 0.344869 0.500000
Si Si5 0.500000 0.760808 0.500000
O O1 0.089308 0.913756 0.650272
O O2 0.366307 0.814912 0.614653
O O3 0.096789 0.725034 0.613896
O O4 0.119388 0.796674 0.877233
O O5 0.642273 0.539042 0.357227
O O6 0.870760 0.580771 0.574656
#
# Coordination Sequence:
#
# PCOD9331514 Si02
#       5
#     8   4   4   4   4
#     4  12  25  45  77 114 153 199 254 316 382 454
#     4  11  22  41  72 108 146 194 250 310 376 448
#     4  10  22  42  72 106 144 200 256 296 368 474
#     4  11  24  45  74 110 150 197 254 313 374 450
#     4  12  26  47  80 115 154 204 260 320 382 454
#
# _framework density 25.149788999999998
#
# number of rings (size 3 to 8) (size 9 to 14) (size 15 to 20)
#    0.000    0.667    0.000   10.000    0.000    0.667 
#    0.000    0.000    0.000   60.000    0.000    0.000 
#    0.000    0.000    0.000    0.000    0.000    0.000 
#
# Total GULP energy -66925.013125 kJ/mol
# GULP energy per Si atom -5577.084427 kJ/mol
# Density = 2.509255 g / cm^3
# Si number density = 25.149789 Si / 1000 Ang^3
#
#
#
# Elastic Constant Matrix: (Units=GPa)
#
#
# Indices 1 2 3 4 5 6 
#
# 1 199.3932 97.7777 79.3887 0.0000 0.0000 0.0000
# 2 97.7777 164.7605 40.2016 0.0000 0.0000 0.0000
# 3 79.3887 40.2016 116.5194 0.0001 0.0000 0.0000
# 4 0.0000 0.0000 0.0001 26.3824 0.0000 0.0000
# 5 0.0000 0.0000 0.0000 0.0000 50.1785 0.0000
# 6 0.0000 0.0000 0.0000 0.0000 0.0000 69.1063
#
#
#
# Elastic Compliance Matrix: (Units=1/GPa)
#
#
# Indices 1 2 3 4 5 6 
#
# 1 0.008891 -0.004148 -0.004627 0.000000 0.000000 0.000000
# 2 -0.004148 0.008562 -0.000128 0.000000 0.000000 0.000000
# 3 -0.004627 -0.000128 0.011779 0.000000 0.000000 0.000000
# 4 0.000000 0.000000 0.000000 0.037904 0.000000 0.000000
# 5 0.000000 0.000000 0.000000 0.000000 0.019929 0.000000
# 6 0.000000 0.000000 0.000000 0.000000 0.000000 0.014470
#
#
# Mechanical properties :
#
#
# Convention : Reuss Voigt Hill
#
# Bulk Modulus (GPa) = 87.51271 101.71210 94.61240
# Shear Modulus (GPa) = 40.60081 46.68713 43.64397
#
# Velocity S-wave (km/s) = 4.02227 4.31323 4.17029
# Velocity P-wave (km/s) = 7.51290 8.08304 7.80318
#
# Compressibility (1/GPa) = 0.01142691
#
# Stress axis : x y z
#
# Youngs Moduli (GPa) = 112.46900 116.79360 84.89686
#
# Poissons Ratio (x) = 0.48442 0.39281
# Poissons Ratio (y) = 0.46648 0.01088
# Poissons Ratio (z) = 0.52039 0.01497
#
# Static dielectric constant tensor:
#      x y z
#    x 2.090420 0.000000 0.000000 
#    y 0.000000 1.941980 0.000000 
#    z 0.000000 0.000000 2.166770 
# 
# From -- ./inp_files/6255.got.cif
#   From: 2010.05.17/outbox.cif.g08.bks.cpg/sg23_4_cif.got.tgz:6255.got - 2010.06.04 12:02:01.
