data_PCOD9331526
_publ_section_title
;
Structure prediction by ZEFSAII (Michael W. Deem and Ramdas Pophale) SiO2 
 PCOD9331526
Probable space group: I 2 2 2
;
_chemical_formula_sum "Si O2"
_cell_formula_units_Z 48
_cell_length_a 7.617888
_cell_length_b 8.909896
_cell_length_c 32.514515
_cell_angle_alpha 90.000000
_cell_angle_beta 90.000000
_cell_angle_gamma 90.000000
_cell_volume 2206.909369
_symmetry_space_group_name_H-M "I 2 2 2"
_symmetry_group_IT_number 23
_symmetry_cell_setting 'orthorhombic'
loop_
_space_group_symop_operation_xyz
x,y,z
-x,-y,z
x,-y,-z
-x,y,-z
1/2+x,1/2+y,1/2+z
1/2-x,1/2-y,1/2+z
1/2+x,1/2-y,1/2-z
1/2-x,1/2+y,1/2-z
loop_
_atom_site_type_symbol
_atom_site_label
_atom_site_fract_x
_atom_site_fract_y
_atom_site_fract_z
Si Si1 0.232326 0.053355 0.709947
Si Si2 0.079556 0.256100 0.771951
Si Si3 0.061683 0.331812 0.414838
Si Si4 0.803397 0.065193 0.541806
Si Si5 0.409423 0.344998 0.361927
Si Si6 0.266500 0.870372 0.382609
O O1 0.084989 0.149938 0.732563
O O2 0.399731 0.157104 0.720593
O O3 0.214925 0.052615 0.660708
O O4 0.281314 0.892292 0.727988
O O5 0.112773 0.159676 0.812819
O O6 0.156749 0.241169 0.452191
O O7 0.217264 0.333859 0.381370
O O8 0.000000 0.500000 0.424821
O O9 0.891919 0.240505 0.397360
O O10 0.721928 0.000000 0.500000
O O11 0.714581 0.993771 0.581808
O O12 0.000000 0.000000 0.542650
O O13 0.500000 0.500000 0.374677
O O14 0.551793 0.218286 0.374765
#
# Coordination Sequence:
#
# PCOD9331526 Si02
#       6
#     8   8   8   8   8   8
#     4  10  23  41  58  90 123 168 219 268 327 383
#     4  10  24  39  59  85 124 169 214 274 324 379
#     4  11  22  39  68 101 127 173 214 266 331 396
#     4   9  20  42  70 102 133 170 219 267 333 403
#     4  11  23  41  64  93 135 170 219 275 332 386
#     4  10  22  43  66  93 130 172 217 270 328 400
#
# _framework density 21.749872
#
# number of rings (size 3 to 8) (size 9 to 14) (size 15 to 20)
#    0.000    1.833    1.667    1.000    7.000    2.000 
#    0.000    8.333    0.000    1.000    0.000    0.000 
#    0.000    0.000    0.000    0.000    0.000    0.000 
#
# Total GULP energy -134025.658589 kJ/mol
# GULP energy per Si atom -5584.402441 kJ/mol
# Density = 2.170037 g / cm^3
# Si number density = 21.749872 Si / 1000 Ang^3
#
#
#
# Elastic Constant Matrix: (Units=GPa)
#
#
# Indices 1 2 3 4 5 6 
#
# 1 97.4988 14.5740 10.9532 0.0000 0.0000 0.0000
# 2 14.5740 103.2214 38.0198 0.0000 0.0000 0.0000
# 3 10.9532 38.0198 118.2184 0.0000 0.0000 0.0000
# 4 0.0000 0.0000 0.0000 16.8493 0.0000 0.0000
# 5 0.0000 0.0000 0.0000 0.0000 18.8435 0.0000
# 6 0.0000 0.0000 0.0000 0.0000 0.0000 31.6009
#
#
#
# Elastic Compliance Matrix: (Units=1/GPa)
#
#
# Indices 1 2 3 4 5 6 
#
# 1 0.010511 -0.001277 -0.000563 0.000000 0.000000 0.000000
# 2 -0.001277 0.011145 -0.003466 0.000000 0.000000 0.000000
# 3 -0.000563 -0.003466 0.009626 0.000000 0.000000 0.000000
# 4 0.000000 0.000000 0.000000 0.059350 0.000000 0.000000
# 5 0.000000 0.000000 0.000000 0.000000 0.053069 0.000000
# 6 0.000000 0.000000 0.000000 0.000000 0.000000 0.031645
#
#
# Mechanical properties :
#
#
# Convention : Reuss Voigt Hill
#
# Bulk Modulus (GPa) = 48.38017 49.55917 48.96967
# Shear Modulus (GPa) = 25.92750 30.48486 28.20618
#
# Velocity S-wave (km/s) = 3.45639 3.74787 3.60508
# Velocity P-wave (km/s) = 6.18232 6.44703 6.31606
#
# Compressibility (1/GPa) = 0.02066963
#
# Stress axis : x y z
#
# Youngs Moduli (GPa) = 95.14176 89.72815 103.88768
#
# Poissons Ratio (x) = 0.11454 0.05852
# Poissons Ratio (y) = 0.12145 0.36007
# Poissons Ratio (z) = 0.05359 0.31099
#
# Static dielectric constant tensor:
#      x y z
#    x 1.867410 0.000000 0.000000 
#    y 0.000000 1.812570 0.000000 
#    z 0.000000 0.000000 1.810570 
# 
# From -- ./inp_files/13375.got.cif
#   From: 2010.05.17/outbox.cif.g08.bks.cpg/sg23_7_cif.got.tgz:13375.got - 2010.06.04 12:02:01.
