data_PCOD9331334
_publ_section_title
;
Structure prediction by ZEFSAII (Michael W. Deem and Ramdas Pophale) SiO2 
 PCOD9331334
Probable space group: I 2 2 2
;
_chemical_formula_sum "Si O2"
_cell_formula_units_Z 42
_cell_length_a 19.926228
_cell_length_b 5.522267
_cell_length_c 16.169103
_cell_angle_alpha 90.000000
_cell_angle_beta 90.000000
_cell_angle_gamma 90.000000
_cell_volume 1779.214969
_symmetry_space_group_name_H-M "I 2 2 2"
_symmetry_group_IT_number 23
_symmetry_cell_setting 'orthorhombic'
loop_
_space_group_symop_operation_xyz
x,y,z
-x,-y,z
x,-y,-z
-x,y,-z
1/2+x,1/2+y,1/2+z
1/2-x,1/2-y,1/2+z
1/2+x,1/2-y,1/2-z
1/2-x,1/2+y,1/2-z
loop_
_atom_site_type_symbol
_atom_site_label
_atom_site_fract_x
_atom_site_fract_y
_atom_site_fract_z
Si Si1 0.353430 0.514121 0.316473
Si Si2 0.616569 0.192964 0.926054
Si Si3 0.693865 0.500000 0.500000
Si Si4 0.500000 0.500000 0.000000
Si Si5 0.500000 0.000000 0.638753
Si Si6 0.000000 0.000000 0.142832
Si Si7 0.862912 0.512371 0.754981
Si Si8 0.275598 0.500000 0.000000
O O1 0.345540 0.540558 0.414978
O O2 0.433626 0.501363 0.300697
O O3 0.326501 0.255483 0.287030
O O4 0.327390 0.757941 0.274185
O O5 0.547080 0.329161 0.944282
O O6 0.621304 0.052344 0.840656
O O7 0.673421 0.402618 0.929485
O O8 0.627656 0.000000 0.000000
O O9 0.733298 0.755111 0.484018
O O10 0.498817 0.747110 0.592860
O O11 0.432763 0.001234 0.693844
#
# Coordination Sequence:
#
# PCOD9331334 Si02
#       8
#     8   8   4   2   4   4   8   4
#     4  10  22  40  67 102 130 178 220 283 340 414
#     4  11  25  45  69 101 145 180 227 275 338 421
#     4  12  24  47  74  91 130 178 246 288 352 410
#     4  10  26  38  72 116 136 194 224 260 342 436
#     4   8  16  30  53  87 134 164 186 250 320 391
#     4   8  16  34  54  93 131 158 198 260 340 378
#     4  10  22  38  65  98 138 172 219 266 338 406
#     4  11  26  47  70  91 134 189 220 302 352 381
#
# _framework density 23.605913999999999
#
# number of rings (size 3 to 8) (size 9 to 14) (size 15 to 20)
#    0.000    1.905    0.952    1.429    8.000    3.429 
#    0.000    3.810    0.000    8.000    0.000    0.000 
#    0.000    0.000    0.000    0.000    0.000    0.000 
#
# Total GULP energy -117165.297590 kJ/mol
# GULP energy per Si atom -5579.299885 kJ/mol
# Density = 2.355219 g / cm^3
# Si number density = 23.605914 Si / 1000 Ang^3
#
#
#
# Elastic Constant Matrix: (Units=GPa)
#
#
# Indices 1 2 3 4 5 6 
#
# 1 75.6067 25.3730 14.1491 0.0000 0.0000 0.0000
# 2 25.3730 271.9885 60.6954 0.0000 0.0000 0.0000
# 3 14.1491 60.6954 147.1886 0.0000 0.0000 0.0000
# 4 0.0000 0.0000 0.0000 44.0523 0.0000 0.0000
# 5 0.0000 0.0000 0.0000 0.0000 -33.7607 0.0000
# 6 0.0000 0.0000 0.0000 0.0000 0.0000 8.8303
#
#
#
# Elastic Compliance Matrix: (Units=1/GPa)
#
#
# Indices 1 2 3 4 5 6 
#
# 1 0.013755 -0.001088 -0.000874 0.000000 0.000000 0.000000
# 2 -0.001088 0.004135 -0.001601 0.000000 0.000000 0.000000
# 3 -0.000874 -0.001601 0.007538 0.000000 0.000000 0.000000
# 4 0.000000 0.000000 0.000000 0.022700 0.000000 0.000000
# 5 0.000000 0.000000 0.000000 0.000000 -0.029620 0.000000
# 6 0.000000 0.000000 0.000000 0.000000 0.000000 0.113247
#
#
# Mechanical properties :
#
#
# Convention : Reuss Voigt Hill
#
# Bulk Modulus (GPa) = 54.63415 77.24656 65.94035
# Shear Modulus (GPa) = 34.48720 30.12877 32.30799
#
# Velocity S-wave (km/s) = 3.82639 3.57644 3.70353
# Velocity P-wave (km/s) = 6.53576 7.06038 6.80313
#
# Compressibility (1/GPa) = 0.01830357
#
# Stress axis : x y z
#
# Youngs Moduli (GPa) = 72.70080 241.81815 132.66063
#
# Poissons Ratio (x) = 0.26316 0.11588
# Poissons Ratio (y) = 0.07912 0.21234
# Poissons Ratio (z) = 0.06350 0.38707
#
# Static dielectric constant tensor:
#      x y z
#    x 1.931690 0.000000 0.000000 
#    y 0.000000 1.945420 0.000000 
#    z 0.000000 0.000000 1.809240 
# 
# From -- ./inp_files/25331.got.cif
#   From: 2010.05.17/outbox.cif.g08.bks.cpg/sg23_13_cif.got.tgz:25331.got - 2010.06.04 12:02:01.
