data_PCOD9331869
_publ_section_title
;
Structure prediction by ZEFSAII (Michael W. Deem and Ramdas Pophale) SiO2 
 PCOD9331869
Probable space group: I 2 2 2
;
_chemical_formula_sum "Si O2"
_cell_formula_units_Z 40
_cell_length_a 7.947307
_cell_length_b 15.035402
_cell_length_c 14.449193
_cell_angle_alpha 90.000000
_cell_angle_beta 90.000000
_cell_angle_gamma 90.000000
_cell_volume 1726.547879
_symmetry_space_group_name_H-M "I 2 2 2"
_symmetry_group_IT_number 23
_symmetry_cell_setting 'orthorhombic'
loop_
_space_group_symop_operation_xyz
x,y,z
-x,-y,z
x,-y,-z
-x,y,-z
1/2+x,1/2+y,1/2+z
1/2-x,1/2-y,1/2+z
1/2+x,1/2-y,1/2-z
1/2-x,1/2+y,1/2-z
loop_
_atom_site_type_symbol
_atom_site_label
_atom_site_fract_x
_atom_site_fract_y
_atom_site_fract_z
Si Si1 0.822281 0.846841 0.849585
Si Si2 0.199980 0.995284 0.281885
Si Si3 0.192317 0.188109 0.233321
Si Si4 0.811012 0.409468 0.960025
Si Si5 0.184319 0.716031 0.470347
O O1 0.781625 0.946703 0.816956
O O2 0.706202 0.771290 0.801796
O O3 0.810748 0.832621 0.958985
O O4 0.002875 0.826578 0.803348
O O5 0.300054 0.931150 0.351463
O O6 0.255882 0.097425 0.281435
O O7 0.000000 0.000000 0.305394
O O8 0.290685 0.201406 0.137890
O O9 0.734538 0.500000 0.000000
O O10 0.712371 0.321278 0.984477
O O11 0.000000 0.400860 0.000000
O O12 0.000000 0.688085 0.500000
#
# Coordination Sequence:
#
# PCOD9331869 Si02
#       5
#     8   8   8   8   8
#     4  11  23  43  69 100 136 183 233 284 349 412
#     4  10  24  43  71 101 137 185 228 284 352 417
#     4  11  23  45  69  99 140 181 231 286 343 422
#     4  11  24  42  66 105 134 173 233 288 346 402
#     4  12  26  43  67 101 139 185 227 288 350 416
#
# _framework density 23.167618000000001
#
# number of rings (size 3 to 8) (size 9 to 14) (size 15 to 20)
#    0.000    1.000    2.000    4.200    5.600    2.400 
#    7.200    4.000    0.000    0.000    0.000    0.000 
#    0.000    0.000    0.000    0.000    0.000    0.000 
#
# Total GULP energy -111874.022716 kJ/mol
# GULP energy per Si atom -5593.701136 kJ/mol
# Density = 2.311489 g / cm^3
# Si number density = 23.167618 Si / 1000 Ang^3
#
#
#
# Elastic Constant Matrix: (Units=GPa)
#
#
# Indices 1 2 3 4 5 6 
#
# 1 61.1279 6.1263 12.0876 0.0000 0.0000 0.0000
# 2 6.1263 67.8996 -5.7980 0.0000 0.0000 0.0000
# 3 12.0876 -5.7980 82.7426 0.0000 0.0000 0.0000
# 4 0.0000 0.0000 0.0000 41.5226 0.0000 0.0000
# 5 0.0000 0.0000 0.0000 0.0000 33.8692 0.0000
# 6 0.0000 0.0000 0.0000 0.0000 0.0000 12.2462
#
#
#
# Elastic Compliance Matrix: (Units=1/GPa)
#
#
# Indices 1 2 3 4 5 6 
#
# 1 0.017053 -0.001762 -0.002615 0.000000 0.000000 0.000000
# 2 -0.001762 0.014998 0.001308 0.000000 0.000000 0.000000
# 3 -0.002615 0.001308 0.012559 0.000000 0.000000 0.000000
# 4 0.000000 0.000000 0.000000 0.024083 0.000000 0.000000
# 5 0.000000 0.000000 0.000000 0.000000 0.029525 0.000000
# 6 0.000000 0.000000 0.000000 0.000000 0.000000 0.081658
#
#
# Mechanical properties :
#
#
# Convention : Reuss Voigt Hill
#
# Bulk Modulus (GPa) = 25.99152 26.28910 26.14031
# Shear Modulus (GPa) = 25.14609 30.81788 27.98199
#
# Velocity S-wave (km/s) = 3.29811 3.65117 3.47912
# Velocity P-wave (km/s) = 5.07412 5.39877 5.23896
#
# Compressibility (1/GPa) = 0.03847409
#
# Stress axis : x y z
#
# Youngs Moduli (GPa) = 58.64159 66.67419 79.62217
#
# Poissons Ratio (x) = 0.11747 0.20818
# Poissons Ratio (y) = 0.10332 -0.10417
# Poissons Ratio (z) = 0.15333 -0.08723
#
# Static dielectric constant tensor:
#      x y z
#    x 1.898700 0.000000 0.000000 
#    y 0.000000 1.837020 0.000000 
#    z 0.000000 0.000000 1.939680 
# 
# From -- ./inp_files/9597.got.cif
#   From: 2010.05.17/outbox.cif.g08.bks.cpg/sg23_5_cif.got.tgz:9597.got - 2010.06.04 12:02:01.
