data_PCOD9331565
_publ_section_title
;
Structure prediction by ZEFSAII (Michael W. Deem and Ramdas Pophale) SiO2 
 PCOD9331565
Probable space group: I 2 2 2
;
_chemical_formula_sum "Si O2"
_cell_formula_units_Z 40
_cell_length_a 7.681937
_cell_length_b 28.493678
_cell_length_c 8.515747
_cell_angle_alpha 90.000000
_cell_angle_beta 90.000000
_cell_angle_gamma 90.000000
_cell_volume 1863.983242
_symmetry_space_group_name_H-M "I 2 2 2"
_symmetry_group_IT_number 23
_symmetry_cell_setting 'orthorhombic'
loop_
_space_group_symop_operation_xyz
x,y,z
-x,-y,z
x,-y,-z
-x,y,-z
1/2+x,1/2+y,1/2+z
1/2-x,1/2-y,1/2+z
1/2+x,1/2-y,1/2-z
1/2-x,1/2+y,1/2-z
loop_
_atom_site_type_symbol
_atom_site_label
_atom_site_fract_x
_atom_site_fract_y
_atom_site_fract_z
Si Si1 0.707499 0.807434 0.738157
Si Si2 0.665837 0.397697 0.891858
Si Si3 0.950743 0.551301 0.314194
Si Si4 0.807431 0.789944 0.075089
Si Si5 0.643610 0.141343 0.692144
O O1 0.846881 0.848832 0.705191
O O2 0.749379 0.758850 0.653860
O O3 0.517749 0.823409 0.681656
O O4 0.692406 0.800846 0.923561
O O5 0.765046 0.433195 0.769808
O O6 0.500000 0.413494 0.000000
O O7 0.790429 0.378468 0.028655
O O8 0.000000 0.500000 0.248117
O O9 0.000000 0.547795 0.500000
O O10 0.073036 0.594527 0.271455
O O11 0.782310 0.831008 0.202147
O O12 0.000000 0.786025 0.000000
#
# Coordination Sequence:
#
# PCOD9331565 Si02
#       5
#     8   8   8   8   8
#     4  11  22  38  58  86 127 174 218 263 330 400
#     4  11  23  41  66  98 132 166 218 278 326 386
#     4  10  22  44  71  96 127 171 217 264 332 406
#     4  12  23  36  58  89 128 171 220 273 327 391
#     4  11  23  40  62  90 125 167 214 265 328 398
#
# _framework density 21.459420000000001
#
# number of rings (size 3 to 8) (size 9 to 14) (size 15 to 20)
#    0.000    1.000    0.000   10.200    0.000    3.200 
#    0.000    2.000    0.000    2.400    0.000    0.000 
#    0.000    0.000    0.000    0.000    0.000    0.000 
#
# Total GULP energy -111390.723789 kJ/mol
# GULP energy per Si atom -5569.536189 kJ/mol
# Density = 2.141058 g / cm^3
# Si number density = 21.459420 Si / 1000 Ang^3
#
#
#
# Elastic Constant Matrix: (Units=GPa)
#
#
# Indices 1 2 3 4 5 6 
#
# 1 101.4069 37.5264 45.8695 -0.0001 0.0000 0.0000
# 2 37.5264 127.5080 13.7579 -0.0003 0.0000 0.0000
# 3 45.8695 13.7579 99.7563 -0.0005 -0.0001 0.0000
# 4 -0.0001 -0.0003 -0.0005 27.3772 0.0000 0.0001
# 5 0.0000 0.0000 -0.0001 0.0000 24.0413 0.0000
# 6 0.0000 0.0000 0.0000 0.0001 0.0000 -2.9035
#
#
#
# Elastic Compliance Matrix: (Units=1/GPa)
#
#
# Indices 1 2 3 4 5 6 
#
# 1 0.013781 -0.003423 -0.005864 0.000000 0.000000 0.000000
# 2 -0.003423 0.008811 0.000359 0.000000 0.000000 0.000000
# 3 -0.005864 0.000359 0.012672 0.000000 0.000000 0.000000
# 4 0.000000 0.000000 0.000000 0.036527 0.000000 0.000001
# 5 0.000000 0.000000 0.000000 0.000000 0.041595 0.000000
# 6 0.000000 0.000000 0.000000 0.000001 0.000000 -0.344411
#
#
# Mechanical properties :
#
#
# Convention : Reuss Voigt Hill
#
# Bulk Modulus (GPa) = 57.45123 58.10877 57.78000
# Shear Modulus (GPa) = -24.11191 25.13748 0.51278
#
# Velocity S-wave (km/s) = -3.35566 3.42628 0.48936
# Velocity P-wave (km/s) = 3.43747 6.54139 5.22523
#
# Compressibility (1/GPa) = 0.01740607
#
# Stress axis : x y z
#
# Youngs Moduli (GPa) = 72.56556 113.49016 78.91698
#
# Poissons Ratio (x) = 0.38847 0.46281
# Poissons Ratio (y) = 0.24839 -0.02831
# Poissons Ratio (z) = 0.42556 -0.04071
#
# Static dielectric constant tensor:
#      x y z
#    x 1.869930 0.000000 0.000000 
#    y 0.000000 1.823100 0.000000 
#    z 0.000000 0.000000 2.653540 
# 
# From -- ./inp_files/7108.got.cif
#   From: 2010.05.17/outbox.cif.g08.bks.cpg/sg23_4_cif.got.tgz:7108.got - 2010.06.04 12:02:01.
