data_PCOD9331804
_publ_section_title
;
Structure prediction by ZEFSAII (Michael W. Deem and Ramdas Pophale) SiO2 
 PCOD9331804
Probable space group: I 2 2 2
;
_chemical_formula_sum "Si O2"
_cell_formula_units_Z 40
_cell_length_a 21.447374
_cell_length_b 10.209047
_cell_length_c 8.600120
_cell_angle_alpha 90.000000
_cell_angle_beta 90.000000
_cell_angle_gamma 90.000000
_cell_volume 1883.058618
_symmetry_space_group_name_H-M "I 2 2 2"
_symmetry_group_IT_number 23
_symmetry_cell_setting 'orthorhombic'
loop_
_space_group_symop_operation_xyz
x,y,z
-x,-y,z
x,-y,-z
-x,y,-z
1/2+x,1/2+y,1/2+z
1/2-x,1/2-y,1/2+z
1/2+x,1/2-y,1/2-z
1/2-x,1/2+y,1/2-z
loop_
_atom_site_type_symbol
_atom_site_label
_atom_site_fract_x
_atom_site_fract_y
_atom_site_fract_z
Si Si1 0.500000 0.500000 0.500000
Si Si2 0.402567 0.302691 0.511538
Si Si3 0.500000 0.000000 0.000000
Si Si4 0.399022 0.131181 0.225412
Si Si5 0.782912 0.278784 0.445609
Si Si6 0.817897 0.627167 0.210734
Si Si7 0.199804 0.000000 0.000000
O O1 0.453607 0.399929 0.582157
O O2 0.424840 0.205452 0.376576
O O3 0.371342 0.222091 0.646845
O O4 0.347920 0.392162 0.433986
O O5 0.453572 0.918001 0.888118
O O6 0.350093 0.222065 0.132748
O O7 0.354232 0.010085 0.277070
O O8 0.793322 0.317007 0.625137
O O9 0.739949 0.154153 0.407026
O O10 0.743205 0.409211 0.391560
#
# Coordination Sequence:
#
# PCOD9331804 Si02
#       7
#     2   8   2   8   8   8   4
#     4  10  24  48  64  90 124 190 224 290 344 426
#     4  10  24  39  68  90 130 171 238 277 351 423
#     4  12  26  44  72  98 154 184 250 298 362 412
#     4  12  24  43  67 104 135 190 236 295 353 425
#     4  11  20  39  67  93 144 176 223 288 356 417
#     4  11  22  40  66 105 133 180 228 296 356 426
#     4   9  17  39  58  93 123 175 202 276 338 415
#
# _framework density 21.242035999999999
#
# number of rings (size 3 to 8) (size 9 to 14) (size 15 to 20)
#    0.000    1.200    4.000    3.000    2.800    0.000 
#    0.000    0.000    0.000    9.000    0.000    0.000 
#    0.000    0.000    0.000    0.000    0.000    0.000 
#
# Total GULP energy -111395.947566 kJ/mol
# GULP energy per Si atom -5569.797378 kJ/mol
# Density = 2.119369 g / cm^3
# Si number density = 21.242036 Si / 1000 Ang^3
#
#
#
# Elastic Constant Matrix: (Units=GPa)
#
#
# Indices 1 2 3 4 5 6 
#
# 1 110.0846 42.0236 14.7811 0.0000 0.0000 0.0000
# 2 42.0236 74.4576 41.7136 0.0000 0.0000 0.0000
# 3 14.7811 41.7136 67.9940 0.0000 0.0000 0.0000
# 4 0.0000 0.0000 0.0000 14.8510 0.0000 0.0000
# 5 0.0000 0.0000 0.0000 0.0000 29.2187 0.0000
# 6 0.0000 0.0000 0.0000 0.0000 0.0000 25.0720
#
#
#
# Elastic Compliance Matrix: (Units=1/GPa)
#
#
# Indices 1 2 3 4 5 6 
#
# 1 0.011814 -0.007967 0.002320 0.000000 0.000000 0.000000
# 2 -0.007967 0.025837 -0.014119 0.000000 0.000000 0.000000
# 3 0.002320 -0.014119 0.022865 0.000000 0.000000 0.000000
# 4 0.000000 0.000000 0.000000 0.067335 0.000000 0.000000
# 5 0.000000 0.000000 0.000000 0.000000 0.034225 0.000000
# 6 0.000000 0.000000 0.000000 0.000000 0.000000 0.039885
#
#
# Mechanical properties :
#
#
# Convention : Reuss Voigt Hill
#
# Bulk Modulus (GPa) = 47.65815 49.95250 48.80533
# Shear Modulus (GPa) = 20.12174 24.09620 22.10897
#
# Velocity S-wave (km/s) = 3.08110 3.37169 3.22966
# Velocity P-wave (km/s) = 5.92807 6.22291 6.07728
#
# Compressibility (1/GPa) = 0.02098277
#
# Stress axis : x y z
#
# Youngs Moduli (GPa) = 84.64627 38.70438 43.73578
#
# Poissons Ratio (x) = 0.30837 -0.10145
# Poissons Ratio (y) = 0.67440 0.61749
# Poissons Ratio (z) = -0.19635 0.54645
#
# Static dielectric constant tensor:
#      x y z
#    x 1.820230 0.000000 0.000000 
#    y 0.000000 1.813440 0.000000 
#    z 0.000000 0.000000 1.766760 
# 
# From -- ./inp_files/8521.got.cif
#   From: 2010.05.17/outbox.cif.g08.bks.cpg/sg23_5_cif.got.tgz:8521.got - 2010.06.04 12:02:01.
