data_PCOD9332173
_publ_section_title
;
Structure prediction by ZEFSAII (Michael W. Deem and Ramdas Pophale) SiO2 
 PCOD9332173
Probable space group: I 2 2 2
;
_chemical_formula_sum "Si O2"
_cell_formula_units_Z 40
_cell_length_a 8.899064
_cell_length_b 25.009123
_cell_length_c 8.531327
_cell_angle_alpha 90.000000
_cell_angle_beta 90.000000
_cell_angle_gamma 90.000000
_cell_volume 1898.713250
_symmetry_space_group_name_H-M "I 2 2 2"
_symmetry_group_IT_number 23
_symmetry_cell_setting 'orthorhombic'
loop_
_space_group_symop_operation_xyz
x,y,z
-x,-y,z
x,-y,-z
-x,y,-z
1/2+x,1/2+y,1/2+z
1/2-x,1/2-y,1/2+z
1/2+x,1/2-y,1/2-z
1/2-x,1/2+y,1/2-z
loop_
_atom_site_type_symbol
_atom_site_label
_atom_site_fract_x
_atom_site_fract_y
_atom_site_fract_z
Si Si1 0.336656 0.808414 0.579054
Si Si2 0.324617 0.504416 0.690068
Si Si3 0.621587 0.918968 0.377932
Si Si4 0.616475 0.098769 0.127210
Si Si5 0.831145 0.706063 0.549830
O O1 0.500000 0.807646 0.500000
O O2 0.282419 0.869821 0.551168
O O3 0.260185 0.757275 0.502437
O O4 0.317844 0.799379 0.764589
O O5 0.500000 0.500000 0.737314
O O6 0.320974 0.500000 0.500000
O O7 0.224820 0.461045 0.785185
O O8 0.239157 0.560755 0.705536
O O9 0.500000 0.942263 0.500000
O O10 0.507022 0.888824 0.258491
O O11 0.500000 0.072246 0.000000
O O12 0.694021 0.149383 0.041950
O O13 0.000000 0.718007 0.500000
#
# Coordination Sequence:
#
# PCOD9332173 Si02
#       5
#     8   8   8   8   8
#     4  11  23  42  68  99 136 175 233 289 345 413
#     4  11  23  42  69 106 143 179 232 298 355 407
#     4  11  24  44  72 101 134 192 244 285 347 425
#     4  11  21  43  69  95 137 190 244 276 336 430
#     4  11  22  42  66  99 133 182 229 285 346 410
#
# _framework density 21.066898999999999
#
# number of rings (size 3 to 8) (size 9 to 14) (size 15 to 20)
#    0.000    1.000    6.000    1.800    2.800    1.600 
#   10.800    2.000    0.000    0.000    0.000    0.000 
#    0.000    0.000    0.000    0.000    0.000    0.000 
#
# Total GULP energy -111358.283210 kJ/mol
# GULP energy per Si atom -5567.914161 kJ/mol
# Density = 2.101895 g / cm^3
# Si number density = 21.066899 Si / 1000 Ang^3
#
#
#
# Elastic Constant Matrix: (Units=GPa)
#
#
# Indices 1 2 3 4 5 6 
#
# 1 94.3658 94.2484 37.7731 0.0004 0.0004 -0.0002
# 2 94.2484 196.9811 73.0420 0.0000 0.0000 0.0002
# 3 37.7731 73.0420 96.5629 0.0014 0.0020 -0.0008
# 4 0.0004 0.0000 0.0014 27.0851 0.0003 0.0003
# 5 0.0004 0.0000 0.0020 0.0003 31.9007 0.0008
# 6 -0.0002 0.0002 -0.0008 0.0003 0.0008 29.6845
#
#
#
# Elastic Compliance Matrix: (Units=1/GPa)
#
#
# Indices 1 2 3 4 5 6 
#
# 1 0.020343 -0.009427 -0.000827 0.000000 0.000000 0.000000
# 2 -0.009427 0.011424 -0.004954 0.000000 0.000000 0.000000
# 3 -0.000827 -0.004954 0.014427 -0.000001 -0.000001 0.000000
# 4 0.000000 0.000000 -0.000001 0.036921 0.000000 0.000000
# 5 0.000000 0.000000 -0.000001 0.000000 0.031347 -0.000001
# 6 0.000000 0.000000 0.000000 0.000000 -0.000001 0.033688
#
#
# Mechanical properties :
#
#
# Convention : Reuss Voigt Hill
#
# Bulk Modulus (GPa) = 63.37796 88.67074 76.02435
# Shear Modulus (GPa) = 27.19993 29.92382 28.56188
#
# Velocity S-wave (km/s) = 3.59712 3.77293 3.68607
# Velocity P-wave (km/s) = 6.88490 7.82058 7.36761
#
# Compressibility (1/GPa) = 0.01577836
#
# Stress axis : x y z
#
# Youngs Moduli (GPa) = 49.15638 87.53595 69.31650
#
# Poissons Ratio (x) = 0.82518 0.05734
# Poissons Ratio (y) = 0.46339 0.34337
# Poissons Ratio (z) = 0.04066 0.43363
#
# Static dielectric constant tensor:
#      x y z
#    x 1.726810 0.000000 0.000000 
#    y 0.000000 1.860270 0.000000 
#    z 0.000000 0.000000 1.863390 
# 
# From -- ./inp_files/6912.got.cif
#   From: 2010.05.17/outbox.cif.g08.bks.cpg/sg23_4_cif.got.tgz:6912.got - 2010.06.04 12:02:01.
