data_PCOD9332239
_publ_section_title
;
Structure prediction by ZEFSAII (Michael W. Deem and Ramdas Pophale) SiO2 
 PCOD9332239
Probable space group: I 2 2 2
;
_chemical_formula_sum "Si O2"
_cell_formula_units_Z 60
_cell_length_a 11.477736
_cell_length_b 20.943117
_cell_length_c 12.716503
_cell_angle_alpha 90.000000
_cell_angle_beta 90.000000
_cell_angle_gamma 90.000000
_cell_volume 3056.787497
_symmetry_space_group_name_H-M "I 2 2 2"
_symmetry_group_IT_number 23
_symmetry_cell_setting 'orthorhombic'
loop_
_space_group_symop_operation_xyz
x,y,z
-x,-y,z
x,-y,-z
-x,y,-z
1/2+x,1/2+y,1/2+z
1/2-x,1/2-y,1/2+z
1/2+x,1/2-y,1/2-z
1/2-x,1/2+y,1/2-z
loop_
_atom_site_type_symbol
_atom_site_label
_atom_site_fract_x
_atom_site_fract_y
_atom_site_fract_z
Si Si1 0.267325 0.291008 0.544101
Si Si2 0.138884 0.498848 0.373348
Si Si3 0.000000 0.726098 0.000000
Si Si4 0.649722 0.309272 0.809916
Si Si5 0.660886 0.144195 0.151682
Si Si6 0.957693 0.689105 0.781577
Si Si7 0.991061 0.924748 0.373181
Si Si8 0.269778 0.616869 0.263070
O O1 0.383987 0.267780 0.486681
O O2 0.196779 0.230521 0.589941
O O3 0.186518 0.330206 0.464406
O O4 0.305009 0.336365 0.640860
O O5 0.149926 0.500000 0.500000
O O6 0.187311 0.430265 0.339672
O O7 0.209889 0.554710 0.315971
O O8 0.000000 0.500000 0.349323
O O9 0.981238 0.686316 0.105890
O O10 0.757446 0.317557 0.731433
O O11 0.557506 0.261973 0.754907
O O12 0.592165 0.377225 0.833139
O O13 0.529586 0.155143 0.189860
O O14 0.832750 0.656375 0.793139
O O15 0.872539 0.900179 0.317258
O O16 0.000000 0.920104 0.500000
O O17 0.000000 0.000000 0.346090
#
# Coordination Sequence:
#
# PCOD9332239 Si02
#       8
#     8   8   4   8   8   8   8   8
#     4  11  25  39  69 101 136 175 226 282 344 412
#     4  11  22  40  67  97 133 177 222 279 334 400
#     4  12  22  42  60 100 136 176 220 282 346 398
#     4  11  25  39  65  94 130 175 216 280 331 403
#     4  12  23  42  64 101 132 175 226 271 349 403
#     4  11  25  39  67  99 133 174 222 283 340 404
#     4  11  27  47  68  93 131 183 230 268 328 414
#     4  11  24  45  67  99 136 175 220 283 340 402
#
# _framework density 19.628450000000001
#
# number of rings (size 3 to 8) (size 9 to 14) (size 15 to 20)
#    0.000    0.800    5.333    1.600    5.600    1.600 
#    0.000    0.000    0.000    0.800    0.000    0.000 
#    0.000    0.000    0.000    0.000    0.000    0.000 
#
# Total GULP energy -167571.598337 kJ/mol
# GULP energy per Si atom -5585.719945 kJ/mol
# Density = 1.958377 g / cm^3
# Si number density = 19.628450 Si / 1000 Ang^3
#
#
#
# Elastic Constant Matrix: (Units=GPa)
#
#
# Indices 1 2 3 4 5 6 
#
# 1 77.7630 25.5379 40.9196 0.0000 0.0000 0.0000
# 2 25.5379 116.1291 30.3754 0.0000 0.0000 0.0000
# 3 40.9196 30.3754 80.9213 -0.0001 0.0000 0.0000
# 4 0.0000 0.0000 -0.0001 27.3725 0.0000 0.0000
# 5 0.0000 0.0000 0.0000 0.0000 33.4149 0.0000
# 6 0.0000 0.0000 0.0000 0.0000 0.0000 32.7187
#
#
#
# Elastic Compliance Matrix: (Units=1/GPa)
#
#
# Indices 1 2 3 4 5 6 
#
# 1 0.017831 -0.001733 -0.008366 0.000000 0.000000 0.000000
# 2 -0.001733 0.009717 -0.002771 0.000000 0.000000 0.000000
# 3 -0.008366 -0.002771 0.017628 0.000000 0.000000 0.000000
# 4 0.000000 0.000000 0.000000 0.036533 0.000000 0.000000
# 5 0.000000 0.000000 0.000000 0.000000 0.029927 0.000000
# 6 0.000000 0.000000 0.000000 0.000000 0.000000 0.030564
#
#
# Mechanical properties :
#
#
# Convention : Reuss Voigt Hill
#
# Bulk Modulus (GPa) = 51.45101 52.05326 51.75213
# Shear Modulus (GPa) = 28.66659 30.56658 29.61658
#
# Velocity S-wave (km/s) = 3.82574 3.95049 3.88862
# Velocity P-wave (km/s) = 6.76642 6.88370 6.82532
#
# Compressibility (1/GPa) = 0.01943596
#
# Stress axis : x y z
#
# Youngs Moduli (GPa) = 56.08196 102.91202 56.72653
#
# Poissons Ratio (x) = 0.17834 0.47458
# Poissons Ratio (y) = 0.09719 0.15720
# Poissons Ratio (z) = 0.46919 0.28519
#
# Static dielectric constant tensor:
#      x y z
#    x 1.683450 0.000000 0.000000 
#    y 0.000000 1.667470 0.000000 
#    z 0.000000 0.000000 1.694760 
# 
# From -- ./inp_files/15959.got.cif
#   From: 2010.05.17/outbox.cif.g08.bks.cpg/sg23_8_cif.got.tgz:15959.got - 2010.06.04 12:02:01.
