data_PCOD9332674
_publ_section_title
;
Structure prediction by ZEFSAII (Michael W. Deem and Ramdas Pophale) SiO2 
 PCOD9332674
Probable space group: I 21 21 21
;
_chemical_formula_sum "Si O2"
_cell_formula_units_Z 48
_cell_length_a 27.432779
_cell_length_b 14.806259
_cell_length_c 5.166664
_cell_angle_alpha 90.000000
_cell_angle_beta 90.000000
_cell_angle_gamma 90.000000
_cell_volume 2098.579210
_symmetry_space_group_name_H-M "I 21 21 21"
_symmetry_group_IT_number 24
_symmetry_cell_setting 'orthorhombic'
loop_
_space_group_symop_operation_xyz
x,y,z
-x,1/2-y,z
x,-y,1/2-z
1/2-x,y,-z
1/2+x,1/2+y,1/2+z
1/2-x,-y,1/2+z
1/2+x,1/2-y,-z
-x,1/2+y,1/2-z
loop_
_atom_site_type_symbol
_atom_site_label
_atom_site_fract_x
_atom_site_fract_y
_atom_site_fract_z
Si Si1 0.831915 0.602116 0.133320
Si Si2 0.110002 0.699552 0.691771
Si Si3 0.428979 0.871990 0.575623
Si Si4 0.674390 0.205153 0.695940
Si Si5 0.531423 0.942152 0.501746
Si Si6 0.750000 0.058273 0.500000
Si Si7 0.373323 0.000000 0.250000
O O1 0.820588 0.500000 0.250000
O O2 0.886550 0.636383 0.211734
O O3 0.802361 0.693032 0.182857
O O4 0.837876 0.580514 0.831355
O O5 0.080733 0.791671 0.626151
O O6 0.153767 0.695102 0.484334
O O7 0.073547 0.619714 0.615832
O O8 0.131656 0.697032 0.978524
O O9 0.486010 0.883914 0.616455
O O10 0.409858 0.966399 0.463606
O O11 0.709925 0.124786 0.621010
O O12 0.514677 0.000000 0.250000
O O13 0.548429 0.000000 0.750000
O O14 0.732576 0.000000 0.250000
#
# Coordination Sequence:
#
# PCOD9332674 Si02
#       7
#     8   8   8   8   8   4   4
#     4   9  19  34  63  94 130 167 207 253 318 393
#     4  11  24  41  65  92 130 168 211 275 329 379
#     4  10  20  35  55  89 124 173 216 252 306 372
#     4  11  24  46  69  98 128 161 217 275 337 401
#     4  12  25  38  56  87 128 176 223 272 316 367
#     4  12  28  50  80 100 126 172 222 278 334 400
#     4  10  14  32  58  84 120 164 206 246 292 378
#
# _framework density 22.872615
#
# number of rings (size 3 to 8) (size 9 to 14) (size 15 to 20)
#    0.000    1.333    2.500    4.000    0.000    4.000 
#    0.000    3.333    1.833    0.000    0.000    0.000 
#    0.000    0.000    0.000    0.000    0.000    0.000 
#
# Total GULP energy -133674.589671 kJ/mol
# GULP energy per Si atom -5569.774570 kJ/mol
# Density = 2.282056 g / cm^3
# Si number density = 22.872615 Si / 1000 Ang^3
#
#
#
# Elastic Constant Matrix: (Units=GPa)
#
#
# Indices 1 2 3 4 5 6 
#
# 1 15.7338 25.6442 -8.7999 0.0000 0.0000 0.0000
# 2 25.6442 99.8386 13.2799 0.0000 0.0000 0.0000
# 3 -8.7999 13.2799 71.7480 0.0000 0.0001 0.0000
# 4 0.0000 0.0000 0.0000 40.5166 0.0000 0.0000
# 5 0.0000 0.0000 0.0001 0.0000 20.8308 0.0000
# 6 0.0000 0.0000 0.0000 0.0000 0.0000 24.5314
#
#
#
# Elastic Compliance Matrix: (Units=1/GPa)
#
#
# Indices 1 2 3 4 5 6 
#
# 1 0.142525 -0.039916 0.024869 0.000000 0.000000 0.000000
# 2 -0.039916 0.021448 -0.008866 0.000000 0.000000 0.000000
# 3 0.024869 -0.008866 0.018629 0.000000 0.000000 0.000000
# 4 0.000000 0.000000 0.000000 0.024681 0.000000 0.000000
# 5 0.000000 0.000000 0.000000 0.000000 0.048006 0.000000
# 6 0.000000 0.000000 0.000000 0.000000 0.000000 0.040764
#
#
# Mechanical properties :
#
#
# Convention : Reuss Voigt Hill
#
# Bulk Modulus (GPa) = 7.41971 27.50763 17.46367
# Shear Modulus (GPa) = 12.85991 27.65550 20.25771
#
# Velocity S-wave (km/s) = 2.37373 3.48100 2.97926
# Velocity P-wave (km/s) = 3.28082 5.31122 4.41434
#
# Compressibility (1/GPa) = 0.13477616
#
# Stress axis : x y z
#
# Youngs Moduli (GPa) = 7.01629 46.62394 53.68031
#
# Poissons Ratio (x) = 1.86106 -1.33497
# Poissons Ratio (y) = 0.28007 0.47591
# Poissons Ratio (z) = -0.17449 0.41335
#
# Static dielectric constant tensor:
#      x y z
#    x 1.889450 0.000000 0.000000 
#    y 0.000000 1.957450 0.000000 
#    z 0.000000 0.000000 1.933910 
# 
# From -- ./inp_files/7132.got.cif
#   From: 2010.05.17/outbox.cif.g08.bks.cpg/sg24_4_cif.got.tgz:7132.got - 2010.06.04 00:33:39.
