data_PCOD9332162
_publ_section_title
;
Structure prediction by ZEFSAII (Michael W. Deem and Ramdas Pophale) SiO2 
 PCOD9332162
Probable space group: I 2 2 2
;
_chemical_formula_sum "Si O2"
_cell_formula_units_Z 34
_cell_length_a 9.106443
_cell_length_b 9.210569
_cell_length_c 20.835873
_cell_angle_alpha 90.000000
_cell_angle_beta 90.000000
_cell_angle_gamma 90.000000
_cell_volume 1747.619716
_symmetry_space_group_name_H-M "I 2 2 2"
_symmetry_group_IT_number 23
_symmetry_cell_setting 'orthorhombic'
loop_
_space_group_symop_operation_xyz
x,y,z
-x,-y,z
x,-y,-z
-x,y,-z
1/2+x,1/2+y,1/2+z
1/2-x,1/2-y,1/2+z
1/2+x,1/2-y,1/2-z
1/2-x,1/2+y,1/2-z
loop_
_atom_site_type_symbol
_atom_site_label
_atom_site_fract_x
_atom_site_fract_y
_atom_site_fract_z
Si Si1 0.661659 0.507345 0.202113
Si Si2 0.179647 0.990217 0.073228
Si Si3 0.324453 0.294428 0.678814
Si Si4 0.000000 0.500000 0.000000
Si Si5 0.874132 0.317518 0.116359
O O1 0.500000 0.500000 0.172598
O O2 0.650895 0.419575 0.268742
O O3 0.718568 0.671768 0.207420
O O4 0.777210 0.424920 0.157833
O O5 0.209185 0.833200 0.103127
O O6 0.236701 0.121890 0.116424
O O7 0.000000 0.000000 0.073813
O O8 0.227893 0.000000 0.000000
O O9 0.476197 0.220707 0.654977
O O10 0.087362 0.605613 0.048647
#
# Coordination Sequence:
#
# PCOD9332162 Si02
#       5
#     8   8   8   2   8
#     4  12  24  38  61  93 131 166 214 272 333 388
#     4   9  18  34  62  89 115 156 215 273 313 367
#     4  11  21  41  61  93 125 172 216 267 330 390
#     4  12  20  40  72  96 128 168 242 268 312 392
#     4  11  22  39  66  95 124 172 220 271 321 387
#
# _framework density 19.455033
#
# number of rings (size 3 to 8) (size 9 to 14) (size 15 to 20)
#    0.000    1.176    2.353    7.765    0.000    0.000 
#    0.000    4.118    0.000    1.412    0.000    0.000 
#    0.000    0.000    0.000    0.000    0.000    0.000 
#
# Total GULP energy -94960.206539 kJ/mol
# GULP energy per Si atom -5585.894502 kJ/mol
# Density = 1.941075 g / cm^3
# Si number density = 19.455033 Si / 1000 Ang^3
#
#
#
# Elastic Constant Matrix: (Units=GPa)
#
#
# Indices 1 2 3 4 5 6 
#
# 1 48.4963 41.9313 34.2954 0.0000 0.0000 0.0000
# 2 41.9313 137.9573 43.9809 0.0000 0.0000 0.0000
# 3 34.2954 43.9809 113.9780 0.0000 0.0000 0.0000
# 4 0.0000 0.0000 0.0000 51.3892 0.0000 0.0000
# 5 0.0000 0.0000 0.0000 0.0000 -0.4784 0.0000
# 6 0.0000 0.0000 0.0000 0.0000 0.0000 14.8843
#
#
#
# Elastic Compliance Matrix: (Units=1/GPa)
#
#
# Indices 1 2 3 4 5 6 
#
# 1 0.031878 -0.007561 -0.006674 0.000000 0.000000 0.000000
# 2 -0.007561 0.010059 -0.001606 0.000000 0.000000 0.000000
# 3 -0.006674 -0.001606 0.011402 0.000000 0.000000 0.000000
# 4 0.000000 0.000000 0.000000 0.019459 0.000000 0.000000
# 5 0.000000 0.000000 0.000000 0.000000 -2.090263 0.000000
# 6 0.000000 0.000000 0.000000 0.000000 0.000000 0.067185
#
#
# Mechanical properties :
#
#
# Convention : Reuss Voigt Hill
#
# Bulk Modulus (GPa) = 46.17921 60.09409 53.13665
# Shear Modulus (GPa) = -2.61591 25.17395 11.27902
#
# Velocity S-wave (km/s) = -1.16082 3.60106 2.41041
# Velocity P-wave (km/s) = 4.68948 6.94593 5.92609
#
# Compressibility (1/GPa) = 0.02165477
#
# Stress axis : x y z
#
# Youngs Moduli (GPa) = 31.36999 99.41425 87.70653
#
# Poissons Ratio (x) = 0.75170 0.58536
# Poissons Ratio (y) = 0.23720 0.14088
# Poissons Ratio (z) = 0.20937 0.15969
#
# Static dielectric constant tensor:
#      x y z
#    x 1.667300 0.000000 0.000000 
#    y 0.000000 1.713380 0.000000 
#    z 0.000000 0.000000 1.687590 
# 
# From -- ./inp_files/6700.got.cif
#   From: 2010.05.17/outbox.cif.g08.bks.cpg/sg23_4_cif.got.tgz:6700.got - 2010.06.04 12:02:01.
