data_PCOD9332463
_publ_section_title
;
Structure prediction by ZEFSAII (Michael W. Deem and Ramdas Pophale) SiO2 
 PCOD9332463
Probable space group: I 2 2 2
;
_chemical_formula_sum "Si O2"
_cell_formula_units_Z 28
_cell_length_a 7.830945
_cell_length_b 5.349133
_cell_length_c 28.908820
_cell_angle_alpha 90.000000
_cell_angle_beta 90.000000
_cell_angle_gamma 90.000000
_cell_volume 1210.954806
_symmetry_space_group_name_H-M "I 2 2 2"
_symmetry_group_IT_number 23
_symmetry_cell_setting 'orthorhombic'
loop_
_space_group_symop_operation_xyz
x,y,z
-x,-y,z
x,-y,-z
-x,y,-z
1/2+x,1/2+y,1/2+z
1/2-x,1/2-y,1/2+z
1/2+x,1/2-y,1/2-z
1/2-x,1/2+y,1/2-z
loop_
_atom_site_type_symbol
_atom_site_label
_atom_site_fract_x
_atom_site_fract_y
_atom_site_fract_z
Si Si1 0.798156 0.946769 0.446933
Si Si2 0.195571 0.060861 0.103783
Si Si3 0.182429 0.413967 0.299559
Si Si4 0.000000 0.000000 0.731286
O O1 0.709708 0.164614 0.417421
O O2 0.746914 0.000000 0.500000
O O3 0.760628 0.664782 0.429598
O O4 0.000000 0.000000 0.443505
O O5 0.294177 0.047784 0.152288
O O6 0.000000 0.000000 0.114218
O O7 0.348487 0.430331 0.267981
O O8 0.000000 0.500000 0.276329
O O9 0.129651 0.129685 0.305213
#
# Coordination Sequence:
#
# PCOD9332463 Si02
#       4
#     8   8   8   4
#     4  11  25  48  75 106 144 191 241 297 371 441
#     4  12  27  45  73 109 147 190 243 302 364 439
#     4  12  26  46  71 104 146 188 247 304 367 430
#     4  12  26  46  72 102 138 200 242 306 368 436
#
# _framework density 23.122253000000001
#
# number of rings (size 3 to 8) (size 9 to 14) (size 15 to 20)
#    0.000    0.286    4.286    4.286    6.000    5.714 
#    5.143    0.000    0.000    0.000    0.000    0.000 
#    0.000    0.000    0.000    0.000    0.000    0.000 
#
# Total GULP energy -78030.880004 kJ/mol
# GULP energy per Si atom -5573.634286 kJ/mol
# Density = 2.306963 g / cm^3
# Si number density = 23.122253 Si / 1000 Ang^3
#
#
#
# Elastic Constant Matrix: (Units=GPa)
#
#
# Indices 1 2 3 4 5 6 
#
# 1 144.5850 5.9672 8.6248 0.0000 0.0000 0.0000
# 2 5.9672 49.2911 31.9941 0.0000 0.0000 0.0000
# 3 8.6248 31.9941 40.1270 0.0000 0.0000 0.0000
# 4 0.0000 0.0000 0.0000 29.2326 0.0000 0.0000
# 5 0.0000 0.0000 0.0000 0.0000 17.3447 0.0000
# 6 0.0000 0.0000 0.0000 0.0000 0.0000 43.8312
#
#
#
# Elastic Compliance Matrix: (Units=1/GPa)
#
#
# Indices 1 2 3 4 5 6 
#
# 1 0.007008 0.000268 -0.001720 0.000000 0.000000 0.000000
# 2 0.000268 0.042060 -0.033593 0.000000 0.000000 0.000000
# 3 -0.001720 -0.033593 0.052075 0.000000 0.000000 0.000000
# 4 0.000000 0.000000 0.000000 0.034208 0.000000 0.000000
# 5 0.000000 0.000000 0.000000 0.000000 0.057655 0.000000
# 6 0.000000 0.000000 0.000000 0.000000 0.000000 0.022815
#
#
# Mechanical properties :
#
#
# Convention : Reuss Voigt Hill
#
# Bulk Modulus (GPa) = 32.20297 36.35283 34.27790
# Shear Modulus (GPa) = 16.87703 30.57615 23.72659
#
# Velocity S-wave (km/s) = 2.70461 3.64038 3.20681
# Velocity P-wave (km/s) = 4.86936 5.78152 5.34494
#
# Compressibility (1/GPa) = 0.03105304
#
# Stress axis : x y z
#
# Youngs Moduli (GPa) = 142.69640 23.77570 19.20315
#
# Poissons Ratio (x) = -0.00637 0.03303
# Poissons Ratio (y) = -0.03825 0.64509
# Poissons Ratio (z) = 0.24543 0.79869
#
# Static dielectric constant tensor:
#      x y z
#    x 1.854060 0.000000 0.000000 
#    y 0.000000 8.650620 0.000000 
#    z 0.000000 0.000000 1.851550 
# 
# From -- ./inp_files/29106.got.cif
#   From: 2010.05.17/outbox.cif.g08.bks.cpg/sg23_15_cif.got.tgz:29106.got - 2010.06.04 12:02:01.
