data_PCOD9332654
_publ_section_title
;
Structure prediction by ZEFSAII (Michael W. Deem and Ramdas Pophale) SiO2 
 PCOD9332654
Probable space group: I 2 2 2
;
_chemical_formula_sum "Si O2"
_cell_formula_units_Z 17
_cell_length_a 21.000000
_cell_length_b 9.000000
_cell_length_c 9.000000
_cell_angle_alpha 90.000000
_cell_angle_beta 90.000000
_cell_angle_gamma 90.000000
_cell_volume 1701.000000
_symmetry_space_group_name_H-M "I 2 2 2"
_symmetry_group_IT_number 23
_symmetry_cell_setting 'orthorhombic'
loop_
_space_group_symop_operation_xyz
x,y,z
-x,-y,z
x,-y,-z
-x,y,-z
1/2+x,1/2+y,1/2+z
1/2-x,1/2-y,1/2+z
1/2+x,1/2-y,1/2-z
1/2-x,1/2+y,1/2-z
loop_
_atom_site_type_symbol
_atom_site_label
_atom_site_fract_x
_atom_site_fract_y
_atom_site_fract_z
Si Si1 0.674328 0.951144 0.327266
Si Si2 0.291290 0.500000 0.500000
Si Si3 0.102000 0.147095 0.796923
Si Si4 0.882548 0.000000 0.500000
Si Si5 0.707840 0.760851 0.877496
Si Si6 0.500000 0.500000 0.500000
O O1 0.621985 0.821784 0.288452
O O2 0.738988 0.853784 0.316976
O O3 0.666197 0.000000 0.500000
O O4 0.681362 0.105936 0.231504
O O5 0.338103 0.448420 0.365964
O O6 0.244487 0.357713 0.503336
O O7 0.083685 0.071486 0.641483
O O8 0.044843 0.109472 0.906405
O O9 0.842786 0.144478 0.557442
#
# Coordination Sequence:
#
# PCOD9332654 Si02
#       6
#     8   4   8   4   8   2
#     4  11  24  37  62  98 141 186 221 262 319 409
#     4   9  20  35  60  88 138 177 216 251 310 410
#     4  10  24  42  66  96 122 174 232 278 339 388
#     4  12  24  37  66 102 134 171 212 274 336 410
#     4  11  22  35  58  99 143 182 206 258 325 396
#     4  10  24  50  78  84 124 174 234 302 344 398
#
# _framework density 9.9941209999999998
#
# number of rings (size 3 to 8) (size 9 to 14) (size 15 to 20)
#    0.000    1.412    1.176    4.235   16.471    0.471 
#    0.000    0.588    0.000    0.000    6.118    0.000 
#    0.000    0.000    0.000    0.000    0.000    0.000 
#
# Total GULP energy -94713.123005 kJ/mol
# GULP energy per Si atom -5571.360177 kJ/mol
# Density = 0.997137 g / cm^3
# Si number density = 9.994121 Si / 1000 Ang^3
#
#
#
# Elastic Constant Matrix: (Units=GPa)
#
#
# Indices 1 2 3 4 5 6 
#
# 1 63.8028 38.0321 29.3453 0.0000 0.0000 0.0000
# 2 38.0321 169.5721 52.8663 0.0000 0.0000 0.0000
# 3 29.3453 52.8663 122.2529 0.0000 0.0000 0.0000
# 4 0.0000 0.0000 0.0000 58.4856 0.0000 0.0000
# 5 0.0000 0.0000 0.0000 0.0000 10.2693 0.0000
# 6 0.0000 0.0000 0.0000 0.0000 0.0000 16.3097
#
#
#
# Elastic Compliance Matrix: (Units=1/GPa)
#
#
# Indices 1 2 3 4 5 6 
#
# 1 0.019091 -0.003298 -0.003156 0.000000 0.000000 0.000000
# 2 -0.003298 0.007386 -0.002402 0.000000 0.000000 0.000000
# 3 -0.003156 -0.002402 0.009976 0.000000 0.000000 0.000000
# 4 0.000000 0.000000 0.000000 0.017098 0.000000 0.000000
# 5 0.000000 0.000000 0.000000 0.000000 0.097378 0.000000
# 6 0.000000 0.000000 0.000000 0.000000 0.000000 0.061313
#
#
# Mechanical properties :
#
#
# Convention : Reuss Voigt Hill
#
# Bulk Modulus (GPa) = 53.36195 66.23501 59.79848
# Shear Modulus (GPa) = 21.16838 32.70521 26.93680
#
# Velocity S-wave (km/s) = 3.25782 4.04941 3.67499
# Velocity P-wave (km/s) = 6.39577 7.42109 6.92742
#
# Compressibility (1/GPa) = 0.01873994
#
# Stress axis : x y z
#
# Youngs Moduli (GPa) = 52.38128 135.39595 100.23788
#
# Poissons Ratio (x) = 0.44649 0.31640
# Poissons Ratio (y) = 0.17274 0.24080
# Poissons Ratio (z) = 0.16534 0.32526
#
# Static dielectric constant tensor:
#      x y z
#    x 1.717070 0.000000 0.000000 
#    y 0.000000 1.679560 0.000000 
#    z 0.000000 0.000000 1.831740 
# 
# From -- ./inp_files/6734.got.cif
#   From: 2010.05.17/outbox.ucp.g08.bks.cvg/sg23_4_cif.got.tgz:6734.got - 2010.06.11 15:19:07.
