data_PCOD9332190
_publ_section_title
;
Structure prediction by ZEFSAII (Michael W. Deem and Ramdas Pophale) SiO2 
 PCOD9332190
Probable space group: I 2 2 2
;
_chemical_formula_sum "Si O2"
_cell_formula_units_Z 52
_cell_length_a 23.323557
_cell_length_b 19.275029
_cell_length_c 6.337984
_cell_angle_alpha 90.000000
_cell_angle_beta 90.000000
_cell_angle_gamma 90.000000
_cell_volume 2849.318269
_symmetry_space_group_name_H-M "I 2 2 2"
_symmetry_group_IT_number 23
_symmetry_cell_setting 'orthorhombic'
loop_
_space_group_symop_operation_xyz
x,y,z
-x,-y,z
x,-y,-z
-x,y,-z
1/2+x,1/2+y,1/2+z
1/2-x,1/2-y,1/2+z
1/2+x,1/2-y,1/2-z
1/2-x,1/2+y,1/2-z
loop_
_atom_site_type_symbol
_atom_site_label
_atom_site_fract_x
_atom_site_fract_y
_atom_site_fract_z
Si Si1 0.441050 0.230570 0.118443
Si Si2 0.783662 0.163554 0.173771
Si Si3 0.181261 0.686085 0.348721
Si Si4 0.263185 0.073547 0.439256
Si Si5 0.054145 0.872248 0.619566
Si Si6 0.000000 0.213366 0.000000
Si Si7 0.155715 0.065518 0.141886
O O1 0.385028 0.185133 0.084554
O O2 0.456602 0.240250 0.363652
O O3 0.500000 0.209150 0.000000
O O4 0.427460 0.307796 0.028320
O O5 0.805252 0.237520 0.256601
O O6 0.767730 0.112399 0.365803
O O7 0.725500 0.174583 0.039693
O O8 0.830121 0.129008 0.016825
O O9 0.195445 0.628594 0.172973
O O10 0.214083 0.054025 0.270167
O O11 0.290737 0.000000 0.500000
O O12 0.106445 0.918780 0.689792
O O13 0.000000 0.905994 0.500000
O O14 0.031390 0.835293 0.831634
O O15 0.140585 0.000000 0.000000
#
# Coordination Sequence:
#
# PCOD9332190 Si02
#       7
#     8   8   8   8   8   4   8
#     4   9  19  34  56  88 120 152 193 249 308 358
#     4  11  22  36  57  92 121 152 206 252 305 359
#     4  11  22  35  61  92 117 156 199 252 300 368
#     4  11  23  40  56  86 123 156 196 249 315 367
#     4   9  19  34  55  80 113 154 203 249 289 349
#     4   8  16  34  55  78 117 152 190 242 298 348
#     4  11  22  37  60  79 117 168 201 248 307 362
#
# _framework density 18.249977999999999
#
# number of rings (size 3 to 8) (size 9 to 14) (size 15 to 20)
#    0.000    2.154    3.077    1.846    2.154    3.692 
#    0.000    0.385    0.000    0.923    0.000    8.077 
#    0.000    0.000    0.000    0.000    0.000    0.000 
#
# Total GULP energy -145103.638133 kJ/mol
# GULP energy per Si atom -5580.909159 kJ/mol
# Density = 1.820844 g / cm^3
# Si number density = 18.249978 Si / 1000 Ang^3
#
#
#
# Elastic Constant Matrix: (Units=GPa)
#
#
# Indices 1 2 3 4 5 6 
#
# 1 110.1948 31.9636 23.4299 0.0000 0.0000 0.0000
# 2 31.9636 87.0627 20.9115 0.0000 0.0000 0.0000
# 3 23.4299 20.9115 75.0306 0.0000 0.0000 0.0000
# 4 0.0000 0.0000 0.0000 20.6979 0.0000 0.0000
# 5 0.0000 0.0000 0.0000 0.0000 19.6377 0.0000
# 6 0.0000 0.0000 0.0000 0.0000 0.0000 7.1175
#
#
#
# Elastic Compliance Matrix: (Units=1/GPa)
#
#
# Indices 1 2 3 4 5 6 
#
# 1 0.010536 -0.003299 -0.002371 0.000000 0.000000 0.000000
# 2 -0.003299 0.013343 -0.002689 0.000000 0.000000 0.000000
# 3 -0.002371 -0.002689 0.014818 0.000000 0.000000 0.000000
# 4 0.000000 0.000000 0.000000 0.048314 0.000000 0.000000
# 5 0.000000 0.000000 0.000000 0.000000 0.050922 0.000000
# 6 0.000000 0.000000 0.000000 0.000000 0.000000 0.140500
#
#
# Mechanical properties :
#
#
# Convention : Reuss Voigt Hill
#
# Bulk Modulus (GPa) = 45.49551 47.21089 46.35320
# Shear Modulus (GPa) = 16.53032 22.55616 19.54324
#
# Velocity S-wave (km/s) = 3.01287 3.51943 3.27596
# Velocity P-wave (km/s) = 6.08986 6.51463 6.30582
#
# Compressibility (1/GPa) = 0.02198019
#
# Stress axis : x y z
#
# Youngs Moduli (GPa) = 94.91541 74.94686 67.48759
#
# Poissons Ratio (x) = 0.24722 0.15999
# Poissons Ratio (y) = 0.31309 0.18145
# Poissons Ratio (z) = 0.22501 0.20151
#
# Static dielectric constant tensor:
#      x y z
#    x 1.639200 0.000000 0.000000 
#    y 0.000000 1.622340 0.000000 
#    z 0.000000 0.000000 1.649790 
# 
# From -- ./inp_files/3943.got.cif
#   From: 2010.05.17/outbox.cif.g08.bks.cpg/sg23_2_cif.got.tgz:3943.got - 2010.06.04 12:02:01.
