data_PCOD9332814
_publ_section_title
;
Structure prediction by ZEFSAII (Michael W. Deem and Ramdas Pophale) SiO2 
 PCOD9332814
Probable space group: I 21 21 21
;
_chemical_formula_sum "Si O2"
_cell_formula_units_Z 48
_cell_length_a 9.552206
_cell_length_b 13.085256
_cell_length_c 18.729169
_cell_angle_alpha 90.000000
_cell_angle_beta 90.000000
_cell_angle_gamma 90.000000
_cell_volume 2341.016161
_symmetry_space_group_name_H-M "I 21 21 21"
_symmetry_group_IT_number 24
_symmetry_cell_setting 'orthorhombic'
loop_
_space_group_symop_operation_xyz
x,y,z
-x,1/2-y,z
x,-y,1/2-z
1/2-x,y,-z
1/2+x,1/2+y,1/2+z
1/2-x,-y,1/2+z
1/2+x,1/2-y,-z
-x,1/2+y,1/2-z
loop_
_atom_site_type_symbol
_atom_site_label
_atom_site_fract_x
_atom_site_fract_y
_atom_site_fract_z
Si Si1 0.881434 0.972247 0.544831
Si Si2 0.244563 0.424331 0.181451
Si Si3 0.151982 0.799926 0.314100
Si Si4 0.865723 0.324445 0.342314
Si Si5 0.656430 0.786742 0.065077
Si Si6 0.048497 0.034600 0.092633
O O1 0.750000 0.927419 0.500000
O O2 0.850512 0.091946 0.556963
O O3 0.872074 0.933542 0.625284
O O4 0.009475 0.956284 0.490838
O O5 0.254283 0.500000 0.250000
O O6 0.241036 0.302980 0.196517
O O7 0.098603 0.454488 0.138889
O O8 0.151812 0.859095 0.239268
O O9 0.157089 0.880351 0.378536
O O10 0.000000 0.750000 0.324033
O O11 0.734282 0.256984 0.366270
O O12 0.893357 0.422454 0.390783
O O13 0.000000 0.250000 0.346348
O O14 0.500000 0.750000 0.060129
O O15 0.750000 0.747062 0.000000
#
# Coordination Sequence:
#
# PCOD9332814 Si02
#       6
#     8   8   8   8   8   8
#     4   9  18  31  51  78 111 151 194 244 299 360
#     4  10  17  30  53  84 117 154 201 251 304 366
#     4   9  18  30  53  85 114 152 201 254 305 361
#     4  11  19  32  56  87 119 150 193 252 314 370
#     4  11  21  34  54  83 117 154 198 250 308 366
#     4  10  18  31  52  83 117 149 199 257 309 363
#
# _framework density 20.503917000000001
#
# number of rings (size 3 to 8) (size 9 to 14) (size 15 to 20)
#    0.000    2.000    0.000    9.000    0.000    0.000 
#    0.000    0.000    0.000   31.000    0.000   15.167 
#    0.000    0.000    0.000    0.000    0.000    0.000 
#
# Total GULP energy -133710.615853 kJ/mol
# GULP energy per Si atom -5571.275661 kJ/mol
# Density = 2.045725 g / cm^3
# Si number density = 20.503917 Si / 1000 Ang^3
#
#
#
# Elastic Constant Matrix: (Units=GPa)
#
#
# Indices 1 2 3 4 5 6 
#
# 1 56.8230 24.7350 30.6535 0.0000 0.0000 0.0000
# 2 24.7350 89.3170 62.2811 0.0000 0.0000 0.0000
# 3 30.6535 62.2811 113.7036 0.0000 0.0000 0.0000
# 4 0.0000 0.0000 0.0000 37.1754 0.0000 0.0000
# 5 0.0000 0.0000 0.0000 0.0000 17.5138 0.0000
# 6 0.0000 0.0000 0.0000 0.0000 0.0000 7.1653
#
#
#
# Elastic Compliance Matrix: (Units=1/GPa)
#
#
# Indices 1 2 3 4 5 6 
#
# 1 0.021090 -0.003035 -0.004023 0.000000 0.000000 0.000000
# 2 -0.003035 0.018552 -0.009344 0.000000 0.000000 0.000000
# 3 -0.004023 -0.009344 0.014997 0.000000 0.000000 0.000000
# 4 0.000000 0.000000 0.000000 0.026900 0.000000 0.000000
# 5 0.000000 0.000000 0.000000 0.000000 0.057098 0.000000
# 6 0.000000 0.000000 0.000000 0.000000 0.000000 0.139562
#
#
# Mechanical properties :
#
#
# Convention : Reuss Voigt Hill
#
# Bulk Modulus (GPa) = 45.79702 55.02030 50.40866
# Shear Modulus (GPa) = 15.70941 21.84916 18.77928
#
# Velocity S-wave (km/s) = 2.77097 3.26791 3.02965
# Velocity P-wave (km/s) = 5.71156 6.41337 6.07261
#
# Compressibility (1/GPa) = 0.02183548
#
# Stress axis : x y z
#
# Youngs Moduli (GPa) = 47.41575 53.90283 66.67858
#
# Poissons Ratio (x) = 0.16361 0.26826
# Poissons Ratio (y) = 0.14392 0.62301
# Poissons Ratio (z) = 0.19076 0.50364
#
# Static dielectric constant tensor:
#      x y z
#    x 1.739890 0.000000 0.000000 
#    y 0.000000 1.197720 0.000000 
#    z 0.000000 0.000000 1.809880 
# 
# From -- ./inp_files/29494.got.cif
#   From: 2010.05.17/outbox.cif.g08.bks.cpg/sg24_15_cif.got.tgz:29494.got - 2010.06.04 00:33:39.
