data_PCOD9332293
_publ_section_title
;
Structure prediction by ZEFSAII (Michael W. Deem and Ramdas Pophale) SiO2 
 PCOD9332293
Probable space group: I 2 2 2
;
_chemical_formula_sum "Si O2"
_cell_formula_units_Z 40
_cell_length_a 7.809130
_cell_length_b 24.508076
_cell_length_c 9.617288
_cell_angle_alpha 90.000000
_cell_angle_beta 90.000000
_cell_angle_gamma 90.000000
_cell_volume 1840.621509
_symmetry_space_group_name_H-M "I 2 2 2"
_symmetry_group_IT_number 23
_symmetry_cell_setting 'orthorhombic'
loop_
_space_group_symop_operation_xyz
x,y,z
-x,-y,z
x,-y,-z
-x,y,-z
1/2+x,1/2+y,1/2+z
1/2-x,1/2-y,1/2+z
1/2+x,1/2-y,1/2-z
1/2-x,1/2+y,1/2-z
loop_
_atom_site_type_symbol
_atom_site_label
_atom_site_fract_x
_atom_site_fract_y
_atom_site_fract_z
Si Si1 0.500000 0.389995 0.500000
Si Si2 0.835083 0.557591 0.077394
Si Si3 0.848629 0.581424 0.388440
Si Si4 0.350063 0.313471 0.740276
Si Si5 0.532529 0.200540 0.159846
Si Si6 0.000000 0.875565 0.500000
O O1 0.338486 0.426274 0.453432
O O2 0.436151 0.349206 0.620316
O O3 0.871399 0.551968 0.241351
O O4 0.657188 0.589250 0.059916
O O5 0.814664 0.500000 0.000000
O O6 0.000000 0.584414 0.000000
O O7 0.853962 0.646408 0.352095
O O8 0.000000 0.571118 0.500000
O O9 0.393370 0.249222 0.747748
O O10 0.147791 0.318115 0.721686
O O11 0.418029 0.338982 0.881246
O O12 0.500000 0.218910 0.000000
#
# Coordination Sequence:
#
# PCOD9332293 Si02
#       6
#     4   8   8   8   8   4
#     4  12  22  42  68  99 140 194 233 290 360 422
#     4  11  26  48  76 105 138 185 242 309 373 424
#     4  11  23  45  71 101 145 184 239 299 363 432
#     4  12  24  39  67  99 147 194 245 286 358 425
#     4  11  23  40  61 104 146 193 240 292 345 436
#     4  12  25  46  72 106 144 190 242 305 356 432
#
# _framework density 21.731791000000001
#
# number of rings (size 3 to 8) (size 9 to 14) (size 15 to 20)
#    0.000    0.600    7.000    2.700    0.000    0.000 
#    1.800    2.000    0.000    1.200    0.000    0.000 
#    0.000    0.000    0.000    0.000    0.000    0.000 
#
# Total GULP energy -111896.997572 kJ/mol
# GULP energy per Si atom -5594.849879 kJ/mol
# Density = 2.168233 g / cm^3
# Si number density = 21.731791 Si / 1000 Ang^3
#
#
#
# Elastic Constant Matrix: (Units=GPa)
#
#
# Indices 1 2 3 4 5 6 
#
# 1 174.5399 18.6603 46.8850 0.0005 0.0000 0.0017
# 2 18.6603 51.0565 31.5685 0.0006 0.0000 0.0010
# 3 46.8850 31.5685 154.3217 0.0033 0.0005 0.0105
# 4 0.0005 0.0006 0.0033 14.8021 0.0006 0.0152
# 5 0.0000 0.0000 0.0005 0.0006 39.7869 0.0004
# 6 0.0017 0.0010 0.0105 0.0152 0.0004 -140.6925
#
#
#
# Elastic Compliance Matrix: (Units=1/GPa)
#
#
# Indices 1 2 3 4 5 6 
#
# 1 0.006311 -0.001283 -0.001655 0.000000 0.000000 0.000000
# 2 -0.001283 0.022683 -0.004250 0.000000 0.000000 0.000000
# 3 -0.001655 -0.004250 0.007852 -0.000002 0.000000 0.000001
# 4 0.000000 0.000000 -0.000002 0.067558 -0.000001 0.000007
# 5 0.000000 0.000000 0.000000 -0.000001 0.025134 0.000000
# 6 0.000000 0.000000 0.000001 0.000007 0.000000 -0.007108
#
#
# Mechanical properties :
#
#
# Convention : Reuss Voigt Hill
#
# Bulk Modulus (GPa) = 44.50482 63.79397 54.14940
# Shear Modulus (GPa) = 34.65072 1.63292 18.14182
#
# Velocity S-wave (km/s) = 3.99742 0.86777 2.89243
# Velocity P-wave (km/s) = 6.46756 5.51570 6.01050
#
# Compressibility (1/GPa) = 0.02246947
#
# Stress axis : x y z
#
# Youngs Moduli (GPa) = 158.45129 44.08560 127.35323
#
# Poissons Ratio (x) = 0.05658 0.21075
# Poissons Ratio (y) = 0.20335 0.54128
# Poissons Ratio (z) = 0.26221 0.18737
#
# Static dielectric constant tensor:
#      x y z
#    x 1.927350 0.000000 -0.000050 
#    y 0.000000 1.822040 0.000000 
#    z -0.000050 0.000000 1.746460 
# 
# From -- ./inp_files/7130.got.cif
#   From: 2010.05.17/outbox.cif.g08.bks.cpg/sg23_4_cif.got.tgz:7130.got - 2010.06.04 12:02:01.
