data_PCOD9332165
_publ_section_title
;
Structure prediction by ZEFSAII (Michael W. Deem and Ramdas Pophale) SiO2 
 PCOD9332165
Probable space group: I 2 2 2
;
_chemical_formula_sum "Si O2"
_cell_formula_units_Z 52
_cell_length_a 24.268454
_cell_length_b 5.521404
_cell_length_c 18.385283
_cell_angle_alpha 90.000000
_cell_angle_beta 90.000000
_cell_angle_gamma 90.000000
_cell_volume 2463.553259
_symmetry_space_group_name_H-M "I 2 2 2"
_symmetry_group_IT_number 23
_symmetry_cell_setting 'orthorhombic'
loop_
_space_group_symop_operation_xyz
x,y,z
-x,-y,z
x,-y,-z
-x,y,-z
1/2+x,1/2+y,1/2+z
1/2-x,1/2-y,1/2+z
1/2+x,1/2-y,1/2-z
1/2-x,1/2+y,1/2-z
loop_
_atom_site_type_symbol
_atom_site_label
_atom_site_fract_x
_atom_site_fract_y
_atom_site_fract_z
Si Si1 0.893399 0.741700 0.777984
Si Si2 0.937920 0.246401 0.954823
Si Si3 0.742223 0.000000 0.500000
Si Si4 0.500000 0.500000 0.673366
Si Si5 0.843611 0.451034 0.886889
Si Si6 0.705705 0.397079 0.274468
Si Si7 0.806979 0.500000 0.500000
Si Si8 0.174863 0.552061 0.666138
O O1 0.894416 0.597746 0.853994
O O2 0.876586 0.571398 0.709504
O O3 0.837776 0.895758 0.791492
O O4 0.949598 0.894336 0.778075
O O5 0.873430 0.248624 0.934106
O O6 0.973566 0.199705 0.881553
O O7 0.945490 0.500000 0.000000
O O8 0.945531 0.000000 0.000000
O O9 0.702271 0.074816 0.565866
O O10 0.775073 0.753664 0.514986
O O11 0.814221 0.334884 0.818733
O O12 0.767281 0.434281 0.304123
O O13 0.689936 0.326399 0.191650
O O14 0.834259 0.459478 0.579738
#
# Coordination Sequence:
#
# PCOD9332165 Si02
#       8
#     8   8   4   4   8   8   4   8
#     4  11  25  44  65  95 132 187 239 299 347 415
#     4  12  27  43  65  93 139 190 238 286 332 395
#     4  12  26  38  66  99 148 189 226 280 344 418
#     4  12  27  46  66  92 139 184 258 294 348 417
#     4  11  24  39  63  95 140 187 234 277 335 406
#     4  11  21  41  66  96 132 181 227 276 340 422
#     4  12  28  42  68 108 145 183 226 294 362 442
#     4  11  24  40  69  99 140 178 233 286 362 423
#
# _framework density 21.107724999999999
#
# number of rings (size 3 to 8) (size 9 to 14) (size 15 to 20)
#    0.000    0.615    5.385    2.077    5.385    4.308 
#    0.000    0.000    0.000    0.000    0.000    3.231 
#    0.000    0.000    0.000    0.000    0.000    0.000 
#
# Total GULP energy -144782.816407 kJ/mol
# GULP energy per Si atom -5568.569862 kJ/mol
# Density = 2.105968 g / cm^3
# Si number density = 21.107725 Si / 1000 Ang^3
#
#
#
# Elastic Constant Matrix: (Units=GPa)
#
#
# Indices 1 2 3 4 5 6 
#
# 1 84.1221 27.2537 26.9501 0.0000 0.0000 0.0000
# 2 27.2537 80.5414 26.4923 0.0000 0.0000 0.0000
# 3 26.9501 26.4923 121.4432 0.0000 0.0000 0.0000
# 4 0.0000 0.0000 0.0000 24.4291 0.0000 0.0000
# 5 0.0000 0.0000 0.0000 0.0000 24.6364 0.0000
# 6 0.0000 0.0000 0.0000 0.0000 0.0000 86.6409
#
#
#
# Elastic Compliance Matrix: (Units=1/GPa)
#
#
# Indices 1 2 3 4 5 6 
#
# 1 0.013883 -0.003969 -0.002215 0.000000 0.000000 0.000000
# 2 -0.003969 0.014511 -0.002285 0.000000 0.000000 0.000000
# 3 -0.002215 -0.002285 0.009224 0.000000 0.000000 0.000000
# 4 0.000000 0.000000 0.000000 0.040935 0.000000 0.000000
# 5 0.000000 0.000000 0.000000 0.000000 0.040590 0.000000
# 6 0.000000 0.000000 0.000000 0.000000 0.000000 0.011542
#
#
# Mechanical properties :
#
#
# Convention : Reuss Voigt Hill
#
# Bulk Modulus (GPa) = 48.35533 49.72211 49.03872
# Shear Modulus (GPa) = 32.35918 40.83533 36.59726
#
# Velocity S-wave (km/s) = 3.91966 4.40320 4.16845
# Velocity P-wave (km/s) = 6.59118 7.03266 6.81550
#
# Compressibility (1/GPa) = 0.02068025
#
# Stress axis : x y z
#
# Youngs Moduli (GPa) = 72.03043 68.91547 108.41031
#
# Poissons Ratio (x) = 0.27354 0.24013
# Poissons Ratio (y) = 0.28590 0.24767
# Poissons Ratio (z) = 0.15955 0.15744
#
# Static dielectric constant tensor:
#      x y z
#    x 1.838190 0.000000 0.000000 
#    y 0.000000 1.924750 0.000000 
#    z 0.000000 0.000000 1.260750 
# 
# From -- ./inp_files/25431.got.cif
#   From: 2010.05.17/outbox.cif.g08.bks.cpg/sg23_13_cif.got.tgz:25431.got - 2010.06.04 12:02:01.
