data_PCOD9332410
_publ_section_title
;
Structure prediction by ZEFSAII (Michael W. Deem and Ramdas Pophale) SiO2 
 PCOD9332410
Probable space group: I 2 2 2
;
_chemical_formula_sum "Si O2"
_cell_formula_units_Z 18
_cell_length_a 5.076466
_cell_length_b 9.040800
_cell_length_c 15.073548
_cell_angle_alpha 90.000000
_cell_angle_beta 90.000000
_cell_angle_gamma 90.000000
_cell_volume 691.805216
_symmetry_space_group_name_H-M "I 2 2 2"
_symmetry_group_IT_number 23
_symmetry_cell_setting 'orthorhombic'
loop_
_space_group_symop_operation_xyz
x,y,z
-x,-y,z
x,-y,-z
-x,y,-z
1/2+x,1/2+y,1/2+z
1/2-x,1/2-y,1/2+z
1/2+x,1/2-y,1/2-z
1/2-x,1/2+y,1/2-z
loop_
_atom_site_type_symbol
_atom_site_label
_atom_site_fract_x
_atom_site_fract_y
_atom_site_fract_z
Si Si1 0.889248 0.660116 0.131666
Si Si2 0.000000 0.000000 0.500000
Si Si3 0.252714 0.394126 0.319937
O O1 0.772023 0.697975 0.227904
O O2 0.000000 0.500000 0.153624
O O3 0.124119 0.774523 0.110780
O O4 0.677730 0.611630 0.058809
O O5 0.500000 0.500000 0.306139
O O6 0.000000 0.500000 0.343925
#
# Coordination Sequence:
#
# PCOD9332410 Si02
#       3
#     8   2   8
#     4  11  24  45  75 122 163 212 277 338 409 486
#     4  12  26  44  80 128 172 206 270 348 416 494
#     4  11  24  43  78 117 159 214 280 335 398 488
#
# _framework density 26.018882999999999
#
# number of rings (size 3 to 8) (size 9 to 14) (size 15 to 20)
#    0.000    0.889    2.222    6.000    6.222    0.000 
#    0.000    0.000    0.000    8.000   17.333    0.000 
#    0.000    0.000    0.000    0.000    0.000    0.000 
#
# Total GULP energy -50170.998944 kJ/mol
# GULP energy per Si atom -5574.555438 kJ/mol
# Density = 2.595966 g / cm^3
# Si number density = 26.018883 Si / 1000 Ang^3
#
#
#
# Elastic Constant Matrix: (Units=GPa)
#
#
# Indices 1 2 3 4 5 6 
#
# 1 205.5305 88.5074 86.7429 0.0000 0.0000 0.0000
# 2 88.5074 157.5468 36.9216 0.0000 0.0000 0.0000
# 3 86.7429 36.9216 84.4842 0.0000 0.0000 0.0000
# 4 0.0000 0.0000 0.0000 -12.7798 0.0000 0.0000
# 5 0.0000 0.0000 0.0000 0.0000 137.4954 0.0000
# 6 0.0000 0.0000 0.0000 0.0000 0.0000 201.0049
#
#
#
# Elastic Compliance Matrix: (Units=1/GPa)
#
#
# Indices 1 2 3 4 5 6 
#
# 1 0.010166 -0.003638 -0.008848 0.000000 0.000000 0.000000
# 2 -0.003638 0.008373 0.000076 0.000000 0.000000 0.000000
# 3 -0.008848 0.000076 0.020888 0.000000 0.000000 0.000000
# 4 0.000000 0.000000 0.000000 -0.078248 0.000000 0.000000
# 5 0.000000 0.000000 0.000000 0.000000 0.007273 0.000000
# 6 0.000000 0.000000 0.000000 0.000000 0.000000 0.004975
#
#
# Mechanical properties :
#
#
# Convention : Reuss Voigt Hill
#
# Bulk Modulus (GPa) = 68.45978 96.87838 82.66908
# Shear Modulus (GPa) = 1603.82964 80.83672 842.33318
#
# Velocity S-wave (km/s) = 24.85454 5.57996 18.01227
# Velocity P-wave (km/s) = 29.15532 8.87859 21.55066
#
# Compressibility (1/GPa) = 0.01460712
#
# Stress axis : x y z
#
# Youngs Moduli (GPa) = 98.36359 119.42908 47.87327
#
# Poissons Ratio (x) = 0.43444 0.42360
# Poissons Ratio (y) = 0.35781 -0.00362
# Poissons Ratio (z) = 0.87036 -0.00903
#
# Static dielectric constant tensor:
#      x y z
#    x 2.282740 0.000000 0.000000 
#    y 0.000000 2.028340 0.000000 
#    z 0.000000 0.000000 1.215060 
# 
# From -- ./inp_files/270.got.cif
#   From: 2010.05.17/outbox.cif.g08.bks.cpg/sg23_1_cif.got.tgz:270.got - 2010.06.04 12:02:01.
