data_PCOD9332473
_publ_section_title
;
Structure prediction by ZEFSAII (Michael W. Deem and Ramdas Pophale) SiO2 
 PCOD9332473
Probable space group: I 2 2 2
;
_chemical_formula_sum "Si O2"
_cell_formula_units_Z 38
_cell_length_a 18.763649
_cell_length_b 11.179310
_cell_length_c 8.448713
_cell_angle_alpha 90.000000
_cell_angle_beta 90.000000
_cell_angle_gamma 90.000000
_cell_volume 1772.241316
_symmetry_space_group_name_H-M "I 2 2 2"
_symmetry_group_IT_number 23
_symmetry_cell_setting 'orthorhombic'
loop_
_space_group_symop_operation_xyz
x,y,z
-x,-y,z
x,-y,-z
-x,y,-z
1/2+x,1/2+y,1/2+z
1/2-x,1/2-y,1/2+z
1/2+x,1/2-y,1/2-z
1/2-x,1/2+y,1/2-z
loop_
_atom_site_type_symbol
_atom_site_label
_atom_site_fract_x
_atom_site_fract_y
_atom_site_fract_z
Si Si1 0.890045 0.500000 0.500000
Si Si2 0.006348 0.862072 0.309536
Si Si3 0.228249 0.359608 0.034541
Si Si4 0.091166 0.337697 0.227599
Si Si5 0.500000 0.000000 0.500000
Si Si6 0.346742 0.782058 0.789029
O O1 0.928028 0.597739 0.392004
O O2 0.852710 0.413303 0.370692
O O3 0.077404 0.785425 0.266728
O O4 0.000000 0.859602 0.500000
O O5 0.939603 0.793675 0.234910
O O6 0.000000 0.000000 0.259805
O O7 0.192303 0.300303 0.879295
O O8 0.238115 0.500000 0.000000
O O9 0.173285 0.342380 0.180211
O O10 0.300721 0.297411 0.089590
O O11 0.050377 0.415611 0.099820
#
# Coordination Sequence:
#
# PCOD9332473 Si02
#       6
#     4   8   8   8   2   8
#     4  12  22  43  70 106 132 195 244 298 372 423
#     4  11  26  45  71 107 144 191 240 297 370 432
#     4  12  27  48  72 107 149 193 243 301 368 436
#     4  12  23  45  71 105 142 186 249 305 364 437
#     4  12  24  38  70 104 144 178 242 318 360 426
#     4  12  27  46  72 108 146 196 242 303 367 442
#
# _framework density 21.441777999999999
#
# number of rings (size 3 to 8) (size 9 to 14) (size 15 to 20)
#    0.000    0.211    5.263    3.789    2.947    0.842 
#    0.000    3.684    0.000    0.000    0.000    0.000 
#    0.000    0.000    0.000    0.000    0.000    0.000 
#
# Total GULP energy -106252.370938 kJ/mol
# GULP energy per Si atom -5592.230049 kJ/mol
# Density = 2.139298 g / cm^3
# Si number density = 21.441778 Si / 1000 Ang^3
#
#
#
# Elastic Constant Matrix: (Units=GPa)
#
#
# Indices 1 2 3 4 5 6 
#
# 1 57.5507 37.3852 -4.9616 0.0000 0.0000 0.0000
# 2 37.3852 172.2810 20.6979 0.0000 0.0000 0.0000
# 3 -4.9616 20.6979 70.1845 0.0000 0.0000 0.0000
# 4 0.0000 0.0000 0.0000 30.0239 0.0000 0.0000
# 5 0.0000 0.0000 0.0000 0.0000 66.6849 0.0000
# 6 0.0000 0.0000 0.0000 0.0000 0.0000 55.4533
#
#
#
# Elastic Compliance Matrix: (Units=1/GPa)
#
#
# Indices 1 2 3 4 5 6 
#
# 1 0.020782 -0.004858 0.002902 0.000000 0.000000 0.000000
# 2 -0.004858 0.007153 -0.002453 0.000000 0.000000 0.000000
# 3 0.002902 -0.002453 0.015177 0.000000 0.000000 0.000000
# 4 0.000000 0.000000 0.000000 0.033307 0.000000 0.000000
# 5 0.000000 0.000000 0.000000 0.000000 0.014996 0.000000
# 6 0.000000 0.000000 0.000000 0.000000 0.000000 0.018033
#
#
# Mechanical properties :
#
#
# Convention : Reuss Voigt Hill
#
# Bulk Modulus (GPa) = 29.16017 45.13991 37.15004
# Shear Modulus (GPa) = 38.55097 46.89208 42.72152
#
# Velocity S-wave (km/s) = 4.24481 4.68156 4.46852
# Velocity P-wave (km/s) = 6.13627 7.09370 6.63228
#
# Compressibility (1/GPa) = 0.03429335
#
# Stress axis : x y z
#
# Youngs Moduli (GPa) = 48.11814 139.79254 65.89029
#
# Poissons Ratio (x) = 0.67917 -0.19121
# Poissons Ratio (y) = 0.23378 0.16163
# Poissons Ratio (z) = -0.13964 0.34292
#
# Static dielectric constant tensor:
#      x y z
#    x 1.822560 0.000000 0.000000 
#    y 0.000000 1.755920 0.000000 
#    z 0.000000 0.000000 1.790430 
# 
# From -- ./inp_files/8230.got.cif
#   From: 2010.05.17/outbox.cif.g08.bks.cpg/sg23_5_cif.got.tgz:8230.got - 2010.06.04 12:02:01.
