data_PCOD9332685
_publ_section_title
;
Structure prediction by ZEFSAII (Michael W. Deem and Ramdas Pophale) SiO2 
 PCOD9332685
Probable space group: I 21 21 21
;
_chemical_formula_sum "Si O2"
_cell_formula_units_Z 64
_cell_length_a 7.204730
_cell_length_b 29.712304
_cell_length_c 12.771546
_cell_angle_alpha 90.000000
_cell_angle_beta 90.000000
_cell_angle_gamma 90.000000
_cell_volume 2733.993715
_symmetry_space_group_name_H-M "I 21 21 21"
_symmetry_group_IT_number 24
_symmetry_cell_setting 'orthorhombic'
loop_
_space_group_symop_operation_xyz
x,y,z
-x,1/2-y,z
x,-y,1/2-z
1/2-x,y,-z
1/2+x,1/2+y,1/2+z
1/2-x,-y,1/2+z
1/2+x,1/2-y,-z
-x,1/2+y,1/2-z
loop_
_atom_site_type_symbol
_atom_site_label
_atom_site_fract_x
_atom_site_fract_y
_atom_site_fract_z
Si Si1 0.485334 0.635452 0.116494
Si Si2 0.028767 0.697321 0.702234
Si Si3 0.020860 0.546519 0.769059
Si Si4 0.532781 0.127644 0.618352
Si Si5 0.477643 0.350886 0.994258
Si Si6 0.559323 0.975508 0.856067
Si Si7 0.469481 0.697868 0.710378
Si Si8 0.965786 0.051871 0.979085
O O1 0.541606 0.676832 0.189257
O O2 0.553501 0.588455 0.166260
O O3 0.259025 0.631124 0.119418
O O4 0.534379 0.640661 0.996410
O O5 0.958093 0.668163 0.605187
O O6 0.249239 0.691209 0.705324
O O7 0.000000 0.750000 0.688379
O O8 0.913478 0.500000 0.750000
O O9 0.213255 0.531614 0.832857
O O10 0.033197 0.560093 0.646553
O O11 0.490324 0.075310 0.636318
O O12 0.461433 0.161990 0.705038
O O13 0.536604 0.316598 0.904026
O O14 0.542541 0.401910 0.971455
O O15 0.250000 0.351971 0.000000
O O16 0.501252 0.000000 0.750000
O O17 0.488687 0.005988 0.955188
O O18 0.500000 0.750000 0.735357
O O19 0.750000 0.051876 0.000000
#
# Coordination Sequence:
#
# PCOD9332685 Si02
#       8
#     8   8   8   8   8   8   8   8
#     4   9  17  29  40  62  89 123 163 195 237 288
#     4  10  19  33  51  70  93 129 164 206 244 288
#     4  10  16  22  35  56  88 124 163 188 229 284
#     4   9  18  28  42  60  93 127 158 195 240 291
#     4   9  18  29  45  66  95 127 161 195 244 290
#     4  10  17  22  34  58  89 127 162 186 230 292
#     4  10  20  34  50  70  94 128 163 205 250 292
#     4  11  16  23  36  60  91 129 160 189 230 296
#
# _framework density 23.408977
#
# number of rings (size 3 to 8) (size 9 to 14) (size 15 to 20)
#    0.000    2.250    3.750    1.875    5.250    0.500 
#    0.000    0.000    0.000    0.000    0.000    0.000 
#    0.000    3.000    8.750    0.500    0.500    0.000 
#
# Total GULP energy -178414.482366 kJ/mol
# GULP energy per Si atom -5575.452574 kJ/mol
# Density = 2.335570 g / cm^3
# Si number density = 23.408977 Si / 1000 Ang^3
#
#
#
# Elastic Constant Matrix: (Units=GPa)
#
#
# Indices 1 2 3 4 5 6 
#
# 1 83.3267 -11.3264 -8.0263 0.0000 0.0000 0.0000
# 2 -11.3264 186.8277 78.6437 0.0001 0.0000 0.0000
# 3 -8.0263 78.6437 159.0337 0.0004 0.0000 0.0000
# 4 0.0000 0.0001 0.0004 46.6350 0.0000 0.0000
# 5 0.0000 0.0000 0.0000 0.0000 -14.9617 0.0000
# 6 0.0000 0.0000 0.0000 0.0000 0.0000 -0.3779
#
#
#
# Elastic Compliance Matrix: (Units=1/GPa)
#
#
# Indices 1 2 3 4 5 6 
#
# 1 0.012113 0.000602 0.000313 0.000000 0.000000 0.000000
# 2 0.000602 0.006790 -0.003327 0.000000 0.000000 0.000000
# 3 0.000313 -0.003327 0.007949 0.000000 0.000000 0.000000
# 4 0.000000 0.000000 0.000000 0.021443 0.000000 0.000001
# 5 0.000000 0.000000 0.000000 0.000000 -0.066837 -0.000007
# 6 0.000000 0.000000 0.000000 0.000001 -0.000007 -2.646203
#
#
# Mechanical properties :
#
#
# Convention : Reuss Voigt Hill
#
# Bulk Modulus (GPa) = 45.39437 60.86334 53.12885
# Shear Modulus (GPa) = -1.88496 30.91888 14.51696
#
# Velocity S-wave (km/s) = -0.89832 3.63824 2.49297
# Velocity P-wave (km/s) = 4.28462 6.61101 5.57062
#
# Compressibility (1/GPa) = 0.02202916
#
# Stress axis : x y z
#
# Youngs Moduli (GPa) = 82.55575 147.28488 125.80075
#
# Poissons Ratio (x) = -0.08873 -0.03943
# Poissons Ratio (y) = -0.04973 0.41855
# Poissons Ratio (z) = -0.02588 0.49003
#
# Static dielectric constant tensor:
#      x y z
#    x 1.963780 0.000000 0.000000 
#    y 0.000000 1.897150 0.000000 
#    z 0.000000 0.000000 1.833670 
# 
# From -- ./inp_files/20198.got.cif
#   From: 2010.05.17/outbox.cif.g08.bks.cpg/sg24_11_cif.got.tgz:20198.got - 2010.06.04 00:33:39.
