data_PCOD9332467
_publ_section_title
;
Structure prediction by ZEFSAII (Michael W. Deem and Ramdas Pophale) SiO2 
 PCOD9332467
Probable space group: I 2 2 2
;
_chemical_formula_sum "Si O2"
_cell_formula_units_Z 36
_cell_length_a 13.770827
_cell_length_b 5.180415
_cell_length_c 20.486915
_cell_angle_alpha 90.000000
_cell_angle_beta 90.000000
_cell_angle_gamma 90.000000
_cell_volume 1461.507809
_symmetry_space_group_name_H-M "I 2 2 2"
_symmetry_group_IT_number 23
_symmetry_cell_setting 'orthorhombic'
loop_
_space_group_symop_operation_xyz
x,y,z
-x,-y,z
x,-y,-z
-x,y,-z
1/2+x,1/2+y,1/2+z
1/2-x,1/2-y,1/2+z
1/2+x,1/2-y,1/2-z
1/2-x,1/2+y,1/2-z
loop_
_atom_site_type_symbol
_atom_site_label
_atom_site_fract_x
_atom_site_fract_y
_atom_site_fract_z
Si Si1 0.610942 0.542748 0.697347
Si Si2 0.000000 0.500000 0.000000
Si Si3 0.338172 0.335078 0.561335
Si Si4 0.000000 0.000000 0.500000
Si Si5 0.670378 0.891916 0.796506
Si Si6 0.356100 0.381538 0.115410
O O1 0.500000 0.500000 0.717317
O O2 0.623205 0.496117 0.620765
O O3 0.626106 0.832021 0.725804
O O4 0.713656 0.410562 0.717651
O O5 0.070289 0.327956 0.041831
O O6 0.303510 0.500000 0.500000
O O7 0.251151 0.159062 0.586596
O O8 0.071420 0.135855 0.553240
O O9 0.642065 0.649721 0.844084
O O10 0.631791 0.143618 0.834223
#
# Coordination Sequence:
#
# PCOD9332467 Si02
#       6
#     8   2   8   2   8   8
#     4  11  25  50  82 108 159 210 262 322 414 466
#     4  12  24  40  72 104 144 188 252 310 378 478
#     4  11  26  46  71 110 152 197 257 327 389 473
#     4  12  30  54  84 120 152 234 252 350 404 508
#     4  11  27  54  74 121 157 205 265 347 374 504
#     4  11  29  51  81 109 164 197 273 321 415 462
#
# _framework density 24.632093999999999
#
# number of rings (size 3 to 8) (size 9 to 14) (size 15 to 20)
#    0.000    0.889    0.000    5.000   17.111    1.778 
#    4.000    0.000    0.000    0.000    0.000    0.000 
#    0.000    0.000    0.000    0.000    0.000    0.000 
#
# Total GULP energy -100560.736084 kJ/mol
# GULP energy per Si atom -5586.707560 kJ/mol
# Density = 2.457603 g / cm^3
# Si number density = 24.632094 Si / 1000 Ang^3
#
#
#
# Elastic Constant Matrix: (Units=GPa)
#
#
# Indices 1 2 3 4 5 6 
#
# 1 126.3327 10.1722 14.7834 0.0000 0.0000 0.0000
# 2 10.1722 106.3893 32.0132 0.0000 0.0000 0.0000
# 3 14.7834 32.0132 116.4643 0.0000 0.0000 0.0000
# 4 0.0000 0.0000 0.0000 30.8035 0.0000 0.0000
# 5 0.0000 0.0000 0.0000 0.0000 119.5180 0.0000
# 6 0.0000 0.0000 0.0000 0.0000 0.0000 42.9881
#
#
#
# Elastic Compliance Matrix: (Units=1/GPa)
#
#
# Indices 1 2 3 4 5 6 
#
# 1 0.008060 -0.000504 -0.000884 0.000000 0.000000 0.000000
# 2 -0.000504 0.010279 -0.002761 0.000000 0.000000 0.000000
# 3 -0.000884 -0.002761 0.009458 0.000000 0.000000 0.000000
# 4 0.000000 0.000000 0.000000 0.032464 0.000000 0.000000
# 5 0.000000 0.000000 0.000000 0.000000 0.008367 0.000000
# 6 0.000000 0.000000 0.000000 0.000000 0.000000 0.023262
#
#
# Mechanical properties :
#
#
# Convention : Reuss Voigt Hill
#
# Bulk Modulus (GPa) = 51.29380 51.45821 51.37601
# Shear Modulus (GPa) = 46.86573 58.14308 52.50441
#
# Velocity S-wave (km/s) = 4.36665 4.86373 4.62187
# Velocity P-wave (km/s) = 6.80387 7.24411 7.02744
#
# Compressibility (1/GPa) = 0.01949553
#
# Stress axis : x y z
#
# Youngs Moduli (GPa) = 124.07383 97.28983 105.73514
#
# Poissons Ratio (x) = 0.04908 0.09351
# Poissons Ratio (y) = 0.06259 0.29196
# Poissons Ratio (z) = 0.10973 0.26865
#
# Static dielectric constant tensor:
#      x y z
#    x 1.917850 0.000000 0.000000 
#    y 0.000000 1.809590 0.000000 
#    z 0.000000 0.000000 2.057110 
# 
# From -- ./inp_files/26862.got.cif
#   From: 2010.05.17/outbox.cif.g08.bks.cpg/sg23_14_cif.got.tgz:26862.got - 2010.06.04 12:02:01.
