data_PCOD9332824
_publ_section_title
;
Structure prediction by ZEFSAII (Michael W. Deem and Ramdas Pophale) SiO2 
 PCOD9332824
Probable space group: I 21 21 21
;
_chemical_formula_sum "Si O2"
_cell_formula_units_Z 48
_cell_length_a 5.508838
_cell_length_b 23.149156
_cell_length_c 18.126655
_cell_angle_alpha 90.000000
_cell_angle_beta 90.000000
_cell_angle_gamma 90.000000
_cell_volume 2311.600777
_symmetry_space_group_name_H-M "I 21 21 21"
_symmetry_group_IT_number 24
_symmetry_cell_setting 'orthorhombic'
loop_
_space_group_symop_operation_xyz
x,y,z
-x,1/2-y,z
x,-y,1/2-z
1/2-x,y,-z
1/2+x,1/2+y,1/2+z
1/2-x,-y,1/2+z
1/2+x,1/2-y,-z
-x,1/2+y,1/2-z
loop_
_atom_site_type_symbol
_atom_site_label
_atom_site_fract_x
_atom_site_fract_y
_atom_site_fract_z
Si Si1 0.750000 0.648989 0.500000
Si Si2 0.750000 0.447801 0.127959
Si Si3 0.750000 0.218405 0.214896
Si Si4 0.250000 0.958398 0.000000
Si Si5 0.750000 0.911920 0.342190
Si Si6 0.250000 0.281852 0.607593
Si Si7 0.250000 0.641522 0.500000
Si Si8 0.750000 0.113438 0.500000
O O1 0.750000 0.608351 0.426963
O O2 0.492133 0.678845 0.500000
O O3 0.502096 0.443760 0.174150
O O4 0.997904 0.443760 0.174150
O O5 0.749999 0.501506 0.072681
O O6 0.500000 0.250000 0.190706
O O7 0.750001 0.152463 0.189397
O O8 0.749998 0.217177 0.303821
O O9 0.000000 0.250000 0.190706
O O10 0.500726 0.922670 1.000000
O O11 0.750000 0.901468 0.430612
O O12 0.500000 0.250000 0.585177
O O13 0.250000 0.344440 0.570782
O O14 0.000000 0.250000 0.585176
#
# Coordination Sequence:
#
# PCOD9332824 Si02
#       8
#     4   8   8   4   8   8   4   4
#     4   7  12  22  38  60  84 115 164 209 238 279
#     4   9  17  30  49  74 104 144 185 217 260 324
#     4  10  21  36  55  81 111 144 186 234 280 331
#     4  11  22  35  56  89 118 142 184 236 280 319
#     4  10  17  31  53  74 104 149 190 220 269 328
#     4  10  21  39  61  85 114 146 179 219 283 353
#     4   8  14  23  40  64  88 121 170 212 240 290
#     4  12  22  36  62  89 114 138 178 237 282 332
#
# _framework density 20.764831999999998
#
# number of rings (size 3 to 8) (size 9 to 14) (size 15 to 20)
#    0.000    2.333    0.000    4.500    0.000    1.333 
#    0.000    0.833    0.000    6.000    0.000    0.000 
#    0.000    0.000    0.000    0.000    0.000    0.000 
#
# Total GULP energy -133843.034859 kJ/mol
# GULP energy per Si atom -5576.793119 kJ/mol
# Density = 2.071757 g / cm^3
# Si number density = 20.764832 Si / 1000 Ang^3
#
#
#
# Elastic Constant Matrix: (Units=GPa)
#
#
# Indices 1 2 3 4 5 6 
#
# 1 295.7912 89.7479 13.3529 0.0000 0.0000 0.0000
# 2 89.7479 110.7630 8.5288 0.0000 0.0000 0.0000
# 3 13.3529 8.5288 20.9161 0.0000 0.0000 0.0000
# 4 0.0000 0.0000 0.0000 -38.0877 0.0000 0.0000
# 5 0.0000 0.0000 0.0000 0.0000 8.6224 0.0000
# 6 0.0000 0.0000 0.0000 0.0000 0.0000 41.6550
#
#
#
# Elastic Compliance Matrix: (Units=1/GPa)
#
#
# Indices 1 2 3 4 5 6 
#
# 1 0.004524 -0.003555 -0.001439 0.000000 0.000000 0.000000
# 2 -0.003555 0.012115 -0.002670 0.000000 0.000000 0.000000
# 3 -0.001439 -0.002670 0.049817 0.000000 0.000000 0.000000
# 4 0.000000 0.000000 0.000000 -0.026255 0.000000 0.000000
# 5 0.000000 0.000000 0.000000 0.000000 0.115977 0.000000
# 6 0.000000 0.000000 0.000000 0.000000 0.000000 0.024007
#
#
# Mechanical properties :
#
#
# Convention : Reuss Voigt Hill
#
# Bulk Modulus (GPa) = 19.55877 72.30328 45.93103
# Shear Modulus (GPa) = 23.52319 23.49398 23.50859
#
# Velocity S-wave (km/s) = 3.36942 3.36732 3.36837
# Velocity P-wave (km/s) = 4.95751 7.07207 6.10701
#
# Compressibility (1/GPa) = 0.05112796
#
# Stress axis : x y z
#
# Youngs Moduli (GPa) = 221.02268 82.54514 20.07336
#
# Poissons Ratio (x) = 0.29347 0.02888
# Poissons Ratio (y) = 0.78578 0.05360
# Poissons Ratio (z) = 0.31799 0.22041
#
# Static dielectric constant tensor:
#      x y z
#    x 2.100530 0.000000 0.000000 
#    y 0.000000 1.684560 0.000000 
#    z 0.000000 0.000000 1.733550 
# 
# From -- ./inp_files/32154.got.cif
#   From: 2010.05.17/outbox.cif.g08.bks.cpg/sg24_17_cif.got.tgz:32154.got - 2010.06.04 00:33:39.
