data_PCOD9332687
_publ_section_title
;
Structure prediction by ZEFSAII (Michael W. Deem and Ramdas Pophale) SiO2 
 PCOD9332687
Probable space group: I 21 21 21
;
_chemical_formula_sum "Si O2"
_cell_formula_units_Z 24
_cell_length_a 26.811840
_cell_length_b 6.903650
_cell_length_c 4.983772
_cell_angle_alpha 90.000000
_cell_angle_beta 90.000000
_cell_angle_gamma 90.000000
_cell_volume 922.494000
_symmetry_space_group_name_H-M "I 21 21 21"
_symmetry_group_IT_number 24
_symmetry_cell_setting 'orthorhombic'
loop_
_space_group_symop_operation_xyz
x,y,z
-x,1/2-y,z
x,-y,1/2-z
1/2-x,y,-z
1/2+x,1/2+y,1/2+z
1/2-x,-y,1/2+z
1/2+x,1/2-y,-z
-x,1/2+y,1/2-z
loop_
_atom_site_type_symbol
_atom_site_label
_atom_site_fract_x
_atom_site_fract_y
_atom_site_fract_z
Si Si1 0.850568 0.234266 0.211561
Si Si2 0.795380 0.232298 0.700584
Si Si3 0.950847 0.135306 0.995081
O O1 0.841699 0.296957 0.514595
O O2 0.846807 0.000000 0.250000
O O3 0.807862 0.299241 0.001630
O O4 0.904788 0.267516 0.089878
O O5 0.750000 0.280874 0.500000
O O6 0.791628 0.000000 0.750000
O O7 0.000000 0.250000 0.913175
O O8 0.933749 0.000000 0.750000
O O9 0.963331 0.000000 0.250000
#
# Coordination Sequence:
#
# PCOD9332687 Si02
#       3
#     8   8   8
#     4   9  17  28  42  64  96 131 162 201 254 303
#     4  10  16  23  38  62  94 130 162 194 245 311
#     4  11  22  37  56  78 107 141 178 219 264 312
#
# _framework density 26.01643
#
# number of rings (size 3 to 8) (size 9 to 14) (size 15 to 20)
#    0.000    2.000    0.000   10.000    0.000    0.000 
#    0.000    0.000    0.000    0.000    0.000    0.000 
#    0.000   26.667    0.000    0.000    0.000    2.333 
#
# Total GULP energy -67045.190077 kJ/mol
# GULP energy per Si atom -5587.099173 kJ/mol
# Density = 2.595722 g / cm^3
# Si number density = 26.016430 Si / 1000 Ang^3
#
#
#
# Elastic Constant Matrix: (Units=GPa)
#
#
# Indices 1 2 3 4 5 6 
#
# 1 144.0805 7.5660 32.4806 0.0000 0.0000 0.0000
# 2 7.5660 96.2500 -4.6207 0.0000 0.0000 0.0000
# 3 32.4806 -4.6207 163.5868 0.0000 0.0000 0.0000
# 4 0.0000 0.0000 0.0000 -25.1013 0.0000 0.0000
# 5 0.0000 0.0000 0.0000 0.0000 41.5051 0.0000
# 6 0.0000 0.0000 0.0000 0.0000 0.0000 14.5885
#
#
#
# Elastic Compliance Matrix: (Units=1/GPa)
#
#
# Indices 1 2 3 4 5 6 
#
# 1 0.007306 -0.000645 -0.001469 0.000000 0.000000 0.000000
# 2 -0.000645 0.010461 0.000423 0.000000 0.000000 0.000000
# 3 -0.001469 0.000423 0.006417 0.000000 0.000000 0.000000
# 4 0.000000 0.000000 0.000000 -0.039839 0.000000 0.000000
# 5 0.000000 0.000000 0.000000 0.000000 0.024093 0.000000
# 6 0.000000 0.000000 0.000000 0.000000 0.000000 0.068547
#
#
# Mechanical properties :
#
#
# Convention : Reuss Voigt Hill
#
# Bulk Modulus (GPa) = 48.07082 52.75212 50.41147
# Shear Modulus (GPa) = 57.27455 30.76458 44.01956
#
# Velocity S-wave (km/s) = 4.69708 3.44249 4.11784
# Velocity P-wave (km/s) = 6.92343 6.01011 6.48288
#
# Compressibility (1/GPa) = 0.02080264
#
# Stress axis : x y z
#
# Youngs Moduli (GPa) = 136.88266 95.59659 155.84703
#
# Poissons Ratio (x) = 0.06164 0.22890
# Poissons Ratio (y) = 0.08826 -0.06600
# Poissons Ratio (z) = 0.20105 -0.04049
#
# Static dielectric constant tensor:
#      x y z
#    x 2.087300 0.000000 0.000000 
#    y 0.000000 2.149710 0.000000 
#    z 0.000000 0.000000 1.935060 
# 
# From -- ./inp_files/6018.got.cif
#   From: 2010.05.17/outbox.cif.g08.bks.cpg/sg24_4_cif.got.tgz:6018.got - 2010.06.04 00:33:39.
