data_PCOD9332024
_publ_section_title
;
Structure prediction by ZEFSAII (Michael W. Deem and Ramdas Pophale) SiO2 
 PCOD9332024
Probable space group: I 2 2 2
;
_chemical_formula_sum "Si O2"
_cell_formula_units_Z 32
_cell_length_a 16.613657
_cell_length_b 16.106988
_cell_length_c 5.202904
_cell_angle_alpha 90.000000
_cell_angle_beta 90.000000
_cell_angle_gamma 90.000000
_cell_volume 1392.276163
_symmetry_space_group_name_H-M "I 2 2 2"
_symmetry_group_IT_number 23
_symmetry_cell_setting 'orthorhombic'
loop_
_space_group_symop_operation_xyz
x,y,z
-x,-y,z
x,-y,-z
-x,y,-z
1/2+x,1/2+y,1/2+z
1/2-x,1/2-y,1/2+z
1/2+x,1/2-y,1/2-z
1/2-x,1/2+y,1/2-z
loop_
_atom_site_type_symbol
_atom_site_label
_atom_site_fract_x
_atom_site_fract_y
_atom_site_fract_z
Si Si1 0.765582 0.698857 0.906647
Si Si2 0.622841 0.414196 0.121173
Si Si3 0.428141 0.141608 0.680625
Si Si4 0.500000 0.500000 0.500000
Si Si5 0.500000 0.000000 0.000000
Si Si6 0.000000 0.208228 0.500000
O O1 0.725001 0.741798 0.158793
O O2 0.847187 0.658887 0.020678
O O3 0.701940 0.633152 0.796519
O O4 0.558715 0.441657 0.334431
O O5 0.648989 0.500000 0.000000
O O6 0.572321 0.354403 0.930048
O O7 0.500000 0.113461 0.500000
O O8 0.458147 0.229362 0.799152
O O9 0.434754 0.067103 0.883861
#
# Coordination Sequence:
#
# PCOD9332024 Si02
#       6
#     8   8   8   2   2   4
#     4  12  29  52  78 118 156 204 266 324 390 460
#     4  12  26  46  76 117 158 204 256 324 390 474
#     4  11  25  47  81 105 155 206 265 320 390 470
#     4  12  26  44  78 114 164 208 258 312 408 464
#     4  10  26  48  76 118 142 214 264 320 392 458
#     4  11  21  45  71 108 148 200 255 307 391 459
#
# _framework density 22.983948000000002
#
# number of rings (size 3 to 8) (size 9 to 14) (size 15 to 20)
#    0.000    0.500    5.000    1.875    8.750    2.000 
#    0.000    1.250    0.000    0.000    0.000    0.000 
#    0.000    0.000    0.000    0.000    0.000    0.000 
#
# Total GULP energy -89219.824987 kJ/mol
# GULP energy per Si atom -5576.239062 kJ/mol
# Density = 2.293164 g / cm^3
# Si number density = 22.983948 Si / 1000 Ang^3
#
#
#
# Elastic Constant Matrix: (Units=GPa)
#
#
# Indices 1 2 3 4 5 6 
#
# 1 136.8426 38.7737 22.6069 0.0000 0.0000 0.0000
# 2 38.7737 123.4858 22.9486 0.0000 0.0000 0.0000
# 3 22.6069 22.9486 73.0489 0.0000 0.0000 0.0000
# 4 0.0000 0.0000 0.0000 -4.0889 0.0000 0.0000
# 5 0.0000 0.0000 0.0000 0.0000 8.7570 0.0000
# 6 0.0000 0.0000 0.0000 0.0000 0.0000 15.5098
#
#
#
# Elastic Compliance Matrix: (Units=1/GPa)
#
#
# Indices 1 2 3 4 5 6 
#
# 1 0.008250 -0.002247 -0.001847 0.000000 0.000000 0.000000
# 2 -0.002247 0.009212 -0.002199 0.000000 0.000000 0.000000
# 3 -0.001847 -0.002199 0.014952 0.000000 0.000000 0.000000
# 4 0.000000 0.000000 0.000000 -0.244562 0.000000 0.000000
# 5 0.000000 0.000000 0.000000 0.000000 0.114194 0.000000
# 6 0.000000 0.000000 0.000000 0.000000 0.000000 0.064475
#
#
# Mechanical properties :
#
#
# Convention : Reuss Voigt Hill
#
# Bulk Modulus (GPa) = 50.43381 55.78174 53.10777
# Shear Modulus (GPa) = -350.05116 20.63877 -164.70619
#
# Velocity S-wave (km/s) = -12.35448 2.99986 -8.47449
# Velocity P-wave (km/s) = 13.47294 6.02672 8.52052
#
# Compressibility (1/GPa) = 0.01982797
#
# Stress axis : x y z
#
# Youngs Moduli (GPa) = 121.21943 108.55118 66.88148
#
# Poissons Ratio (x) = 0.24392 0.12354
# Poissons Ratio (y) = 0.27238 0.14705
# Poissons Ratio (z) = 0.22391 0.23867
#
# Static dielectric constant tensor:
#      x y z
#    x 1.807980 0.000000 0.000000 
#    y 0.000000 1.931720 0.000000 
#    z 0.000000 0.000000 2.205900 
# 
# From -- ./inp_files/2970.got.cif
#   From: 2010.05.17/outbox.cif.g08.bks.cpg/sg23_2_cif.got.tgz:2970.got - 2010.06.04 12:02:01.
