data_PCOD9332446
_publ_section_title
;
Structure prediction by ZEFSAII (Michael W. Deem and Ramdas Pophale) SiO2 
 PCOD9332446
Probable space group: I 2 2 2
;
_chemical_formula_sum "Si O2"
_cell_formula_units_Z 40
_cell_length_a 11.301912
_cell_length_b 7.404513
_cell_length_c 18.858802
_cell_angle_alpha 90.000000
_cell_angle_beta 90.000000
_cell_angle_gamma 90.000000
_cell_volume 1578.201756
_symmetry_space_group_name_H-M "I 2 2 2"
_symmetry_group_IT_number 23
_symmetry_cell_setting 'orthorhombic'
loop_
_space_group_symop_operation_xyz
x,y,z
-x,-y,z
x,-y,-z
-x,y,-z
1/2+x,1/2+y,1/2+z
1/2-x,1/2-y,1/2+z
1/2+x,1/2-y,1/2-z
1/2-x,1/2+y,1/2-z
loop_
_atom_site_type_symbol
_atom_site_label
_atom_site_fract_x
_atom_site_fract_y
_atom_site_fract_z
Si Si1 0.864892 0.217127 0.486142
Si Si2 0.676249 0.163005 0.594294
Si Si3 0.621269 0.892110 0.163724
Si Si4 0.064788 0.331241 0.141870
Si Si5 0.241909 0.724991 0.736547
O O1 0.761635 0.266776 0.541088
O O2 0.841454 0.299286 0.409300
O O3 0.000000 0.277134 0.500000
O O4 0.867551 0.000000 0.500000
O O5 0.549664 0.261630 0.607083
O O6 0.747926 0.146442 0.668309
O O7 0.636225 0.951980 0.582778
O O8 0.632405 0.734544 0.222775
O O9 0.500000 0.000000 0.154222
O O10 0.708452 0.040037 0.197671
O O11 0.145255 0.245353 0.201521
O O12 0.000000 0.500000 0.181550
#
# Coordination Sequence:
#
# PCOD9332446 Si02
#       5
#     8   8   8   8   8
#     4  11  25  45  73 113 153 213 278 340 423 496
#     4   9  20  39  67  99 155 200 265 326 413 488
#     4  12  27  46  75 115 169 206 276 355 410 498
#     4   8  19  40  65 103 150 208 252 333 412 474
#     4  12  20  41  73 106 153 211 261 334 417 491
#
# _framework density 25.345300999999999
#
# number of rings (size 3 to 8) (size 9 to 14) (size 15 to 20)
#    1.200    0.200    2.000    4.200    0.000    2.800 
#    0.000   10.000    0.000    0.000    0.000   28.000 
#    0.000    0.000    0.000    0.000    0.000    0.000 
#
# Total GULP energy -111357.692280 kJ/mol
# GULP energy per Si atom -5567.884614 kJ/mol
# Density = 2.528761 g / cm^3
# Si number density = 25.345301 Si / 1000 Ang^3
#
#
#
# Elastic Constant Matrix: (Units=GPa)
#
#
# Indices 1 2 3 4 5 6 
#
# 1 162.5169 56.9153 91.8371 0.0000 0.0000 0.0000
# 2 56.9153 69.6466 42.0986 0.0000 0.0000 0.0000
# 3 91.8371 42.0986 200.9867 0.0000 0.0000 0.0000
# 4 0.0000 0.0000 0.0000 35.0863 0.0000 0.0000
# 5 0.0000 0.0000 0.0000 0.0000 49.4023 0.0000
# 6 0.0000 0.0000 0.0000 0.0000 0.0000 39.1069
#
#
#
# Elastic Compliance Matrix: (Units=1/GPa)
#
#
# Indices 1 2 3 4 5 6 
#
# 1 0.010287 -0.006372 -0.003366 0.000000 0.000000 0.000000
# 2 -0.006372 0.020387 -0.001359 0.000000 0.000000 0.000000
# 3 -0.003366 -0.001359 0.006798 0.000000 0.000000 0.000000
# 4 0.000000 0.000000 0.000000 0.028501 0.000000 0.000000
# 5 0.000000 0.000000 0.000000 0.000000 0.020242 0.000000
# 6 0.000000 0.000000 0.000000 0.000000 0.000000 0.025571
#
#
# Mechanical properties :
#
#
# Convention : Reuss Voigt Hill
#
# Bulk Modulus (GPa) = 65.45026 90.53912 77.99469
# Shear Modulus (GPa) = 35.95306 40.87237 38.41271
#
# Velocity S-wave (km/s) = 3.77042 4.02010 3.89726
# Velocity P-wave (km/s) = 6.69584 7.57285 7.14781
#
# Compressibility (1/GPa) = 0.01527878
#
# Stress axis : x y z
#
# Youngs Moduli (GPa) = 97.21402 49.05200 147.10434
#
# Poissons Ratio (x) = 0.31255 0.49510
# Poissons Ratio (y) = 0.61943 0.19987
# Poissons Ratio (z) = 0.32719 0.06665
#
# Static dielectric constant tensor:
#      x y z
#    x 2.123070 0.000000 0.000000 
#    y 0.000000 2.240220 0.000000 
#    z 0.000000 0.000000 2.094880 
# 
# From -- ./inp_files/24163.got.cif
#   From: 2010.05.17/outbox.cif.g08.bks.cpg/sg23_13_cif.got.tgz:24163.got - 2010.06.04 12:02:01.
