data_PCOD9332520
_publ_section_title
;
Structure prediction by ZEFSAII (Michael W. Deem and Ramdas Pophale) SiO2 
 PCOD9332520
Probable space group: I 2 2 2
;
_chemical_formula_sum "Si O2"
_cell_formula_units_Z 64
_cell_length_a 12.214020
_cell_length_b 18.805909
_cell_length_c 12.848695
_cell_angle_alpha 90.000000
_cell_angle_beta 90.000000
_cell_angle_gamma 90.000000
_cell_volume 2951.290617
_symmetry_space_group_name_H-M "I 2 2 2"
_symmetry_group_IT_number 23
_symmetry_cell_setting 'orthorhombic'
loop_
_space_group_symop_operation_xyz
x,y,z
-x,-y,z
x,-y,-z
-x,y,-z
1/2+x,1/2+y,1/2+z
1/2-x,1/2-y,1/2+z
1/2+x,1/2-y,1/2-z
1/2-x,1/2+y,1/2-z
loop_
_atom_site_type_symbol
_atom_site_label
_atom_site_fract_x
_atom_site_fract_y
_atom_site_fract_z
Si Si1 0.713122 0.925056 0.545813
Si Si2 0.679671 0.648897 0.235334
Si Si3 0.975080 0.917775 0.188750
Si Si4 0.219265 0.839197 0.898586
Si Si5 0.579933 0.200014 0.800374
Si Si6 0.435307 0.207090 0.596875
Si Si7 0.402893 0.638560 0.085119
Si Si8 0.857636 0.305171 0.602283
O O1 0.784474 0.912316 0.653080
O O2 0.618281 0.867093 0.562425
O O3 0.798988 0.902045 0.458558
O O4 0.671909 0.000000 0.500000
O O5 0.590530 0.622920 0.319395
O O6 0.622129 0.718339 0.181789
O O7 0.787327 0.671935 0.297783
O O8 0.878204 0.895166 0.111501
O O9 0.937869 0.893971 0.304758
O O10 0.000000 0.000000 0.183116
O O11 0.311894 0.847144 0.809844
O O12 0.158550 0.764156 0.880361
O O13 0.291265 0.833926 0.003137
O O14 0.520109 0.199029 0.690284
O O15 0.485053 0.175557 0.879824
O O16 0.500000 0.238384 0.500000
O O17 0.365904 0.720037 0.096652
O O18 0.500000 0.633128 0.000000
#
# Coordination Sequence:
#
# PCOD9332520 Si02
#       8
#     8   8   8   8   8   8   8   8
#     4  12  25  42  65  99 151 197 239 290 383 465
#     4  12  22  43  68 105 144 192 241 311 374 443
#     4  12  27  44  68 105 148 195 244 302 383 457
#     4  12  25  42  70 107 140 192 252 317 374 431
#     4  12  21  42  70 104 146 184 252 317 374 439
#     4  12  25  41  68 106 145 190 240 311 376 448
#     4  12  22  38  67 108 145 184 237 306 374 444
#     4  12  23  40  72 105 144 187 255 316 366 440
#
# _framework density 21.685428000000002
#
# number of rings (size 3 to 8) (size 9 to 14) (size 15 to 20)
#    0.000    0.000    7.500    3.375    1.750    0.250 
#    0.000    1.250    0.000    0.750    0.000    3.500 
#    0.000    0.000    0.000    0.000    0.000    0.000 
#
# Total GULP energy -178890.955291 kJ/mol
# GULP energy per Si atom -5590.342353 kJ/mol
# Density = 2.163607 g / cm^3
# Si number density = 21.685428 Si / 1000 Ang^3
#
#
#
# Elastic Constant Matrix: (Units=GPa)
#
#
# Indices 1 2 3 4 5 6 
#
# 1 139.5789 37.5959 41.6498 -0.0001 0.0000 0.0000
# 2 37.5959 88.0448 18.6688 -0.0015 0.0002 0.0000
# 3 41.6498 18.6688 88.4363 -0.0019 0.0002 0.0000
# 4 -0.0001 -0.0015 -0.0019 12.2510 0.0003 0.0000
# 5 0.0000 0.0002 0.0002 0.0003 41.8150 0.0000
# 6 0.0000 0.0000 0.0000 0.0000 0.0000 23.6993
#
#
#
# Elastic Compliance Matrix: (Units=1/GPa)
#
#
# Indices 1 2 3 4 5 6 
#
# 1 0.009083 -0.003111 -0.003621 -0.000001 0.000000 0.000000
# 2 -0.003111 0.012955 -0.001270 0.000001 0.000000 0.000000
# 3 -0.003621 -0.001270 0.013281 0.000002 0.000000 0.000000
# 4 -0.000001 0.000001 0.000002 0.081626 -0.000001 0.000000
# 5 0.000000 0.000000 0.000000 -0.000001 0.023915 0.000000
# 6 0.000000 0.000000 0.000000 0.000000 0.000000 0.042195
#
#
# Mechanical properties :
#
#
# Convention : Reuss Voigt Hill
#
# Bulk Modulus (GPa) = 51.77012 56.87656 54.32334
# Shear Modulus (GPa) = 24.33126 30.09610 27.21368
#
# Velocity S-wave (km/s) = 3.35327 3.72943 3.54634
# Velocity P-wave (km/s) = 6.23840 6.69550 6.47099
#
# Compressibility (1/GPa) = 0.01931616
#
# Stress axis : x y z
#
# Youngs Moduli (GPa) = 110.09896 77.18799 75.29578
#
# Poissons Ratio (x) = 0.24010 0.27264
# Poissons Ratio (y) = 0.34248 0.09562
# Poissons Ratio (z) = 0.39866 0.09802
#
# Static dielectric constant tensor:
#      x y z
#    x 1.836240 0.000000 0.000000 
#    y 0.000000 1.788400 0.000000 
#    z 0.000000 0.000000 1.873840 
# 
# From -- ./inp_files/21067.got.cif
#   From: 2010.05.17/outbox.cif.g08.bks.cpg/sg23_11_cif.got.tgz:21067.got - 2010.06.04 12:02:01.
