data_PCOD9332946
_publ_section_title
;
Structure prediction by ZEFSAII (Michael W. Deem and Ramdas Pophale) SiO2 
 PCOD9332946
Probable space group: I 21 21 21
;
_chemical_formula_sum "Si O2"
_cell_formula_units_Z 56
_cell_length_a 23.263799
_cell_length_b 21.360461
_cell_length_c 7.889241
_cell_angle_alpha 90.000000
_cell_angle_beta 90.000000
_cell_angle_gamma 90.000000
_cell_volume 3920.364802
_symmetry_space_group_name_H-M "I 21 21 21"
_symmetry_group_IT_number 24
_symmetry_cell_setting 'orthorhombic'
loop_
_space_group_symop_operation_xyz
x,y,z
-x,1/2-y,z
x,-y,1/2-z
1/2-x,y,-z
1/2+x,1/2+y,1/2+z
1/2-x,-y,1/2+z
1/2+x,1/2-y,-z
-x,1/2+y,1/2-z
loop_
_atom_site_type_symbol
_atom_site_label
_atom_site_fract_x
_atom_site_fract_y
_atom_site_fract_z
Si Si1 0.893391 0.116342 0.057801
Si Si2 0.606609 0.116342 0.557801
Si Si3 0.450719 0.160017 0.250000
Si Si4 0.316690 0.500000 0.047524
Si Si5 0.474138 0.926723 0.945672
Si Si6 0.414952 0.297783 0.250000
Si Si7 0.474138 0.926723 0.554328
O O1 0.887992 0.139938 0.250000
O O2 0.957274 0.086386 0.040619
O O3 0.848180 0.061275 0.024816
O O4 0.888716 0.170000 0.916790
O O5 0.542726 0.086386 0.540619
O O6 0.611284 0.170000 0.416790
O O7 0.651820 0.061275 0.524816
O O8 0.444136 0.117632 0.417261
O O9 0.413288 0.222888 0.250000
O O10 0.517443 0.182839 0.250000
O O11 0.444136 0.117632 0.082739
O O12 0.323719 0.500000 0.250000
O O13 0.250000 0.500000 0.000000
O O14 0.458092 0.913578 0.750000
O O15 0.464196 1.000000 0.980696
#
# Coordination Sequence:
#
# PCOD9332946 Si02
#       7
#     8   8   8   8   8   8   8
#     4  10  18  30  44  58  78 107 140 176 224 261
#     4  10  18  30  44  58  78 107 140 176 224 261
#     4   9  17  26  39  58  80 104 145 178 205 251
#     4  12  22  32  46  65  85 104 143 193 230 259
#     4   9  16  25  41  60  81 109 140 173 213 254
#     4   9  18  29  40  57  78 109 138 177 218 256
#     4   9  16  25  41  60  81 109 140 173 213 254
#
# _framework density 14.284385
#
# number of rings (size 3 to 8) (size 9 to 14) (size 15 to 20)
#    0.000    2.286    2.857    1.714    0.000    1.143 
#    0.000    5.714    0.000    0.000    0.000    0.000 
#    0.000    0.000    0.000    0.000    0.000    5.714 
#
# Total GULP energy -156046.623333 kJ/mol
# GULP energy per Si atom -5573.093690 kJ/mol
# Density = 1.425187 g / cm^3
# Si number density = 14.284385 Si / 1000 Ang^3
#
#
#
# Elastic Constant Matrix: (Units=GPa)
#
#
# Indices 1 2 3 4 5 6 
#
# 1 25.8324 28.3068 23.3403 0.0000 0.0000 0.0000
# 2 28.3068 130.5534 92.0957 0.0000 0.0000 0.0000
# 3 23.3403 92.0957 135.8596 0.0000 0.0000 0.0000
# 4 0.0000 0.0000 0.0000 11.1383 0.0000 0.0000
# 5 0.0000 0.0000 0.0000 0.0000 11.5306 0.0000
# 6 0.0000 0.0000 0.0000 0.0000 0.0000 7.8972
#
#
#
# Elastic Compliance Matrix: (Units=1/GPa)
#
#
# Indices 1 2 3 4 5 6 
#
# 1 0.051192 -0.009382 -0.002435 0.000000 0.000000 0.000000
# 2 -0.009382 0.016398 -0.009504 0.000000 0.000000 0.000000
# 3 -0.002435 -0.009504 0.014222 0.000000 0.000000 0.000000
# 4 0.000000 0.000000 0.000000 0.089781 0.000000 0.000000
# 5 0.000000 0.000000 0.000000 0.000000 0.086726 0.000000
# 6 0.000000 0.000000 0.000000 0.000000 0.000000 0.126627
#
#
# Mechanical properties :
#
#
# Convention : Reuss Voigt Hill
#
# Bulk Modulus (GPa) = 25.53001 64.41454 44.97228
# Shear Modulus (GPa) = 11.34705 16.01340 13.68023
#
# Velocity S-wave (km/s) = 2.82151 3.35183 3.09804
# Velocity P-wave (km/s) = 5.34098 7.75706 6.65950
#
# Compressibility (1/GPa) = 0.03916959
#
# Stress axis : x y z
#
# Youngs Moduli (GPa) = 19.53447 60.98135 70.31565
#
# Poissons Ratio (x) = 0.57211 0.17121
# Poissons Ratio (y) = 0.18327 0.66830
# Poissons Ratio (z) = 0.04756 0.57959
#
# Static dielectric constant tensor:
#      x y z
#    x 1.428700 0.000000 0.000000 
#    y 0.000000 1.457630 0.000000 
#    z 0.000000 0.000000 1.497000 
# 
# From -- ./inp_files/16090.got.cif
#   From: 2010.05.17/outbox.cif.g08.bks.cpg/sg24_9_cif.got.tgz:16090.got - 2010.06.04 00:33:39.
