data_PCOD9332396
_publ_section_title
;
Structure prediction by ZEFSAII (Michael W. Deem and Ramdas Pophale) SiO2 
 PCOD9332396
Probable space group: I 2 2 2
;
_chemical_formula_sum "Si O2"
_cell_formula_units_Z 34
_cell_length_a 18.731531
_cell_length_b 4.889934
_cell_length_c 15.467085
_cell_angle_alpha 90.000000
_cell_angle_beta 90.000000
_cell_angle_gamma 90.000000
_cell_volume 1416.722349
_symmetry_space_group_name_H-M "I 2 2 2"
_symmetry_group_IT_number 23
_symmetry_cell_setting 'orthorhombic'
loop_
_space_group_symop_operation_xyz
x,y,z
-x,-y,z
x,-y,-z
-x,y,-z
1/2+x,1/2+y,1/2+z
1/2-x,1/2-y,1/2+z
1/2+x,1/2-y,1/2-z
1/2-x,1/2+y,1/2-z
loop_
_atom_site_type_symbol
_atom_site_label
_atom_site_fract_x
_atom_site_fract_y
_atom_site_fract_z
Si Si1 0.000000 0.500000 0.000000
Si Si2 0.279825 0.387988 0.595768
Si Si3 0.582520 0.425490 0.904500
Si Si4 0.124842 0.622534 0.127463
Si Si5 0.136922 0.432400 0.317942
O O1 0.056200 0.362600 0.934326
O O2 0.259945 0.500000 0.500000
O O3 0.344320 0.575532 0.628004
O O4 0.215794 0.451811 0.661691
O O5 0.312064 0.083223 0.594406
O O6 0.500000 0.500000 0.896404
O O7 0.590762 0.107519 0.885456
O O8 0.627632 0.614421 0.839020
O O9 0.608533 0.500000 0.000000
O O10 0.110444 0.511794 0.223170
#
# Coordination Sequence:
#
# PCOD9332396 Si02
#       5
#     2   8   8   8   8
#     4  12  28  50  72 102 154 194 234 290 360 430
#     4  12  23  46  70 104 140 185 242 296 359 412
#     4  11  24  43  66 103 142 182 232 288 365 429
#     4  12  27  46  70 105 141 191 243 291 353 421
#     4  12  25  44  74 103 139 187 237 302 346 426
#
# _framework density 23.999058000000002
#
# number of rings (size 3 to 8) (size 9 to 14) (size 15 to 20)
#    0.000    0.235    2.353    7.059    3.294    3.765 
#    0.000    0.000    0.000    0.000    0.000    0.000 
#    0.000    0.000    0.000    0.000    0.000    0.000 
#
# Total GULP energy -95159.931954 kJ/mol
# GULP energy per Si atom -5597.643056 kJ/mol
# Density = 2.394443 g / cm^3
# Si number density = 23.999058 Si / 1000 Ang^3
#
#
#
# Elastic Constant Matrix: (Units=GPa)
#
#
# Indices 1 2 3 4 5 6 
#
# 1 97.7176 -3.4610 9.0191 0.0000 0.0000 0.0000
# 2 -3.4610 71.8595 1.0980 0.0000 0.0000 0.0000
# 3 9.0191 1.0980 137.8969 0.0000 0.0000 0.0000
# 4 0.0000 0.0000 0.0000 34.6954 0.0000 0.0000
# 5 0.0000 0.0000 0.0000 0.0000 25.6955 0.0000
# 6 0.0000 0.0000 0.0000 0.0000 0.0000 22.4086
#
#
#
# Elastic Compliance Matrix: (Units=1/GPa)
#
#
# Indices 1 2 3 4 5 6 
#
# 1 0.010314 0.000507 -0.000679 0.000000 0.000000 0.000000
# 2 0.000507 0.013943 -0.000144 0.000000 0.000000 0.000000
# 3 -0.000679 -0.000144 0.007297 0.000000 0.000000 0.000000
# 4 0.000000 0.000000 0.000000 0.028822 0.000000 0.000000
# 5 0.000000 0.000000 0.000000 0.000000 0.038917 0.000000
# 6 0.000000 0.000000 0.000000 0.000000 0.000000 0.044626
#
#
# Mechanical properties :
#
#
# Convention : Reuss Voigt Hill
#
# Bulk Modulus (GPa) = 32.33858 35.64289 33.99074
# Shear Modulus (GPa) = 32.28758 36.61445 34.45102
#
# Velocity S-wave (km/s) = 3.67191 3.91021 3.79293
# Velocity P-wave (km/s) = 5.61083 5.93888 5.77719
#
# Compressibility (1/GPa) = 0.03092281
#
# Stress axis : x y z
#
# Youngs Moduli (GPa) = 96.95397 71.72229 137.03644
#
# Poissons Ratio (x) = -0.03637 0.09300
# Poissons Ratio (y) = -0.04917 0.01976
# Poissons Ratio (z) = 0.06580 0.01034
#
# Static dielectric constant tensor:
#      x y z
#    x 1.933810 0.000000 0.000000 
#    y 0.000000 1.827810 0.000000 
#    z 0.000000 0.000000 1.941380 
# 
# From -- ./inp_files/21865.got.cif
#   From: 2010.05.17/outbox.cif.g08.bks.cpg/sg23_11_cif.got.tgz:21865.got - 2010.06.04 12:02:01.
