data_PCOD9332702
_publ_section_title
;
Structure prediction by ZEFSAII (Michael W. Deem and Ramdas Pophale) SiO2 
 PCOD9332702
Probable space group: I 21 21 21
;
_chemical_formula_sum "Si O2"
_cell_formula_units_Z 32
_cell_length_a 11.017379
_cell_length_b 16.161129
_cell_length_c 7.432474
_cell_angle_alpha 90.000000
_cell_angle_beta 90.000000
_cell_angle_gamma 90.000000
_cell_volume 1323.376398
_symmetry_space_group_name_H-M "I 21 21 21"
_symmetry_group_IT_number 24
_symmetry_cell_setting 'orthorhombic'
loop_
_space_group_symop_operation_xyz
x,y,z
-x,1/2-y,z
x,-y,1/2-z
1/2-x,y,-z
1/2+x,1/2+y,1/2+z
1/2-x,-y,1/2+z
1/2+x,1/2-y,-z
-x,1/2+y,1/2-z
loop_
_atom_site_type_symbol
_atom_site_label
_atom_site_fract_x
_atom_site_fract_y
_atom_site_fract_z
Si Si1 0.077507 0.674331 0.142323
Si Si2 0.109014 0.951539 0.004855
Si Si3 0.069596 0.876900 0.618820
Si Si4 0.663514 0.204145 0.228633
O O1 0.202839 0.667192 0.250016
O O2 0.000000 0.750000 0.220177
O O3 0.114157 0.701499 0.936307
O O4 0.987681 0.596392 0.128095
O O5 0.067912 0.922775 0.809303
O O6 0.106616 0.051194 0.018814
O O7 0.250000 0.925146 0.000000
O O8 0.154936 0.797418 0.652183
O O9 0.931740 0.845191 0.605435
#
# Coordination Sequence:
#
# PCOD9332702 Si02
#       4
#     8   8   8   8
#     4  10  16  26  50  80 106 127 171 221 268 307
#     4  10  18  29  49  83 106 136 171 223 273 326
#     4   9  17  30  50  78 104 135 178 217 268 321
#     4   9  16  29  49  78  99 139 174 214 260 326
#
# _framework density 24.180575999999999
#
# number of rings (size 3 to 8) (size 9 to 14) (size 15 to 20)
#    0.000    2.500    5.000    1.500    0.000    0.000 
#    0.000    0.000    0.000   45.000  123.500    0.000 
#    0.000    0.000    0.000    0.000    0.000    0.000 
#
# Total GULP energy -89301.343798 kJ/mol
# GULP energy per Si atom -5581.333987 kJ/mol
# Density = 2.412554 g / cm^3
# Si number density = 24.180576 Si / 1000 Ang^3
#
#
#
# Elastic Constant Matrix: (Units=GPa)
#
#
# Indices 1 2 3 4 5 6 
#
# 1 197.2696 83.7375 43.7388 0.0000 0.0000 0.0000
# 2 83.7375 161.3077 18.1694 0.0000 0.0000 0.0000
# 3 43.7388 18.1694 63.9079 0.0000 0.0000 0.0000
# 4 0.0000 0.0000 0.0000 -19.1828 0.0000 0.0000
# 5 0.0000 0.0000 0.0000 0.0000 23.3071 0.0000
# 6 0.0000 0.0000 0.0000 0.0000 0.0000 23.7541
#
#
#
# Elastic Compliance Matrix: (Units=1/GPa)
#
#
# Indices 1 2 3 4 5 6 
#
# 1 0.007420 -0.003388 -0.004115 0.000000 0.000000 0.000000
# 2 -0.003388 0.007952 0.000058 0.000000 0.000000 0.000000
# 3 -0.004115 0.000058 0.018447 0.000000 0.000000 0.000000
# 4 0.000000 0.000000 0.000000 -0.052130 0.000000 0.000000
# 5 0.000000 0.000000 0.000000 0.000000 0.042905 0.000000
# 6 0.000000 0.000000 0.000000 0.000000 0.000000 0.042098
#
#
# Mechanical properties :
#
#
# Convention : Reuss Voigt Hill
#
# Bulk Modulus (GPa) = 52.82928 79.30851 66.06890
# Shear Modulus (GPa) = 56.88844 24.03166 40.46005
#
# Velocity S-wave (km/s) = 4.85567 3.15595 4.09497
# Velocity P-wave (km/s) = 7.30288 6.79335 7.05272
#
# Compressibility (1/GPa) = 0.01892890
#
# Stress axis : x y z
#
# Youngs Moduli (GPa) = 134.77455 125.75977 54.20891
#
# Poissons Ratio (x) = 0.42611 0.22306
# Poissons Ratio (y) = 0.45665 -0.00316
# Poissons Ratio (z) = 0.55457 -0.00732
#
# Static dielectric constant tensor:
#      x y z
#    x 2.075100 0.000000 0.000000 
#    y 0.000000 1.977470 0.000000 
#    z 0.000000 0.000000 1.981640 
# 
# From -- ./inp_files/10233.got.cif
#   From: 2010.05.17/outbox.cif.g08.bks.cpg/sg24_6_cif.got.tgz:10233.got - 2010.06.04 00:33:39.
