data_PCOD9332851
_publ_section_title
;
Structure prediction by ZEFSAII (Michael W. Deem and Ramdas Pophale) SiO2 
 PCOD9332851
Probable space group: I 21 21 21
;
_chemical_formula_sum "Si O2"
_cell_formula_units_Z 48
_cell_length_a 12.381446
_cell_length_b 15.153088
_cell_length_c 10.233718
_cell_angle_alpha 90.000000
_cell_angle_beta 90.000000
_cell_angle_gamma 90.000000
_cell_volume 1920.020911
_symmetry_space_group_name_H-M "I 21 21 21"
_symmetry_group_IT_number 24
_symmetry_cell_setting 'orthorhombic'
loop_
_space_group_symop_operation_xyz
x,y,z
-x,1/2-y,z
x,-y,1/2-z
1/2-x,y,-z
1/2+x,1/2+y,1/2+z
1/2-x,-y,1/2+z
1/2+x,1/2-y,-z
-x,1/2+y,1/2-z
loop_
_atom_site_type_symbol
_atom_site_label
_atom_site_fract_x
_atom_site_fract_y
_atom_site_fract_z
Si Si1 0.969137 0.368456 0.564540
Si Si2 0.777743 0.500000 0.250000
Si Si3 0.500000 0.250000 0.664641
Si Si4 0.750000 0.287030 0.500000
Si Si5 0.121953 0.163913 0.829904
Si Si6 0.224092 0.304855 0.239836
Si Si7 0.852737 0.000000 0.250000
Si Si8 0.537976 0.543420 0.541666
O O1 0.853518 0.347875 0.497244
O O2 0.964192 0.333189 0.710932
O O3 0.984881 0.471576 0.569734
O O4 0.034987 0.324878 0.444073
O O5 0.702896 0.586829 0.271013
O O6 0.859510 0.512537 0.371807
O O7 0.395266 0.257601 0.757984
O O8 0.730050 0.226632 0.377777
O O9 0.192936 0.252154 0.852858
O O10 0.068079 0.131137 0.963713
O O11 0.217658 0.410363 0.250442
O O12 0.935892 0.968784 0.364192
#
# Coordination Sequence:
#
# PCOD9332851 Si02
#       8
#     8   4   4   4   8   8   4   8
#     4  10  17  33  57  93 123 161 208 290 342 403
#     4  11  20  32  58  90 131 168 216 275 346 422
#     4  10  18  34  60  92 134 160 238 284 350 406
#     4   8  18  32  62  90 124 156 236 284 326 404
#     4  11  22  35  63  96 135 167 230 290 359 403
#     4  10  21  38  62  99 128 183 230 295 335 439
#     4  11  24  40  68  96 143 188 234 275 368 430
#     4  11  21  35  58  99 133 172 218 289 349 431
#
# _framework density 24.999728000000001
#
# number of rings (size 3 to 8) (size 9 to 14) (size 15 to 20)
#    0.000    1.667    3.333    3.500    2.333    0.000 
#    0.000    0.000   11.000    4.000    0.000    0.000 
#    0.000    0.000    0.000    0.000    0.000    0.000 
#
# Total GULP energy -133656.542488 kJ/mol
# GULP energy per Si atom -5569.022604 kJ/mol
# Density = 2.494283 g / cm^3
# Si number density = 24.999728 Si / 1000 Ang^3
#
#
#
# Elastic Constant Matrix: (Units=GPa)
#
#
# Indices 1 2 3 4 5 6 
#
# 1 31.1778 34.1097 14.7306 0.0000 0.0000 0.0000
# 2 34.1097 154.7044 42.0946 0.0000 0.0000 0.0000
# 3 14.7306 42.0946 103.5467 0.0000 0.0000 0.0000
# 4 0.0000 0.0000 0.0000 31.0282 0.0000 0.0000
# 5 0.0000 0.0000 0.0000 0.0000 12.3882 0.0000
# 6 0.0000 0.0000 0.0000 0.0000 0.0000 29.9677
#
#
#
# Elastic Compliance Matrix: (Units=1/GPa)
#
#
# Indices 1 2 3 4 5 6 
#
# 1 0.042855 -0.008759 -0.002536 0.000000 0.000000 0.000000
# 2 -0.008759 0.009058 -0.002436 0.000000 0.000000 0.000000
# 3 -0.002536 -0.002436 0.011009 0.000000 0.000000 0.000000
# 4 0.000000 0.000000 0.000000 0.032229 0.000000 0.000000
# 5 0.000000 0.000000 0.000000 0.000000 0.080722 0.000000
# 6 0.000000 0.000000 0.000000 0.000000 0.000000 0.033369
#
#
# Mechanical properties :
#
#
# Convention : Reuss Voigt Hill
#
# Bulk Modulus (GPa) = 28.20117 52.36652 40.28384
# Shear Modulus (GPa) = 20.11889 27.90975 24.01432
#
# Velocity S-wave (km/s) = 2.83991 3.34489 3.10269
# Velocity P-wave (km/s) = 4.69665 5.99249 5.38370
#
# Compressibility (1/GPa) = 0.03545952
#
# Stress axis : x y z
#
# Youngs Moduli (GPa) = 23.33470 110.39959 90.83755
#
# Poissons Ratio (x) = 0.96696 0.23035
# Poissons Ratio (y) = 0.20438 0.22131
# Poissons Ratio (z) = 0.05917 0.26897
#
# Static dielectric constant tensor:
#      x y z
#    x 2.154830 0.000000 0.000000 
#    y 0.000000 2.273470 0.000000 
#    z 0.000000 0.000000 2.032790 
# 
# From -- ./inp_files/20801.got.cif
#   From: 2010.05.17/outbox.cif.g08.bks.cpg/sg24_11_cif.got.tgz:20801.got - 2010.06.04 00:33:39.
