data_PCOD9332356
_publ_section_title
;
Structure prediction by ZEFSAII (Michael W. Deem and Ramdas Pophale) SiO2 
 PCOD9332356
Probable space group: I 2 2 2
;
_chemical_formula_sum "Si O2"
_cell_formula_units_Z 28
_cell_length_a 5.187801
_cell_length_b 33.128426
_cell_length_c 7.338441
_cell_angle_alpha 90.000000
_cell_angle_beta 90.000000
_cell_angle_gamma 90.000000
_cell_volume 1261.211487
_symmetry_space_group_name_H-M "I 2 2 2"
_symmetry_group_IT_number 23
_symmetry_cell_setting 'orthorhombic'
loop_
_space_group_symop_operation_xyz
x,y,z
-x,-y,z
x,-y,-z
-x,y,-z
1/2+x,1/2+y,1/2+z
1/2-x,1/2-y,1/2+z
1/2+x,1/2-y,1/2-z
1/2-x,1/2+y,1/2-z
loop_
_atom_site_type_symbol
_atom_site_label
_atom_site_fract_x
_atom_site_fract_y
_atom_site_fract_z
Si Si1 0.000000 0.500000 0.000000
Si Si2 0.248839 0.857727 0.626260
Si Si3 0.126413 0.439882 0.693158
Si Si4 0.000000 0.000000 0.000000
Si Si5 0.878816 0.272876 0.200566
O O1 0.047247 0.464150 0.157733
O O2 0.500000 0.861096 0.500000
O O3 0.239467 0.900221 0.727629
O O4 0.292461 0.818243 0.751614
O O5 0.000000 0.850961 0.500000
O O6 0.335525 0.472206 0.631796
O O7 0.000000 0.428616 0.500000
O O8 0.620354 0.246099 0.193136
O O9 0.000000 0.275472 0.000000
#
# Coordination Sequence:
#
# PCOD9332356 Si02
#       5
#     2   8   8   2   8
#     4  12  22  50  68  98 148 200 232 304 374 418
#     4  11  26  47  73 106 146 195 245 301 371 436
#     4  12  27  46  71 105 146 192 253 300 366 442
#     4  12  26  46  68 106 144 180 258 302 342 460
#     4  11  23  45  73 105 146 191 241 296 365 438
#
# _framework density 22.200873999999999
#
# number of rings (size 3 to 8) (size 9 to 14) (size 15 to 20)
#    0.000    0.571    4.286    4.286    8.000    2.286 
#    2.571    0.000    0.000    0.000    0.000    0.000 
#    0.000    0.000    0.000    0.000    0.000    0.000 
#
# Total GULP energy -77937.480363 kJ/mol
# GULP energy per Si atom -5566.962883 kJ/mol
# Density = 2.215034 g / cm^3
# Si number density = 22.200874 Si / 1000 Ang^3
#
#
#
# Elastic Constant Matrix: (Units=GPa)
#
#
# Indices 1 2 3 4 5 6 
#
# 1 120.4267 48.9283 11.8958 0.0000 0.0000 0.0000
# 2 48.9283 192.3088 27.4788 0.0001 0.0000 -0.0001
# 3 11.8958 27.4788 68.1421 0.0002 0.0000 -0.0005
# 4 0.0000 0.0001 0.0002 40.8009 0.0001 0.0001
# 5 0.0000 0.0000 0.0000 0.0001 42.0826 0.0000
# 6 0.0000 -0.0001 -0.0005 0.0001 0.0000 59.1227
#
#
#
# Elastic Compliance Matrix: (Units=1/GPa)
#
#
# Indices 1 2 3 4 5 6 
#
# 1 0.009293 -0.002263 -0.000710 0.000000 0.000000 0.000000
# 2 -0.002263 0.006069 -0.002052 0.000000 0.000000 0.000000
# 3 -0.000710 -0.002052 0.015627 0.000000 0.000000 0.000000
# 4 0.000000 0.000000 0.000000 0.024509 0.000000 0.000000
# 5 0.000000 0.000000 0.000000 0.000000 0.023763 0.000000
# 6 0.000000 0.000000 0.000000 0.000000 0.000000 0.016914
#
#
# Mechanical properties :
#
#
# Convention : Reuss Voigt Hill
#
# Bulk Modulus (GPa) = 47.75817 61.94261 54.85039
# Shear Modulus (GPa) = 44.16764 47.90621 46.03693
#
# Velocity S-wave (km/s) = 4.46517 4.65031 4.55868
# Velocity P-wave (km/s) = 6.93846 7.53627 7.24353
#
# Compressibility (1/GPa) = 0.02093883
#
# Stress axis : x y z
#
# Youngs Moduli (GPa) = 107.60353 164.77180 63.99293
#
# Poissons Ratio (x) = 0.37289 0.04542
# Poissons Ratio (y) = 0.24351 0.13133
# Poissons Ratio (z) = 0.07638 0.33816
#
# Static dielectric constant tensor:
#      x y z
#    x 1.835600 0.000000 0.000000 
#    y 0.000000 1.832030 0.000000 
#    z 0.000000 0.000000 1.847620 
# 
# From -- ./inp_files/5709.got.cif
#   From: 2010.05.17/outbox.cif.g08.bks.cpg/sg23_3_cif.got.tgz:5709.got - 2010.06.04 12:02:01.
