data_PCOD9332697
_publ_section_title
;
Structure prediction by ZEFSAII (Michael W. Deem and Ramdas Pophale) SiO2 
 PCOD9332697
Probable space group: I 21 21 21
;
_chemical_formula_sum "Si O2"
_cell_formula_units_Z 64
_cell_length_a 12.474281
_cell_length_b 7.111112
_cell_length_c 28.652451
_cell_angle_alpha 90.000000
_cell_angle_beta 90.000000
_cell_angle_gamma 90.000000
_cell_volume 2541.644585
_symmetry_space_group_name_H-M "I 21 21 21"
_symmetry_group_IT_number 24
_symmetry_cell_setting 'orthorhombic'
loop_
_space_group_symop_operation_xyz
x,y,z
-x,1/2-y,z
x,-y,1/2-z
1/2-x,y,-z
1/2+x,1/2+y,1/2+z
1/2-x,-y,1/2+z
1/2+x,1/2-y,-z
-x,1/2+y,1/2-z
loop_
_atom_site_type_symbol
_atom_site_label
_atom_site_fract_x
_atom_site_fract_y
_atom_site_fract_z
Si Si1 0.196447 0.427347 0.848014
Si Si2 0.542458 0.539637 0.873474
Si Si3 0.252568 0.453095 0.048931
Si Si4 0.505753 0.027422 0.530134
Si Si5 0.519457 0.529982 0.195094
Si Si6 0.398782 0.630420 0.706288
Si Si7 0.776512 0.382562 0.644955
Si Si8 0.339885 0.878402 0.038408
O O1 0.211608 0.370119 0.902035
O O2 0.281076 0.326374 0.814145
O O3 0.222602 0.654912 0.847561
O O4 0.074937 0.417495 0.830337
O O5 0.500000 0.750000 0.880177
O O6 0.560352 0.454204 0.925077
O O7 0.455715 0.445831 0.840688
O O8 0.655507 0.552251 0.848175
O O9 0.327119 0.643084 0.040846
O O10 0.125891 0.497012 0.049483
O O11 0.250000 0.341747 0.000000
O O12 0.500000 0.250000 0.527315
O O13 0.442610 0.999233 0.480935
O O14 0.500000 0.750000 0.184336
O O15 0.510722 0.500000 0.250000
O O16 0.639464 0.509524 0.176968
O O17 0.500000 0.750000 0.725605
O O18 0.373856 0.500000 0.750000
O O19 0.812535 0.420781 0.591632
O O20 0.250000 0.918732 0.000000
#
# Coordination Sequence:
#
# PCOD9332697 Si02
#       8
#     8   8   8   8   8   8   8   8
#     4  10  20  41  61  87 129 166 202 262 325 384
#     4  11  19  37  60  88 130 165 198 262 324 383
#     4  10  18  27  48  87 120 161 201 243 310 373
#     4  11  16  25  47  78 127 160 195 252 307 371
#     4  10  23  42  63  85 118 165 213 265 316 375
#     4  12  26  43  65  95 121 161 212 271 339 402
#     4  10  20  34  60  90 125 164 207 254 316 383
#     4  10  16  25  43  83 123 156 190 241 307 360
#
# _framework density 25.180548000000002
#
# number of rings (size 3 to 8) (size 9 to 14) (size 15 to 20)
#    0.000    1.500    6.250    2.250    1.750    1.000 
#    4.500    0.000    0.000    0.000    3.250    1.750 
#    0.000    0.000    0.000    0.000    0.000    0.000 
#
# Total GULP energy -178374.033816 kJ/mol
# GULP energy per Si atom -5574.188557 kJ/mol
# Density = 2.512324 g / cm^3
# Si number density = 25.180548 Si / 1000 Ang^3
#
#
#
# Elastic Constant Matrix: (Units=GPa)
#
#
# Indices 1 2 3 4 5 6 
#
# 1 186.1711 19.8724 46.4858 0.0000 0.0000 0.0000
# 2 19.8724 76.3039 11.4866 0.0000 0.0000 0.0001
# 3 46.4858 11.4866 112.6880 0.0000 0.0000 0.0000
# 4 0.0000 0.0000 0.0000 2.4837 0.0000 0.0000
# 5 0.0000 0.0000 0.0000 0.0000 30.9370 0.0000
# 6 0.0000 0.0001 0.0000 0.0000 0.000030398.7022
#
#
#
# Elastic Compliance Matrix: (Units=1/GPa)
#
#
# Indices 1 2 3 4 5 6 
#
# 1 0.006100 -0.001229 -0.002391 0.000000 0.000000 0.000000
# 2 -0.001229 0.013557 -0.000875 0.000000 0.000000 0.000000
# 3 -0.002391 -0.000875 0.009950 0.000000 0.000000 0.000000
# 4 0.000000 0.000000 0.000000 0.402623 0.000000 0.000000
# 5 0.000000 0.000000 0.000000 0.000000 0.032324 0.000000
# 6 0.000000 0.000000 0.000000 0.000000 0.000000 0.000033
#
#
# Mechanical properties :
#
#
# Convention : Reuss Voigt Hill
#
# Bulk Modulus (GPa) = 48.50363 58.98360 53.74362
# Shear Modulus (GPa) = 10.40696 6106.24578 3058.32637
#
# Velocity S-wave (km/s) = 2.03517 49.29756 34.88833
# Velocity P-wave (km/s) = 4.98264 57.12975 40.55018
#
# Compressibility (1/GPa) = 0.02061702
#
# Stress axis : x y z
#
# Youngs Moduli (GPa) = 163.94645 73.76147 100.50693
#
# Poissons Ratio (x) = 0.09063 0.24031
# Poissons Ratio (y) = 0.20143 0.08795
# Poissons Ratio (z) = 0.39199 0.06455
#
# Static dielectric constant tensor:
#      x y z
#    x 1.917990 0.000000 0.000000 
#    y 0.000000 2.132630 0.000000 
#    z 0.000000 0.000000 -4.697140 
# 
# From -- ./inp_files/38610.got.cif
#   From: 2010.05.17/outbox.cif.g08.bks.cpg/sg24_20_cif.got.tgz:38610.got - 2010.06.04 00:33:39.
