data_PCOD9332505
_publ_section_title
;
Structure prediction by ZEFSAII (Michael W. Deem and Ramdas Pophale) SiO2 
 PCOD9332505
Probable space group: I 2 2 2
;
_chemical_formula_sum "Si O2"
_cell_formula_units_Z 24
_cell_length_a 14.152467
_cell_length_b 8.245649
_cell_length_c 6.834702
_cell_angle_alpha 90.000000
_cell_angle_beta 90.000000
_cell_angle_gamma 90.000000
_cell_volume 797.584267
_symmetry_space_group_name_H-M "I 2 2 2"
_symmetry_group_IT_number 23
_symmetry_cell_setting 'orthorhombic'
loop_
_space_group_symop_operation_xyz
x,y,z
-x,-y,z
x,-y,-z
-x,y,-z
1/2+x,1/2+y,1/2+z
1/2-x,1/2-y,1/2+z
1/2+x,1/2-y,1/2-z
1/2-x,1/2+y,1/2-z
loop_
_atom_site_type_symbol
_atom_site_label
_atom_site_fract_x
_atom_site_fract_y
_atom_site_fract_z
Si Si1 0.342803 0.150217 0.867085
Si Si2 0.656151 0.158274 0.528427
Si Si3 0.999787 0.190027 0.699016
O O1 0.317715 0.023766 0.657147
O O2 0.242494 0.223730 0.922988
O O3 0.423517 0.283529 0.993528
O O4 0.373398 0.000000 0.000000
O O5 0.604078 0.246411 0.319139
O O6 0.566486 0.200057 0.664235
O O7 0.000000 0.000000 0.742688
#
# Coordination Sequence:
#
# PCOD9332505 Si02
#       3
#     8   8   8
#     4  12  28  50  85 123 169 219 283 349 423 501
#     4  12  28  50  84 124 169 221 281 349 421 502
#     4  11  27  50  85 124 169 219 280 346 421 505
#
# _framework density 30.090864
#
# number of rings (size 3 to 8) (size 9 to 14) (size 15 to 20)
#    0.000    0.333    0.000    7.000   14.000    7.333 
#    0.000    0.000    0.000    0.000    0.000    0.000 
#    0.000    0.000    0.000    0.000    0.000    0.000 
#
# Total GULP energy -66990.242143 kJ/mol
# GULP energy per Si atom -5582.520179 kJ/mol
# Density = 3.002238 g / cm^3
# Si number density = 30.090864 Si / 1000 Ang^3
#
#
#
# Elastic Constant Matrix: (Units=GPa)
#
#
# Indices 1 2 3 4 5 6 
#
# 1 294.3606 95.7825 47.3409 0.0000 0.0000 0.0000
# 2 95.7825 307.8309 31.5105 0.0000 0.0000 0.0000
# 3 47.3409 31.5105 358.1579 0.0000 0.0000 0.0000
# 4 0.0000 0.0000 0.0000 58.4609 0.0000 0.0000
# 5 0.0000 0.0000 0.0000 0.0000 44.1292 0.0000
# 6 0.0000 0.0000 0.0000 0.0000 0.0000 96.8379
#
#
#
# Elastic Compliance Matrix: (Units=1/GPa)
#
#
# Indices 1 2 3 4 5 6 
#
# 1 0.003837 -0.001153 -0.000406 0.000000 0.000000 0.000000
# 2 -0.001153 0.003624 -0.000167 0.000000 0.000000 0.000000
# 3 -0.000406 -0.000167 0.002860 0.000000 0.000000 0.000000
# 4 0.000000 0.000000 0.000000 0.017105 0.000000 0.000000
# 5 0.000000 0.000000 0.000000 0.000000 0.022661 0.000000
# 6 0.000000 0.000000 0.000000 0.000000 0.000000 0.010327
#
#
# Mechanical properties :
#
#
# Convention : Reuss Voigt Hill
#
# Bulk Modulus (GPa) = 145.51145 145.51304 145.51224
# Shear Modulus (GPa) = 75.57984 92.26662 83.92323
#
# Velocity S-wave (km/s) = 5.01714 5.54340 5.28682
# Velocity P-wave (km/s) = 9.05675 9.45702 9.25904
#
# Compressibility (1/GPa) = 0.00687231
#
# Stress axis : x y z
#
# Youngs Moduli (GPa) = 260.58784 275.92406 349.60658
#
# Poissons Ratio (x) = 0.31800 0.14188
# Poissons Ratio (y) = 0.30033 0.05822
# Poissons Ratio (z) = 0.10576 0.04595
#
# Static dielectric constant tensor:
#      x y z
#    x 2.188560 0.000000 0.000000 
#    y 0.000000 2.238820 0.000000 
#    z 0.000000 0.000000 2.833530 
# 
# From -- ./inp_files/9104.got.cif
#   From: 2010.05.17/outbox.cif.g08.bks.cpg/sg23_5_cif.got.tgz:9104.got - 2010.06.04 12:02:01.
