data_PCOD9332172
_publ_section_title
;
Structure prediction by ZEFSAII (Michael W. Deem and Ramdas Pophale) SiO2 
 PCOD9332172
Probable space group: I 2 2 2
;
_chemical_formula_sum "Si O2"
_cell_formula_units_Z 64
_cell_length_a 29.345955
_cell_length_b 7.420721
_cell_length_c 11.843292
_cell_angle_alpha 90.000000
_cell_angle_beta 90.000000
_cell_angle_gamma 90.000000
_cell_volume 2579.091724
_symmetry_space_group_name_H-M "I 2 2 2"
_symmetry_group_IT_number 23
_symmetry_cell_setting 'orthorhombic'
loop_
_space_group_symop_operation_xyz
x,y,z
-x,-y,z
x,-y,-z
-x,y,-z
1/2+x,1/2+y,1/2+z
1/2-x,1/2-y,1/2+z
1/2+x,1/2-y,1/2-z
1/2-x,1/2+y,1/2-z
loop_
_atom_site_type_symbol
_atom_site_label
_atom_site_fract_x
_atom_site_fract_y
_atom_site_fract_z
Si Si1 0.513194 0.707788 0.875711
Si Si2 0.790066 0.790301 0.955569
Si Si3 0.072480 0.687931 0.260883
Si Si4 0.660282 0.602988 0.235410
Si Si5 0.890985 0.639727 0.359344
Si Si6 0.142592 0.276815 0.143125
Si Si7 0.690352 0.220868 0.994874
Si Si8 0.446076 0.720165 0.507787
O O1 0.500000 0.500000 0.875140
O O2 0.480871 0.792493 0.782840
O O3 0.565205 0.737162 0.845499
O O4 0.500000 0.776735 0.000000
O O5 0.815737 0.788318 0.837319
O O6 0.819675 0.689939 0.049864
O O7 0.738107 0.725965 0.948843
O O8 0.789688 0.000000 0.000000
O O9 0.107588 0.848582 0.281824
O O10 0.086336 0.556314 0.367532
O O11 0.072682 0.686655 0.123041
O O12 0.658241 0.401954 0.287262
O O13 0.685687 0.671614 0.122452
O O14 0.863310 0.586816 0.245215
O O15 0.856492 0.744448 0.438473
O O16 0.092801 0.264518 0.085427
O O17 0.691462 0.000000 0.000000
O O18 0.445407 0.500000 0.500000
O O19 0.500000 0.769661 0.500000
#
# Coordination Sequence:
#
# PCOD9332172 Si02
#       8
#     8   8   8   8   8   8   8   8
#     4  11  26  45  69 100 139 187 242 292 357 439
#     4   9  21  42  70 100 134 187 236 292 363 426
#     4  12  23  42  69 101 143 188 234 288 362 426
#     4  11  21  42  74  95 135 187 236 289 353 432
#     4  12  27  42  67 104 142 186 235 298 362 430
#     4  11  22  44  67 100 140 183 238 296 350 428
#     4  11  24  43  69 104 140 181 235 296 365 434
#     4  11  22  38  69 105 138 184 235 284 349 427
#
# _framework density 24.814938999999999
#
# number of rings (size 3 to 8) (size 9 to 14) (size 15 to 20)
#    0.000    1.000    3.750    3.000    3.500    2.500 
#    0.000    0.625    2.750    0.000    0.000    0.000 
#    0.000    0.000    0.000    0.000    0.000    0.000 
#
# Total GULP energy -178406.906238 kJ/mol
# GULP energy per Si atom -5575.215820 kJ/mol
# Density = 2.475846 g / cm^3
# Si number density = 24.814939 Si / 1000 Ang^3
#
#
#
# Elastic Constant Matrix: (Units=GPa)
#
#
# Indices 1 2 3 4 5 6 
#
# 1 165.7017 21.8683 43.0810 0.0000 0.0000 0.0000
# 2 21.8683 58.8572 18.1842 0.0000 0.0000 0.0000
# 3 43.0810 18.1842 135.4317 0.0000 0.0000 0.0000
# 4 0.0000 0.0000 0.0000 35.2085 0.0000 0.0000
# 5 0.0000 0.0000 0.0000 0.0000 37.2055 0.0000
# 6 0.0000 0.0000 0.0000 0.0000 0.0000 -1.6338
#
#
#
# Elastic Compliance Matrix: (Units=1/GPa)
#
#
# Indices 1 2 3 4 5 6 
#
# 1 0.006784 -0.001934 -0.001898 0.000000 0.000000 0.000000
# 2 -0.001934 0.018277 -0.001839 0.000000 0.000000 0.000000
# 3 -0.001898 -0.001839 0.008235 0.000000 0.000000 0.000000
# 4 0.000000 0.000000 0.000000 0.028402 0.000000 0.000000
# 5 0.000000 0.000000 0.000000 0.000000 0.026878 0.000000
# 6 0.000000 0.000000 0.000000 0.000000 0.000000 -0.612074
#
#
# Mechanical properties :
#
#
# Convention : Reuss Voigt Hill
#
# Bulk Modulus (GPa) = 45.55166 58.47307 52.01237
# Shear Modulus (GPa) = -9.90415 32.61318 11.35452
#
# Velocity S-wave (km/s) = -1.99997 3.62920 2.14140
# Velocity P-wave (km/s) = 3.61431 6.41687 5.20766
#
# Compressibility (1/GPa) = 0.02195309
#
# Stress axis : x y z
#
# Youngs Moduli (GPa) = 147.41208 54.71366 121.43995
#
# Poissons Ratio (x) = 0.10582 0.23052
# Poissons Ratio (y) = 0.28510 0.22331
# Poissons Ratio (z) = 0.27982 0.10061
#
# Static dielectric constant tensor:
#      x y z
#    x 1.943830 0.000000 0.000000 
#    y 0.000000 2.111160 0.000000 
#    z 0.000000 0.000000 2.052420 
# 
# From -- ./inp_files/18820.got.cif
#   From: 2010.05.17/outbox.cif.g08.bks.cpg/sg23_10_cif.got.tgz:18820.got - 2010.06.04 12:02:01.
