data_PCOD9332212
_publ_section_title
;
Structure prediction by ZEFSAII (Michael W. Deem and Ramdas Pophale) SiO2 
 PCOD9332212
Probable space group: I 2 2 2
;
_chemical_formula_sum "Si O2"
_cell_formula_units_Z 26
_cell_length_a 7.225348
_cell_length_b 7.508249
_cell_length_c 22.115673
_cell_angle_alpha 90.000000
_cell_angle_beta 90.000000
_cell_angle_gamma 90.000000
_cell_volume 1199.768889
_symmetry_space_group_name_H-M "I 2 2 2"
_symmetry_group_IT_number 23
_symmetry_cell_setting 'orthorhombic'
loop_
_space_group_symop_operation_xyz
x,y,z
-x,-y,z
x,-y,-z
-x,y,-z
1/2+x,1/2+y,1/2+z
1/2-x,1/2-y,1/2+z
1/2+x,1/2-y,1/2-z
1/2-x,1/2+y,1/2-z
loop_
_atom_site_type_symbol
_atom_site_label
_atom_site_fract_x
_atom_site_fract_y
_atom_site_fract_z
Si Si1 0.741403 0.137145 0.681443
Si Si2 0.832750 0.743087 0.680535
Si Si3 0.500000 0.000000 0.000000
Si Si4 0.805691 0.068473 0.091489
O O1 0.690494 0.178715 0.750558
O O2 0.644664 0.263370 0.633150
O O3 0.954674 0.199124 0.673611
O O4 0.722539 0.927247 0.671437
O O5 0.774232 0.586573 0.635544
O O6 0.355950 0.105999 0.957165
O O7 0.000000 0.000000 0.065692
#
# Coordination Sequence:
#
# PCOD9332212 Si02
#       4
#     8   8   2   8
#     4  11  22  38  65 102 141 176 221 285 351 406
#     4  11  22  38  65 102 141 176 221 285 351 406
#     4  12  26  52  70  94 148 186 238 274 326 430
#     4  12  25  45  71 100 133 185 233 278 343 406
#
# _framework density 21.670839999999998
#
# number of rings (size 3 to 8) (size 9 to 14) (size 15 to 20)
#    0.000    0.615    6.154    2.308    0.000    3.692 
#    0.000    3.077    0.000    3.692    0.000    0.000 
#    0.000    0.000    0.000    0.000    0.000    0.000 
#
# Total GULP energy -72711.404742 kJ/mol
# GULP energy per Si atom -5593.184980 kJ/mol
# Density = 2.162152 g / cm^3
# Si number density = 21.670840 Si / 1000 Ang^3
#
#
#
# Elastic Constant Matrix: (Units=GPa)
#
#
# Indices 1 2 3 4 5 6 
#
# 1 107.2108 15.5774 36.9007 0.0000 0.0000 0.0000
# 2 15.5774 134.8601 43.7274 0.0000 0.0000 0.0000
# 3 36.9007 43.7274 118.6426 0.0000 0.0000 0.0000
# 4 0.0000 0.0000 0.0000 -0.9258 0.0000 0.0000
# 5 0.0000 0.0000 0.0000 0.0000 -50.5826 0.0000
# 6 0.0000 0.0000 0.0000 0.0000 0.0000 34.9637
#
#
#
# Elastic Compliance Matrix: (Units=1/GPa)
#
#
# Indices 1 2 3 4 5 6 
#
# 1 0.010449 -0.000174 -0.003186 0.000000 0.000000 0.000000
# 2 -0.000174 0.008424 -0.003051 0.000000 0.000000 0.000000
# 3 -0.003186 -0.003051 0.010544 0.000000 0.000000 0.000000
# 4 0.000000 0.000000 0.000000 -1.080148 0.000000 0.000000
# 5 0.000000 0.000000 0.000000 0.000000 -0.019770 0.000000
# 6 0.000000 0.000000 0.000000 0.000000 0.000000 0.028601
#
#
# Mechanical properties :
#
#
# Convention : Reuss Voigt Hill
#
# Bulk Modulus (GPa) = 60.25432 61.45827 60.85630
# Shear Modulus (GPa) = -4.88498 14.32493 4.71998
#
# Velocity S-wave (km/s) = -1.50302 2.57383 1.47742
# Velocity P-wave (km/s) = 4.98524 6.10362 5.57256
#
# Compressibility (1/GPa) = 0.01659632
#
# Stress axis : x y z
#
# Youngs Moduli (GPa) = 95.70081 118.70298 94.84092
#
# Poissons Ratio (x) = 0.02065 0.30215
# Poissons Ratio (y) = 0.01665 0.28934
# Poissons Ratio (z) = 0.30489 0.36214
#
# Static dielectric constant tensor:
#      x y z
#    x 1.864860 0.000000 0.000000 
#    y 0.000000 1.786940 0.000000 
#    z 0.000000 0.000000 1.765940 
# 
# From -- ./inp_files/11546.got.cif
#   From: 2010.05.17/outbox.cif.g08.bks.cpg/sg23_6_cif.got.tgz:11546.got - 2010.06.04 12:02:01.
