data_PCOD9332882
_publ_section_title
;
Structure prediction by ZEFSAII (Michael W. Deem and Ramdas Pophale) SiO2 
 PCOD9332882
Probable space group: I 21 21 21
;
_chemical_formula_sum "Si O2"
_cell_formula_units_Z 64
_cell_length_a 8.858474
_cell_length_b 25.750468
_cell_length_c 12.251655
_cell_angle_alpha 90.000000
_cell_angle_beta 90.000000
_cell_angle_gamma 90.000000
_cell_volume 2794.723200
_symmetry_space_group_name_H-M "I 21 21 21"
_symmetry_group_IT_number 24
_symmetry_cell_setting 'orthorhombic'
loop_
_space_group_symop_operation_xyz
x,y,z
-x,1/2-y,z
x,-y,1/2-z
1/2-x,y,-z
1/2+x,1/2+y,1/2+z
1/2-x,-y,1/2+z
1/2+x,1/2-y,-z
-x,1/2+y,1/2-z
loop_
_atom_site_type_symbol
_atom_site_label
_atom_site_fract_x
_atom_site_fract_y
_atom_site_fract_z
Si Si1 0.909341 0.078609 0.259084
Si Si2 0.880789 0.605751 0.412022
Si Si3 0.026010 0.655564 0.609354
Si Si4 0.944387 0.942142 0.766697
Si Si5 0.504408 0.307512 0.421535
Si Si6 0.763451 0.694622 0.732377
Si Si7 0.276544 0.690592 0.748334
Si Si8 0.931970 0.909630 0.009631
O O1 0.737956 0.058095 0.248745
O O2 0.883952 0.141539 0.266046
O O3 0.971290 0.062690 0.377775
O O4 0.019171 0.066133 0.158777
O O5 0.750000 0.589486 0.500000
O O6 0.817213 0.645498 0.321253
O O7 0.994692 0.637905 0.488185
O O8 0.002294 0.603786 0.686178
O O9 0.189275 0.676573 0.637095
O O10 0.905301 0.698264 0.648565
O O11 0.003040 0.000000 0.750000
O O12 0.982887 0.929672 0.891985
O O13 0.500000 0.250000 0.468242
O O14 0.653247 0.314271 0.347821
O O15 0.357483 0.312272 0.341102
O O16 0.491358 0.351055 0.511012
O O17 0.677448 0.749317 0.741425
O O18 0.750000 0.909497 0.000000
#
# Coordination Sequence:
#
# PCOD9332882 Si02
#       8
#     8   8   8   8   8   8   8   8
#     4  10  21  38  55  85 126 157 195 257 313 349
#     4  10  22  39  54  78 118 169 207 248 289 357
#     4   9  17  36  57  80 118 156 193 249 310 354
#     4  10  20  37  66  98 114 143 192 257 329 383
#     4   9  15  30  56  81 116 162 192 237 299 365
#     4   9  17  33  54  80 115 163 206 234 281 362
#     4   9  16  31  55  82 117 155 203 245 299 357
#     4  10  17  36  58  84 125 151 181 254 313 364
#
# _framework density 22.900299
#
# number of rings (size 3 to 8) (size 9 to 14) (size 15 to 20)
#    0.000    2.500    5.000    1.125    0.000    2.500 
#   20.250    0.625    0.000    3.000    0.000    0.000 
#    0.000    0.000    0.000    0.000    0.000    0.000 
#
# Total GULP energy -178409.481992 kJ/mol
# GULP energy per Si atom -5575.296312 kJ/mol
# Density = 2.284818 g / cm^3
# Si number density = 22.900299 Si / 1000 Ang^3
#
#
#
# Elastic Constant Matrix: (Units=GPa)
#
#
# Indices 1 2 3 4 5 6 
#
# 1 59.2761 8.4158 34.0738 0.0000 0.0000 0.0000
# 2 8.4158 88.0656 5.3184 0.0000 0.0000 0.0000
# 3 34.0738 5.3184 53.4891 0.0003 -0.0001 0.0000
# 4 0.0000 0.0000 0.0003 -5.5446 0.0000 0.0000
# 5 0.0000 0.0000 -0.0001 0.0000 10.9303 0.0000
# 6 0.0000 0.0000 0.0000 0.0000 0.0000 -0.8391
#
#
#
# Elastic Compliance Matrix: (Units=1/GPa)
#
#
# Indices 1 2 3 4 5 6 
#
# 1 0.026823 -0.001541 -0.016934 -0.000001 0.000000 0.000001
# 2 -0.001541 0.011512 -0.000163 0.000000 0.000000 0.000000
# 3 -0.016934 -0.000163 0.029499 0.000001 0.000000 -0.000001
# 4 -0.000001 0.000000 0.000001 -0.180357 0.000001 0.000003
# 5 0.000000 0.000000 0.000000 0.000001 0.091489 0.000001
# 6 0.000001 0.000000 -0.000001 0.000003 0.000001 -1.191721
#
#
# Mechanical properties :
#
#
# Convention : Reuss Voigt Hill
#
# Bulk Modulus (GPa) = 32.72367 32.93852 32.83110
# Shear Modulus (GPa) = -4.29076 11.11085 3.41004
#
# Velocity S-wave (km/s) = -1.37031 2.20508 1.22160
# Velocity P-wave (km/s) = 3.43759 4.57141 4.04443
#
# Compressibility (1/GPa) = 0.03055892
#
# Stress axis : x y z
#
# Youngs Moduli (GPa) = 37.28156 86.86394 33.89977
#
# Poissons Ratio (x) = 0.13383 0.57405
# Poissons Ratio (y) = 0.05744 0.00553
# Poissons Ratio (z) = 0.63131 0.01418
#
# Static dielectric constant tensor:
#      x y z
#    x 1.915620 0.000000 0.000000 
#    y 0.000000 1.885860 0.000000 
#    z 0.000000 0.000000 1.851710 
# 
# From -- ./inp_files/20203.got.cif
#   From: 2010.05.17/outbox.cif.g08.bks.cpg/sg24_11_cif.got.tgz:20203.got - 2010.06.04 00:33:39.
