data_PCOD9332487
_publ_section_title
;
Structure prediction by ZEFSAII (Michael W. Deem and Ramdas Pophale) SiO2 
 PCOD9332487
Probable space group: I 2 2 2
;
_chemical_formula_sum "Si O2"
_cell_formula_units_Z 38
_cell_length_a 9.549732
_cell_length_b 8.458571
_cell_length_c 20.566540
_cell_angle_alpha 90.000000
_cell_angle_beta 90.000000
_cell_angle_gamma 90.000000
_cell_volume 1661.305173
_symmetry_space_group_name_H-M "I 2 2 2"
_symmetry_group_IT_number 23
_symmetry_cell_setting 'orthorhombic'
loop_
_space_group_symop_operation_xyz
x,y,z
-x,-y,z
x,-y,-z
-x,y,-z
1/2+x,1/2+y,1/2+z
1/2-x,1/2-y,1/2+z
1/2+x,1/2-y,1/2-z
1/2-x,1/2+y,1/2-z
loop_
_atom_site_type_symbol
_atom_site_label
_atom_site_fract_x
_atom_site_fract_y
_atom_site_fract_z
Si Si1 0.177446 0.228123 0.590581
Si Si2 0.501908 0.187539 0.422181
Si Si3 0.766074 0.711235 0.342075
Si Si4 0.000000 0.500000 0.588169
Si Si5 0.651191 0.546505 0.217881
Si Si6 0.500000 0.500000 0.000000
O O1 0.343516 0.244521 0.595880
O O2 0.112887 0.383596 0.558124
O O3 0.135455 0.184116 0.664303
O O4 0.107893 0.093107 0.546351
O O5 0.500000 0.200677 0.500000
O O6 0.371709 0.274810 0.387954
O O7 0.500000 0.000000 0.405430
O O8 0.740295 0.608597 0.277568
O O9 0.897723 0.626730 0.375968
O O10 0.793105 0.891458 0.319175
O O11 0.500000 0.500000 0.244464
#
# Coordination Sequence:
#
# PCOD9332487 Si02
#       6
#     8   8   8   4   8   2
#     4  12  26  47  78 111 150 200 254 318 390 467
#     4  11  26  49  81 112 151 204 261 326 394 469
#     4  12  28  48  77 114 154 201 261 325 398 472
#     4  12  28  49  74 114 150 199 256 314 384 474
#     4  12  26  46  75 108 153 199 255 318 392 469
#     4  12  24  50  82 108 152 202 268 320 392 486
#
# _framework density 22.873581999999999
#
# number of rings (size 3 to 8) (size 9 to 14) (size 15 to 20)
#    0.000    0.211    5.263    2.526    8.842    0.421 
#    1.895    1.053    0.000    0.000    0.000    0.000 
#    0.000    0.000    0.000    0.000    0.000    0.000 
#
# Total GULP energy -106168.887231 kJ/mol
# GULP energy per Si atom -5587.836170 kJ/mol
# Density = 2.282152 g / cm^3
# Si number density = 22.873582 Si / 1000 Ang^3
#
#
#
# Elastic Constant Matrix: (Units=GPa)
#
#
# Indices 1 2 3 4 5 6 
#
# 1 148.2528 47.2981 21.5813 0.0000 0.0000 0.0000
# 2 47.2981 89.8095 21.2359 0.0000 0.0000 0.0000
# 3 21.5813 21.2359 57.1575 0.0000 0.0000 0.0000
# 4 0.0000 0.0000 0.0000 12.3144 0.0000 0.0000
# 5 0.0000 0.0000 0.0000 0.0000 18.3402 0.0000
# 6 0.0000 0.0000 0.0000 0.0000 0.0000 25.6325
#
#
#
# Elastic Compliance Matrix: (Units=1/GPa)
#
#
# Indices 1 2 3 4 5 6 
#
# 1 0.008246 -0.003954 -0.001644 0.000000 0.000000 0.000000
# 2 -0.003954 0.014103 -0.003747 0.000000 0.000000 0.000000
# 3 -0.001644 -0.003747 0.019509 0.000000 0.000000 0.000000
# 4 0.000000 0.000000 0.000000 0.081206 0.000000 0.000000
# 5 0.000000 0.000000 0.000000 0.000000 0.054525 0.000000
# 6 0.000000 0.000000 0.000000 0.000000 0.000000 0.039013
#
#
# Mechanical properties :
#
#
# Convention : Reuss Voigt Hill
#
# Bulk Modulus (GPa) = 43.16475 52.82784 47.99629
# Shear Modulus (GPa) = 20.57494 24.93106 22.75300
#
# Velocity S-wave (km/s) = 3.00243 3.30502 3.15735
# Velocity P-wave (km/s) = 5.56160 6.14084 5.85839
#
# Compressibility (1/GPa) = 0.02316705
#
# Stress axis : x y z
#
# Youngs Moduli (GPa) = 121.26979 70.90704 51.25969
#
# Poissons Ratio (x) = 0.28036 0.08430
# Poissons Ratio (y) = 0.47949 0.19206
# Poissons Ratio (z) = 0.19943 0.26568
#
# Static dielectric constant tensor:
#      x y z
#    x 1.932260 0.000000 0.000000 
#    y 0.000000 1.893350 0.000000 
#    z 0.000000 0.000000 1.912650 
# 
# From -- ./inp_files/6953.got.cif
#   From: 2010.05.17/outbox.cif.g08.bks.cpg/sg23_4_cif.got.tgz:6953.got - 2010.06.04 12:02:01.
