data_PCOD9332976
_publ_section_title
;
Structure prediction by ZEFSAII (Michael W. Deem and Ramdas Pophale) SiO2 
 PCOD9332976
Probable space group: I 21 21 21
;
_chemical_formula_sum "Si O2"
_cell_formula_units_Z 48
_cell_length_a 7.788387
_cell_length_b 16.084775
_cell_length_c 20.692935
_cell_angle_alpha 90.000000
_cell_angle_beta 90.000000
_cell_angle_gamma 90.000000
_cell_volume 2592.296103
_symmetry_space_group_name_H-M "I 21 21 21"
_symmetry_group_IT_number 24
_symmetry_cell_setting 'orthorhombic'
loop_
_space_group_symop_operation_xyz
x,y,z
-x,1/2-y,z
x,-y,1/2-z
1/2-x,y,-z
1/2+x,1/2+y,1/2+z
1/2-x,-y,1/2+z
1/2+x,1/2-y,-z
-x,1/2+y,1/2-z
loop_
_atom_site_type_symbol
_atom_site_label
_atom_site_fract_x
_atom_site_fract_y
_atom_site_fract_z
Si Si1 0.343265 0.182740 0.798280
Si Si2 0.237427 0.702899 0.862869
Si Si3 0.397998 0.835881 0.553005
Si Si4 0.075374 0.980300 0.042073
Si Si5 0.750000 0.130461 0.500000
Si Si6 0.000000 0.750000 0.762875
Si Si7 0.406171 0.880486 0.832626
O O1 0.500000 0.250000 0.790143
O O2 0.338557 0.157694 0.872607
O O3 0.372931 0.112013 0.743887
O O4 0.159859 0.222031 0.779830
O O5 0.296978 0.798515 0.853586
O O6 0.396827 0.646923 0.841333
O O7 0.081797 0.685043 0.814085
O O8 0.203925 0.684896 0.937381
O O9 0.500000 0.750000 0.548086
O O10 0.250000 0.830987 0.500000
O O11 0.487743 0.924251 0.539846
O O12 0.122028 0.952368 0.115324
O O13 0.250000 0.972054 0.000000
O O14 0.919130 0.923167 0.017231
#
# Coordination Sequence:
#
# PCOD9332976 Si02
#       7
#     8   8   8   8   4   4   8
#     4  10  19  37  58  88 116 149 194 243 295 349
#     4   9  18  30  52  89 120 163 189 215 278 344
#     4  10  24  43  65  85 107 149 202 257 311 345
#     4  10  23  39  56  87 120 158 196 242 287 344
#     4  10  22  34  56  86 126 160 198 226 278 348
#     4  10  18  30  58  86 118 152 196 238 270 350
#     4   9  17  35  55  83 128 150 188 232 277 358
#
# _framework density 18.516401999999999
#
# number of rings (size 3 to 8) (size 9 to 14) (size 15 to 20)
#    0.000    2.333    3.333    0.000    8.167    2.000 
#    0.000    0.000    0.000    0.000    8.667    0.000 
#    0.000    0.000    0.000    0.000    0.000    0.000 
#
# Total GULP energy -133624.730385 kJ/mol
# GULP energy per Si atom -5567.697099 kJ/mol
# Density = 1.847426 g / cm^3
# Si number density = 18.516402 Si / 1000 Ang^3
#
#
#
# Elastic Constant Matrix: (Units=GPa)
#
#
# Indices 1 2 3 4 5 6 
#
# 1 93.8347 14.1176 27.5925 0.0000 0.0000 0.0000
# 2 14.1176 60.9398 26.4399 0.0000 0.0000 0.0000
# 3 27.5925 26.4399 136.4470 0.0000 0.0000 0.0000
# 4 0.0000 0.0000 0.0000 -12.0962 0.0000 0.0000
# 5 0.0000 0.0000 0.0000 0.0000 26.8752 0.0000
# 6 0.0000 0.0000 0.0000 0.0000 0.0000 9.3127
#
#
#
# Elastic Compliance Matrix: (Units=1/GPa)
#
#
# Indices 1 2 3 4 5 6 
#
# 1 0.011511 -0.001809 -0.001977 0.000000 0.000000 0.000000
# 2 -0.001809 0.018200 -0.003161 0.000000 0.000000 0.000000
# 3 -0.001977 -0.003161 0.008341 0.000000 0.000000 0.000000
# 4 0.000000 0.000000 0.000000 -0.082670 0.000000 0.000000
# 5 0.000000 0.000000 0.000000 0.000000 0.037209 0.000000
# 6 0.000000 0.000000 0.000000 0.000000 0.000000 0.107381
#
#
# Mechanical properties :
#
#
# Convention : Reuss Voigt Hill
#
# Bulk Modulus (GPa) = 41.39402 47.50240 44.44821
# Shear Modulus (GPa) = 41.01124 19.68975 30.35049
#
# Velocity S-wave (km/s) = 4.71134 3.26447 4.05299
# Velocity P-wave (km/s) = 7.21106 6.31814 6.77932
#
# Compressibility (1/GPa) = 0.02415808
#
# Stress axis : x y z
#
# Youngs Moduli (GPa) = 86.87662 54.94476 119.88696
#
# Poissons Ratio (x) = 0.09938 0.23704
# Poissons Ratio (y) = 0.15714 0.37896
# Poissons Ratio (z) = 0.17177 0.17368
#
# Static dielectric constant tensor:
#      x y z
#    x 1.660160 0.000000 0.000000 
#    y 0.000000 1.654100 0.000000 
#    z 0.000000 0.000000 1.668420 
# 
# From -- ./inp_files/32736.got.cif
#   From: 2010.05.17/outbox.cif.g08.bks.cpg/sg24_17_cif.got.tgz:32736.got - 2010.06.04 00:33:39.
