data_PCOD9332957
_publ_section_title
;
Structure prediction by ZEFSAII (Michael W. Deem and Ramdas Pophale) SiO2 
 PCOD9332957
Probable space group: I 21 21 21
;
_chemical_formula_sum "Si O2"
_cell_formula_units_Z 40
_cell_length_a 9.294963
_cell_length_b 24.023990
_cell_length_c 7.410713
_cell_angle_alpha 90.000000
_cell_angle_beta 90.000000
_cell_angle_gamma 90.000000
_cell_volume 1654.827762
_symmetry_space_group_name_H-M "I 21 21 21"
_symmetry_group_IT_number 24
_symmetry_cell_setting 'orthorhombic'
loop_
_space_group_symop_operation_xyz
x,y,z
-x,1/2-y,z
x,-y,1/2-z
1/2-x,y,-z
1/2+x,1/2+y,1/2+z
1/2-x,-y,1/2+z
1/2+x,1/2-y,-z
-x,1/2+y,1/2-z
loop_
_atom_site_type_symbol
_atom_site_label
_atom_site_fract_x
_atom_site_fract_y
_atom_site_fract_z
Si Si1 0.985289 0.076426 0.112029
Si Si2 0.760568 0.500000 0.250000
Si Si3 0.006263 0.077450 0.682032
Si Si4 0.907490 0.695958 0.757524
Si Si5 0.766694 0.000000 0.750000
Si Si6 0.579105 0.306338 0.814822
O O1 0.999475 0.135105 0.214098
O O2 0.842290 0.045088 0.169788
O O3 0.983279 0.081843 0.897714
O O4 0.129776 0.041799 0.152709
O O5 0.649279 0.541415 0.148961
O O6 0.028430 0.142030 0.639973
O O7 0.875235 0.037445 0.625614
O O8 0.735248 0.695249 0.777405
O O9 0.914444 0.693825 0.536078
O O10 0.000000 0.750000 0.809274
O O11 0.500000 0.250000 0.761632
#
# Coordination Sequence:
#
# PCOD9332957 Si02
#       6
#     8   4   8   8   4   8
#     4  10  19  33  48  69 103 131 157 201 240 278
#     4  10  18  30  50  70  92 132 170 192 232 298
#     4  10  19  33  48  69 103 131 157 201 240 278
#     4   9  17  28  45  68  95 128 156 184 238 301
#     4  10  22  30  46  70  96 136 170 192 232 290
#     4   9  17  28  45  68  95 128 156 184 238 301
#
# _framework density 24.171699
#
# number of rings (size 3 to 8) (size 9 to 14) (size 15 to 20)
#    0.000    2.400    2.000    1.200    2.800    0.000 
#    0.000    0.000    0.000    0.000    0.000    0.000 
#    0.000  112.000    0.000    0.000    0.000    0.000 
#
# Total GULP energy -111712.190923 kJ/mol
# GULP energy per Si atom -5585.609546 kJ/mol
# Density = 2.411668 g / cm^3
# Si number density = 24.171699 Si / 1000 Ang^3
#
#
#
# Elastic Constant Matrix: (Units=GPa)
#
#
# Indices 1 2 3 4 5 6 
#
# 1 199.3659 112.5549 21.5603 0.0000 -0.0003 -0.0002
# 2 112.5549 264.8321 16.2110 0.0001 0.0001 -0.0001
# 3 21.5603 16.2110 64.2053 -0.0002 0.0000 -0.0011
# 4 0.0000 0.0001 -0.0002 15.0494 0.0002 -0.0002
# 5 -0.0003 0.0001 0.0000 0.0002 18.6236 -0.0003
# 6 -0.0002 -0.0001 -0.0011 -0.0002 -0.0003 27.4309
#
#
#
# Elastic Compliance Matrix: (Units=1/GPa)
#
#
# Indices 1 2 3 4 5 6 
#
# 1 0.006751 -0.002773 -0.001567 0.000000 0.000000 0.000000
# 2 -0.002773 0.004975 -0.000325 0.000000 0.000000 0.000000
# 3 -0.001567 -0.000325 0.016183 0.000000 0.000000 0.000001
# 4 0.000000 0.000000 0.000000 0.066448 -0.000001 0.000001
# 5 0.000000 0.000000 0.000000 -0.000001 0.053695 0.000001
# 6 0.000000 0.000000 0.000001 0.000001 0.000001 0.036455
#
#
# Mechanical properties :
#
#
# Convention : Reuss Voigt Hill
#
# Bulk Modulus (GPa) = 53.82399 92.11732 72.97065
# Shear Modulus (GPa) = 24.99626 37.42592 31.21109
#
# Velocity S-wave (km/s) = 3.21925 3.93916 3.59726
# Velocity P-wave (km/s) = 6.01114 7.67344 6.89258
#
# Compressibility (1/GPa) = 0.01857908
#
# Stress axis : x y z
#
# Youngs Moduli (GPa) = 148.12479 201.02401 61.79264
#
# Poissons Ratio (x) = 0.55751 0.09682
# Poissons Ratio (y) = 0.41080 0.02006
# Poissons Ratio (z) = 0.23208 0.06527
#
# Static dielectric constant tensor:
#      x y z
#    x 1.862590 0.000000 0.000000 
#    y 0.000000 1.926430 0.000000 
#    z 0.000000 0.000000 2.059290 
# 
# From -- ./inp_files/9336.got.cif
#   From: 2010.05.17/outbox.cif.g08.bks.cpg/sg24_5_cif.got.tgz:9336.got - 2010.06.04 00:33:39.
