data_PCOD9332711
_publ_section_title
;
Structure prediction by ZEFSAII (Michael W. Deem and Ramdas Pophale) SiO2 
 PCOD9332711
Probable space group: I 21 21 21
;
_chemical_formula_sum "Si O2"
_cell_formula_units_Z 60
_cell_length_a 16.254043
_cell_length_b 9.407794
_cell_length_c 26.344185
_cell_angle_alpha 90.000000
_cell_angle_beta 90.000000
_cell_angle_gamma 90.000000
_cell_volume 4028.412835
_symmetry_space_group_name_H-M "I 21 21 21"
_symmetry_group_IT_number 24
_symmetry_cell_setting 'orthorhombic'
loop_
_space_group_symop_operation_xyz
x,y,z
-x,1/2-y,z
x,-y,1/2-z
1/2-x,y,-z
1/2+x,1/2+y,1/2+z
1/2-x,-y,1/2+z
1/2+x,1/2-y,-z
-x,1/2+y,1/2-z
loop_
_atom_site_type_symbol
_atom_site_label
_atom_site_fract_x
_atom_site_fract_y
_atom_site_fract_z
Si Si1 0.095054 0.303608 0.702134
Si Si2 0.251240 0.272110 0.894988
Si Si3 0.626481 0.569163 0.445086
Si Si4 0.827866 0.995970 0.970271
Si Si5 0.139985 0.637731 0.688288
Si Si6 0.903160 0.765250 0.461196
Si Si7 0.500000 0.750000 0.386274
Si Si8 0.901761 0.262232 0.591146
O O1 0.113570 0.472320 0.693947
O O2 0.133780 0.282505 0.757778
O O3 0.127167 0.231850 0.650152
O O4 0.000000 0.250000 0.706872
O O5 0.201361 0.130656 0.911156
O O6 0.210941 0.388099 0.932626
O O7 0.226090 0.327272 0.839361
O O8 0.345860 0.261555 0.911413
O O9 0.628483 0.640346 0.500674
O O10 0.541600 0.630174 0.420871
O O11 0.624019 0.401065 0.439977
O O12 0.871367 0.877549 0.937332
O O13 0.750000 0.932430 0.000000
O O14 0.884511 0.087348 0.008541
O O15 0.071851 0.695276 0.649527
O O16 0.000000 0.750000 0.452184
O O17 0.000000 0.250000 0.593863
#
# Coordination Sequence:
#
# PCOD9332711 Si02
#       8
#     8   8   8   8   8   8   4   8
#     4  10  19  29  44  69  99 131 165 193 225 278
#     4   9  19  33  47  66  93 130 163 199 246 287
#     4  10  19  28  47  67  96 129 161 198 238 282
#     4   9  18  32  47  64  95 129 158 196 246 297
#     4  10  18  30  46  65  99 135 162 197 230 283
#     4  10  18  32  52  69  89 124 167 206 241 293
#     4  10  16  28  42  62  92 134 162 190 232 276
#     4  11  20  29  44  72 100 129 160 197 233 284
#
# _framework density 14.894202999999999
#
# number of rings (size 3 to 8) (size 9 to 14) (size 15 to 20)
#    0.000    2.133    2.667    3.600    1.867    1.067 
#    0.000    0.000    0.000    0.000    0.000    0.000 
#    8.000    0.000    0.000    0.000    0.000    0.000 
#
# Total GULP energy -167021.663335 kJ/mol
# GULP energy per Si atom -5567.388778 kJ/mol
# Density = 1.486030 g / cm^3
# Si number density = 14.894203 Si / 1000 Ang^3
#
#
#
# Elastic Constant Matrix: (Units=GPa)
#
#
# Indices 1 2 3 4 5 6 
#
# 1 82.4665 21.4595 40.7506 0.0000 0.0000 0.0000
# 2 21.4595 48.4482 11.6090 0.0000 0.0000 0.0000
# 3 40.7506 11.6090 82.7520 0.0000 0.0000 0.0000
# 4 0.0000 0.0000 0.0000 23.8498 0.0000 0.0000
# 5 0.0000 0.0000 0.0000 0.0000 19.5632 0.0000
# 6 0.0000 0.0000 0.0000 0.0000 0.0000 15.7320
#
#
#
# Elastic Compliance Matrix: (Units=1/GPa)
#
#
# Indices 1 2 3 4 5 6 
#
# 1 0.017511 -0.005888 -0.007797 0.000000 0.000000 0.000000
# 2 -0.005888 0.023338 -0.000375 0.000000 0.000000 0.000000
# 3 -0.007797 -0.000375 0.015977 0.000000 0.000000 0.000000
# 4 0.000000 0.000000 0.000000 0.041929 0.000000 0.000000
# 5 0.000000 0.000000 0.000000 0.000000 0.051116 0.000000
# 6 0.000000 0.000000 0.000000 0.000000 0.000000 0.063565
#
#
# Mechanical properties :
#
#
# Convention : Reuss Voigt Hill
#
# Bulk Modulus (GPa) = 34.83534 40.14500 37.49017
# Shear Modulus (GPa) = 19.91038 21.15216 20.53127
#
# Velocity S-wave (km/s) = 3.66018 3.77259 3.71681
# Velocity P-wave (km/s) = 6.42665 6.78148 6.60645
#
# Compressibility (1/GPa) = 0.02870648
#
# Stress axis : x y z
#
# Youngs Moduli (GPa) = 57.10580 42.84783 62.59171
#
# Poissons Ratio (x) = 0.25229 0.48805
# Poissons Ratio (y) = 0.33624 0.02344
# Poissons Ratio (z) = 0.44527 0.01605
#
# Static dielectric constant tensor:
#      x y z
#    x 1.484130 0.000000 0.000000 
#    y 0.000000 1.502870 0.000000 
#    z 0.000000 0.000000 1.525490 
# 
# From -- ./inp_files/13422.got.cif
#   From: 2010.05.17/outbox.cif.g08.bks.cpg/sg24_7_cif.got.tgz:13422.got - 2010.06.04 00:33:39.
