data_PCOD9332189
_publ_section_title
;
Structure prediction by ZEFSAII (Michael W. Deem and Ramdas Pophale) SiO2 
 PCOD9332189
Probable space group: I 2 2 2
;
_chemical_formula_sum "Si O2"
_cell_formula_units_Z 64
_cell_length_a 16.639499
_cell_length_b 12.519432
_cell_length_c 12.863792
_cell_angle_alpha 90.000000
_cell_angle_beta 90.000000
_cell_angle_gamma 90.000000
_cell_volume 2679.747539
_symmetry_space_group_name_H-M "I 2 2 2"
_symmetry_group_IT_number 23
_symmetry_cell_setting 'orthorhombic'
loop_
_space_group_symop_operation_xyz
x,y,z
-x,-y,z
x,-y,-z
-x,y,-z
1/2+x,1/2+y,1/2+z
1/2-x,1/2-y,1/2+z
1/2+x,1/2-y,1/2-z
1/2-x,1/2+y,1/2-z
loop_
_atom_site_type_symbol
_atom_site_label
_atom_site_fract_x
_atom_site_fract_y
_atom_site_fract_z
Si Si1 0.419160 0.433329 0.789871
Si Si2 0.093574 0.622276 0.982094
Si Si3 0.946461 0.700174 0.239759
Si Si4 0.235426 0.739641 0.045944
Si Si5 0.686069 0.604293 0.122756
Si Si6 0.677625 0.029073 0.221122
Si Si7 0.358891 0.213505 0.284614
Si Si8 0.193277 0.940151 0.910708
O O1 0.500000 0.500000 0.766227
O O2 0.432537 0.307589 0.805846
O O3 0.373078 0.503368 0.875053
O O4 0.361535 0.431475 0.689148
O O5 0.097315 0.686424 0.873833
O O6 0.142027 0.693997 0.065282
O O7 0.122539 0.500000 0.000000
O O8 0.000000 0.615458 0.000000
O O9 0.903125 0.598404 0.293556
O O10 0.040428 0.703015 0.211388
O O11 0.286533 0.651484 0.987932
O O12 0.225654 0.832968 0.963205
O O13 0.236411 0.753718 0.167816
O O14 0.766858 0.567755 0.182963
O O15 0.644640 0.696175 0.191800
O O16 0.659666 0.906477 0.247087
O O17 0.733786 0.018273 0.120276
O O18 0.143327 0.000000 0.000000
#
# Coordination Sequence:
#
# PCOD9332189 Si02
#       8
#     8   8   8   8   8   8   8   8
#     4  11  23  42  64  97 144 189 231 300 371 432
#     4  11  22  35  58  98 142 174 220 289 364 442
#     4  12  23  41  69 100 142 186 233 298 374 438
#     4  12  22  40  64  95 142 182 233 295 358 436
#     4  11  24  42  63 101 140 187 246 285 365 450
#     4  11  24  42  68  99 143 185 236 300 365 433
#     4  12  25  42  70 106 139 186 235 304 372 431
#     4  11  24  42  64 100 139 183 243 294 358 445
#
# _framework density 23.882847999999999
#
# number of rings (size 3 to 8) (size 9 to 14) (size 15 to 20)
#    0.000    0.625    6.250    2.625    3.500    0.250 
#    0.000    0.000    0.000    1.500    0.000   14.000 
#    0.000    0.000    0.000    0.000    0.000    0.000 
#
# Total GULP energy -178188.533085 kJ/mol
# GULP energy per Si atom -5568.391659 kJ/mol
# Density = 2.382849 g / cm^3
# Si number density = 23.882848 Si / 1000 Ang^3
#
#
#
# Elastic Constant Matrix: (Units=GPa)
#
#
# Indices 1 2 3 4 5 6 
#
# 1 104.4422 53.0438 39.5354 0.0000 0.0000 0.0000
# 2 53.0438 164.3213 37.1906 0.0000 0.0000 0.0000
# 3 39.5354 37.1906 68.3623 0.0000 0.0000 0.0000
# 4 0.0000 0.0000 0.0000 32.8354 0.0000 0.0000
# 5 0.0000 0.0000 0.0000 0.0000 -49.5659 0.0000
# 6 0.0000 0.0000 0.0000 0.0000 0.0000 44.2454
#
#
#
# Elastic Compliance Matrix: (Units=1/GPa)
#
#
# Indices 1 2 3 4 5 6 
#
# 1 0.013391 -0.002931 -0.006150 0.000000 0.000000 0.000000
# 2 -0.002931 0.007582 -0.002430 0.000000 0.000000 0.000000
# 3 -0.006150 -0.002430 0.019506 0.000000 0.000000 0.000000
# 4 0.000000 0.000000 0.000000 0.030455 0.000000 0.000000
# 5 0.000000 0.000000 0.000000 0.000000 -0.020175 0.000000
# 6 0.000000 0.000000 0.000000 0.000000 0.000000 0.022601
#
#
# Mechanical properties :
#
#
# Convention : Reuss Voigt Hill
#
# Bulk Modulus (GPa) = 57.27921 66.29618 61.78769
# Shear Modulus (GPa) = 48.92346 19.32671 34.12509
#
# Velocity S-wave (km/s) = 4.53092 2.84778 3.78412
# Velocity P-wave (km/s) = 7.16992 6.21549 6.70970
#
# Compressibility (1/GPa) = 0.01745834
#
# Stress axis : x y z
#
# Youngs Moduli (GPa) = 74.67604 131.89795 51.26528
#
# Poissons Ratio (x) = 0.38657 0.31528
# Poissons Ratio (y) = 0.21886 0.12455
# Poissons Ratio (z) = 0.45926 0.32046
#
# Static dielectric constant tensor:
#      x y z
#    x 2.024070 0.000000 0.000000 
#    y 0.000000 1.976970 0.000000 
#    z 0.000000 0.000000 2.164330 
# 
# From -- ./inp_files/22164.got.cif
#   From: 2010.05.17/outbox.cif.g08.bks.cpg/sg23_12_cif.got.tgz:22164.got - 2010.06.04 12:02:01.
