data_PCOD9332971
_publ_section_title
;
Structure prediction by ZEFSAII (Michael W. Deem and Ramdas Pophale) SiO2 
 PCOD9332971
Probable space group: I 21 21 21
;
_chemical_formula_sum "Si O2"
_cell_formula_units_Z 48
_cell_length_a 15.241848
_cell_length_b 6.554293
_cell_length_c 25.708570
_cell_angle_alpha 90.000000
_cell_angle_beta 90.000000
_cell_angle_gamma 90.000000
_cell_volume 2568.274257
_symmetry_space_group_name_H-M "I 21 21 21"
_symmetry_group_IT_number 24
_symmetry_cell_setting 'orthorhombic'
loop_
_space_group_symop_operation_xyz
x,y,z
-x,1/2-y,z
x,-y,1/2-z
1/2-x,y,-z
1/2+x,1/2+y,1/2+z
1/2-x,-y,1/2+z
1/2+x,1/2-y,-z
-x,1/2+y,1/2-z
loop_
_atom_site_type_symbol
_atom_site_label
_atom_site_fract_x
_atom_site_fract_y
_atom_site_fract_z
Si Si1 0.123653 0.078544 0.464155
Si Si2 0.897055 0.238592 0.844411
Si Si3 0.500000 0.750000 0.585114
Si Si4 0.719124 0.833940 0.170340
Si Si5 0.682320 0.536670 0.076069
Si Si6 0.335454 0.000000 0.250000
Si Si7 0.586020 0.124653 0.629054
O O1 0.102858 0.273490 0.427994
O O2 0.126983 0.106275 0.525916
O O3 0.219263 0.008261 0.444748
O O4 0.056274 0.902810 0.449374
O O5 0.849318 0.333941 0.894799
O O6 0.888779 0.389804 0.795292
O O7 0.000000 0.250000 0.856992
O O8 0.844784 0.031789 0.828064
O O9 0.440086 0.608100 0.620827
O O10 0.685021 0.708554 0.120235
O O11 0.714001 0.683260 0.219978
O O12 0.822702 0.869796 0.160023
O O13 0.500000 0.250000 0.649743
#
# Coordination Sequence:
#
# PCOD9332971 Si02
#       7
#     8   8   4   8   8   4   8
#     4   9  18  34  54  82 122 158 193 233 282 342
#     4  11  24  38  60  87 116 154 199 247 297 355
#     4  10  18  30  54  86 116 156 192 234 284 348
#     4  10  21  41  62  84 116 156 194 246 305 356
#     4   9  20  36  54  83 118 157 197 238 283 347
#     4  10  24  40  64  84 112 150 196 248 300 366
#     4   9  19  36  60  89 117 155 195 238 291 357
#
# _framework density 18.689592999999999
#
# number of rings (size 3 to 8) (size 9 to 14) (size 15 to 20)
#    0.000    2.333    0.000    1.500    3.500    4.667 
#    6.000    3.333    3.667    0.000    0.000    0.000 
#    0.000    0.000    0.000    0.000    0.000    0.000 
#
# Total GULP energy -133657.655703 kJ/mol
# GULP energy per Si atom -5569.068988 kJ/mol
# Density = 1.864705 g / cm^3
# Si number density = 18.689593 Si / 1000 Ang^3
#
#
#
# Elastic Constant Matrix: (Units=GPa)
#
#
# Indices 1 2 3 4 5 6 
#
# 1 91.8225 51.0263 21.0046 0.0000 0.0000 0.0000
# 2 51.0263 91.6653 26.7006 0.0000 0.0000 0.0000
# 3 21.0046 26.7006 68.2008 0.0000 0.0000 0.0000
# 4 0.0000 0.0000 0.0000 12.1317 0.0000 0.0000
# 5 0.0000 0.0000 0.0000 0.0000 12.3490 0.0000
# 6 0.0000 0.0000 0.0000 0.0000 0.0000 18.8333
#
#
#
# Elastic Compliance Matrix: (Units=1/GPa)
#
#
# Indices 1 2 3 4 5 6 
#
# 1 0.015925 -0.008393 -0.001619 0.000000 0.000000 0.000000
# 2 -0.008393 0.016737 -0.003968 0.000000 0.000000 0.000000
# 3 -0.001619 -0.003968 0.016714 0.000000 0.000000 0.000000
# 4 0.000000 0.000000 0.000000 0.082429 0.000000 0.000000
# 5 0.000000 0.000000 0.000000 0.000000 0.080978 0.000000
# 6 0.000000 0.000000 0.000000 0.000000 0.000000 0.053097
#
#
# Mechanical properties :
#
#
# Convention : Reuss Voigt Hill
#
# Bulk Modulus (GPa) = 46.69080 49.90571 48.29825
# Shear Modulus (GPa) = 16.61243 18.85994 17.73619
#
# Velocity S-wave (km/s) = 2.98461 3.18010 3.08391
# Velocity P-wave (km/s) = 6.07566 6.34385 6.21120
#
# Compressibility (1/GPa) = 0.02141750
#
# Stress axis : x y z
#
# Youngs Moduli (GPa) = 62.79408 59.74719 59.82861
#
# Poissons Ratio (x) = 0.50148 0.09684
# Poissons Ratio (y) = 0.52705 0.23738
# Poissons Ratio (z) = 0.10164 0.23705
#
# Static dielectric constant tensor:
#      x y z
#    x 1.691760 0.000000 0.000000 
#    y 0.000000 1.654130 0.000000 
#    z 0.000000 0.000000 1.653910 
# 
# From -- ./inp_files/7136.got.cif
#   From: 2010.05.17/outbox.cif.g08.bks.cpg/sg24_4_cif.got.tgz:7136.got - 2010.06.04 00:33:39.
