data_PCOD9332042
_publ_section_title
;
Structure prediction by ZEFSAII (Michael W. Deem and Ramdas Pophale) SiO2 
 PCOD9332042
Probable space group: I 2 2 2
;
_chemical_formula_sum "Si O2"
_cell_formula_units_Z 32
_cell_length_a 11.927633
_cell_length_b 19.969178
_cell_length_c 5.249197
_cell_angle_alpha 90.000000
_cell_angle_beta 90.000000
_cell_angle_gamma 90.000000
_cell_volume 1250.280127
_symmetry_space_group_name_H-M "I 2 2 2"
_symmetry_group_IT_number 23
_symmetry_cell_setting 'orthorhombic'
loop_
_space_group_symop_operation_xyz
x,y,z
-x,-y,z
x,-y,-z
-x,y,-z
1/2+x,1/2+y,1/2+z
1/2-x,1/2-y,1/2+z
1/2+x,1/2-y,1/2-z
1/2-x,1/2+y,1/2-z
loop_
_atom_site_type_symbol
_atom_site_label
_atom_site_fract_x
_atom_site_fract_y
_atom_site_fract_z
Si Si1 0.000000 0.915094 0.500000
Si Si2 0.871984 0.279491 0.979505
Si Si3 0.300756 0.355482 0.681193
Si Si4 0.500000 0.000000 0.500000
Si Si5 0.879827 0.602572 0.368634
Si Si6 0.500000 0.500000 0.500000
O O1 0.888636 0.880517 0.391281
O O2 0.044253 0.950091 0.229508
O O3 0.868727 0.199811 0.976398
O O4 0.839260 0.326046 0.741072
O O5 0.794540 0.308342 0.196972
O O6 0.000000 0.299949 0.000000
O O7 0.225848 0.413517 0.551194
O O8 0.416081 0.046750 0.664342
O O9 0.000000 0.613133 0.500000
#
# Coordination Sequence:
#
# PCOD9332042 Si02
#       6
#     4   8   8   2   8   2
#     4  11  30  56  88 120 166 235 302 360 442 513
#     4  12  26  46  76 124 169 213 279 360 446 541
#     4  12  28  46  86 122 170 227 282 365 447 534
#     4  12  26  52  82 118 188 232 308 376 432 564
#     4  12  25  50  77 123 175 228 283 359 452 527
#     4  10  28  66  78 114 170 230 308 364 408 532
#
# _framework density 25.594263999999999
#
# number of rings (size 3 to 8) (size 9 to 14) (size 15 to 20)
#    0.000    0.250    6.250    0.375   10.500    0.000 
#    9.000    0.000    0.000    0.000    0.000    0.000 
#    0.000    0.000    0.000    0.000    0.000    0.000 
#
# Total GULP energy -89086.618740 kJ/mol
# GULP energy per Si atom -5567.913671 kJ/mol
# Density = 2.553601 g / cm^3
# Si number density = 25.594264 Si / 1000 Ang^3
#
#
#
# Elastic Constant Matrix: (Units=GPa)
#
#
# Indices 1 2 3 4 5 6 
#
# 1 150.2079 52.7796 51.2815 -0.0008 -0.0005 0.0004
# 2 52.7796 127.2328 67.3502 0.0004 0.0001 0.0000
# 3 51.2815 67.3502 140.2012 0.0112 0.0005 -0.0008
# 4 -0.0008 0.0004 0.0112 -11.8813 -0.0014 0.0027
# 5 -0.0005 0.0001 0.0005 -0.0014 57.9868 0.0001
# 6 0.0004 0.0000 -0.0008 0.0027 0.0001 1.3355
#
#
#
# Elastic Compliance Matrix: (Units=1/GPa)
#
#
# Indices 1 2 3 4 5 6 
#
# 1 0.008123 -0.002410 -0.001814 -0.000002 0.000000 -0.000003
# 2 -0.002410 0.011255 -0.004525 -0.000004 0.000000 -0.000002
# 3 -0.001814 -0.004525 0.009970 0.000009 0.000000 0.000006
# 4 -0.000002 -0.000004 0.000009 -0.084166 -0.000002 0.000169
# 5 0.000000 0.000000 0.000000 -0.000002 0.017245 -0.000001
# 6 -0.000003 -0.000002 0.000006 0.000169 -0.000001 0.748789
#
#
# Mechanical properties :
#
#
# Convention : Reuss Voigt Hill
#
# Bulk Modulus (GPa) = 84.38329 84.49606 84.43967
# Shear Modulus (GPa) = 6.82442 25.90357 16.36400
#
# Velocity S-wave (km/s) = 1.63468 3.18478 2.53130
# Velocity P-wave (km/s) = 6.05013 6.82709 6.45032
#
# Compressibility (1/GPa) = 0.01185069
#
# Stress axis : x y z
#
# Youngs Moduli (GPa) = 123.10166 88.85283 100.30315
#
# Poissons Ratio (x) = 0.21411 0.18192
# Poissons Ratio (y) = 0.29664 0.45388
# Poissons Ratio (z) = 0.22327 0.40207
#
# Static dielectric constant tensor:
#      x y z
#    x 2.075380 0.000000 0.000000 
#    y 0.000000 1.903610 0.000000 
#    z 0.000000 0.000000 2.349860 
# 
# From -- ./inp_files/1411.got.cif
#   From: 2010.05.17/outbox.cif.g08.bks.cpg/sg23_1_cif.got.tgz:1411.got - 2010.06.04 12:02:01.
