data_PCOD9333471
_publ_section_title
;
Structure prediction by ZEFSAII (Michael W. Deem and Ramdas Pophale) SiO2 
 PCOD9333471
Probable space group: I 21 21 21
;
_chemical_formula_sum "Si O2"
_cell_formula_units_Z 52
_cell_length_a 23.695606
_cell_length_b 8.732489
_cell_length_c 14.003409
_cell_angle_alpha 90.000000
_cell_angle_beta 90.000000
_cell_angle_gamma 90.000000
_cell_volume 2897.608058
_symmetry_space_group_name_H-M "I 21 21 21"
_symmetry_group_IT_number 24
_symmetry_cell_setting 'orthorhombic'
loop_
_space_group_symop_operation_xyz
x,y,z
-x,1/2-y,z
x,-y,1/2-z
1/2-x,y,-z
1/2+x,1/2+y,1/2+z
1/2-x,-y,1/2+z
1/2+x,1/2-y,-z
-x,1/2+y,1/2-z
loop_
_atom_site_type_symbol
_atom_site_label
_atom_site_fract_x
_atom_site_fract_y
_atom_site_fract_z
Si Si1 0.263901 0.754607 0.895914
Si Si2 0.267621 0.764678 0.398056
Si Si3 0.060940 0.173274 0.789295
Si Si4 0.143488 0.377140 0.668911
Si Si5 0.114363 0.634868 0.545849
Si Si6 0.750429 0.500000 0.250000
Si Si7 0.835767 0.958062 0.358042
O O1 0.203030 0.689111 0.864165
O O2 0.282826 0.884781 0.821027
O O3 0.307956 0.614302 0.899823
O O4 0.250000 0.817730 0.000000
O O5 0.250000 0.832932 0.500000
O O6 0.320288 0.661779 0.425426
O O7 0.216111 0.663959 0.356827
O O8 0.283731 0.892622 0.321918
O O9 0.105888 0.250846 0.719296
O O10 0.080961 0.230422 0.897297
O O11 0.000000 0.250000 0.777872
O O12 0.057307 0.000000 0.750000
O O13 0.157335 0.500000 0.750000
O O14 0.104619 0.468713 0.592983
O O15 0.117859 0.612159 0.431260
O O16 0.853530 0.000000 0.250000
#
# Coordination Sequence:
#
# PCOD9333471 Si02
#       7
#     8   8   8   8   8   4   8
#     4  12  21  33  50  76 114 163 207 235 286 356
#     4  10  20  33  47  73 113 155 201 235 286 349
#     4  11  24  41  62  90 120 151 199 262 319 370
#     4  10  19  33  54  79 112 153 197 240 294 360
#     4  10  20  35  56  82 111 156 200 245 298 364
#     4  12  22  28  42  70 108 154 192 248 284 330
#     4  11  19  36  55  76 114 163 208 241 277 356
#
# _framework density 17.945837000000001
#
# number of rings (size 3 to 8) (size 9 to 14) (size 15 to 20)
#    0.000    1.231    4.615    4.615    4.308    0.000 
#    0.000    0.000    0.000    0.000    0.000    3.231 
#    0.000    0.000    0.000    0.000    0.000    0.000 
#
# Total GULP energy -144776.590705 kJ/mol
# GULP energy per Si atom -5568.330412 kJ/mol
# Density = 1.790499 g / cm^3
# Si number density = 17.945837 Si / 1000 Ang^3
#
#
#
# Elastic Constant Matrix: (Units=GPa)
#
#
# Indices 1 2 3 4 5 6 
#
# 1 45.4960 25.5494 18.1317 0.0000 0.0000 0.0000
# 2 25.5494 110.8342 57.3913 0.0000 0.0000 0.0000
# 3 18.1317 57.3913 129.8767 0.0000 0.0000 0.0000
# 4 0.0000 0.0000 0.0000 28.8499 0.0000 0.0000
# 5 0.0000 0.0000 0.0000 0.0000 10.3853 0.0000
# 6 0.0000 0.0000 0.0000 0.0000 0.0000 7.8392
#
#
#
# Elastic Compliance Matrix: (Units=1/GPa)
#
#
# Indices 1 2 3 4 5 6 
#
# 1 0.025402 -0.005212 -0.001243 0.000000 0.000000 0.000000
# 2 -0.005212 0.012769 -0.004915 0.000000 0.000000 0.000000
# 3 -0.001243 -0.004915 0.010045 0.000000 0.000000 0.000000
# 4 0.000000 0.000000 0.000000 0.034662 0.000000 0.000000
# 5 0.000000 0.000000 0.000000 0.000000 0.096290 0.000000
# 6 0.000000 0.000000 0.000000 0.000000 0.000000 0.127564
#
#
# Mechanical properties :
#
#
# Convention : Reuss Voigt Hill
#
# Bulk Modulus (GPa) = 39.25236 54.26132 46.75684
# Shear Modulus (GPa) = 14.79444 21.75717 18.27580
#
# Velocity S-wave (km/s) = 2.87434 3.48570 3.19468
# Velocity P-wave (km/s) = 5.73899 6.81923 6.30230
#
# Compressibility (1/GPa) = 0.02547617
#
# Stress axis : x y z
#
# Youngs Moduli (GPa) = 39.36643 78.31524 99.55214
#
# Poissons Ratio (x) = 0.40818 0.12377
# Poissons Ratio (y) = 0.20518 0.48928
# Poissons Ratio (z) = 0.04894 0.38491
#
# Static dielectric constant tensor:
#      x y z
#    x 1.583660 0.000000 0.000000 
#    y 0.000000 1.691160 0.000000 
#    z 0.000000 0.000000 1.734540 
# 
# From -- ./inp_files/27493.got.cif
#   From: 2010.05.17/outbox.cif.g08.bks.cpg/sg24_14_cif.got.tgz:27493.got - 2010.06.04 00:33:39.
