data_PCOD9333539
_publ_section_title
;
Structure prediction by ZEFSAII (Michael W. Deem and Ramdas Pophale) SiO2 
 PCOD9333539
Probable space group: I 21 21 21
;
_chemical_formula_sum "Si O2"
_cell_formula_units_Z 56
_cell_length_a 17.475213
_cell_length_b 9.175616
_cell_length_c 19.158627
_cell_angle_alpha 90.000000
_cell_angle_beta 90.000000
_cell_angle_gamma 90.000000
_cell_volume 3072.006216
_symmetry_space_group_name_H-M "I 21 21 21"
_symmetry_group_IT_number 24
_symmetry_cell_setting 'orthorhombic'
loop_
_space_group_symop_operation_xyz
x,y,z
-x,1/2-y,z
x,-y,1/2-z
1/2-x,y,-z
1/2+x,1/2+y,1/2+z
1/2-x,-y,1/2+z
1/2+x,1/2-y,-z
-x,1/2+y,1/2-z
loop_
_atom_site_type_symbol
_atom_site_label
_atom_site_fract_x
_atom_site_fract_y
_atom_site_fract_z
Si Si1 0.821800 0.332388 0.446257
Si Si2 0.940097 0.879259 0.466632
Si Si3 0.805852 0.656198 0.435222
Si Si4 0.447635 0.391733 0.810483
Si Si5 0.231731 0.326796 0.190856
Si Si6 0.721006 0.149176 0.344191
Si Si7 0.076955 0.666417 0.945842
O O1 0.750000 0.338782 0.500000
O O2 0.843728 0.497536 0.426674
O O3 0.788368 0.237366 0.383101
O O4 0.888589 0.252873 0.487803
O O5 0.862403 0.788597 0.453209
O O6 0.955241 0.949061 0.390026
O O7 0.000000 0.750000 0.482178
O O8 0.936457 0.002090 0.525821
O O9 0.750000 0.646094 0.500000
O O10 0.762058 0.697832 0.364551
O O11 0.500000 0.250000 0.808616
O O12 0.472269 0.500000 0.750000
O O13 0.359049 0.349586 0.795677
O O14 0.276156 0.305153 0.263137
O O15 0.260154 0.477318 0.156434
O O16 0.641813 0.170856 0.385698
O O17 0.000000 0.750000 0.924008
#
# Coordination Sequence:
#
# PCOD9333539 Si02
#       7
#     8   8   8   8   8   8   8
#     4   9  19  34  54  83 115 146 188 242 295 354
#     4  10  21  36  54  81 114 147 193 238 297 358
#     4  10  19  34  57  84 113 146 191 240 285 340
#     4  10  20  36  51  81 117 150 184 233 286 357
#     4  10  20  37  59  83 114 160 207 233 285 371
#     4  10  20  38  60  80 116 158 203 244 296 364
#     4  11  22  36  60  88 113 154 201 260 306 348
#
# _framework density 18.229130999999999
#
# number of rings (size 3 to 8) (size 9 to 14) (size 15 to 20)
#    0.000    2.000    1.429    3.429    0.000    2.286 
#    7.714    0.000    0.000   18.000    0.000    0.000 
#    0.000    0.000    0.000    0.000    0.000    0.000 
#
# Total GULP energy -156161.788960 kJ/mol
# GULP energy per Si atom -5577.206749 kJ/mol
# Density = 1.818764 g / cm^3
# Si number density = 18.229131 Si / 1000 Ang^3
#
#
#
# Elastic Constant Matrix: (Units=GPa)
#
#
# Indices 1 2 3 4 5 6 
#
# 1 87.6688 29.0126 36.0431 0.0000 0.0000 0.0000
# 2 29.0126 81.8931 56.1121 0.0000 0.0000 0.0000
# 3 36.0431 56.1121 92.9390 0.0000 0.0000 0.0000
# 4 0.0000 0.0000 0.0000 -21.8771 0.0000 0.0000
# 5 0.0000 0.0000 0.0000 0.0000 10.7411 0.0000
# 6 0.0000 0.0000 0.0000 0.0000 0.0000 27.5696
#
#
#
# Elastic Compliance Matrix: (Units=1/GPa)
#
#
# Indices 1 2 3 4 5 6 
#
# 1 0.013775 -0.002080 -0.004086 0.000000 0.000000 0.000000
# 2 -0.002080 0.021141 -0.011957 0.000000 0.000000 0.000000
# 3 -0.004086 -0.011957 0.019563 0.000000 0.000000 0.000000
# 4 0.000000 0.000000 0.000000 -0.045710 0.000000 0.000000
# 5 0.000000 0.000000 0.000000 0.000000 0.093100 0.000000
# 6 0.000000 0.000000 0.000000 0.000000 0.000000 0.036272
#
#
# Mechanical properties :
#
#
# Convention : Reuss Voigt Hill
#
# Bulk Modulus (GPa) = 54.84777 56.09293 55.47035
# Shear Modulus (GPa) = 27.70609 12.70893 20.20751
#
# Velocity S-wave (km/s) = 3.90279 2.64328 3.33307
# Velocity P-wave (km/s) = 7.10369 6.33670 6.73112
#
# Compressibility (1/GPa) = 0.01823228
#
# Stress axis : x y z
#
# Youngs Moduli (GPa) = 72.59565 47.30179 51.11565
#
# Poissons Ratio (x) = 0.09840 0.20886
# Poissons Ratio (y) = 0.15102 0.61119
# Poissons Ratio (z) = 0.29663 0.56559
#
# Static dielectric constant tensor:
#      x y z
#    x 1.659190 0.000000 0.000000 
#    y 0.000000 1.644750 0.000000 
#    z 0.000000 0.000000 1.641320 
# 
# From -- ./inp_files/33969.got.cif
#   From: 2010.05.17/outbox.cif.g08.bks.cpg/sg24_17_cif.got.tgz:33969.got - 2010.06.04 00:33:39.
