data_PCOD9333365
_publ_section_title
;
Structure prediction by ZEFSAII (Michael W. Deem and Ramdas Pophale) SiO2 
 PCOD9333365
Probable space group: I 21 21 21
;
_chemical_formula_sum "Si O2"
_cell_formula_units_Z 64
_cell_length_a 19.793057
_cell_length_b 24.153553
_cell_length_c 8.453235
_cell_angle_alpha 90.000000
_cell_angle_beta 90.000000
_cell_angle_gamma 90.000000
_cell_volume 4041.260468
_symmetry_space_group_name_H-M "I 21 21 21"
_symmetry_group_IT_number 24
_symmetry_cell_setting 'orthorhombic'
loop_
_space_group_symop_operation_xyz
x,y,z
-x,1/2-y,z
x,-y,1/2-z
1/2-x,y,-z
1/2+x,1/2+y,1/2+z
1/2-x,-y,1/2+z
1/2+x,1/2-y,-z
-x,1/2+y,1/2-z
loop_
_atom_site_type_symbol
_atom_site_label
_atom_site_fract_x
_atom_site_fract_y
_atom_site_fract_z
Si Si1 0.389955 0.437941 0.691340
Si Si2 0.606780 0.728233 0.808980
Si Si3 0.978269 0.836845 0.807566
Si Si4 0.750000 0.881233 0.808980
Si Si5 0.250000 0.744691 0.686942
Si Si6 0.610045 0.937941 0.191340
Si Si7 0.521731 0.163155 0.692436
Si Si8 0.106780 0.771767 0.808981
O O1 0.398987 0.500000 0.750000
O O2 0.317659 0.412878 0.743709
O O3 0.389807 0.438166 0.500000
O O4 0.447871 0.395081 0.745446
O O5 0.681767 0.725545 0.743356
O O6 0.572773 0.787105 0.762882
O O7 0.553186 0.681438 0.757078
O O8 0.610064 0.727606 0.999999
O O9 0.947871 0.895081 0.754555
O O10 0.927227 0.787105 0.762884
O O11 0.053185 0.818562 0.757079
O O12 0.978982 0.837210 0.000000
O O13 0.750000 0.817671 0.755937
O O14 0.817659 0.912878 0.756291
O O15 0.750000 0.880867 0.000000
O O16 0.250000 0.740758 0.500000
O O17 0.181767 0.774455 0.743357
O O18 0.601013 0.000000 0.250000
#
# Coordination Sequence:
#
# PCOD9333365 Si02
#       8
#     8   8   8   8   8   8   8   8
#     4  10  19  31  47  69  94 125 161 194 228 269
#     4   9  16  31  52  68  87 120 158 195 231 274
#     4   8  15  29  51  71  86 115 162 200 226 267
#     4  10  19  33  49  62  90 133 171 195 214 259
#     4  12  22  29  43  72 102 125 150 189 241 287
#     4  10  19  31  47  69  94 125 161 194 228 269
#     4   8  15  29  51  71  86 115 162 200 226 267
#     4   9  16  31  52  68  87 120 158 195 231 274
#
# _framework density 15.836643
#
# number of rings (size 3 to 8) (size 9 to 14) (size 15 to 20)
#    0.000    2.500    2.500    3.000    0.000    1.000 
#    0.000    3.750    0.000    0.000    0.000    0.875 
#    0.000    0.000    0.000    0.000    0.000    0.000 
#
# Total GULP energy -178391.001215 kJ/mol
# GULP energy per Si atom -5574.718788 kJ/mol
# Density = 1.580060 g / cm^3
# Si number density = 15.836643 Si / 1000 Ang^3
#
#
#
# Elastic Constant Matrix: (Units=GPa)
#
#
# Indices 1 2 3 4 5 6 
#
# 1 160.1414 82.8756 19.7226 0.0000 0.0000 0.0000
# 2 82.8756 109.3222 16.1695 0.0000 0.0000 0.0000
# 3 19.7226 16.1695 5.6356 0.0000 0.0000 0.0000
# 4 0.0000 0.0000 0.0000 21.6103 0.0000 0.0000
# 5 0.0000 0.0000 0.0000 0.0000 -6.4704 0.0000
# 6 0.0000 0.0000 0.0000 0.0000 0.0000 20.9779
#
#
#
# Elastic Compliance Matrix: (Units=1/GPa)
#
#
# Indices 1 2 3 4 5 6 
#
# 1 0.012479 -0.005213 -0.028715 0.000000 0.000000 0.000000
# 2 -0.005213 0.018068 -0.033599 0.000000 0.000000 0.000000
# 3 -0.028715 -0.033599 0.374337 0.000000 0.000000 0.000000
# 4 0.000000 0.000000 0.000000 0.046274 0.000000 0.000000
# 5 0.000000 0.000000 0.000000 0.000000 -0.154551 0.000000
# 6 0.000000 0.000000 0.000000 0.000000 0.000000 0.047669
#
#
# Mechanical properties :
#
#
# Convention : Reuss Voigt Hill
#
# Bulk Modulus (GPa) = 3.70601 56.95940 30.33271
# Shear Modulus (GPa) = 8.78312 17.64566 13.21439
#
# Velocity S-wave (km/s) = 2.35757 3.34163 2.89176
# Velocity P-wave (km/s) = 3.12347 7.13678 5.50861
#
# Compressibility (1/GPa) = 0.26983201
#
# Stress axis : x y z
#
# Youngs Moduli (GPa) = 80.13737 55.34500 2.67139
#
# Poissons Ratio (x) = 0.28850 0.07671
# Poissons Ratio (y) = 0.41774 0.08976
# Poissons Ratio (z) = 2.30111 1.85953
#
# Static dielectric constant tensor:
#      x y z
#    x 1.541220 0.000000 0.000000 
#    y 0.000000 1.509540 0.000000 
#    z 0.000000 0.000000 1.545610 
# 
# From -- ./inp_files/14658.got.cif
#   From: 2010.05.17/outbox.cif.g08.bks.cpg/sg24_8_cif.got.tgz:14658.got - 2010.06.04 00:33:39.
