data_PCOD9333552
_publ_section_title
;
Structure prediction by ZEFSAII (Michael W. Deem and Ramdas Pophale) SiO2 
 PCOD9333552
Probable space group: I 21 21 21
;
_chemical_formula_sum "Si O2"
_cell_formula_units_Z 40
_cell_length_a 8.977147
_cell_length_b 15.274540
_cell_length_c 13.721707
_cell_angle_alpha 90.000000
_cell_angle_beta 90.000000
_cell_angle_gamma 90.000000
_cell_volume 1881.545039
_symmetry_space_group_name_H-M "I 21 21 21"
_symmetry_group_IT_number 24
_symmetry_cell_setting 'orthorhombic'
loop_
_space_group_symop_operation_xyz
x,y,z
-x,1/2-y,z
x,-y,1/2-z
1/2-x,y,-z
1/2+x,1/2+y,1/2+z
1/2-x,-y,1/2+z
1/2+x,1/2-y,-z
-x,1/2+y,1/2-z
loop_
_atom_site_type_symbol
_atom_site_label
_atom_site_fract_x
_atom_site_fract_y
_atom_site_fract_z
Si Si1 0.385875 0.908163 0.215380
Si Si2 0.575367 0.154640 0.108917
Si Si3 0.572681 0.654253 0.009411
Si Si4 0.434266 0.152051 0.703263
Si Si5 0.069175 0.348076 0.102978
O O1 0.510031 0.889818 0.295615
O O2 0.451200 0.902407 0.106570
O O3 0.244213 0.843503 0.217324
O O4 0.318942 0.000000 0.250000
O O5 0.500000 0.250000 0.108939
O O6 0.753303 0.159806 0.112588
O O7 0.534549 0.112673 0.003661
O O8 0.500000 0.750000 0.022962
O O9 0.750000 0.667103 0.000000
O O10 0.528976 0.614391 0.904049
O O11 0.500000 0.250000 0.698198
O O12 0.502882 0.109002 0.799843
O O13 0.000000 0.250000 0.100317
#
# Coordination Sequence:
#
# PCOD9333552 Si02
#       5
#     8   8   8   8   8
#     4  11  23  38  56  88 127 158 196 248 319 369
#     4  10  19  34  59  85 116 156 200 249 294 361
#     4   9  19  36  60  85 115 150 203 253 292 348
#     4   9  18  37  60  85 116 153 209 254 289 354
#     4   9  18  33  57  88 114 142 199 251 296 341
#
# _framework density 21.259125999999998
#
# number of rings (size 3 to 8) (size 9 to 14) (size 15 to 20)
#    0.000    2.400    0.000    3.000    0.000    7.200 
#   10.800    1.000    8.800    0.000    0.000    0.000 
#    0.000    0.000    0.000    0.000    0.000    0.000 
#
# Total GULP energy -111447.456281 kJ/mol
# GULP energy per Si atom -5572.372814 kJ/mol
# Density = 2.121074 g / cm^3
# Si number density = 21.259126 Si / 1000 Ang^3
#
#
#
# Elastic Constant Matrix: (Units=GPa)
#
#
# Indices 1 2 3 4 5 6 
#
# 1 69.5983 3.2374 63.4047 0.0017 0.0000 0.0000
# 2 3.2374 25.6066 25.2700 0.0012 0.0000 0.0000
# 3 63.4047 25.2700 253.6123 -0.0056 0.0000 0.0000
# 4 0.0017 0.0012 -0.0056-9667.0677 -0.0020 -0.0001
# 5 0.0000 0.0000 0.0000 -0.0020 31.8115 0.0000
# 6 0.0000 0.0000 0.0000 -0.0001 0.0000 5.4042
#
#
#
# Elastic Compliance Matrix: (Units=1/GPa)
#
#
# Indices 1 2 3 4 5 6 
#
# 1 0.018749 0.002501 -0.004937 0.000000 0.000000 0.000000
# 2 0.002501 0.043645 -0.004974 0.000000 0.000000 0.000000
# 3 -0.004937 -0.004974 0.005673 0.000000 0.000000 0.000000
# 4 0.000000 0.000000 0.000000 -0.000103 0.000000 0.000000
# 5 0.000000 0.000000 0.000000 0.000000 0.031435 0.000000
# 6 0.000000 0.000000 0.000000 0.000000 0.000000 0.185042
#
#
# Mechanical properties :
#
#
# Convention : Reuss Voigt Hill
#
# Bulk Modulus (GPa) = 18.78004 59.18237 38.98121
# Shear Modulus (GPa) = 15.77242 -1908.84341 -946.53549
#
# Velocity S-wave (km/s) = 2.72676 -29.99738 -21.12354
# Velocity P-wave (km/s) = 4.33205 34.23290 24.01171
#
# Compressibility (1/GPa) = 0.05324801
#
# Stress axis : x y z
#
# Youngs Moduli (GPa) = 53.33575 22.91219 176.27846
#
# Poissons Ratio (x) = -0.05731 0.87022
# Poissons Ratio (y) = -0.13341 0.87683
# Poissons Ratio (z) = 0.26330 0.11397
#
# Static dielectric constant tensor:
#      x y z
#    x 18.893850 0.000010 0.000000 
#    y 0.000010 1.909730 0.000000 
#    z 0.000000 0.000000 1.866360 
# 
# From -- ./inp_files/24518.got.cif
#   From: 2010.05.17/outbox.cif.g08.bks.cpg/sg24_13_cif.got.tgz:24518.got - 2010.06.04 00:33:39.
