data_PCOD9333344
_publ_section_title
;
Structure prediction by ZEFSAII (Michael W. Deem and Ramdas Pophale) SiO2 
 PCOD9333344
Probable space group: I 21 21 21
;
_chemical_formula_sum "Si O2"
_cell_formula_units_Z 64
_cell_length_a 5.589028
_cell_length_b 19.614856
_cell_length_c 26.207710
_cell_angle_alpha 90.000000
_cell_angle_beta 90.000000
_cell_angle_gamma 90.000000
_cell_volume 2873.098292
_symmetry_space_group_name_H-M "I 21 21 21"
_symmetry_group_IT_number 24
_symmetry_cell_setting 'orthorhombic'
loop_
_space_group_symop_operation_xyz
x,y,z
-x,1/2-y,z
x,-y,1/2-z
1/2-x,y,-z
1/2+x,1/2+y,1/2+z
1/2-x,-y,1/2+z
1/2+x,1/2-y,-z
-x,1/2+y,1/2-z
loop_
_atom_site_type_symbol
_atom_site_label
_atom_site_fract_x
_atom_site_fract_y
_atom_site_fract_z
Si Si1 0.115136 0.522601 0.629856
Si Si2 0.111631 0.930796 0.385349
Si Si3 0.357802 0.419243 0.238010
Si Si4 0.004591 0.327478 0.410309
Si Si5 0.499669 0.831563 0.527928
Si Si6 0.000634 0.437651 0.502720
Si Si7 0.998232 0.623528 0.883327
Si Si8 0.857279 0.580820 0.263596
O O1 0.387239 0.516569 0.608778
O O2 0.140319 0.575923 0.676180
O O3 0.880423 0.546578 0.598712
O O4 0.034987 0.447119 0.646995
O O5 0.020810 0.867342 0.417527
O O6 0.136837 0.917491 0.325024
O O7 0.354244 0.500000 0.250000
O O8 0.608333 0.387482 0.254214
O O9 0.106690 0.389874 0.256206
O O10 0.254017 0.335542 0.379619
O O11 0.000000 0.250000 0.429869
O O12 0.003543 0.380293 0.458172
O O13 0.762823 0.343223 0.378094
O O14 0.500000 0.750000 0.533017
O O15 0.250000 0.849661 0.500000
O O16 0.750000 0.850507 0.500000
O O17 0.750000 0.476349 0.500000
O O18 0.999485 0.400614 0.557261
O O19 0.250000 0.477437 0.500000
O O20 0.852456 0.500000 0.250000
#
# Coordination Sequence:
#
# PCOD9333344 Si02
#       8
#     8   8   8   8   8   8   8   8
#     4  10  19  31  48  71 104 128 154 198 253 326
#     4  10  19  33  52  74 101 138 174 208 263 324
#     4   8  14  25  42  65  94 123 151 183 227 294
#     4  10  19  31  46  60  79 113 161 207 242 275
#     4  10  21  38  56  75 102 141 194 243 275 312
#     4   8  16  27  39  54  73 100 139 181 229 265
#     4  10  19  30  42  62  89 117 148 194 246 285
#     4   8  14  25  44  71 101 126 154 196 246 309
#
# _framework density 22.275604999999999
#
# number of rings (size 3 to 8) (size 9 to 14) (size 15 to 20)
#    0.000    2.750    0.000    1.875    0.000    4.500 
#    0.000   11.250    0.000    0.000    0.000    0.000 
#    0.000   96.000    0.000    1.000    0.000    0.000 
#
# Total GULP energy -178186.108804 kJ/mol
# GULP energy per Si atom -5568.315900 kJ/mol
# Density = 2.222490 g / cm^3
# Si number density = 22.275605 Si / 1000 Ang^3
#
#
#
# Elastic Constant Matrix: (Units=GPa)
#
#
# Indices 1 2 3 4 5 6 
#
# 1 252.6159 8.4144 4.5238 0.0000 0.0000 0.0000
# 2 8.4144 34.7881 11.1099 0.0000 0.0000 0.0000
# 3 4.5238 11.1099 41.2890 0.0000 0.0000 0.0000
# 4 0.0000 0.0000 0.0000 5.3538 0.0000 0.0000
# 5 0.0000 0.0000 0.0000 0.0000 11.2169 0.0000
# 6 0.0000 0.0000 0.0000 0.0000 0.0000 19.7375
#
#
#
# Elastic Compliance Matrix: (Units=1/GPa)
#
#
# Indices 1 2 3 4 5 6 
#
# 1 0.003992 -0.000904 -0.000194 0.000000 0.000000 0.000000
# 2 -0.000904 0.031652 -0.008418 0.000000 0.000000 0.000000
# 3 -0.000194 -0.008418 0.026506 0.000000 0.000000 0.000000
# 4 0.000000 0.000000 0.000000 0.186783 0.000000 0.000000
# 5 0.000000 0.000000 0.000000 0.000000 0.089151 0.000000
# 6 0.000000 0.000000 0.000000 0.000000 0.000000 0.050665
#
#
# Mechanical properties :
#
#
# Convention : Reuss Voigt Hill
#
# Bulk Modulus (GPa) = 23.19169 41.86547 32.52858
# Shear Modulus (GPa) = 11.84402 27.57130 19.70766
#
# Velocity S-wave (km/s) = 2.30837 3.52196 2.97765
# Velocity P-wave (km/s) = 4.18791 5.94761 5.14357
#
# Compressibility (1/GPa) = 0.04311890
#
# Stress axis : x y z
#
# Youngs Moduli (GPa) = 250.49126 31.59321 37.72749
#
# Poissons Ratio (x) = 0.02855 0.00733
# Poissons Ratio (y) = 0.22634 0.31759
# Poissons Ratio (z) = 0.04866 0.26595
#
# Static dielectric constant tensor:
#      x y z
#    x 1.974980 0.000000 0.000000 
#    y 0.000000 1.738000 0.000000 
#    z 0.000000 0.000000 1.865460 
# 
# From -- ./inp_files/38022.got.cif
#   From: 2010.05.17/outbox.cif.g08.bks.cpg/sg24_20_cif.got.tgz:38022.got - 2010.06.04 00:33:39.
