data_PCOD9333744
_publ_section_title
;
Structure prediction by ZEFSAII (Michael W. Deem and Ramdas Pophale) SiO2 
 PCOD9333744
Probable space group: I 21 21 21
;
_chemical_formula_sum "Si O2"
_cell_formula_units_Z 40
_cell_length_a 14.226582
_cell_length_b 7.116553
_cell_length_c 18.302949
_cell_angle_alpha 90.000000
_cell_angle_beta 90.000000
_cell_angle_gamma 90.000000
_cell_volume 1853.067883
_symmetry_space_group_name_H-M "I 21 21 21"
_symmetry_group_IT_number 24
_symmetry_cell_setting 'orthorhombic'
loop_
_space_group_symop_operation_xyz
x,y,z
-x,1/2-y,z
x,-y,1/2-z
1/2-x,y,-z
1/2+x,1/2+y,1/2+z
1/2-x,-y,1/2+z
1/2+x,1/2-y,-z
-x,1/2+y,1/2-z
loop_
_atom_site_type_symbol
_atom_site_label
_atom_site_fract_x
_atom_site_fract_y
_atom_site_fract_z
Si Si1 0.365954 0.500000 0.250000
Si Si2 0.377575 0.000000 0.750000
Si Si3 0.500000 0.250000 0.341687
Si Si4 0.790930 0.824993 0.342950
Si Si5 0.962188 0.037604 0.966695
Si Si6 0.750000 0.859030 0.500000
Si Si7 0.481833 0.477140 0.870418
O O1 0.422307 0.328137 0.285906
O O2 0.302343 0.581051 0.314232
O O3 0.317776 0.837151 0.713265
O O4 0.446747 0.068869 0.685678
O O5 0.505289 0.421920 0.399565
O O6 0.779692 0.751801 0.426090
O O7 0.873289 0.981604 0.346718
O O8 0.000000 0.250000 0.959272
O O9 0.847311 0.035671 0.975830
O O10 0.996654 0.967457 0.046113
O O11 0.500000 0.250000 0.866557
#
# Coordination Sequence:
#
# PCOD9333744 Si02
#       7
#     4   4   4   8   8   4   8
#     4  12  27  45  64  98 130 182 232 303 343 406
#     4  10  19  37  64 108 136 182 226 273 355 426
#     4  12  28  48  68  98 134 186 250 286 346 422
#     4  10  21  40  66  97 141 179 228 288 348 413
#     4  10  22  45  72 100 142 188 230 290 356 423
#     4  10  20  44  74  96 142 186 228 292 358 412
#     4   8  17  37  66 100 140 179 216 280 352 410
#
# _framework density 21.585825
#
# number of rings (size 3 to 8) (size 9 to 14) (size 15 to 20)
#    0.000    2.000    2.000    1.800    1.400    2.400 
#   12.600    1.000    0.000    0.000    0.000    0.000 
#    0.000    0.000    0.000    0.000    0.000    0.000 
#
# Total GULP energy -111501.404113 kJ/mol
# GULP energy per Si atom -5575.070206 kJ/mol
# Density = 2.153669 g / cm^3
# Si number density = 21.585825 Si / 1000 Ang^3
#
#
#
# Elastic Constant Matrix: (Units=GPa)
#
#
# Indices 1 2 3 4 5 6 
#
# 1 114.2137 42.0306 53.9903 0.0000 0.0000 0.0000
# 2 42.0306 83.7436 35.2286 0.0000 0.0000 0.0000
# 3 53.9903 35.2286 161.8742 0.0000 0.0000 0.0000
# 4 0.0000 0.0000 0.0000 23.7200 0.0000 0.0000
# 5 0.0000 0.0000 0.0000 0.0000 169.4587 0.0000
# 6 0.0000 0.0000 0.0000 0.0000 0.0000 7.2948
#
#
#
# Elastic Compliance Matrix: (Units=1/GPa)
#
#
# Indices 1 2 3 4 5 6 
#
# 1 0.011883 -0.004730 -0.002934 0.000000 0.000000 0.000000
# 2 -0.004730 0.015027 -0.001693 0.000000 0.000000 0.000000
# 3 -0.002934 -0.001693 0.007525 0.000000 0.000000 0.000000
# 4 0.000000 0.000000 0.000000 0.042159 0.000000 0.000000
# 5 0.000000 0.000000 0.000000 0.000000 0.005901 0.000000
# 6 0.000000 0.000000 0.000000 0.000000 0.000000 0.137083
#
#
# Mechanical properties :
#
#
# Convention : Reuss Voigt Hill
#
# Bulk Modulus (GPa) = 63.60683 69.14783 66.37733
# Shear Modulus (GPa) = 20.53120 55.33349 37.93234
#
# Velocity S-wave (km/s) = 3.08741 5.06851 4.19654
# Velocity P-wave (km/s) = 6.49926 8.14595 7.36875
#
# Compressibility (1/GPa) = 0.01572158
#
# Stress axis : x y z
#
# Youngs Moduli (GPa) = 84.15358 66.54602 132.89661
#
# Poissons Ratio (x) = 0.31475 0.38992
# Poissons Ratio (y) = 0.39803 0.22497
# Poissons Ratio (z) = 0.24691 0.11265
#
# Static dielectric constant tensor:
#      x y z
#    x 1.855210 0.000000 0.000000 
#    y 0.000000 1.783920 0.000000 
#    z 0.000000 0.000000 1.841890 
# 
# From -- ./inp_files/30642.got.cif
#   From: 2010.05.17/outbox.cif.g08.bks.cpg/sg24_16_cif.got.tgz:30642.got - 2010.06.04 00:33:39.
