data_PCOD9333843
_publ_section_title
;
Structure prediction by ZEFSAII (Michael W. Deem and Ramdas Pophale) SiO2 
 PCOD9333843
Probable space group: I 21 21 21
;
_chemical_formula_sum "Si O2"
_cell_formula_units_Z 40
_cell_length_a 9.505470
_cell_length_b 21.255883
_cell_length_c 8.224821
_cell_angle_alpha 90.000000
_cell_angle_beta 90.000000
_cell_angle_gamma 90.000000
_cell_volume 1661.801710
_symmetry_space_group_name_H-M "I 21 21 21"
_symmetry_group_IT_number 24
_symmetry_cell_setting 'orthorhombic'
loop_
_space_group_symop_operation_xyz
x,y,z
-x,1/2-y,z
x,-y,1/2-z
1/2-x,y,-z
1/2+x,1/2+y,1/2+z
1/2-x,-y,1/2+z
1/2+x,1/2-y,-z
-x,1/2+y,1/2-z
loop_
_atom_site_type_symbol
_atom_site_label
_atom_site_fract_x
_atom_site_fract_y
_atom_site_fract_z
Si Si1 0.220168 0.805716 0.319206
Si Si2 0.447871 0.903464 0.340318
Si Si3 0.451529 0.357754 0.652635
Si Si4 0.851308 0.184324 0.699892
Si Si5 0.080120 0.026793 0.504226
O O1 0.250000 0.780283 0.500000
O O2 0.294388 0.873506 0.322443
O O3 0.302884 0.756333 0.207597
O O4 0.063187 0.817729 0.256605
O O5 0.548736 0.843127 0.339968
O O6 0.469837 0.941478 0.173464
O O7 0.461404 0.953681 0.483449
O O8 0.293218 0.354862 0.716829
O O9 0.428718 0.328096 0.471661
O O10 0.511715 0.427977 0.628709
O O11 0.250000 0.029566 0.500000
#
# Coordination Sequence:
#
# PCOD9333843 Si02
#       5
#     8   8   8   8   8
#     4  12  25  44  72 107 149 190 246 310 374 445
#     4  10  22  39  69  97 135 185 235 303 365 427
#     4  10  23  44  73 104 141 193 250 301 369 450
#     4  10  24  42  70 105 149 188 243 306 377 455
#     4  10  19  40  72  94 129 177 252 297 343 442
#
# _framework density 24.070260000000001
#
# number of rings (size 3 to 8) (size 9 to 14) (size 15 to 20)
#    0.000    1.600    2.000    1.800    0.000   14.400 
#    0.000    0.000   83.600    0.000    0.000    0.000 
#    0.000    0.000    0.000    0.000    0.000    0.000 
#
# Total GULP energy -111772.969765 kJ/mol
# GULP energy per Si atom -5588.648488 kJ/mol
# Density = 2.401547 g / cm^3
# Si number density = 24.070260 Si / 1000 Ang^3
#
#
#
# Elastic Constant Matrix: (Units=GPa)
#
#
# Indices 1 2 3 4 5 6 
#
# 1 140.2621 42.2675 45.3151 -0.0003 0.0000 0.0001
# 2 42.2675 81.0903 26.3323 -0.0002 0.0000 -0.0003
# 3 45.3151 26.3323 81.0299 -0.0010 0.0001 0.0013
# 4 -0.0003 -0.0002 -0.0010 18.8298 0.0001 0.0006
# 5 0.0000 0.0000 0.0001 0.0001 17.8444 0.0000
# 6 0.0001 -0.0003 0.0013 0.0006 0.0000 59.3306
#
#
#
# Elastic Compliance Matrix: (Units=1/GPa)
#
#
# Indices 1 2 3 4 5 6 
#
# 1 0.009573 -0.003635 -0.004172 0.000000 0.000000 0.000000
# 2 -0.003635 0.015167 -0.002896 0.000000 0.000000 0.000000
# 3 -0.004172 -0.002896 0.015616 0.000001 0.000000 0.000000
# 4 0.000000 0.000000 0.000001 0.053107 0.000000 0.000000
# 5 0.000000 0.000000 0.000000 0.000000 0.056040 0.000000
# 6 0.000000 0.000000 0.000000 0.000000 0.000000 0.016855
#
#
# Mechanical properties :
#
#
# Convention : Reuss Voigt Hill
#
# Bulk Modulus (GPa) = 52.77333 58.91245 55.84289
# Shear Modulus (GPa) = 25.76256 31.76546 28.76401
#
# Velocity S-wave (km/s) = 3.27510 3.63671 3.46063
# Velocity P-wave (km/s) = 6.02279 6.49327 6.26245
#
# Compressibility (1/GPa) = 0.01894897
#
# Stress axis : x y z
#
# Youngs Moduli (GPa) = 104.46237 65.93261 64.03873
#
# Poissons Ratio (x) = 0.23966 0.26719
# Poissons Ratio (y) = 0.37971 0.18546
# Poissons Ratio (z) = 0.43585 0.19094
#
# Static dielectric constant tensor:
#      x y z
#    x 1.893140 0.000000 0.000000 
#    y 0.000000 1.958080 0.000000 
#    z 0.000000 0.000000 2.053200 
# 
# From -- ./inp_files/9243.got.cif
#   From: 2010.05.17/outbox.cif.g08.bks.cpg/sg24_5_cif.got.tgz:9243.got - 2010.06.04 00:33:39.
