data_PCOD9333188
_publ_section_title
;
Structure prediction by ZEFSAII (Michael W. Deem and Ramdas Pophale) SiO2 
 PCOD9333188
Probable space group: I 21 21 21
;
_chemical_formula_sum "Si O2"
_cell_formula_units_Z 32
_cell_length_a 19.162470
_cell_length_b 7.870267
_cell_length_c 8.383156
_cell_angle_alpha 90.000000
_cell_angle_beta 90.000000
_cell_angle_gamma 90.000000
_cell_volume 1264.295237
_symmetry_space_group_name_H-M "I 21 21 21"
_symmetry_group_IT_number 24
_symmetry_cell_setting 'orthorhombic'
loop_
_space_group_symop_operation_xyz
x,y,z
-x,1/2-y,z
x,-y,1/2-z
1/2-x,y,-z
1/2+x,1/2+y,1/2+z
1/2-x,-y,1/2+z
1/2+x,1/2-y,-z
-x,1/2+y,1/2-z
loop_
_atom_site_type_symbol
_atom_site_label
_atom_site_fract_x
_atom_site_fract_y
_atom_site_fract_z
Si Si1 0.198651 0.342441 0.644942
Si Si2 0.672510 0.608288 0.445167
Si Si3 0.030462 0.939190 0.932769
Si Si4 0.601398 0.941363 0.571661
O O1 0.228628 0.500000 0.750000
O O2 0.250000 0.301387 0.500000
O O3 0.181374 0.190949 0.767621
O O4 0.132130 0.428170 0.559981
O O5 0.750000 0.563809 0.500000
O O6 0.611736 0.469809 0.472216
O O7 0.642610 0.768154 0.543809
O O8 0.000000 0.750000 0.952624
O O9 0.023302 0.000000 0.750000
O O10 0.980771 0.060253 0.036156
O O11 0.611944 0.000000 0.750000
#
# Coordination Sequence:
#
# PCOD9333188 Si02
#       4
#     8   8   8   8
#     4  10  18  35  68 113 157 193 231 286 359 439
#     4  11  24  45  73 109 152 191 241 303 365 438
#     4  12  26  49  76 102 142 198 252 305 369 439
#     4  11  22  41  74 112 151 194 243 294 354 432
#
# _framework density 25.310544
#
# number of rings (size 3 to 8) (size 9 to 14) (size 15 to 20)
#    0.000    1.000    0.000   11.250    0.000    2.000 
#    0.000   12.500    0.000    0.000    0.000    0.000 
#    0.000    0.000    0.000    0.000    0.000    0.000 
#
# Total GULP energy -89665.678480 kJ/mol
# GULP energy per Si atom -5604.104905 kJ/mol
# Density = 2.525294 g / cm^3
# Si number density = 25.310544 Si / 1000 Ang^3
#
#
#
# Elastic Constant Matrix: (Units=GPa)
#
#
# Indices 1 2 3 4 5 6 
#
# 1 248.5468 90.8241 61.7701 0.0000 0.0000 0.0000
# 2 90.8241 178.6718 34.9238 0.0000 0.0000 0.0000
# 3 61.7701 34.9238 134.2789 0.0000 0.0000 0.0000
# 4 0.0000 0.0000 0.0000 7.8656 0.0000 0.0000
# 5 0.0000 0.0000 0.0000 0.0000 40.9241 0.0000
# 6 0.0000 0.0000 0.0000 0.0000 0.0000 40.5495
#
#
#
# Elastic Compliance Matrix: (Units=1/GPa)
#
#
# Indices 1 2 3 4 5 6 
#
# 1 0.005343 -0.002355 -0.001845 0.000000 0.000000 0.000000
# 2 -0.002355 0.006935 -0.000720 0.000000 0.000000 0.000000
# 3 -0.001845 -0.000720 0.008483 0.000000 0.000000 0.000000
# 4 0.000000 0.000000 0.000000 0.127136 0.000000 0.000000
# 5 0.000000 0.000000 0.000000 0.000000 0.024435 0.000000
# 6 0.000000 0.000000 0.000000 0.000000 0.000000 0.024661
#
#
# Mechanical properties :
#
#
# Convention : Reuss Voigt Hill
#
# Bulk Modulus (GPa) = 91.57775 104.05928 97.81851
# Shear Modulus (GPa) = 23.75590 42.79981 33.27785
#
# Velocity S-wave (km/s) = 3.06694 4.11662 3.62993
# Velocity P-wave (km/s) = 6.98582 7.98735 7.50331
#
# Compressibility (1/GPa) = 0.01091968
#
# Stress axis : x y z
#
# Youngs Moduli (GPa) = 187.17629 144.19997 117.87884
#
# Poissons Ratio (x) = 0.33961 0.21750
# Poissons Ratio (y) = 0.44082 0.08490
# Poissons Ratio (z) = 0.34536 0.10386
#
# Static dielectric constant tensor:
#      x y z
#    x 2.022980 0.000000 0.000000 
#    y 0.000000 2.055540 0.000000 
#    z 0.000000 0.000000 1.945200 
# 
# From -- ./inp_files/14775.got.cif
#   From: 2010.05.17/outbox.cif.g08.bks.cpg/sg24_8_cif.got.tgz:14775.got - 2010.06.04 00:33:39.
