data_PCOD9333013
_publ_section_title
;
Structure prediction by ZEFSAII (Michael W. Deem and Ramdas Pophale) SiO2 
 PCOD9333013
Probable space group: I 21 21 21
;
_chemical_formula_sum "Si O2"
_cell_formula_units_Z 64
_cell_length_a 27.404991
_cell_length_b 8.387240
_cell_length_c 12.543514
_cell_angle_alpha 90.000000
_cell_angle_beta 90.000000
_cell_angle_gamma 90.000000
_cell_volume 2883.154749
_symmetry_space_group_name_H-M "I 21 21 21"
_symmetry_group_IT_number 24
_symmetry_cell_setting 'orthorhombic'
loop_
_space_group_symop_operation_xyz
x,y,z
-x,1/2-y,z
x,-y,1/2-z
1/2-x,y,-z
1/2+x,1/2+y,1/2+z
1/2-x,-y,1/2+z
1/2+x,1/2-y,-z
-x,1/2+y,1/2-z
loop_
_atom_site_type_symbol
_atom_site_label
_atom_site_fract_x
_atom_site_fract_y
_atom_site_fract_z
Si Si1 0.970998 0.029242 0.124496
Si Si2 0.365124 0.302535 0.910105
Si Si3 0.562357 0.599785 0.489306
Si Si4 0.173441 0.375146 0.492459
Si Si5 0.789762 0.191837 0.265571
Si Si6 0.577487 0.310026 0.234486
Si Si7 0.436020 0.275537 0.456892
Si Si8 0.314375 0.313804 0.274410
O O1 0.978943 0.000000 0.250000
O O2 0.917573 0.113920 0.116655
O O3 0.964640 0.877226 0.044889
O O4 0.019818 0.109998 0.076995
O O5 0.383834 0.149160 0.972171
O O6 0.334287 0.254030 0.807803
O O7 0.332347 0.433773 0.972398
O O8 0.556689 0.712778 0.384769
O O9 0.561892 0.413575 0.464975
O O10 0.194036 0.291821 0.387730
O O11 0.118830 0.322902 0.517834
O O12 0.199370 0.323811 0.600207
O O13 0.736597 0.251271 0.227894
O O14 0.786843 0.000000 0.250000
O O15 0.570449 0.500000 0.250000
O O16 0.554786 0.201636 0.329498
O O17 0.635927 0.275775 0.243106
O O18 0.323809 0.500000 0.250000
#
# Coordination Sequence:
#
# PCOD9333013 Si02
#       8
#     8   8   8   8   8   8   8   8
#     4  11  23  40  61  87 120 159 204 250 306 372
#     4  10  20  36  55  83 119 150 189 248 307 350
#     4  11  22  37  58  87 117 155 200 248 302 362
#     4   9  17  33  55  79 113 153 192 239 294 355
#     4   9  18  32  53  82 116 151 193 243 294 357
#     4   9  20  40  59  82 123 159 193 243 301 362
#     4   9  20  39  62  84 115 160 198 241 302 364
#     4  10  18  31  57  86 109 149 201 244 291 352
#
# _framework density 22.197907000000001
#
# number of rings (size 3 to 8) (size 9 to 14) (size 15 to 20)
#    0.000    2.250    0.000    3.750    0.000    3.000 
#    0.000   10.625    0.000    3.000    0.000    0.000 
#    0.000    0.000    0.000    0.000    0.000    0.000 
#
# Total GULP energy -178204.054363 kJ/mol
# GULP energy per Si atom -5568.876699 kJ/mol
# Density = 2.214738 g / cm^3
# Si number density = 22.197907 Si / 1000 Ang^3
#
#
#
# Elastic Constant Matrix: (Units=GPa)
#
#
# Indices 1 2 3 4 5 6 
#
# 1 85.2858 2.2183 43.1008 0.0000 0.0000 0.0000
# 2 2.2183 26.9457 20.5698 0.0000 0.0000 0.0000
# 3 43.1008 20.5698 137.9375 0.0000 0.0000 0.0000
# 4 0.0000 0.0000 0.0000 17.9221 0.0000 0.0000
# 5 0.0000 0.0000 0.0000 0.0000 19.0673 0.0000
# 6 0.0000 0.0000 0.0000 0.0000 0.0000 12.6571
#
#
#
# Elastic Compliance Matrix: (Units=1/GPa)
#
#
# Indices 1 2 3 4 5 6 
#
# 1 0.014069 0.002480 -0.004766 0.000000 0.000000 0.000000
# 2 0.002480 0.042316 -0.007085 0.000000 0.000000 0.000000
# 3 -0.004766 -0.007085 0.009795 0.000000 0.000000 0.000000
# 4 0.000000 0.000000 0.000000 0.055797 0.000000 0.000000
# 5 0.000000 0.000000 0.000000 0.000000 0.052446 0.000000
# 6 0.000000 0.000000 0.000000 0.000000 0.000000 0.079007
#
#
# Mechanical properties :
#
#
# Convention : Reuss Voigt Hill
#
# Bulk Modulus (GPa) = 21.07993 42.43853 31.75923
# Shear Modulus (GPa) = 17.36195 22.21466 19.78830
#
# Velocity S-wave (km/s) = 2.79972 3.16690 2.98895
# Velocity P-wave (km/s) = 4.46858 5.70369 5.12349
#
# Compressibility (1/GPa) = 0.04743849
#
# Stress axis : x y z
#
# Youngs Moduli (GPa) = 71.07635 23.63160 102.08791
#
# Poissons Ratio (x) = -0.05861 0.48656
# Poissons Ratio (y) = -0.17627 0.72332
# Poissons Ratio (z) = 0.33875 0.16744
#
# Static dielectric constant tensor:
#      x y z
#    x 1.846030 0.000000 0.000000 
#    y 0.000000 1.833720 0.000000 
#    z 0.000000 0.000000 1.942710 
# 
# From -- ./inp_files/23204.got.cif
#   From: 2010.05.17/outbox.cif.g08.bks.cpg/sg24_12_cif.got.tgz:23204.got - 2010.06.04 00:33:39.
