data_PCOD9333481
_publ_section_title
;
Structure prediction by ZEFSAII (Michael W. Deem and Ramdas Pophale) SiO2 
 PCOD9333481
Probable space group: I 21 21 21
;
_chemical_formula_sum "Si O2"
_cell_formula_units_Z 48
_cell_length_a 9.404904
_cell_length_b 13.102140
_cell_length_c 13.424751
_cell_angle_alpha 90.000000
_cell_angle_beta 90.000000
_cell_angle_gamma 90.000000
_cell_volume 1654.256470
_symmetry_space_group_name_H-M "I 21 21 21"
_symmetry_group_IT_number 24
_symmetry_cell_setting 'orthorhombic'
loop_
_space_group_symop_operation_xyz
x,y,z
-x,1/2-y,z
x,-y,1/2-z
1/2-x,y,-z
1/2+x,1/2+y,1/2+z
1/2-x,-y,1/2+z
1/2+x,1/2-y,-z
-x,1/2+y,1/2-z
loop_
_atom_site_type_symbol
_atom_site_label
_atom_site_fract_x
_atom_site_fract_y
_atom_site_fract_z
Si Si1 0.854907 0.348498 0.133869
Si Si2 0.249542 0.605932 0.882771
Si Si3 0.032885 0.133595 0.921265
Si Si4 0.653316 0.335399 0.648617
Si Si5 0.230047 0.386295 0.118578
Si Si6 0.953263 0.362865 0.571556
O O1 0.687211 0.377643 0.127494
O O2 0.904145 0.372501 0.245813
O O3 0.846284 0.222921 0.130603
O O4 0.933160 0.400765 0.038109
O O5 0.308563 0.712753 0.839623
O O6 0.323535 0.499726 0.854215
O O7 0.081440 0.575803 0.881548
O O8 0.250000 0.631216 0.000000
O O9 0.000000 0.250000 0.945217
O O10 0.895686 0.120295 0.848619
O O11 0.803433 0.385705 0.620187
O O12 0.563165 0.357525 0.548637
O O13 0.250000 0.395567 0.000000
O O14 0.000000 0.250000 0.601256
#
# Coordination Sequence:
#
# PCOD9333481 Si02
#       6
#     8   8   8   8   8   8
#     4  10  19  33  56  80 104 137 183 225 260 317
#     4  10  19  34  54  77 109 140 172 220 270 319
#     4   9  17  35  52  78 105 141 181 213 269 318
#     4  10  19  33  56  80 104 137 183 225 260 317
#     4  10  19  34  54  77 109 140 172 220 270 319
#     4   9  17  35  52  78 105 141 181 213 269 318
#
# _framework density 29.016057
#
# number of rings (size 3 to 8) (size 9 to 14) (size 15 to 20)
#    0.000    2.333    6.667    0.000    0.000    7.333 
#    0.000    3.333    0.000    3.000    0.000    0.000 
#    0.000    0.000    0.000    0.000    0.000    0.000 
#
# Total GULP energy -133799.767700 kJ/mol
# GULP energy per Si atom -5574.990321 kJ/mol
# Density = 2.895001 g / cm^3
# Si number density = 29.016057 Si / 1000 Ang^3
#
#
#
# Elastic Constant Matrix: (Units=GPa)
#
#
# Indices 1 2 3 4 5 6 
#
# 1 138.1189 22.2785 13.1065 0.0000 0.0000 0.0000
# 2 22.2785 145.0226 -1.7432 0.0000 0.0000 0.0000
# 3 13.1065 -1.7432 175.0025 0.0000 0.0000 0.0000
# 4 0.0000 0.0000 0.0000 11.0676 0.0000 0.0000
# 5 0.0000 0.0000 0.0000 0.0000 9.8408 0.0000
# 6 0.0000 0.0000 0.0000 0.0000 0.0000 23.8436
#
#
#
# Elastic Compliance Matrix: (Units=1/GPa)
#
#
# Indices 1 2 3 4 5 6 
#
# 1 0.007481 -0.001156 -0.000572 0.000000 0.000000 0.000000
# 2 -0.001156 0.007075 0.000157 0.000000 0.000000 0.000000
# 3 -0.000572 0.000157 0.005759 0.000000 0.000000 0.000000
# 4 0.000000 0.000000 0.000000 0.090354 0.000000 0.000000
# 5 0.000000 0.000000 0.000000 0.000000 0.101618 0.000000
# 6 0.000000 0.000000 0.000000 0.000000 0.000000 0.041940
#
#
# Mechanical properties :
#
#
# Convention : Reuss Voigt Hill
#
# Bulk Modulus (GPa) = 58.23162 58.38083 58.30623
# Shear Modulus (GPa) = 19.00477 37.25055 28.12766
#
# Velocity S-wave (km/s) = 2.56202 3.58689 3.11687
# Velocity P-wave (km/s) = 5.37255 6.10887 5.75250
#
# Compressibility (1/GPa) = 0.01717280
#
# Stress axis : x y z
#
# Youngs Moduli (GPa) = 133.67423 141.34348 173.65356
#
# Poissons Ratio (x) = 0.16341 0.09929
# Poissons Ratio (y) = 0.15454 -0.02727
# Poissons Ratio (z) = 0.07643 -0.02220
#
# Static dielectric constant tensor:
#      x y z
#    x 2.511820 0.000000 0.000000 
#    y 0.000000 2.405880 0.000000 
#    z 0.000000 0.000000 2.204480 
# 
# From -- ./inp_files/25877.got.cif
#   From: 2010.05.17/outbox.cif.g08.bks.cpg/sg24_13_cif.got.tgz:25877.got - 2010.06.04 00:33:39.
