data_PCOD9333290
_publ_section_title
;
Structure prediction by ZEFSAII (Michael W. Deem and Ramdas Pophale) SiO2 
 PCOD9333290
Probable space group: I 21 21 21
;
_chemical_formula_sum "Si O2"
_cell_formula_units_Z 36
_cell_length_a 12.881329
_cell_length_b 11.447683
_cell_length_c 10.580312
_cell_angle_alpha 90.000000
_cell_angle_beta 90.000000
_cell_angle_gamma 90.000000
_cell_volume 1560.187313
_symmetry_space_group_name_H-M "I 21 21 21"
_symmetry_group_IT_number 24
_symmetry_cell_setting 'orthorhombic'
loop_
_space_group_symop_operation_xyz
x,y,z
-x,1/2-y,z
x,-y,1/2-z
1/2-x,y,-z
1/2+x,1/2+y,1/2+z
1/2-x,-y,1/2+z
1/2+x,1/2-y,-z
-x,1/2+y,1/2-z
loop_
_atom_site_type_symbol
_atom_site_label
_atom_site_fract_x
_atom_site_fract_y
_atom_site_fract_z
Si Si1 0.976026 0.551283 0.373706
Si Si2 0.785667 0.500000 0.250000
Si Si3 0.114548 0.881703 0.920374
Si Si4 0.890114 0.138939 0.657597
Si Si5 0.353637 0.618806 0.434119
O O1 0.035243 0.500000 0.250000
O O2 0.867020 0.594129 0.311540
O O3 0.930209 0.445675 0.457619
O O4 0.049575 0.622673 0.468029
O O5 0.710849 0.444969 0.355394
O O6 0.133306 0.744422 0.937014
O O7 0.013300 0.884260 0.830960
O O8 0.860743 0.178912 0.798104
O O9 0.844093 0.018287 0.606640
O O10 0.250000 0.659434 0.500000
#
# Coordination Sequence:
#
# PCOD9333290 Si02
#       5
#     8   4   8   8   8
#     4   9  21  34  59  91 114 150 192 249 297 354
#     4  10  20  32  64  86 120 150 192 250 306 342
#     4  10  18  39  57  83 116 155 197 232 297 350
#     4   9  21  35  61  83 109 162 206 231 273 370
#     4  10  20  38  60  81 117 157 197 241 295 341
#
# _framework density 23.074154
#
# number of rings (size 3 to 8) (size 9 to 14) (size 15 to 20)
#    0.667    1.778    0.000    3.333    3.111    1.778 
#    0.000    6.667    0.000    0.000    0.000    0.000 
#    0.000    0.000    0.000    0.000    0.000    0.000 
#
# Total GULP energy -100259.290496 kJ/mol
# GULP energy per Si atom -5569.960583 kJ/mol
# Density = 2.302164 g / cm^3
# Si number density = 23.074154 Si / 1000 Ang^3
#
#
#
# Elastic Constant Matrix: (Units=GPa)
#
#
# Indices 1 2 3 4 5 6 
#
# 1 109.4535 -6.3000 45.7156 0.0000 0.0000 0.0000
# 2 -6.3000 39.2716 5.2715 0.0000 0.0000 0.0000
# 3 45.7156 5.2715 112.5207 0.0000 0.0000 0.0000
# 4 0.0000 0.0000 0.0000 9.2896 0.0000 0.0000
# 5 0.0000 0.0000 0.0000 0.0000 45.8693 0.0000
# 6 0.0000 0.0000 0.0000 0.0000 0.0000 5.7020
#
#
#
# Elastic Compliance Matrix: (Units=1/GPa)
#
#
# Indices 1 2 3 4 5 6 
#
# 1 0.011229 0.002429 -0.004676 0.000000 0.000000 0.000000
# 2 0.002429 0.026150 -0.002212 0.000000 0.000000 0.000000
# 3 -0.004676 -0.002212 0.010891 0.000000 0.000000 0.000000
# 4 0.000000 0.000000 0.000000 0.107647 0.000000 0.000000
# 5 0.000000 0.000000 0.000000 0.000000 0.021801 0.000000
# 6 0.000000 0.000000 0.000000 0.000000 0.000000 0.175377
#
#
# Mechanical properties :
#
#
# Convention : Reuss Voigt Hill
#
# Bulk Modulus (GPa) = 25.41157 38.95778 32.18468
# Shear Modulus (GPa) = 13.32870 26.60943 19.96906
#
# Velocity S-wave (km/s) = 2.40603 3.39958 2.94501
# Velocity P-wave (km/s) = 4.33077 5.68594 5.05398
#
# Compressibility (1/GPa) = 0.03935215
#
# Stress axis : x y z
#
# Youngs Moduli (GPa) = 89.05376 38.24050 91.82138
#
# Poissons Ratio (x) = -0.09289 0.42936
# Poissons Ratio (y) = -0.21632 0.20311
# Poissons Ratio (z) = 0.41642 0.08459
#
# Static dielectric constant tensor:
#      x y z
#    x 1.889410 0.000000 0.000000 
#    y 0.000000 1.981930 0.000000 
#    z 0.000000 0.000000 1.988670 
# 
# From -- ./inp_files/12222.got.cif
#   From: 2010.05.17/outbox.cif.g08.bks.cpg/sg24_7_cif.got.tgz:12222.got - 2010.06.04 00:33:39.
