data_PCOD9333184
_publ_section_title
;
Structure prediction by ZEFSAII (Michael W. Deem and Ramdas Pophale) SiO2 
 PCOD9333184
Probable space group: I 21 21 21
;
_chemical_formula_sum "Si O2"
_cell_formula_units_Z 28
_cell_length_a 13.345878
_cell_length_b 11.291893
_cell_length_c 8.272119
_cell_angle_alpha 90.000000
_cell_angle_beta 90.000000
_cell_angle_gamma 90.000000
_cell_volume 1246.610206
_symmetry_space_group_name_H-M "I 21 21 21"
_symmetry_group_IT_number 24
_symmetry_cell_setting 'orthorhombic'
loop_
_space_group_symop_operation_xyz
x,y,z
-x,1/2-y,z
x,-y,1/2-z
1/2-x,y,-z
1/2+x,1/2+y,1/2+z
1/2-x,-y,1/2+z
1/2+x,1/2-y,-z
-x,1/2+y,1/2-z
loop_
_atom_site_type_symbol
_atom_site_label
_atom_site_fract_x
_atom_site_fract_y
_atom_site_fract_z
Si Si1 0.628874 0.180964 0.320904
Si Si2 0.201281 0.500000 0.250000
Si Si3 0.074921 0.068979 0.584567
Si Si4 0.461846 0.630682 0.540604
O O1 0.538389 0.119386 0.415885
O O2 0.640071 0.311830 0.396997
O O3 0.726059 0.100299 0.322052
O O4 0.583570 0.172308 0.135818
O O5 0.129499 0.568058 0.372322
O O6 0.095731 0.000000 0.750000
O O7 0.057681 0.958852 0.464109
O O8 0.500000 0.750000 0.624001
#
# Coordination Sequence:
#
# PCOD9333184 Si02
#       4
#     8   4   8   8
#     4  10  18  35  64  94 118 160 216 250 291 378
#     4  12  24  36  62 100 128 158 208 262 318 354
#     4   9  16  34  64  90 114 160 214 244 299 361
#     4  11  21  40  63  90 128 168 203 257 318 380
#
# _framework density 22.460909000000001
#
# number of rings (size 3 to 8) (size 9 to 14) (size 15 to 20)
#    0.000    1.714   10.000    0.857    0.000    0.000 
#    5.143    0.000    3.143    6.857    0.000    0.000 
#    0.000    0.000    0.000    0.000    0.000    0.000 
#
# Total GULP energy -77942.950324 kJ/mol
# GULP energy per Si atom -5567.353595 kJ/mol
# Density = 2.240979 g / cm^3
# Si number density = 22.460909 Si / 1000 Ang^3
#
#
#
# Elastic Constant Matrix: (Units=GPa)
#
#
# Indices 1 2 3 4 5 6 
#
# 1 88.1936 76.6660 29.4793 0.0000 0.0000 0.0000
# 2 76.6660 224.0091 35.8886 0.0000 0.0000 0.0000
# 3 29.4793 35.8886 30.5418 0.0000 0.0000 0.0000
# 4 0.0000 0.0000 0.0000 12.2729 0.0000 0.0000
# 5 0.0000 0.0000 0.0000 0.0000 16.5377 0.0000
# 6 0.0000 0.0000 0.0000 0.0000 0.0000 50.7955
#
#
#
# Elastic Compliance Matrix: (Units=1/GPa)
#
#
# Indices 1 2 3 4 5 6 
#
# 1 0.019989 -0.004620 -0.013865 0.000000 0.000000 0.000000
# 2 -0.004620 0.006567 -0.003258 0.000000 0.000000 0.000000
# 3 -0.013865 -0.003258 0.049953 0.000000 0.000000 0.000000
# 4 0.000000 0.000000 0.000000 0.081480 0.000000 0.000000
# 5 0.000000 0.000000 0.000000 0.000000 0.060468 0.000000
# 6 0.000000 0.000000 0.000000 0.000000 0.000000 0.019687
#
#
# Mechanical properties :
#
#
# Convention : Reuss Voigt Hill
#
# Bulk Modulus (GPa) = 30.28124 69.64578 49.96351
# Shear Modulus (GPa) = 17.08601 29.30195 23.19398
#
# Velocity S-wave (km/s) = 2.76107 3.61581 3.21695
# Velocity P-wave (km/s) = 4.86577 6.96469 6.00761
#
# Compressibility (1/GPa) = 0.03302375
#
# Stress axis : x y z
#
# Youngs Moduli (GPa) = 50.02694 152.27319 20.01890
#
# Poissons Ratio (x) = 0.70348 0.27757
# Poissons Ratio (y) = 0.23112 0.06522
# Poissons Ratio (z) = 0.69363 0.49606
#
# Static dielectric constant tensor:
#      x y z
#    x 1.815640 0.000000 0.000000 
#    y 0.000000 2.047020 0.000000 
#    z 0.000000 0.000000 1.936830 
# 
# From -- ./inp_files/10115.got.cif
#   From: 2010.05.17/outbox.cif.g08.bks.cpg/sg24_6_cif.got.tgz:10115.got - 2010.06.04 00:33:39.
