data_PCOD9333085
_publ_section_title
;
Structure prediction by ZEFSAII (Michael W. Deem and Ramdas Pophale) SiO2 
 PCOD9333085
Probable space group: I 21 21 21
;
_chemical_formula_sum "Si O2"
_cell_formula_units_Z 52
_cell_length_a 14.630714
_cell_length_b 18.330275
_cell_length_c 9.573106
_cell_angle_alpha 90.000000
_cell_angle_beta 90.000000
_cell_angle_gamma 90.000000
_cell_volume 2567.363539
_symmetry_space_group_name_H-M "I 21 21 21"
_symmetry_group_IT_number 24
_symmetry_cell_setting 'orthorhombic'
loop_
_space_group_symop_operation_xyz
x,y,z
-x,1/2-y,z
x,-y,1/2-z
1/2-x,y,-z
1/2+x,1/2+y,1/2+z
1/2-x,-y,1/2+z
1/2+x,1/2-y,-z
-x,1/2+y,1/2-z
loop_
_atom_site_type_symbol
_atom_site_label
_atom_site_fract_x
_atom_site_fract_y
_atom_site_fract_z
Si Si1 0.844275 0.685831 0.927074
Si Si2 0.972754 0.429102 0.691417
Si Si3 0.044908 0.668222 0.556964
Si Si4 0.500000 0.250000 0.600765
Si Si5 0.346667 0.435998 0.478225
Si Si6 0.287984 0.312604 0.248282
Si Si7 0.912299 0.870371 0.262196
O O1 0.908212 0.616706 0.908447
O O2 0.813691 0.730795 0.791735
O O3 0.750000 0.667768 0.000000
O O4 0.909451 0.742383 0.009398
O O5 0.924388 0.500000 0.750000
O O6 0.994341 0.372982 0.816597
O O7 0.065007 0.457352 0.613465
O O8 0.147696 0.671755 0.617627
O O9 0.051072 0.618030 0.418330
O O10 0.000000 0.750000 0.535070
O O11 0.489669 0.320424 0.694018
O O12 0.250000 0.478764 0.500000
O O13 0.312723 0.366527 0.380725
O O14 0.384593 0.424630 0.636043
O O15 0.181634 0.324431 0.219930
#
# Coordination Sequence:
#
# PCOD9333085 Si02
#       7
#     8   8   8   4   8   8   8
#     4  12  20  35  65  89 117 163 213 252 305 365
#     4  11  24  42  62  84 122 168 210 247 304 370
#     4  11  21  34  58  88 121 149 188 252 313 365
#     4  12  18  30  58  98 114 144 196 266 304 356
#     4   9  18  35  61  89 119 150 199 250 302 373
#     4  10  18  33  54  92 121 149 189 246 306 362
#     4  11  19  31  55  92 123 145 189 253 312 363
#
# _framework density 20.254242000000001
#
# number of rings (size 3 to 8) (size 9 to 14) (size 15 to 20)
#    0.000    1.231    6.923    1.846    0.000    0.000 
#    0.000    5.385    6.769    0.000    0.000    0.000 
#    0.000    0.000    0.000    0.000    0.000    0.000 
#
# Total GULP energy -144764.109907 kJ/mol
# GULP energy per Si atom -5567.850381 kJ/mol
# Density = 2.020814 g / cm^3
# Si number density = 20.254242 Si / 1000 Ang^3
#
#
#
# Elastic Constant Matrix: (Units=GPa)
#
#
# Indices 1 2 3 4 5 6 
#
# 1 69.6156 -5.6671 25.8640 0.0000 0.0000 0.0000
# 2 -5.6671 20.7571 5.2182 0.0000 0.0000 0.0000
# 3 25.8640 5.2182 112.8740 0.0000 0.0000 0.0000
# 4 0.0000 0.0000 0.0000 13.9350 0.0000 0.0000
# 5 0.0000 0.0000 0.0000 0.0000 30.7176 0.0000
# 6 0.0000 0.0000 0.0000 0.0000 0.0000 -9.6456
#
#
#
# Elastic Compliance Matrix: (Units=1/GPa)
#
#
# Indices 1 2 3 4 5 6 
#
# 1 0.016288 0.005449 -0.003984 0.000000 0.000000 0.000000
# 2 0.005449 0.050566 -0.003586 0.000000 0.000000 0.000000
# 3 -0.003984 -0.003586 0.009938 0.000000 0.000000 0.000000
# 4 0.000000 0.000000 0.000000 0.071762 0.000000 0.000000
# 5 0.000000 0.000000 0.000000 0.000000 0.032555 0.000000
# 6 0.000000 0.000000 0.000000 0.000000 0.000000 -0.103674
#
#
# Mechanical properties :
#
#
# Convention : Reuss Voigt Hill
#
# Bulk Modulus (GPa) = 13.78386 28.23076 21.00731
# Shear Modulus (GPa) = 47.23179 18.85682 33.04431
#
# Velocity S-wave (km/s) = 4.83426 3.05455 4.04354
# Velocity P-wave (km/s) = 6.16282 5.13895 5.67402
#
# Compressibility (1/GPa) = 0.07254862
#
# Stress axis : x y z
#
# Youngs Moduli (GPa) = 61.39338 19.77632 100.62209
#
# Poissons Ratio (x) = -0.10775 0.40090
# Poissons Ratio (y) = -0.33451 0.36085
# Poissons Ratio (z) = 0.24461 0.07092
#
# Static dielectric constant tensor:
#      x y z
#    x 1.654070 0.000000 0.000000 
#    y 0.000000 1.739680 0.000000 
#    z 0.000000 0.000000 1.770640 
# 
# From -- ./inp_files/13082.got.cif
#   From: 2010.05.17/outbox.cif.g08.bks.cpg/sg24_7_cif.got.tgz:13082.got - 2010.06.04 00:33:39.
