data_PCOD9333785
_publ_section_title
;
Structure prediction by ZEFSAII (Michael W. Deem and Ramdas Pophale) SiO2 
 PCOD9333785
Probable space group: I 21 21 21
;
_chemical_formula_sum "Si O2"
_cell_formula_units_Z 48
_cell_length_a 8.706645
_cell_length_b 34.205391
_cell_length_c 7.105225
_cell_angle_alpha 90.000000
_cell_angle_beta 90.000000
_cell_angle_gamma 90.000000
_cell_volume 2116.036874
_symmetry_space_group_name_H-M "I 21 21 21"
_symmetry_group_IT_number 24
_symmetry_cell_setting 'orthorhombic'
loop_
_space_group_symop_operation_xyz
x,y,z
-x,1/2-y,z
x,-y,1/2-z
1/2-x,y,-z
1/2+x,1/2+y,1/2+z
1/2-x,-y,1/2+z
1/2+x,1/2-y,-z
-x,1/2+y,1/2-z
loop_
_atom_site_type_symbol
_atom_site_label
_atom_site_fract_x
_atom_site_fract_y
_atom_site_fract_z
Si Si1 0.422831 0.146937 0.936570
Si Si2 0.543047 0.793398 0.828987
Si Si3 0.928954 0.490524 0.530232
Si Si4 0.080868 0.413586 0.576190
Si Si5 0.891287 0.174510 0.699030
Si Si6 0.068543 0.569175 0.490186
O O1 0.523311 0.166655 0.104606
O O2 0.503617 0.106263 0.878836
O O3 0.250000 0.138725 0.000000
O O4 0.425376 0.176851 0.765802
O O5 0.500000 0.750000 0.763352
O O6 0.714914 0.810272 0.777431
O O7 0.533860 0.795142 0.054894
O O8 0.965508 0.500000 0.750000
O O9 0.750000 0.495567 0.500000
O O10 0.975370 0.446417 0.478536
O O11 0.012814 0.526708 0.429631
O O12 0.250000 0.425265 0.500000
O O13 0.089630 0.366508 0.582850
O O14 0.029394 0.421274 0.792747
O O15 0.250000 0.570076 0.500000
#
# Coordination Sequence:
#
# PCOD9333785 Si02
#       6
#     8   8   8   8   8   8
#     4  11  24  41  65  99 137 179 219 276 343 408
#     4  11  24  43  72  98 127 177 224 282 344 405
#     4  10  22  38  56  91 131 166 216 273 327 394
#     4  10  19  38  62  89 121 169 217 265 329 396
#     4  10  23  46  67  97 136 171 223 284 334 414
#     4  10  21  38  62  88 126 172 220 271 327 394
#
# _framework density 22.683914999999999
#
# number of rings (size 3 to 8) (size 9 to 14) (size 15 to 20)
#    0.000    1.667    1.667    3.500    0.000    6.667 
#    9.000    0.000    0.000    0.000    0.000    0.000 
#    0.000    0.000    0.000    0.000    0.000    0.000 
#
# Total GULP energy -133820.498629 kJ/mol
# GULP energy per Si atom -5575.854110 kJ/mol
# Density = 2.263229 g / cm^3
# Si number density = 22.683915 Si / 1000 Ang^3
#
#
#
# Elastic Constant Matrix: (Units=GPa)
#
#
# Indices 1 2 3 4 5 6 
#
# 1 92.3768 66.7884 -15.8446 -0.0001 -0.0002 0.0006
# 2 66.7884 181.2486 9.7663 -0.0033 -0.0006 -0.0005
# 3 -15.8446 9.7663 51.3165 -0.0036 -0.0010 0.0020
# 4 -0.0001 -0.0033 -0.0036 32.4905 0.0000 0.0007
# 5 -0.0002 -0.0006 -0.0010 0.0000 23.6040 -0.0009
# 6 0.0006 -0.0005 0.0020 0.0007 -0.0009 21.6382
#
#
#
# Elastic Compliance Matrix: (Units=1/GPa)
#
#
# Indices 1 2 3 4 5 6 
#
# 1 0.016578 -0.006451 0.006346 0.000000 0.000000 -0.000001
# 2 -0.006451 0.008085 -0.003530 0.000000 0.000000 0.000001
# 3 0.006346 -0.003530 0.022118 0.000002 0.000001 -0.000002
# 4 0.000000 0.000000 0.000002 0.030778 0.000000 -0.000001
# 5 0.000000 0.000000 0.000001 0.000000 0.042366 0.000002
# 6 -0.000001 0.000001 -0.000002 -0.000001 0.000002 0.046215
#
#
# Mechanical properties :
#
#
# Convention : Reuss Voigt Hill
#
# Bulk Modulus (GPa) = 25.30956 49.59579 37.45268
# Shear Modulus (GPa) = 26.79836 33.16198 29.98017
#
# Velocity S-wave (km/s) = 3.44085 3.82765 3.63939
# Velocity P-wave (km/s) = 5.19304 6.43785 5.84865
#
# Compressibility (1/GPa) = 0.03951076
#
# Stress axis : x y z
#
# Youngs Moduli (GPa) = 60.32260 123.69338 45.21153
#
# Poissons Ratio (x) = 0.79790 -0.28692
# Poissons Ratio (y) = 0.38912 0.15961
# Poissons Ratio (z) = -0.38282 0.43668
#
# Static dielectric constant tensor:
#      x y z
#    x 1.800800 0.000000 0.000000 
#    y 0.000000 1.887550 0.000000 
#    z 0.000000 0.000000 1.902660 
# 
# From -- ./inp_files/9770.got.cif
#   From: 2010.05.17/outbox.cif.g08.bks.cpg/sg24_5_cif.got.tgz:9770.got - 2010.06.04 00:33:39.
