data_PCOD9333899
_publ_section_title
;
Structure prediction by ZEFSAII (Michael W. Deem and Ramdas Pophale) SiO2 
 PCOD9333899
Probable space group: I 21 21 21
;
_chemical_formula_sum "Si O2"
_cell_formula_units_Z 60
_cell_length_a 27.592808
_cell_length_b 9.974894
_cell_length_c 11.704770
_cell_angle_alpha 90.000000
_cell_angle_beta 90.000000
_cell_angle_gamma 90.000000
_cell_volume 3221.566292
_symmetry_space_group_name_H-M "I 21 21 21"
_symmetry_group_IT_number 24
_symmetry_cell_setting 'orthorhombic'
loop_
_space_group_symop_operation_xyz
x,y,z
-x,1/2-y,z
x,-y,1/2-z
1/2-x,y,-z
1/2+x,1/2+y,1/2+z
1/2-x,-y,1/2+z
1/2+x,1/2-y,-z
-x,1/2+y,1/2-z
loop_
_atom_site_type_symbol
_atom_site_label
_atom_site_fract_x
_atom_site_fract_y
_atom_site_fract_z
Si Si1 0.673627 0.630306 0.170808
Si Si2 0.993912 0.598974 0.146493
Si Si3 0.101579 0.143208 0.480625
Si Si4 0.177405 0.635797 0.428425
Si Si5 0.750000 0.505778 0.000000
Si Si6 0.162107 0.917325 0.366883
Si Si7 0.219008 0.366472 0.818906
Si Si8 0.896143 0.925424 0.128096
O O1 0.664807 0.500000 0.250000
O O2 0.700043 0.743468 0.244078
O O3 0.624410 0.674659 0.104722
O O4 0.712853 0.592224 0.073718
O O5 0.978708 0.500000 0.250000
O O6 0.954670 0.613623 0.045772
O O7 0.000000 0.750000 0.195425
O O8 0.046801 0.556737 0.101188
O O9 0.113727 0.267859 0.395337
O O10 0.128171 0.006217 0.446552
O O11 0.148211 0.762405 0.376262
O O12 0.196374 0.657856 0.556286
O O13 0.223472 0.619068 0.344726
O O14 0.143386 0.507247 0.441352
O O15 0.716932 0.420383 0.914932
O O16 0.161662 0.000000 0.250000
O O17 0.204213 0.500000 0.750000
O O18 0.890868 0.000000 0.250000
#
# Coordination Sequence:
#
# PCOD9333899 Si02
#       8
#     8   8   8   8   4   8   8   8
#     4  11  22  38  57  79 110 149 194 239 284 341
#     4   9  19  36  58  84 113 143 179 233 296 352
#     4  10  21  36  57  81 107 145 189 231 286 345
#     4  11  22  36  54  82 114 148 190 235 284 345
#     4  10  20  32  52  76 102 140 182 226 276 328
#     4  11  20  32  52  77 107 139 176 225 277 334
#     4  11  23  37  54  77 114 154 190 233 282 343
#     4  10  20  36  57  83 114 145 180 230 289 351
#
# _framework density 18.624480999999999
#
# number of rings (size 3 to 8) (size 9 to 14) (size 15 to 20)
#    0.000    1.600    0.000    6.800    0.000    6.400 
#    0.000    0.000    0.000    5.600    0.000    0.000 
#    0.000    0.000    0.000    0.000    0.000    0.000 
#
# Total GULP energy -167149.835901 kJ/mol
# GULP energy per Si atom -5571.661197 kJ/mol
# Density = 1.858209 g / cm^3
# Si number density = 18.624481 Si / 1000 Ang^3
#
#
#
# Elastic Constant Matrix: (Units=GPa)
#
#
# Indices 1 2 3 4 5 6 
#
# 1 67.1743 31.1393 28.3549 0.0000 0.0000 0.0000
# 2 31.1393 97.5505 27.9546 0.0000 0.0000 0.0000
# 3 28.3549 27.9546 82.8071 0.0000 0.0000 0.0000
# 4 0.0000 0.0000 0.0000 29.8302 0.0000 0.0000
# 5 0.0000 0.0000 0.0000 0.0000 21.7577 0.0000
# 6 0.0000 0.0000 0.0000 0.0000 0.0000 30.3957
#
#
#
# Elastic Compliance Matrix: (Units=1/GPa)
#
#
# Indices 1 2 3 4 5 6 
#
# 1 0.019162 -0.004690 -0.004978 0.000000 0.000000 0.000000
# 2 -0.004690 0.012497 -0.002613 0.000000 0.000000 0.000000
# 3 -0.004978 -0.002613 0.014663 0.000000 0.000000 0.000000
# 4 0.000000 0.000000 0.000000 0.033523 0.000000 0.000000
# 5 0.000000 0.000000 0.000000 0.000000 0.045961 0.000000
# 6 0.000000 0.000000 0.000000 0.000000 0.000000 0.032899
#
#
# Mechanical properties :
#
#
# Convention : Reuss Voigt Hill
#
# Bulk Modulus (GPa) = 45.95645 46.93661 46.44653
# Shear Modulus (GPa) = 26.24384 27.06895 26.65640
#
# Velocity S-wave (km/s) = 3.75788 3.81649 3.78730
# Velocity P-wave (km/s) = 6.59983 6.68409 6.64209
#
# Compressibility (1/GPa) = 0.02175973
#
# Stress axis : x y z
#
# Youngs Moduli (GPa) = 52.18610 80.01919 68.19913
#
# Poissons Ratio (x) = 0.37531 0.33951
# Poissons Ratio (y) = 0.24476 0.17819
# Poissons Ratio (z) = 0.25979 0.20907
#
# Static dielectric constant tensor:
#      x y z
#    x 1.678200 0.000000 0.000000 
#    y 0.000000 1.696200 0.000000 
#    z 0.000000 0.000000 1.667020 
# 
# From -- ./inp_files/22993.got.cif
#   From: 2010.05.17/outbox.cif.g08.bks.cpg/sg24_12_cif.got.tgz:22993.got - 2010.06.04 00:33:39.
