data_PCOD9333400
_publ_section_title
;
Structure prediction by ZEFSAII (Michael W. Deem and Ramdas Pophale) SiO2 
 PCOD9333400
Probable space group: I 21 21 21
;
_chemical_formula_sum "Si O2"
_cell_formula_units_Z 48
_cell_length_a 14.116989
_cell_length_b 24.442026
_cell_length_c 8.529457
_cell_angle_alpha 90.000000
_cell_angle_beta 90.000000
_cell_angle_gamma 90.000000
_cell_volume 2943.070477
_symmetry_space_group_name_H-M "I 21 21 21"
_symmetry_group_IT_number 24
_symmetry_cell_setting 'orthorhombic'
loop_
_space_group_symop_operation_xyz
x,y,z
-x,1/2-y,z
x,-y,1/2-z
1/2-x,y,-z
1/2+x,1/2+y,1/2+z
1/2-x,-y,1/2+z
1/2+x,1/2-y,-z
-x,1/2+y,1/2-z
loop_
_atom_site_type_symbol
_atom_site_label
_atom_site_fract_x
_atom_site_fract_y
_atom_site_fract_z
Si Si1 0.471117 0.833241 0.561648
Si Si2 0.354946 0.269611 0.063204
Si Si3 0.355175 0.937892 0.939243
Si Si4 0.354946 0.269611 0.436797
Si Si5 0.355175 0.062108 0.939244
Si Si6 0.028883 0.166759 0.438350
O O1 0.397365 0.786092 0.510562
O O2 0.571059 0.816559 0.486913
O O3 0.429331 0.891654 0.511166
O O4 0.479991 0.832092 0.749999
O O5 0.354166 0.264189 0.250000
O O6 0.250000 0.279504 0.000000
O O7 0.352361 0.937295 0.749999
O O8 0.429331 0.891655 0.988830
O O9 0.378013 0.000000 0.990217
O O10 0.250000 0.924591 0.000000
O O11 0.250000 0.279504 0.500000
O O12 0.397365 0.213908 0.510563
O O13 0.428941 0.316558 0.486914
O O14 0.250000 0.075409 0.000000
#
# Coordination Sequence:
#
# PCOD9333400 Si02
#       6
#     8   8   8   8   8   8
#     4  10  19  32  50  72  98 126 158 194 235 281
#     4  11  21  33  49  70  97 126 159 196 237 282
#     4   9  18  31  48  71  98 127 157 191 231 276
#     4  11  21  33  49  70  97 126 159 196 237 282
#     4   9  18  31  48  71  98 127 157 191 231 276
#     4  10  19  32  50  72  98 126 158 194 235 281
#
# _framework density 16.309497
#
# number of rings (size 3 to 8) (size 9 to 14) (size 15 to 20)
#    0.000    2.000    0.000    7.000    0.000    5.333 
#    0.000    0.000    0.000    1.000    0.000    0.000 
#    0.000    0.000    0.000    0.000    0.000    0.000 
#
# Total GULP energy -133946.237953 kJ/mol
# GULP energy per Si atom -5581.093248 kJ/mol
# Density = 1.627238 g / cm^3
# Si number density = 16.309497 Si / 1000 Ang^3
#
#
#
# Elastic Constant Matrix: (Units=GPa)
#
#
# Indices 1 2 3 4 5 6 
#
# 1 130.7711 62.1862 13.0595 0.0004 -0.0001 -0.0002
# 2 62.1862 80.9749 3.7305 0.0015 -0.0003 -0.0004
# 3 13.0595 3.7305 41.1109 -0.0035 0.0000 -0.0005
# 4 0.0004 0.0015 -0.0035 7.1615 0.0009 -0.0001
# 5 -0.0001 -0.0003 0.0000 0.0009 29.7190 0.0001
# 6 -0.0002 -0.0004 -0.0005 -0.0001 0.0001 22.2305
#
#
#
# Elastic Compliance Matrix: (Units=1/GPa)
#
#
# Indices 1 2 3 4 5 6 
#
# 1 0.012426 -0.009400 -0.003094 0.000000 0.000000 0.000000
# 2 -0.009400 0.019513 0.001216 -0.000003 0.000000 0.000000
# 3 -0.003094 0.001216 0.025197 0.000012 0.000000 0.000001
# 4 0.000000 -0.000003 0.000012 0.139636 -0.000004 0.000001
# 5 0.000000 0.000000 0.000000 -0.000004 0.033649 0.000000
# 6 0.000000 0.000000 0.000001 0.000001 0.000000 0.044983
#
#
# Mechanical properties :
#
#
# Convention : Reuss Voigt Hill
#
# Bulk Modulus (GPa) = 28.92042 45.64547 37.28295
# Shear Modulus (GPa) = 16.15572 23.41423 19.78498
#
# Velocity S-wave (km/s) = 3.15075 3.79307 3.48673
# Velocity P-wave (km/s) = 5.56840 6.87248 6.25452
#
# Compressibility (1/GPa) = 0.03457764
#
# Stress axis : x y z
#
# Youngs Moduli (GPa) = 80.47541 51.24869 39.68710
#
# Poissons Ratio (x) = 0.48176 0.12281
# Poissons Ratio (y) = 0.75650 -0.04824
# Poissons Ratio (z) = 0.24902 -0.06229
#
# Static dielectric constant tensor:
#      x y z
#    x 1.520900 0.000000 0.000000 
#    y 0.000000 1.557230 0.000000 
#    z 0.000000 0.000000 1.551250 
# 
# From -- ./inp_files/13251.got.cif
#   From: 2010.05.17/outbox.cif.g08.bks.cpg/sg24_7_cif.got.tgz:13251.got - 2010.06.04 00:33:39.
