data_PCOD9333111
_publ_section_title
;
Structure prediction by ZEFSAII (Michael W. Deem and Ramdas Pophale) SiO2 
 PCOD9333111
Probable space group: I 21 21 21
;
_chemical_formula_sum "Si O2"
_cell_formula_units_Z 48
_cell_length_a 11.892305
_cell_length_b 19.563397
_cell_length_c 7.568393
_cell_angle_alpha 90.000000
_cell_angle_beta 90.000000
_cell_angle_gamma 90.000000
_cell_volume 1760.816027
_symmetry_space_group_name_H-M "I 21 21 21"
_symmetry_group_IT_number 24
_symmetry_cell_setting 'orthorhombic'
loop_
_space_group_symop_operation_xyz
x,y,z
-x,1/2-y,z
x,-y,1/2-z
1/2-x,y,-z
1/2+x,1/2+y,1/2+z
1/2-x,-y,1/2+z
1/2+x,1/2-y,-z
-x,1/2+y,1/2-z
loop_
_atom_site_type_symbol
_atom_site_label
_atom_site_fract_x
_atom_site_fract_y
_atom_site_fract_z
Si Si1 0.384419 0.532150 0.005370
Si Si2 0.900141 0.325639 0.751815
Si Si3 0.507654 0.656614 0.851318
Si Si4 0.272608 0.703694 0.790259
Si Si5 0.718413 0.577779 0.791888
Si Si6 0.101073 0.608548 0.630338
O O1 0.421626 0.565671 0.190278
O O2 0.410442 0.452071 0.991600
O O3 0.250000 0.535253 0.000000
O O4 0.442366 0.584489 0.875227
O O5 0.805198 0.267663 0.762847
O O6 0.832820 0.395479 0.794594
O O7 0.948605 0.321555 0.549135
O O8 0.009635 0.331177 0.873900
O O9 0.407709 0.705018 0.777796
O O10 0.620102 0.632198 0.753727
O O11 0.220479 0.642515 0.675840
O O12 0.250000 0.692759 0.000000
O O13 0.689637 0.500000 0.750000
O O14 0.750000 0.581967 0.000000
#
# Coordination Sequence:
#
# PCOD9333111 Si02
#       6
#     8   8   8   8   8   8
#     4  10  18  34  53  83 117 152 200 247 302 354
#     4  10  22  34  55  84 119 159 194 246 312 376
#     4  10  20  36  53  86 116 158 193 257 309 360
#     4  12  19  34  55  86 122 150 195 249 316 371
#     4  10  23  39  59  88 121 162 205 251 310 378
#     4  10  20  31  55  84 116 155 196 246 297 374
#
# _framework density 27.260090000000002
#
# number of rings (size 3 to 8) (size 9 to 14) (size 15 to 20)
#    0.000    1.667    5.000    2.000    7.000    3.333 
#    0.000    0.000    0.000    1.000    0.000    0.000 
#    0.000    0.000    0.000    0.000    0.000    0.000 
#
# Total GULP energy -134220.129211 kJ/mol
# GULP energy per Si atom -5592.505384 kJ/mol
# Density = 2.719804 g / cm^3
# Si number density = 27.260090 Si / 1000 Ang^3
#
#
#
# Elastic Constant Matrix: (Units=GPa)
#
#
# Indices 1 2 3 4 5 6 
#
# 1 213.0664 66.9133 3.7256 0.0000 0.0000 0.0000
# 2 66.9133 143.2307 4.7130 0.0000 0.0001 0.0002
# 3 3.7256 4.7130 58.2820 0.0002 0.0002 0.0030
# 4 0.0000 0.0000 0.0002 15.0139 0.0001 0.0012
# 5 0.0000 0.0001 0.0002 0.0001 4.5501 0.0001
# 6 0.0000 0.0002 0.0030 0.0012 0.0001 99.0751
#
#
#
# Elastic Compliance Matrix: (Units=1/GPa)
#
#
# Indices 1 2 3 4 5 6 
#
# 1 0.005502 -0.002565 -0.000144 0.000000 0.000000 0.000000
# 2 -0.002565 0.008197 -0.000499 0.000000 0.000000 0.000000
# 3 -0.000144 -0.000499 0.017208 0.000000 -0.000001 -0.000001
# 4 0.000000 0.000000 0.000000 0.066605 -0.000001 -0.000001
# 5 0.000000 0.000000 -0.000001 -0.000001 0.219773 0.000000
# 6 0.000000 0.000000 -0.000001 -0.000001 0.000000 0.010093
#
#
# Mechanical properties :
#
#
# Convention : Reuss Voigt Hill
#
# Bulk Modulus (GPa) = 40.83508 62.80922 51.82215
# Shear Modulus (GPa) = 14.62173 46.34297 30.48235
#
# Velocity S-wave (km/s) = 2.31850 4.12762 3.34758
# Velocity P-wave (km/s) = 4.70952 6.76809 5.83038
#
# Compressibility (1/GPa) = 0.02448875
#
# Stress axis : x y z
#
# Youngs Moduli (GPa) = 181.76652 122.00100 58.11412
#
# Poissons Ratio (x) = 0.31298 0.00838
# Poissons Ratio (y) = 0.46631 0.02899
# Poissons Ratio (z) = 0.02622 0.06086
#
# Static dielectric constant tensor:
#      x y z
#    x 2.075930 0.000000 0.000000 
#    y 0.000000 2.221820 0.000000 
#    z 0.000000 0.000000 2.189490 
# 
# From -- ./inp_files/19692.got.cif
#   From: 2010.05.17/outbox.cif.g08.bks.cpg/sg24_10_cif.got.tgz:19692.got - 2010.06.04 00:33:39.
