data_PCOD9333925
_publ_section_title
;
Structure prediction by ZEFSAII (Michael W. Deem and Ramdas Pophale) SiO2 
 PCOD9333925
Probable space group: I 21 21 21
;
_chemical_formula_sum "Si O2"
_cell_formula_units_Z 40
_cell_length_a 5.358907
_cell_length_b 18.027179
_cell_length_c 19.934313
_cell_angle_alpha 90.000000
_cell_angle_beta 90.000000
_cell_angle_gamma 90.000000
_cell_volume 1925.773758
_symmetry_space_group_name_H-M "I 21 21 21"
_symmetry_group_IT_number 24
_symmetry_cell_setting 'orthorhombic'
loop_
_space_group_symop_operation_xyz
x,y,z
-x,1/2-y,z
x,-y,1/2-z
1/2-x,y,-z
1/2+x,1/2+y,1/2+z
1/2-x,-y,1/2+z
1/2+x,1/2-y,-z
-x,1/2+y,1/2-z
loop_
_atom_site_type_symbol
_atom_site_label
_atom_site_fract_x
_atom_site_fract_y
_atom_site_fract_z
Si Si1 0.315870 0.638300 0.285143
Si Si2 0.300728 0.111367 0.325410
Si Si3 0.747693 0.799893 0.426572
Si Si4 0.001504 0.339003 0.541937
Si Si5 0.000000 0.250000 0.295913
Si Si6 0.529016 0.500000 0.750000
O O1 0.575596 0.625725 0.247437
O O2 0.297240 0.647249 0.364046
O O3 0.141987 0.569655 0.266570
O O4 0.205724 0.712567 0.251336
O O5 0.490751 0.119021 0.386746
O O6 0.111958 0.180722 0.336924
O O7 0.184221 0.030551 0.313838
O O8 0.500000 0.750000 0.427018
O O9 0.750000 0.836465 0.500000
O O10 0.000000 0.750000 0.417903
O O11 0.250000 0.356226 0.500000
O O12 0.000000 0.250000 0.554675
O O13 0.750000 0.356588 0.500000
#
# Coordination Sequence:
#
# PCOD9333925 Si02
#       6
#     8   8   8   8   4   4
#     4  11  21  39  63  93 128 169 217 270 321 387
#     4  11  23  40  65  95 128 175 219 274 326 393
#     4  10  21  38  65 101 131 161 206 269 333 387
#     4  10  23  39  65  99 134 166 213 278 342 394
#     4  10  20  32  66  98 122 160 216 268 328 382
#     4  10  26  40  64  86 136 172 230 266 324 376
#
# _framework density 20.770872000000001
#
# number of rings (size 3 to 8) (size 9 to 14) (size 15 to 20)
#    0.000    1.600    1.000    3.600   12.600    0.000 
#    0.000    0.000    8.800    0.000    0.000    0.000 
#    0.000    0.000    0.000    0.000    0.000    0.000 
#
# Total GULP energy -111642.158932 kJ/mol
# GULP energy per Si atom -5582.107947 kJ/mol
# Density = 2.072360 g / cm^3
# Si number density = 20.770872 Si / 1000 Ang^3
#
#
#
# Elastic Constant Matrix: (Units=GPa)
#
#
# Indices 1 2 3 4 5 6 
#
# 1 95.2665 18.5048 23.5282 0.0000 0.0000 0.0000
# 2 18.5048 73.2018 18.6724 0.0000 0.0000 0.0000
# 3 23.5282 18.6724 124.5286 0.0000 0.0000 0.0000
# 4 0.0000 0.0000 0.0000 6.1540 0.0000 0.0000
# 5 0.0000 0.0000 0.0000 0.0000 72.8432 0.0000
# 6 0.0000 0.0000 0.0000 0.0000 0.0000 20.7411
#
#
#
# Elastic Compliance Matrix: (Units=1/GPa)
#
#
# Indices 1 2 3 4 5 6 
#
# 1 0.011411 -0.002428 -0.001792 0.000000 0.000000 0.000000
# 2 -0.002428 0.014721 -0.001749 0.000000 0.000000 0.000000
# 3 -0.001792 -0.001749 0.008631 0.000000 0.000000 0.000000
# 4 0.000000 0.000000 0.000000 0.162496 0.000000 0.000000
# 5 0.000000 0.000000 0.000000 0.000000 0.013728 0.000000
# 6 0.000000 0.000000 0.000000 0.000000 0.000000 0.048214
#
#
# Mechanical properties :
#
#
# Convention : Reuss Voigt Hill
#
# Bulk Modulus (GPa) = 43.80897 46.04531 44.92714
# Shear Modulus (GPa) = 17.93751 35.43375 26.68563
#
# Velocity S-wave (km/s) = 2.94188 4.13478 3.58825
# Velocity P-wave (km/s) = 5.71637 6.70906 6.23251
#
# Compressibility (1/GPa) = 0.02282638
#
# Stress axis : x y z
#
# Youngs Moduli (GPa) = 87.63504 67.93220 115.86071
#
# Poissons Ratio (x) = 0.16491 0.20762
# Poissons Ratio (y) = 0.21273 0.20260
# Poissons Ratio (z) = 0.15704 0.11879
#
# Static dielectric constant tensor:
#      x y z
#    x 1.846740 0.000000 0.000000 
#    y 0.000000 1.678660 0.000000 
#    z 0.000000 0.000000 1.804270 
# 
# From -- ./inp_files/28724.got.cif
#   From: 2010.05.17/outbox.cif.g08.bks.cpg/sg24_15_cif.got.tgz:28724.got - 2010.06.04 00:33:39.
