data_PCOD9333753
_publ_section_title
;
Structure prediction by ZEFSAII (Michael W. Deem and Ramdas Pophale) SiO2 
 PCOD9333753
Probable space group: I 21 21 21
;
_chemical_formula_sum "Si O2"
_cell_formula_units_Z 48
_cell_length_a 10.878576
_cell_length_b 9.435871
_cell_length_c 23.498453
_cell_angle_alpha 90.000000
_cell_angle_beta 90.000000
_cell_angle_gamma 90.000000
_cell_volume 2412.088938
_symmetry_space_group_name_H-M "I 21 21 21"
_symmetry_group_IT_number 24
_symmetry_cell_setting 'orthorhombic'
loop_
_space_group_symop_operation_xyz
x,y,z
-x,1/2-y,z
x,-y,1/2-z
1/2-x,y,-z
1/2+x,1/2+y,1/2+z
1/2-x,-y,1/2+z
1/2+x,1/2-y,-z
-x,1/2+y,1/2-z
loop_
_atom_site_type_symbol
_atom_site_label
_atom_site_fract_x
_atom_site_fract_y
_atom_site_fract_z
Si Si1 0.354691 0.992240 0.954904
Si Si2 0.142571 0.265330 0.727170
Si Si3 0.814458 0.482903 0.647856
Si Si4 0.595978 0.059204 0.386059
Si Si5 0.000000 0.750000 0.980024
Si Si6 0.000000 0.250000 0.099741
Si Si7 0.748627 0.187662 0.842288
O O1 0.437689 0.126534 0.937632
O O2 0.285407 0.936673 0.898603
O O3 0.250000 0.037121 0.000000
O O4 0.432296 0.867281 0.982778
O O5 0.189595 0.113409 0.704268
O O6 0.138510 0.355980 0.669645
O O7 0.220210 0.340090 0.776284
O O8 0.000000 0.250000 0.747228
O O9 0.790684 0.648960 0.654762
O O10 0.951580 0.469348 0.623255
O O11 0.596155 0.163253 0.440051
O O12 0.673118 0.914711 0.383634
O O13 0.107560 0.316210 0.138729
#
# Coordination Sequence:
#
# PCOD9333753 Si02
#       7
#     8   8   8   8   4   4   8
#     4  11  23  44  68  90 130 172 214 274 327 379
#     4  10  19  37  64  97 131 164 211 263 321 375
#     4  10  20  39  63  96 128 163 217 264 314 383
#     4  11  20  39  63  99 127 158 215 271 309 387
#     4  12  24  42  67  98 127 166 218 272 336 386
#     4  10  28  46  57  98 129 170 230 256 318 408
#     4  11  23  39  63  90 133 170 205 262 322 379
#
# _framework density 19.899764000000001
#
# number of rings (size 3 to 8) (size 9 to 14) (size 15 to 20)
#    0.000    1.333    4.167    2.500    0.000    8.000 
#    0.000    7.500    0.000    0.000    0.000    0.000 
#    0.000    0.000    0.000    0.000    0.000    0.000 
#
# Total GULP energy -134018.855183 kJ/mol
# GULP energy per Si atom -5584.118966 kJ/mol
# Density = 1.985447 g / cm^3
# Si number density = 19.899764 Si / 1000 Ang^3
#
#
#
# Elastic Constant Matrix: (Units=GPa)
#
#
# Indices 1 2 3 4 5 6 
#
# 1 105.4174 74.7303 71.5819 0.0000 0.0000 0.0000
# 2 74.7303 111.3816 60.8090 0.0000 0.0000 0.0000
# 3 71.5819 60.8090 116.5118 0.0000 0.0000 0.0000
# 4 0.0000 0.0000 0.0000 23.9924 0.0000 0.0000
# 5 0.0000 0.0000 0.0000 0.0000 26.5221 0.0000
# 6 0.0000 0.0000 0.0000 0.0000 0.0000 28.4225
#
#
#
# Elastic Compliance Matrix: (Units=1/GPa)
#
#
# Indices 1 2 3 4 5 6 
#
# 1 0.022777 -0.010687 -0.008416 0.000000 0.000000 0.000000
# 2 -0.010687 0.017570 -0.002604 0.000000 0.000000 0.000000
# 3 -0.008416 -0.002604 0.015112 0.000000 0.000000 0.000000
# 4 0.000000 0.000000 0.000000 0.041680 0.000000 0.000000
# 5 0.000000 0.000000 0.000000 0.000000 0.037704 0.000000
# 6 0.000000 0.000000 0.000000 0.000000 0.000000 0.035183
#
#
# Mechanical properties :
#
#
# Convention : Reuss Voigt Hill
#
# Bulk Modulus (GPa) = 83.02032 83.06149 83.04090
# Shear Modulus (GPa) = 22.99305 24.20003 23.59654
#
# Velocity S-wave (km/s) = 3.40287 3.49104 3.44724
# Velocity P-wave (km/s) = 7.56632 7.62105 7.59373
#
# Compressibility (1/GPa) = 0.01204524
#
# Stress axis : x y z
#
# Youngs Moduli (GPa) = 43.90417 56.91358 66.17099
#
# Poissons Ratio (x) = 0.60826 0.55687
# Poissons Ratio (y) = 0.46922 0.17232
# Poissons Ratio (z) = 0.36948 0.14822
#
# Static dielectric constant tensor:
#      x y z
#    x 1.680980 0.000000 0.000000 
#    y 0.000000 1.759110 0.000000 
#    z 0.000000 0.000000 1.754820 
# 
# From -- ./inp_files/35569.got.cif
#   From: 2010.05.17/outbox.cif.g08.bks.cpg/sg24_18_cif.got.tgz:35569.got - 2010.06.04 00:33:39.
