data_PCOD9333198
_publ_section_title
;
Structure prediction by ZEFSAII (Michael W. Deem and Ramdas Pophale) SiO2 
 PCOD9333198
Probable space group: I 21 21 21
;
_chemical_formula_sum "Si O2"
_cell_formula_units_Z 56
_cell_length_a 8.725904
_cell_length_b 15.177717
_cell_length_c 19.410126
_cell_angle_alpha 90.000000
_cell_angle_beta 90.000000
_cell_angle_gamma 90.000000
_cell_volume 2570.663529
_symmetry_space_group_name_H-M "I 21 21 21"
_symmetry_group_IT_number 24
_symmetry_cell_setting 'orthorhombic'
loop_
_space_group_symop_operation_xyz
x,y,z
-x,1/2-y,z
x,-y,1/2-z
1/2-x,y,-z
1/2+x,1/2+y,1/2+z
1/2-x,-y,1/2+z
1/2+x,1/2-y,-z
-x,1/2+y,1/2-z
loop_
_atom_site_type_symbol
_atom_site_label
_atom_site_fract_x
_atom_site_fract_y
_atom_site_fract_z
Si Si1 0.493549 0.850104 0.329758
Si Si2 0.603890 0.932555 0.966080
Si Si3 0.167753 0.414599 0.139874
Si Si4 0.055274 0.000000 0.250000
Si Si5 0.145930 0.976052 0.559340
Si Si6 0.259244 0.170496 0.723265
Si Si7 0.000000 0.750000 0.332751
Si Si8 0.811867 0.337981 0.425428
O O1 0.500000 0.750000 0.356950
O O2 0.663761 0.890515 0.332420
O O3 0.390194 0.911650 0.378441
O O4 0.409087 0.842290 0.255833
O O5 0.666280 0.008744 0.916125
O O6 0.492022 0.860778 0.931729
O O7 0.750000 0.888694 0.000000
O O8 0.504449 0.985344 0.022622
O O9 0.076504 0.325472 0.120591
O O10 0.057149 0.452568 0.197904
O O11 0.160853 0.075365 0.281368
O O12 0.250000 0.932087 0.500000
O O13 0.235519 0.064338 0.580502
O O14 0.362654 0.221037 0.780381
O O15 0.268090 0.209726 0.646031
O O16 0.750000 0.305997 0.500000
#
# Coordination Sequence:
#
# PCOD9333198 Si02
#       8
#     8   8   8   4   8   8   4   8
#     4  12  24  39  56  88 128 163 203 249 299 357
#     4  10  18  36  58  84 122 153 197 254 297 348
#     4  11  22  39  57  91 121 162 203 251 299 361
#     4  10  22  36  64  90 110 162 206 242 300 362
#     4   9  21  36  55  86 121 157 204 242 291 357
#     4  11  21  40  63  85 121 162 200 252 305 360
#     4  10  24  38  60  80 128 162 202 240 298 378
#     4   9  20  38  65  90 110 154 199 250 315 359
#
# _framework density 21.78426
#
# number of rings (size 3 to 8) (size 9 to 14) (size 15 to 20)
#    0.000    2.000    4.286    0.857    6.000    1.714 
#    3.857    0.000    1.571    0.000    0.000    0.000 
#    0.000    0.000    0.000    0.000    0.000    0.000 
#
# Total GULP energy -156285.004615 kJ/mol
# GULP energy per Si atom -5581.607308 kJ/mol
# Density = 2.173468 g / cm^3
# Si number density = 21.784260 Si / 1000 Ang^3
#
#
#
# Elastic Constant Matrix: (Units=GPa)
#
#
# Indices 1 2 3 4 5 6 
#
# 1 128.4061 28.5591 31.6640 0.0000 0.0000 0.0000
# 2 28.5591 64.1199 17.1285 0.0000 0.0000 0.0000
# 3 31.6640 17.1285 80.4473 0.0000 0.0000 0.0000
# 4 0.0000 0.0000 0.0000 -2.4501 0.0000 0.0000
# 5 0.0000 0.0000 0.0000 0.0000 18.9840 0.0000
# 6 0.0000 0.0000 0.0000 0.0000 0.0000 -0.7313
#
#
#
# Elastic Compliance Matrix: (Units=1/GPa)
#
#
# Indices 1 2 3 4 5 6 
#
# 1 0.009253 -0.003338 -0.002931 0.000000 0.000000 0.000000
# 2 -0.003338 0.017741 -0.002463 0.000000 0.000000 0.000000
# 3 -0.002931 -0.002463 0.014109 0.000000 0.000000 0.000000
# 4 0.000000 0.000000 0.000000 -0.408141 0.000000 0.000000
# 5 0.000000 0.000000 0.000000 0.000000 0.052676 0.000000
# 6 0.000000 0.000000 0.000000 0.000000 0.000000 -1.367381
#
#
# Mechanical properties :
#
#
# Convention : Reuss Voigt Hill
#
# Bulk Modulus (GPa) = 42.30699 47.51963 44.91331
# Shear Modulus (GPa) = -3.01860 16.20196 6.59168
#
# Velocity S-wave (km/s) = -1.17842 2.73013 1.74140
# Velocity P-wave (km/s) = 4.19660 5.63908 4.97045
#
# Compressibility (1/GPa) = 0.02363676
#
# Stress axis : x y z
#
# Youngs Moduli (GPa) = 108.07190 56.36757 70.87821
#
# Poissons Ratio (x) = 0.18817 0.20776
# Poissons Ratio (y) = 0.36078 0.17460
# Poissons Ratio (z) = 0.31678 0.13885
#
# Static dielectric constant tensor:
#      x y z
#    x 1.811430 0.000000 0.000000 
#    y 0.000000 1.818650 0.000000 
#    z 0.000000 0.000000 1.924820 
# 
# From -- ./inp_files/32930.got.cif
#   From: 2010.05.17/outbox.cif.g08.bks.cpg/sg24_17_cif.got.tgz:32930.got - 2010.06.04 00:33:39.
