data_PCOD9333820
_publ_section_title
;
Structure prediction by ZEFSAII (Michael W. Deem and Ramdas Pophale) SiO2 
 PCOD9333820
Probable space group: I 21 21 21
;
_chemical_formula_sum "Si O2"
_cell_formula_units_Z 52
_cell_length_a 13.543049
_cell_length_b 20.960931
_cell_length_c 8.837000
_cell_angle_alpha 90.000000
_cell_angle_beta 90.000000
_cell_angle_gamma 90.000000
_cell_volume 2508.602629
_symmetry_space_group_name_H-M "I 21 21 21"
_symmetry_group_IT_number 24
_symmetry_cell_setting 'orthorhombic'
loop_
_space_group_symop_operation_xyz
x,y,z
-x,1/2-y,z
x,-y,1/2-z
1/2-x,y,-z
1/2+x,1/2+y,1/2+z
1/2-x,-y,1/2+z
1/2+x,1/2-y,-z
-x,1/2+y,1/2-z
loop_
_atom_site_type_symbol
_atom_site_label
_atom_site_fract_x
_atom_site_fract_y
_atom_site_fract_z
Si Si1 0.750000 0.382446 0.500000
Si Si2 0.250000 0.495735 0.500000
Si Si3 0.585107 0.177279 0.143783
Si Si4 0.377288 0.818682 0.247847
Si Si5 0.890756 0.431596 0.244141
Si Si6 0.250000 0.113022 0.000000
Si Si7 0.771757 0.096627 0.229743
Si Si8 0.955664 0.181747 0.214334
O O1 0.827805 0.339301 0.592026
O O2 0.811821 0.423237 0.379137
O O3 0.273564 0.445500 0.366411
O O4 0.312836 0.546485 0.602723
O O5 0.485348 0.151618 0.222035
O O6 0.609960 0.243701 0.226286
O O7 0.679285 0.133252 0.159929
O O8 0.562339 0.188618 0.966629
O O9 0.304612 0.843361 0.378179
O O10 0.942370 0.500000 0.250000
O O11 0.962647 0.371681 0.245566
O O12 0.829913 0.427734 0.088866
O O13 0.854166 0.149206 0.274734
O O14 0.000000 0.250000 0.268467
#
# Coordination Sequence:
#
# PCOD9333820 Si02
#       8
#     4   4   8   8   8   4   8   8
#     4  10  25  45  64 105 136 181 214 298 349 406
#     4  10  24  46  66 104 140 192 240 290 374 424
#     4  11  21  40  68  99 132 182 234 277 345 422
#     4  10  22  40  67  99 138 172 228 278 345 418
#     4  11  24  42  70  97 138 180 234 284 350 419
#     4  10  19  39  66  91 128 179 224 280 331 410
#     4  11  25  43  74  99 146 185 236 303 355 432
#     4  12  24  43  69 109 134 187 246 289 348 428
#
# _framework density 20.728670000000001
#
# number of rings (size 3 to 8) (size 9 to 14) (size 15 to 20)
#    0.000    1.231    4.615    0.462    8.615    1.846 
#    2.769    0.000    3.385    0.000    0.000    0.000 
#    0.000    0.000    0.000    0.000    0.000    0.000 
#
# Total GULP energy -144926.495857 kJ/mol
# GULP energy per Si atom -5574.095995 kJ/mol
# Density = 2.068149 g / cm^3
# Si number density = 20.728670 Si / 1000 Ang^3
#
#
#
# Elastic Constant Matrix: (Units=GPa)
#
#
# Indices 1 2 3 4 5 6 
#
# 1 81.2531 33.5319 -8.5180 0.0001 0.0001 0.0000
# 2 33.5319 118.1196 4.4503 0.0003 0.0000 0.0000
# 3 -8.5180 4.4503 49.4020 0.0020 0.0001 0.0000
# 4 0.0001 0.0003 0.0020 65.3489 0.0000 -0.0001
# 5 0.0001 0.0000 0.0001 0.0000 30.1752 0.0000
# 6 0.0000 0.0000 0.0000 -0.0001 0.0000 15.8944
#
#
#
# Elastic Compliance Matrix: (Units=1/GPa)
#
#
# Indices 1 2 3 4 5 6 
#
# 1 0.014329 -0.004175 0.002847 0.000000 0.000000 0.000000
# 2 -0.004175 0.009711 -0.001595 0.000000 0.000000 0.000000
# 3 0.002847 -0.001595 0.020877 -0.000001 0.000000 0.000000
# 4 0.000000 0.000000 -0.000001 0.015302 0.000000 0.000000
# 5 0.000000 0.000000 0.000000 0.000000 0.033140 0.000000
# 6 0.000000 0.000000 0.000000 0.000000 0.000000 0.062915
#
#
# Mechanical properties :
#
#
# Convention : Reuss Voigt Hill
#
# Bulk Modulus (GPa) = 25.59472 34.18927 29.89199
# Shear Modulus (GPa) = 28.54808 36.90440 32.72624
#
# Velocity S-wave (km/s) = 3.71513 4.22400 3.97771
# Velocity P-wave (km/s) = 5.54772 6.34973 5.96223
#
# Compressibility (1/GPa) = 0.03907056
#
# Stress axis : x y z
#
# Youngs Moduli (GPa) = 69.79079 102.97351 47.90064
#
# Poissons Ratio (x) = 0.42990 -0.13636
# Poissons Ratio (y) = 0.29137 0.07639
# Poissons Ratio (z) = -0.19867 0.16421
#
# Static dielectric constant tensor:
#      x y z
#    x 1.743170 0.000000 0.000000 
#    y 0.000000 1.763180 0.000000 
#    z 0.000000 0.000000 1.782150 
# 
# From -- ./inp_files/13115.got.cif
#   From: 2010.05.17/outbox.cif.g08.bks.cpg/sg24_7_cif.got.tgz:13115.got - 2010.06.04 00:33:39.
