data_PCOD9333106
_publ_section_title
;
Structure prediction by ZEFSAII (Michael W. Deem and Ramdas Pophale) SiO2 
 PCOD9333106
Probable space group: I 21 21 21
;
_chemical_formula_sum "Si O2"
_cell_formula_units_Z 48
_cell_length_a 22.299458
_cell_length_b 11.161664
_cell_length_c 7.836255
_cell_angle_alpha 90.000000
_cell_angle_beta 90.000000
_cell_angle_gamma 90.000000
_cell_volume 1950.436484
_symmetry_space_group_name_H-M "I 21 21 21"
_symmetry_group_IT_number 24
_symmetry_cell_setting 'orthorhombic'
loop_
_space_group_symop_operation_xyz
x,y,z
-x,1/2-y,z
x,-y,1/2-z
1/2-x,y,-z
1/2+x,1/2+y,1/2+z
1/2-x,-y,1/2+z
1/2+x,1/2-y,-z
-x,1/2+y,1/2-z
loop_
_atom_site_type_symbol
_atom_site_label
_atom_site_fract_x
_atom_site_fract_y
_atom_site_fract_z
Si Si1 0.670980 0.000000 0.750000
Si Si2 0.448131 0.166641 0.597845
Si Si3 0.847857 0.320133 0.912323
Si Si4 0.320743 0.771540 0.807772
Si Si5 0.470087 0.101970 0.995068
Si Si6 0.605076 0.085569 0.092413
Si Si7 0.255108 0.000000 0.250000
O O1 0.701269 0.131128 0.700618
O O2 0.630841 0.969721 0.583417
O O3 0.500000 0.250000 0.528935
O O4 0.381479 0.219649 0.581460
O O5 0.459359 0.147741 0.801333
O O6 0.458968 0.039160 0.516476
O O7 0.847185 0.185554 0.844397
O O8 0.799780 0.415516 0.856395
O O9 0.838293 0.299779 0.112827
O O10 0.915982 0.358851 0.883718
O O11 0.283567 0.894690 0.843623
O O12 0.537911 0.130286 0.046582
O O13 0.597441 0.000000 0.250000
#
# Coordination Sequence:
#
# PCOD9333106 Si02
#       7
#     4   8   8   8   8   8   4
#     4  10  22  46  75 102 143 186 230 306 376 430
#     4  10  18  33  64 103 134 178 238 285 349 438
#     4  10  23  43  64  93 145 187 235 302 362 414
#     4  10  21  42  71 102 134 189 248 294 363 441
#     4  10  19  36  61  94 142 187 223 292 362 418
#     4  11  23  43  70 107 145 182 236 296 364 440
#     4  12  24  44  69  98 139 194 246 302 352 430
#
# _framework density 24.609876
#
# number of rings (size 3 to 8) (size 9 to 14) (size 15 to 20)
#    0.000    1.667    0.000    8.000    1.167    0.000 
#   13.500    0.000    0.000    0.000    0.000    0.000 
#    0.000    0.000    0.000    0.000    0.000    0.000 
#
# Total GULP energy -133942.338008 kJ/mol
# GULP energy per Si atom -5580.930750 kJ/mol
# Density = 2.455386 g / cm^3
# Si number density = 24.609876 Si / 1000 Ang^3
#
#
#
# Elastic Constant Matrix: (Units=GPa)
#
#
# Indices 1 2 3 4 5 6 
#
# 1 95.2751 85.9344 32.0255 0.0000 0.0000 0.0000
# 2 85.9344 171.1137 15.6274 0.0000 0.0000 0.0000
# 3 32.0255 15.6274 42.1669 0.0000 0.0000 0.0000
# 4 0.0000 0.0000 0.0000 28.0115 0.0000 0.0000
# 5 0.0000 0.0000 0.0000 0.0000 18.7889 0.0000
# 6 0.0000 0.0000 0.0000 0.0000 0.0000 64.9591
#
#
#
# Elastic Compliance Matrix: (Units=1/GPa)
#
#
# Indices 1 2 3 4 5 6 
#
# 1 0.026476 -0.011861 -0.015712 0.000000 0.000000 0.000000
# 2 -0.011861 0.011363 0.004798 0.000000 0.000000 0.000000
# 3 -0.015712 0.004798 0.033871 0.000000 0.000000 0.000000
# 4 0.000000 0.000000 0.000000 0.035700 0.000000 0.000000
# 5 0.000000 0.000000 0.000000 0.000000 0.053223 0.000000
# 6 0.000000 0.000000 0.000000 0.000000 0.000000 0.015394
#
#
# Mechanical properties :
#
#
# Convention : Reuss Voigt Hill
#
# Bulk Modulus (GPa) = 38.23075 63.97004 51.10039
# Shear Modulus (GPa) = 21.71099 34.01646 27.86373
#
# Velocity S-wave (km/s) = 2.97342 3.72187 3.36849
# Velocity P-wave (km/s) = 5.23037 6.67232 5.99485
#
# Compressibility (1/GPa) = 0.02615695
#
# Stress axis : x y z
#
# Youngs Moduli (GPa) = 37.77001 88.00626 29.52398
#
# Poissons Ratio (x) = 1.04388 0.46389
# Poissons Ratio (y) = 0.44801 -0.14164
# Poissons Ratio (z) = 0.59346 -0.42222
#
# Static dielectric constant tensor:
#      x y z
#    x 1.959920 0.000000 0.000000 
#    y 0.000000 2.089170 0.000000 
#    z 0.000000 0.000000 1.951390 
# 
# From -- ./inp_files/15853.got.cif
#   From: 2010.05.17/outbox.cif.g08.bks.cpg/sg24_8_cif.got.tgz:15853.got - 2010.06.04 00:33:39.
