data_PCOD9333038
_publ_section_title
;
Structure prediction by ZEFSAII (Michael W. Deem and Ramdas Pophale) SiO2 
 PCOD9333038
Probable space group: I 21 21 21
;
_chemical_formula_sum "Si O2"
_cell_formula_units_Z 60
_cell_length_a 20.877962
_cell_length_b 5.416159
_cell_length_c 24.240534
_cell_angle_alpha 90.000000
_cell_angle_beta 90.000000
_cell_angle_gamma 90.000000
_cell_volume 2741.079874
_symmetry_space_group_name_H-M "I 21 21 21"
_symmetry_group_IT_number 24
_symmetry_cell_setting 'orthorhombic'
loop_
_space_group_symop_operation_xyz
x,y,z
-x,1/2-y,z
x,-y,1/2-z
1/2-x,y,-z
1/2+x,1/2+y,1/2+z
1/2-x,-y,1/2+z
1/2+x,1/2-y,-z
-x,1/2+y,1/2-z
loop_
_atom_site_type_symbol
_atom_site_label
_atom_site_fract_x
_atom_site_fract_y
_atom_site_fract_z
Si Si1 0.283820 0.398905 0.059766
Si Si2 0.324121 0.889152 0.187158
Si Si3 0.319946 0.110362 0.470893
Si Si4 0.035922 0.000523 0.817509
Si Si5 0.291387 0.803232 0.661047
Si Si6 0.223498 0.500000 0.750000
Si Si7 0.931341 0.209602 0.448734
Si Si8 0.431001 0.203072 0.877757
O O1 0.315525 0.662630 0.071591
O O2 0.232084 0.340122 0.106406
O O3 0.330356 0.163136 0.052950
O O4 0.250000 0.425896 0.000000
O O5 0.322345 0.601959 0.202038
O O6 0.323410 0.000000 0.250000
O O7 0.390303 0.985321 0.163266
O O8 0.255986 0.960195 0.160487
O O9 0.250000 0.083953 0.500000
O O10 0.371947 0.208909 0.513891
O O11 0.000000 0.250000 0.834977
O O12 0.036560 0.000000 0.750000
O O13 0.000000 0.750000 0.834723
O O14 0.270716 0.677411 0.717486
O O15 0.367124 0.812418 0.657925
O O16 0.934350 0.429972 0.404027
O O17 0.000000 0.250000 0.478639
O O18 0.924684 0.934270 0.421998
O O19 0.500000 0.250000 0.850207
#
# Coordination Sequence:
#
# PCOD9333038 Si02
#       8
#     8   8   8   8   8   4   8   8
#     4  10  21  34  58  91 119 151 195 253 313 371
#     4   9  21  37  58  88 119 159 208 254 318 379
#     4  10  18  32  53  85 119 151 195 241 301 369
#     4   9  18  30  54  84 116 147 191 247 300 356
#     4  11  23  39  64  89 128 165 217 277 324 390
#     4  10  24  40  64  90 126 176 222 266 334 380
#     4  10  20  36  59  91 127 165 208 259 318 394
#     4  10  21  36  61  91 123 163 215 271 329 387
#
# _framework density 21.889182999999999
#
# number of rings (size 3 to 8) (size 9 to 14) (size 15 to 20)
#    0.000    2.133    0.000    4.000   10.267    0.000 
#    0.000    0.000    4.400    2.400    0.000    0.000 
#    0.000    0.000    0.000    0.000    0.000    0.000 
#
# Total GULP energy -167121.848158 kJ/mol
# GULP energy per Si atom -5570.728272 kJ/mol
# Density = 2.183936 g / cm^3
# Si number density = 21.889183 Si / 1000 Ang^3
#
#
#
# Elastic Constant Matrix: (Units=GPa)
#
#
# Indices 1 2 3 4 5 6 
#
# 1 173.6433 34.1261 19.5166 0.0000 0.0000 0.0000
# 2 34.1261 122.3633 2.0296 0.0000 0.0000 0.0000
# 3 19.5166 2.0296 36.1703 0.0000 0.0000 0.0000
# 4 0.0000 0.0000 0.0000 64.0469 0.0000 0.0000
# 5 0.0000 0.0000 0.0000 0.0000 26.6155 0.0000
# 6 0.0000 0.0000 0.0000 0.0000 0.0000 18.5140
#
#
#
# Elastic Compliance Matrix: (Units=1/GPa)
#
#
# Indices 1 2 3 4 5 6 
#
# 1 0.006486 -0.001752 -0.003401 0.000000 0.000000 0.000000
# 2 -0.001752 0.008653 0.000460 0.000000 0.000000 0.000000
# 3 -0.003401 0.000460 0.029456 0.000000 0.000000 0.000000
# 4 0.000000 0.000000 0.000000 0.015614 0.000000 0.000000
# 5 0.000000 0.000000 0.000000 0.000000 0.037572 0.000000
# 6 0.000000 0.000000 0.000000 0.000000 0.000000 0.054013
#
#
# Mechanical properties :
#
#
# Convention : Reuss Voigt Hill
#
# Bulk Modulus (GPa) = 28.40238 49.28017 38.84127
# Shear Modulus (GPa) = 28.91556 40.26894 34.59225
#
# Velocity S-wave (km/s) = 3.63850 4.29379 3.97966
# Velocity P-wave (km/s) = 5.53672 6.86619 6.23698
#
# Compressibility (1/GPa) = 0.03520832
#
# Stress axis : x y z
#
# Youngs Moduli (GPa) = 154.18795 115.56053 33.94857
#
# Poissons Ratio (x) = 0.20250 0.11546
# Poissons Ratio (y) = 0.27019 -0.01561
# Poissons Ratio (z) = 0.52441 -0.05315
#
# Static dielectric constant tensor:
#      x y z
#    x 1.822800 0.000000 0.000000 
#    y 0.000000 2.084900 0.000000 
#    z 0.000000 0.000000 1.869930 
# 
# From -- ./inp_files/37540.got.cif
#   From: 2010.05.17/outbox.cif.g08.bks.cpg/sg24_19_cif.got.tgz:37540.got - 2010.06.04 00:33:39.
