data_PCOD9333806
_publ_section_title
;
Structure prediction by ZEFSAII (Michael W. Deem and Ramdas Pophale) SiO2 
 PCOD9333806
Probable space group: I 21 21 21
;
_chemical_formula_sum "Si O2"
_cell_formula_units_Z 40
_cell_length_a 10.258140
_cell_length_b 16.795194
_cell_length_c 10.473657
_cell_angle_alpha 90.000000
_cell_angle_beta 90.000000
_cell_angle_gamma 90.000000
_cell_volume 1804.479671
_symmetry_space_group_name_H-M "I 21 21 21"
_symmetry_group_IT_number 24
_symmetry_cell_setting 'orthorhombic'
loop_
_space_group_symop_operation_xyz
x,y,z
-x,1/2-y,z
x,-y,1/2-z
1/2-x,y,-z
1/2+x,1/2+y,1/2+z
1/2-x,-y,1/2+z
1/2+x,1/2-y,-z
-x,1/2+y,1/2-z
loop_
_atom_site_type_symbol
_atom_site_label
_atom_site_fract_x
_atom_site_fract_y
_atom_site_fract_z
Si Si1 0.740468 0.188467 0.860356
Si Si2 0.401088 0.462408 0.539417
Si Si3 0.493297 0.397337 0.807182
Si Si4 0.279366 0.125565 0.143374
Si Si5 0.022560 0.652823 0.812696
O O1 0.588459 0.182279 0.829572
O O2 0.783932 0.279101 0.869401
O O3 0.840416 0.148331 0.762720
O O4 0.750000 0.152109 0.000000
O O5 0.250000 0.469753 0.500000
O O6 0.420941 0.427812 0.681016
O O7 0.468782 0.547648 0.567519
O O8 0.465696 0.400723 0.439688
O O9 0.646429 0.393955 0.781629
O O10 0.410221 0.112471 0.224341
O O11 0.250000 0.093946 0.000000
O O12 0.000000 0.750000 0.835246
#
# Coordination Sequence:
#
# PCOD9333806 Si02
#       5
#     8   8   8   8   8
#     4  10  19  38  70  98 128 174 227 276 328 398
#     4  11  24  45  65  94 130 175 235 271 329 414
#     4  11  23  41  66  94 131 176 221 274 340 393
#     4  10  22  41  64 102 137 168 219 278 342 400
#     4  10  22  42  70 101 134 175 222 281 343 397
#
# _framework density 22.167055000000001
#
# number of rings (size 3 to 8) (size 9 to 14) (size 15 to 20)
#    0.000    1.600    2.000    2.400    0.000    5.600 
#    7.200    0.000    0.000    0.000    0.000    0.000 
#    0.000    0.000    0.000    0.000    0.000    0.000 
#
# Total GULP energy -111348.459322 kJ/mol
# GULP energy per Si atom -5567.422966 kJ/mol
# Density = 2.211660 g / cm^3
# Si number density = 22.167055 Si / 1000 Ang^3
#
#
#
# Elastic Constant Matrix: (Units=GPa)
#
#
# Indices 1 2 3 4 5 6 
#
# 1 159.4662 70.6665 46.9124 -0.0002 0.0000 0.0001
# 2 70.6665 -144.8655 109.9582 0.0005 -0.0001 0.0000
# 3 46.9124 109.9582 113.7849 -0.0004 0.0001 0.0003
# 4 -0.0002 0.0005 -0.0004 23.3556 0.0000 0.0002
# 5 0.0000 -0.0001 0.0001 0.0000 34.0331 0.0000
# 6 0.0001 0.0000 0.0003 0.0002 0.0000 36.7821
#
#
#
# Elastic Compliance Matrix: (Units=1/GPa)
#
#
# Indices 1 2 3 4 5 6 
#
# 1 0.007009 0.000707 -0.003573 0.000000 0.000000 0.000000
# 2 0.000707 -0.003911 0.003488 0.000000 0.000000 0.000000
# 3 -0.003573 0.003488 0.006891 0.000000 0.000000 0.000000
# 4 0.000000 0.000000 0.000000 0.042816 0.000000 0.000000
# 5 0.000000 0.000000 0.000000 0.000000 0.029383 0.000000
# 6 0.000000 0.000000 0.000000 0.000000 0.000000 0.027187
#
#
# Mechanical properties :
#
#
# Convention : Reuss Voigt Hill
#
# Bulk Modulus (GPa) = 89.02450 64.82884 76.92667
# Shear Modulus (GPa) = 44.69233 12.22407 28.45820
#
# Velocity S-wave (km/s) = 4.49504 2.35085 3.58691
# Velocity P-wave (km/s) = 8.19685 6.05621 7.20646
#
# Compressibility (1/GPa) = 0.01123286
#
# Stress axis : x y z
#
# Youngs Moduli (GPa) = 142.68004 -255.70520 145.11460
#
# Poissons Ratio (x) = 0.18078 0.51847
# Poissons Ratio (y) = -0.10087 -0.50612
# Poissons Ratio (z) = 0.50977 0.89183
#
# Static dielectric constant tensor:
#      x y z
#    x 1.838430 0.000000 0.000000 
#    y 0.000000 1.911840 0.000000 
#    z 0.000000 0.000000 1.809360 
# 
# From -- ./inp_files/18401.got.cif
#   From: 2010.05.17/outbox.cif.g08.bks.cpg/sg24_10_cif.got.tgz:18401.got - 2010.06.04 00:33:39.
