data_PCOD9334367
_publ_section_title
;
Structure prediction by ZEFSAII (Michael W. Deem and Ramdas Pophale) SiO2 
 PCOD9334367
Probable space group: I 21 21 21
;
_chemical_formula_sum "Si O2"
_cell_formula_units_Z 48
_cell_length_a 12.882775
_cell_length_b 12.544593
_cell_length_c 13.045115
_cell_angle_alpha 90.000000
_cell_angle_beta 90.000000
_cell_angle_gamma 90.000000
_cell_volume 2108.210196
_symmetry_space_group_name_H-M "I 21 21 21"
_symmetry_group_IT_number 24
_symmetry_cell_setting 'orthorhombic'
loop_
_space_group_symop_operation_xyz
x,y,z
-x,1/2-y,z
x,-y,1/2-z
1/2-x,y,-z
1/2+x,1/2+y,1/2+z
1/2-x,-y,1/2+z
1/2+x,1/2-y,-z
-x,1/2+y,1/2-z
loop_
_atom_site_type_symbol
_atom_site_label
_atom_site_fract_x
_atom_site_fract_y
_atom_site_fract_z
Si Si1 0.034701 0.937137 0.450080
Si Si2 0.715634 0.357996 0.344375
Si Si3 0.640965 0.500000 0.750000
Si Si4 0.184832 0.402828 0.101545
Si Si5 0.250000 0.052272 0.000000
Si Si6 0.506580 0.924412 0.152246
Si Si7 0.752049 0.132469 0.667517
O O1 0.934020 0.871960 0.418817
O O2 0.067697 0.003397 0.349152
O O3 0.144118 0.884249 0.482761
O O4 0.004487 0.011734 0.545659
O O5 0.784058 0.396347 0.247797
O O6 0.728197 0.464438 0.411682
O O7 0.591630 0.344886 0.337018
O O8 0.766882 0.248461 0.380574
O O9 0.193047 0.532501 0.117710
O O10 0.226162 0.361593 0.210891
O O11 0.250000 0.376699 0.000000
O O12 0.625192 0.888352 0.157965
O O13 0.490642 0.000000 0.250000
#
# Coordination Sequence:
#
# PCOD9334367 Si02
#       7
#     8   8   4   8   4   8   8
#     4  10  20  38  62  88 120 169 204 252 312 377
#     4  10  21  36  60  89 126 158 211 262 311 372
#     4  10  20  40  58  88 126 160 200 260 312 376
#     4  11  21  39  60  86 127 164 203 251 318 379
#     4   8  20  36  60  90 116 154 214 260 308 356
#     4  11  19  38  61  88 119 165 212 261 308 367
#     4  11  22  36  59  93 124 163 206 257 315 381
#
# _framework density 22.768128999999998
#
# number of rings (size 3 to 8) (size 9 to 14) (size 15 to 20)
#    0.000    1.667    4.167    1.500    1.167    0.000 
#    0.000    9.167    0.000    0.000    0.000    0.000 
#    0.000    0.000    0.000    0.000    0.000    0.000 
#
# Total GULP energy -133748.152002 kJ/mol
# GULP energy per Si atom -5572.839667 kJ/mol
# Density = 2.271631 g / cm^3
# Si number density = 22.768129 Si / 1000 Ang^3
#
#
#
# Elastic Constant Matrix: (Units=GPa)
#
#
# Indices 1 2 3 4 5 6 
#
# 1 178.1450 2.7357 37.1846 0.0000 0.0000 0.0000
# 2 2.7357 54.0571 3.6576 0.0000 0.0000 0.0000
# 3 37.1846 3.6576 141.7615 0.0000 0.0000 0.0000
# 4 0.0000 0.0000 0.0000 -7.7326 0.0000 0.0000
# 5 0.0000 0.0000 0.0000 0.0000 30.3032 0.0000
# 6 0.0000 0.0000 0.0000 0.0000 0.0000 10.8687
#
#
#
# Elastic Compliance Matrix: (Units=1/GPa)
#
#
# Indices 1 2 3 4 5 6 
#
# 1 0.005941 -0.000196 -0.001553 0.000000 0.000000 0.000000
# 2 -0.000196 0.018538 -0.000427 0.000000 0.000000 0.000000
# 3 -0.001553 -0.000427 0.007473 0.000000 0.000000 0.000000
# 4 0.000000 0.000000 0.000000 -0.129323 0.000000 0.000000
# 5 0.000000 0.000000 0.000000 0.000000 0.033000 0.000000
# 6 0.000000 0.000000 0.000000 0.000000 0.000000 0.092007
#
#
# Mechanical properties :
#
#
# Convention : Reuss Voigt Hill
#
# Bulk Modulus (GPa) = 36.23270 51.23548 43.73409
# Shear Modulus (GPa) = 121.39884 28.71358 75.05621
#
# Velocity S-wave (km/s) = 7.30995 3.55509 5.74779
# Velocity P-wave (km/s) = 9.33785 6.27723 7.95610
#
# Compressibility (1/GPa) = 0.02759938
#
# Stress axis : x y z
#
# Youngs Moduli (GPa) = 168.33281 53.94403 133.82347
#
# Poissons Ratio (x) = 0.01055 0.20785
# Poissons Ratio (y) = 0.03292 0.05714
# Poissons Ratio (z) = 0.26145 0.02303
#
# Static dielectric constant tensor:
#      x y z
#    x 1.910000 0.000000 0.000000 
#    y 0.000000 1.887450 0.000000 
#    z 0.000000 0.000000 2.134180 
# 
# From -- ./inp_files/25774.got.cif
#   From: 2010.05.17/outbox.cif.g08.bks.cpg/sg24_13_cif.got.tgz:25774.got - 2010.06.04 00:33:39.
