data_PCOD9334610
_publ_section_title
;
Structure prediction by ZEFSAII (Michael W. Deem and Ramdas Pophale) SiO2 
 PCOD9334610
Probable space group: I 21 21 21
;
_chemical_formula_sum "Si O2"
_cell_formula_units_Z 48
_cell_length_a 7.967337
_cell_length_b 13.462200
_cell_length_c 20.248724
_cell_angle_alpha 90.000000
_cell_angle_beta 90.000000
_cell_angle_gamma 90.000000
_cell_volume 2171.835293
_symmetry_space_group_name_H-M "I 21 21 21"
_symmetry_group_IT_number 24
_symmetry_cell_setting 'orthorhombic'
loop_
_space_group_symop_operation_xyz
x,y,z
-x,1/2-y,z
x,-y,1/2-z
1/2-x,y,-z
1/2+x,1/2+y,1/2+z
1/2-x,-y,1/2+z
1/2+x,1/2-y,-z
-x,1/2+y,1/2-z
loop_
_atom_site_type_symbol
_atom_site_label
_atom_site_fract_x
_atom_site_fract_y
_atom_site_fract_z
Si Si1 0.270352 0.172853 0.842938
Si Si2 0.132824 0.161082 0.563373
Si Si3 0.153159 0.391261 0.132163
Si Si4 0.137665 0.163405 0.306620
Si Si5 0.250000 0.577056 0.500000
Si Si6 0.902660 0.000000 0.250000
Si Si7 0.409468 0.068413 0.047628
O O1 0.268020 0.282480 0.874142
O O2 0.454377 0.128467 0.860280
O O3 0.265862 0.178121 0.763418
O O4 0.134803 0.106591 0.879775
O O5 0.250000 0.181774 0.500000
O O6 0.243843 0.156517 0.630116
O O7 0.000000 0.250000 0.569198
O O8 0.057728 0.050467 0.550466
O O9 0.200641 0.463724 0.072286
O O10 0.207455 0.434410 0.201944
O O11 0.000000 0.250000 0.313879
O O12 0.024601 0.065974 0.295298
O O13 0.429926 0.624045 0.482584
O O14 0.250000 0.083914 0.000000
#
# Coordination Sequence:
#
# PCOD9334610 Si02
#       7
#     8   8   8   8   4   4   8
#     4  10  20  43  67 102 140 186 235 292 368 438
#     4  11  26  45  68 100 138 188 238 311 366 435
#     4  10  21  38  68 104 138 184 236 291 357 429
#     4  11  21  41  74 101 138 193 240 292 370 443
#     4  12  26  40  70 108 134 196 240 294 362 438
#     4  10  20  40  70 106 142 184 240 292 356 442
#     4  11  25  45  69  99 146 184 238 302 371 436
#
# _framework density 22.101122
#
# number of rings (size 3 to 8) (size 9 to 14) (size 15 to 20)
#    0.000    1.333    5.000    2.500    4.667    2.000 
#    3.000    0.000    0.000    0.000    0.000    0.000 
#    0.000    0.000    0.000    0.000    0.000    0.000 
#
# Total GULP energy -133887.732098 kJ/mol
# GULP energy per Si atom -5578.655504 kJ/mol
# Density = 2.205082 g / cm^3
# Si number density = 22.101122 Si / 1000 Ang^3
#
#
#
# Elastic Constant Matrix: (Units=GPa)
#
#
# Indices 1 2 3 4 5 6 
#
# 1 75.9016 28.3663 52.2777 0.0000 0.0000 0.0000
# 2 28.3663 101.8136 22.7157 0.0000 0.0000 0.0000
# 3 52.2777 22.7157 161.0666 0.0000 0.0000 0.0000
# 4 0.0000 0.0000 0.0000 17.0736 0.0000 0.0000
# 5 0.0000 0.0000 0.0000 0.0000 33.2811 0.0000
# 6 0.0000 0.0000 0.0000 0.0000 0.0000 21.9682
#
#
#
# Elastic Compliance Matrix: (Units=1/GPa)
#
#
# Indices 1 2 3 4 5 6 
#
# 1 0.018361 -0.003909 -0.005408 0.000000 0.000000 0.000000
# 2 -0.003909 0.010973 -0.000279 0.000000 0.000000 0.000000
# 3 -0.005408 -0.000279 0.008003 0.000000 0.000000 0.000000
# 4 0.000000 0.000000 0.000000 0.058570 0.000000 0.000000
# 5 0.000000 0.000000 0.000000 0.000000 0.030047 0.000000
# 6 0.000000 0.000000 0.000000 0.000000 0.000000 0.045520
#
#
# Mechanical properties :
#
#
# Convention : Reuss Voigt Hill
#
# Bulk Modulus (GPa) = 55.11033 60.61126 57.86079
# Shear Modulus (GPa) = 25.41753 30.15938 27.78845
#
# Velocity S-wave (km/s) = 3.39493 3.69807 3.54973
# Velocity P-wave (km/s) = 6.35272 6.76153 6.56031
#
# Compressibility (1/GPa) = 0.01814542
#
# Stress axis : x y z
#
# Youngs Moduli (GPa) = 54.46433 91.13163 124.94926
#
# Poissons Ratio (x) = 0.35622 0.67573
# Poissons Ratio (y) = 0.21289 0.03484
# Poissons Ratio (z) = 0.29455 0.02541
#
# Static dielectric constant tensor:
#      x y z
#    x 1.810510 0.000000 0.000000 
#    y 0.000000 1.871830 0.000000 
#    z 0.000000 0.000000 1.843310 
# 
# From -- ./inp_files/29505.got.cif
#   From: 2010.05.17/outbox.cif.g08.bks.cpg/sg24_15_cif.got.tgz:29505.got - 2010.06.04 00:33:39.
