data_PCOD9334984
_publ_section_title
;
Structure prediction by ZEFSAII (Michael W. Deem and Ramdas Pophale) SiO2 
 PCOD9334984
Probable space group: I 21 21 21
;
_chemical_formula_sum "Si O2"
_cell_formula_units_Z 36
_cell_length_a 10.556345
_cell_length_b 22.052520
_cell_length_c 7.261055
_cell_angle_alpha 90.000000
_cell_angle_beta 90.000000
_cell_angle_gamma 90.000000
_cell_volume 1690.330105
_symmetry_space_group_name_H-M "I 21 21 21"
_symmetry_group_IT_number 24
_symmetry_cell_setting 'orthorhombic'
loop_
_space_group_symop_operation_xyz
x,y,z
-x,1/2-y,z
x,-y,1/2-z
1/2-x,y,-z
1/2+x,1/2+y,1/2+z
1/2-x,-y,1/2+z
1/2+x,1/2-y,-z
-x,1/2+y,1/2-z
loop_
_atom_site_type_symbol
_atom_site_label
_atom_site_fract_x
_atom_site_fract_y
_atom_site_fract_z
Si Si1 0.585128 0.340460 0.728015
Si Si2 0.250000 0.624587 0.500000
Si Si3 0.303918 0.715928 0.795272
Si Si4 0.110591 0.936261 0.934602
Si Si5 0.481262 0.938765 0.486714
O O1 0.445416 0.311095 0.728801
O O2 0.684177 0.286433 0.759528
O O3 0.596011 0.371423 0.529173
O O4 0.594007 0.395219 0.873397
O O5 0.224860 0.671151 0.667323
O O6 0.374655 0.583634 0.506847
O O7 0.250000 0.712866 0.000000
O O8 0.078472 0.932098 0.718556
O O9 0.250000 0.956891 0.000000
O O10 0.023072 0.989098 0.019248
#
# Coordination Sequence:
#
# PCOD9334984 Si02
#       5
#     8   4   8   8   8
#     4  10  22  39  62  94 126 170 217 268 340 400
#     4  10  22  46  64  92 132 172 230 278 328 406
#     4  10  21  39  63  91 127 168 216 273 332 402
#     4  11  24  41  63  95 131 168 220 275 335 409
#     4  10  24  42  64  94 130 176 224 275 340 399
#
# _framework density 21.297616000000001
#
# number of rings (size 3 to 8) (size 9 to 14) (size 15 to 20)
#    0.000    1.778    0.000    2.667    6.222    3.556 
#   18.000    4.444    0.000    0.000    0.000    0.000 
#    0.000    0.000    0.000    0.000    0.000    0.000 
#
# Total GULP energy -100455.052463 kJ/mol
# GULP energy per Si atom -5580.836248 kJ/mol
# Density = 2.124914 g / cm^3
# Si number density = 21.297616 Si / 1000 Ang^3
#
#
#
# Elastic Constant Matrix: (Units=GPa)
#
#
# Indices 1 2 3 4 5 6 
#
# 1 41.9539 13.1495 1.4821 0.0018 0.0000 -0.0007
# 2 13.1495 97.8737 2.4242 0.0019 0.0000 -0.0023
# 3 1.4821 2.4242 70.4817 0.0115 -0.0005 -0.0041
# 4 0.0018 0.0019 0.0115 128.3910 -0.0044 -0.0211
# 5 0.0000 0.0000 -0.0005 -0.0044 25.0819 0.0013
# 6 -0.0007 -0.0023 -0.0041 -0.0211 0.0013 58.6201
#
#
#
# Elastic Compliance Matrix: (Units=1/GPa)
#
#
# Indices 1 2 3 4 5 6 
#
# 1 0.024895 -0.003335 -0.000409 0.000000 0.000000 0.000000
# 2 -0.003335 0.010673 -0.000297 0.000000 0.000000 0.000000
# 3 -0.000409 -0.000297 0.014207 -0.000001 0.000000 0.000001
# 4 0.000000 0.000000 -0.000001 0.007789 0.000001 0.000003
# 5 0.000000 0.000000 0.000000 0.000001 0.039869 -0.000001
# 6 0.000000 0.000000 0.000001 0.000003 -0.000001 0.017059
#
#
# Mechanical properties :
#
#
# Convention : Reuss Voigt Hill
#
# Bulk Modulus (GPa) = 23.98424 27.15789 25.57107
# Shear Modulus (GPa) = 36.63792 55.30218 45.97005
#
# Velocity S-wave (km/s) = 4.15213 5.10125 4.65096
# Velocity P-wave (km/s) = 5.85430 6.89030 6.39332
#
# Compressibility (1/GPa) = 0.04169404
#
# Stress axis : x y z
#
# Youngs Moduli (GPa) = 40.16826 93.69779 70.38840
#
# Poissons Ratio (x) = 0.31244 0.02877
# Poissons Ratio (y) = 0.13395 0.02090
# Poissons Ratio (z) = 0.01642 0.02783
#
# Static dielectric constant tensor:
#      x y z
#    x 1.795180 0.000000 0.000000 
#    y 0.000000 1.771810 0.000000 
#    z 0.000000 0.000000 1.748940 
# 
# From -- ./inp_files/2252.got.cif
#   From: 2010.05.17/outbox.cif.g08.bks.cpg/sg24_2_cif.got.tgz:2252.got - 2010.06.04 00:33:39.
