data_PCOD9334680
_publ_section_title
;
Structure prediction by ZEFSAII (Michael W. Deem and Ramdas Pophale) SiO2 
 PCOD9334680
Probable space group: I 21 21 21
;
_chemical_formula_sum "Si O2"
_cell_formula_units_Z 24
_cell_length_a 13.816776
_cell_length_b 9.001371
_cell_length_c 9.017949
_cell_angle_alpha 90.000000
_cell_angle_beta 90.000000
_cell_angle_gamma 90.000000
_cell_volume 1121.561657
_symmetry_space_group_name_H-M "I 21 21 21"
_symmetry_group_IT_number 24
_symmetry_cell_setting 'orthorhombic'
loop_
_space_group_symop_operation_xyz
x,y,z
-x,1/2-y,z
x,-y,1/2-z
1/2-x,y,-z
1/2+x,1/2+y,1/2+z
1/2-x,-y,1/2+z
1/2+x,1/2-y,-z
-x,1/2+y,1/2-z
loop_
_atom_site_type_symbol
_atom_site_label
_atom_site_fract_x
_atom_site_fract_y
_atom_site_fract_z
Si Si1 0.471259 0.000000 0.250000
Si Si2 0.786618 0.354722 0.664634
Si Si3 0.316760 0.375288 0.863104
Si Si4 0.500000 0.750000 0.481932
O O1 0.400623 0.885204 0.164567
O O2 0.513857 0.895430 0.377123
O O3 0.746335 0.500000 0.750000
O O4 0.750000 0.343224 0.500000
O O5 0.757702 0.216970 0.762935
O O6 0.356782 0.500000 0.750000
O O7 0.250000 0.432084 0.000000
O O8 0.402230 0.265299 0.920421
#
# Coordination Sequence:
#
# PCOD9334680 Si02
#       4
#     4   8   8   4
#     4  10  24  42  70 102 146 178 240 288 360 416
#     4  10  20  42  70  98 137 189 229 280 350 422
#     4  12  26  46  70 105 142 183 237 291 355 415
#     4  12  26  46  70 108 140 186 238 298 350 426
#
# _framework density 21.398733
#
# number of rings (size 3 to 8) (size 9 to 14) (size 15 to 20)
#    1.000    0.000    3.333    4.000    2.333    6.667 
#    0.000    0.000    0.000    0.000    0.000    0.000 
#    0.000    0.000    0.000    0.000    0.000    0.000 
#
# Total GULP energy -66837.309165 kJ/mol
# GULP energy per Si atom -5569.775764 kJ/mol
# Density = 2.135003 g / cm^3
# Si number density = 21.398733 Si / 1000 Ang^3
#
#
#
# Elastic Constant Matrix: (Units=GPa)
#
#
# Indices 1 2 3 4 5 6 
#
# 1 63.8460 1.8008 22.3041 0.0000 0.0000 0.0000
# 2 1.8008 70.5357 32.5860 0.0000 0.0000 0.0000
# 3 22.3041 32.5860 141.3599 0.0000 0.0000 0.0000
# 4 0.0000 0.0000 0.0000 39.2144 0.0000 0.0000
# 5 0.0000 0.0000 0.0000 0.0000 7.8614 0.0000
# 6 0.0000 0.0000 0.0000 0.0000 0.0000 24.8413
#
#
#
# Elastic Compliance Matrix: (Units=1/GPa)
#
#
# Indices 1 2 3 4 5 6 
#
# 1 0.016625 0.000881 -0.002826 0.000000 0.000000 0.000000
# 2 0.000881 0.015914 -0.003807 0.000000 0.000000 0.000000
# 3 -0.002826 -0.003807 0.008398 0.000000 0.000000 0.000000
# 4 0.000000 0.000000 0.000000 0.025501 0.000000 0.000000
# 5 0.000000 0.000000 0.000000 0.000000 0.127205 0.000000
# 6 0.000000 0.000000 0.000000 0.000000 0.000000 0.040255
#
#
# Mechanical properties :
#
#
# Convention : Reuss Voigt Hill
#
# Bulk Modulus (GPa) = 33.97706 43.23594 38.60650
# Shear Modulus (GPa) = 19.59148 28.98679 24.28914
#
# Velocity S-wave (km/s) = 3.02908 3.68449 3.37274
# Velocity P-wave (km/s) = 5.30531 6.19269 5.76609
#
# Compressibility (1/GPa) = 0.02943162
#
# Stress axis : x y z
#
# Youngs Moduli (GPa) = 60.14978 62.83904 119.07939
#
# Poissons Ratio (x) = -0.05538 0.33655
# Poissons Ratio (y) = -0.05301 0.45339
# Poissons Ratio (z) = 0.17000 0.23925
#
# Static dielectric constant tensor:
#      x y z
#    x 1.794590 0.000000 0.000000 
#    y 0.000000 1.830340 0.000000 
#    z 0.000000 0.000000 1.806190 
# 
# From -- ./inp_files/8587.got.cif
#   From: 2010.05.17/outbox.cif.g08.bks.cpg/sg24_5_cif.got.tgz:8587.got - 2010.06.04 00:33:39.
