data_PCOD9334822
_publ_section_title
;
Structure prediction by ZEFSAII (Michael W. Deem and Ramdas Pophale) SiO2 
 PCOD9334822
Probable space group: I 21 21 21
;
_chemical_formula_sum "Si O2"
_cell_formula_units_Z 56
_cell_length_a 10.356470
_cell_length_b 14.903530
_cell_length_c 17.420135
_cell_angle_alpha 90.000000
_cell_angle_beta 90.000000
_cell_angle_gamma 90.000000
_cell_volume 2688.762324
_symmetry_space_group_name_H-M "I 21 21 21"
_symmetry_group_IT_number 24
_symmetry_cell_setting 'orthorhombic'
loop_
_space_group_symop_operation_xyz
x,y,z
-x,1/2-y,z
x,-y,1/2-z
1/2-x,y,-z
1/2+x,1/2+y,1/2+z
1/2-x,-y,1/2+z
1/2+x,1/2-y,-z
-x,1/2+y,1/2-z
loop_
_atom_site_type_symbol
_atom_site_label
_atom_site_fract_x
_atom_site_fract_y
_atom_site_fract_z
Si Si1 0.273207 0.226356 0.287871
Si Si2 0.559971 0.345575 0.824682
Si Si3 0.552701 0.570982 0.184566
Si Si4 0.299792 0.003495 0.585799
Si Si5 0.116341 0.678937 0.925830
Si Si6 0.686622 0.094672 0.743351
Si Si7 0.464118 0.354548 0.590911
O O1 0.147078 0.178654 0.250978
O O2 0.393457 0.162015 0.276956
O O3 0.282814 0.259240 0.377295
O O4 0.276409 0.320110 0.242697
O O5 0.500000 0.250000 0.853038
O O6 0.642798 0.411201 0.878590
O O7 0.434689 0.401253 0.800200
O O8 0.526617 0.500000 0.250000
O O9 0.677448 0.536886 0.135826
O O10 0.435900 0.599455 0.128911
O O11 0.250000 0.988916 0.500000
O O12 0.409635 0.081626 0.584013
O O13 0.000000 0.750000 0.932941
O O14 0.119539 0.642738 0.012528
O O15 0.619587 0.108337 0.661019
O O16 0.751218 0.000000 0.750000
O O17 0.500000 0.250000 0.604881
#
# Coordination Sequence:
#
# PCOD9334822 Si02
#       7
#     8   8   8   8   8   8   8
#     4  10  21  37  58  84 119 159 202 242 311 371
#     4  10  21  39  63  88 117 155 212 267 306 367
#     4  11  20  35  60  88 116 154 205 255 294 368
#     4  12  22  36  64  94 119 158 210 261 321 373
#     4   9  21  37  53  84 122 159 195 241 311 375
#     4  11  21  35  57  87 118 156 200 250 304 369
#     4  11  21  36  53  89 131 154 189 254 316 373
#
# _framework density 20.827427
#
# number of rings (size 3 to 8) (size 9 to 14) (size 15 to 20)
#    0.000    1.429    4.286    3.000    0.000    1.143 
#    0.000    0.000    3.143    1.714    0.000    0.000 
#    0.000    0.000    0.000    0.000    0.000    0.000 
#
# Total GULP energy -156230.023472 kJ/mol
# GULP energy per Si atom -5579.643695 kJ/mol
# Density = 2.078002 g / cm^3
# Si number density = 20.827427 Si / 1000 Ang^3
#
#
#
# Elastic Constant Matrix: (Units=GPa)
#
#
# Indices 1 2 3 4 5 6 
#
# 1 99.4812 51.3260 44.8017 0.0000 0.0000 0.0000
# 2 51.3260 153.7776 70.4727 0.0000 0.0000 0.0000
# 3 44.8017 70.4727 107.6398 0.0000 0.0000 0.0000
# 4 0.0000 0.0000 0.0000 33.2207 0.0000 0.0000
# 5 0.0000 0.0000 0.0000 0.0000 24.9337 0.0000
# 6 0.0000 0.0000 0.0000 0.0000 0.0000 37.4704
#
#
#
# Elastic Compliance Matrix: (Units=1/GPa)
#
#
# Indices 1 2 3 4 5 6 
#
# 1 0.013099 -0.002677 -0.003700 0.000000 0.000000 0.000000
# 2 -0.002677 0.009837 -0.005326 0.000000 0.000000 0.000000
# 3 -0.003700 -0.005326 0.014317 0.000000 0.000000 0.000000
# 4 0.000000 0.000000 0.000000 0.030102 0.000000 0.000000
# 5 0.000000 0.000000 0.000000 0.000000 0.040106 0.000000
# 6 0.000000 0.000000 0.000000 0.000000 0.000000 0.026688
#
#
# Mechanical properties :
#
#
# Convention : Reuss Voigt Hill
#
# Bulk Modulus (GPa) = 72.21110 77.12215 74.66663
# Shear Modulus (GPa) = 30.83150 32.07817 31.45484
#
# Velocity S-wave (km/s) = 3.85168 3.92878 3.89042
# Velocity P-wave (km/s) = 7.38424 7.59539 7.49056
#
# Compressibility (1/GPa) = 0.01384829
#
# Stress axis : x y z
#
# Youngs Moduli (GPa) = 76.33986 101.65422 69.84471
#
# Poissons Ratio (x) = 0.27209 0.25841
# Poissons Ratio (y) = 0.20433 0.37203
# Poissons Ratio (z) = 0.28244 0.54146
#
# Static dielectric constant tensor:
#      x y z
#    x 1.857180 0.000000 0.000000 
#    y 0.000000 1.763120 0.000000 
#    z 0.000000 0.000000 1.770630 
# 
# From -- ./inp_files/25799.got.cif
#   From: 2010.05.17/outbox.cif.g08.bks.cpg/sg24_13_cif.got.tgz:25799.got - 2010.06.04 00:33:39.
