data_PCOD9334542
_publ_section_title
;
Structure prediction by ZEFSAII (Michael W. Deem and Ramdas Pophale) SiO2 
 PCOD9334542
Probable space group: I 21 21 21
;
_chemical_formula_sum "Si O2"
_cell_formula_units_Z 48
_cell_length_a 15.586102
_cell_length_b 9.045419
_cell_length_c 16.524904
_cell_angle_alpha 90.000000
_cell_angle_beta 90.000000
_cell_angle_gamma 90.000000
_cell_volume 2329.727618
_symmetry_space_group_name_H-M "I 21 21 21"
_symmetry_group_IT_number 24
_symmetry_cell_setting 'orthorhombic'
loop_
_space_group_symop_operation_xyz
x,y,z
-x,1/2-y,z
x,-y,1/2-z
1/2-x,y,-z
1/2+x,1/2+y,1/2+z
1/2-x,-y,1/2+z
1/2+x,1/2-y,-z
-x,1/2+y,1/2-z
loop_
_atom_site_type_symbol
_atom_site_label
_atom_site_fract_x
_atom_site_fract_y
_atom_site_fract_z
Si Si1 0.279995 0.320134 0.619909
Si Si2 0.071316 0.655035 0.240626
Si Si3 0.636188 0.739025 0.587632
Si Si4 0.363519 0.533899 0.022846
Si Si5 0.223779 0.000121 0.906549
Si Si6 0.039218 0.905611 0.556066
O O1 0.341010 0.366073 0.692550
O O2 0.341265 0.336699 0.540724
O O3 0.201025 0.428666 0.596545
O O4 0.249226 0.153116 0.635322
O O5 0.026050 0.500000 0.250000
O O6 0.092885 0.714140 0.329311
O O7 0.000000 0.750000 0.195506
O O8 0.720393 0.645975 0.611549
O O9 0.574522 0.634529 0.533897
O O10 0.652784 0.880694 0.528282
O O11 0.461099 0.519424 0.050503
O O12 0.123495 0.036823 0.898920
O O13 0.250000 0.972673 0.000000
O O14 0.000000 0.750000 0.588003
#
# Coordination Sequence:
#
# PCOD9334542 Si02
#       6
#     8   8   8   8   8   8
#     4  11  24  38  57  91 131 165 204 268 326 371
#     4  12  27  41  62  96 134 175 208 257 333 403
#     4  10  22  40  65  89 130 169 210 255 322 403
#     4  10  20  40  60  89 125 161 216 261 310 375
#     4  10  21  37  58  93 123 161 213 259 319 373
#     4   9  20  34  65  94 116 159 215 266 304 368
#
# _framework density 20.603266000000001
#
# number of rings (size 3 to 8) (size 9 to 14) (size 15 to 20)
#    0.000    1.667    3.333    1.500   14.000    2.000 
#    0.000    0.000    0.000    0.000   17.333    0.000 
#    0.000    0.000    0.000    0.000    0.000    0.000 
#
# Total GULP energy -133817.791469 kJ/mol
# GULP energy per Si atom -5575.741311 kJ/mol
# Density = 2.055637 g / cm^3
# Si number density = 20.603266 Si / 1000 Ang^3
#
#
#
# Elastic Constant Matrix: (Units=GPa)
#
#
# Indices 1 2 3 4 5 6 
#
# 1 142.4248 67.2657 13.5668 0.0000 0.0000 0.0000
# 2 67.2657 85.6453 6.6163 0.0000 0.0000 0.0000
# 3 13.5668 6.6163 38.0947 0.0000 0.0000 0.0000
# 4 0.0000 0.0000 0.0000 18.8663 0.0000 0.0000
# 5 0.0000 0.0000 0.0000 0.0000 9.0367 0.0000
# 6 0.0000 0.0000 0.0000 0.0000 0.0000 46.1474
#
#
#
# Elastic Compliance Matrix: (Units=1/GPa)
#
#
# Indices 1 2 3 4 5 6 
#
# 1 0.011399 -0.008756 -0.002539 0.000000 0.000000 0.000000
# 2 -0.008756 0.018561 -0.000105 0.000000 0.000000 0.000000
# 3 -0.002539 -0.000105 0.027173 0.000000 0.000000 0.000000
# 4 0.000000 0.000000 0.000000 0.053005 0.000000 0.000000
# 5 0.000000 0.000000 0.000000 0.000000 0.110660 0.000000
# 6 0.000000 0.000000 0.000000 0.000000 0.000000 0.021670
#
#
# Mechanical properties :
#
#
# Convention : Reuss Voigt Hill
#
# Bulk Modulus (GPa) = 29.12721 49.00693 39.06707
# Shear Modulus (GPa) = 18.06934 26.72449 22.39691
#
# Velocity S-wave (km/s) = 2.96465 3.60543 3.30063
# Velocity P-wave (km/s) = 5.08790 6.41637 5.79036
#
# Compressibility (1/GPa) = 0.03433216
#
# Stress axis : x y z
#
# Youngs Moduli (GPa) = 87.73024 53.87524 36.80163
#
# Poissons Ratio (x) = 0.47175 0.09342
# Poissons Ratio (y) = 0.76819 0.00388
# Poissons Ratio (z) = 0.22271 0.00568
#
# Static dielectric constant tensor:
#      x y z
#    x 1.769680 0.000000 0.000000 
#    y 0.000000 1.812400 0.000000 
#    z 0.000000 0.000000 1.719010 
# 
# From -- ./inp_files/30726.got.cif
#   From: 2010.05.17/outbox.cif.g08.bks.cpg/sg24_16_cif.got.tgz:30726.got - 2010.06.04 00:33:39.
