data_PCOD9334806
_publ_section_title
;
Structure prediction by ZEFSAII (Michael W. Deem and Ramdas Pophale) SiO2 
 PCOD9334806
Probable space group: I 21 21 21
;
_chemical_formula_sum "Si O2"
_cell_formula_units_Z 52
_cell_length_a 5.473298
_cell_length_b 27.653098
_cell_length_c 17.458634
_cell_angle_alpha 90.000000
_cell_angle_beta 90.000000
_cell_angle_gamma 90.000000
_cell_volume 2642.427910
_symmetry_space_group_name_H-M "I 21 21 21"
_symmetry_group_IT_number 24
_symmetry_cell_setting 'orthorhombic'
loop_
_space_group_symop_operation_xyz
x,y,z
-x,1/2-y,z
x,-y,1/2-z
1/2-x,y,-z
1/2+x,1/2+y,1/2+z
1/2-x,-y,1/2+z
1/2+x,1/2-y,-z
-x,1/2+y,1/2-z
loop_
_atom_site_type_symbol
_atom_site_label
_atom_site_fract_x
_atom_site_fract_y
_atom_site_fract_z
Si Si1 0.016463 0.045737 0.124271
Si Si2 0.750000 0.113580 0.000000
Si Si3 0.503971 0.305924 0.090541
Si Si4 0.272710 0.950164 0.083624
Si Si5 0.032525 0.898991 0.230839
Si Si6 0.501224 0.195343 0.811670
Si Si7 0.150159 0.531751 0.807431
O O1 0.865781 0.079365 0.065859
O O2 0.139160 0.078957 0.189670
O O3 0.846900 0.009190 0.172817
O O4 0.182870 0.006000 0.082966
O O5 0.543049 0.150561 0.031394
O O6 0.500000 0.250000 0.059714
O O7 0.764548 0.310657 0.132931
O O8 0.262199 0.311104 0.145040
O O9 0.548261 0.954085 0.110778
O O10 0.151892 0.920436 0.154009
O O11 0.250000 0.928654 0.000000
O O12 0.756472 0.919586 0.227845
O O13 0.029261 0.842508 0.243451
O O14 0.500000 0.250000 0.783630
O O15 0.979812 0.500000 0.750000
#
# Coordination Sequence:
#
# PCOD9334806 Si02
#       7
#     8   4   8   8   8   8   8
#     4  10  21  37  52  87 120 162 213 251 313 372
#     4  12  22  38  60  88 128 176 220 260 308 378
#     4  10  24  42  62  90 132 170 215 266 316 368
#     4  11  22  35  56  87 120 161 203 261 321 384
#     4  10  21  37  59  85 116 160 212 253 327 376
#     4  10  22  43  66  93 124 165 216 270 319 380
#     4   9  19  36  58  78 121 155 202 255 309 382
#
# _framework density 19.678871999999998
#
# number of rings (size 3 to 8) (size 9 to 14) (size 15 to 20)
#    0.000    1.846    1.538    3.231    2.154    6.769 
#    2.769    0.000    0.000    0.000    4.000    0.000 
#    0.000    0.000    0.000    0.000    0.000    0.000 
#
# Total GULP energy -144838.466722 kJ/mol
# GULP energy per Si atom -5570.710259 kJ/mol
# Density = 1.963408 g / cm^3
# Si number density = 19.678872 Si / 1000 Ang^3
#
#
#
# Elastic Constant Matrix: (Units=GPa)
#
#
# Indices 1 2 3 4 5 6 
#
# 1 49.7545 26.5039 12.1893 0.0000 0.0000 0.0000
# 2 26.5039 151.0755 59.6689 0.0000 0.0000 0.0000
# 3 12.1893 59.6689 113.5898 0.0000 0.0000 0.0000
# 4 0.0000 0.0000 0.0000 25.6131 0.0000 0.0000
# 5 0.0000 0.0000 0.0000 0.0000 7.6339 0.0000
# 6 0.0000 0.0000 0.0000 0.0000 0.0000 17.5953
#
#
#
# Elastic Compliance Matrix: (Units=1/GPa)
#
#
# Indices 1 2 3 4 5 6 
#
# 1 0.022187 -0.003725 -0.000424 0.000000 0.000000 0.000000
# 2 -0.003725 0.008977 -0.004316 0.000000 0.000000 0.000000
# 3 -0.000424 -0.004316 0.011116 0.000000 0.000000 0.000000
# 4 0.000000 0.000000 0.000000 0.039043 0.000000 0.000000
# 5 0.000000 0.000000 0.000000 0.000000 0.130995 0.000000
# 6 0.000000 0.000000 0.000000 0.000000 0.000000 0.056833
#
#
# Mechanical properties :
#
#
# Convention : Reuss Voigt Hill
#
# Bulk Modulus (GPa) = 39.44728 56.79377 48.12052
# Shear Modulus (GPa) = 16.97612 24.57230 20.77421
#
# Velocity S-wave (km/s) = 2.94029 3.53748 3.25262
# Velocity P-wave (km/s) = 5.62282 6.75336 6.21386
#
# Compressibility (1/GPa) = 0.02535029
#
# Stress axis : x y z
#
# Youngs Moduli (GPa) = 45.07190 111.39129 89.95716
#
# Poissons Ratio (x) = 0.41491 0.03816
# Poissons Ratio (y) = 0.16788 0.38827
# Poissons Ratio (z) = 0.01912 0.48078
#
# Static dielectric constant tensor:
#      x y z
#    x 1.849320 0.000000 0.000000 
#    y 0.000000 1.685290 0.000000 
#    z 0.000000 0.000000 1.754110 
# 
# From -- ./inp_files/28872.got.cif
#   From: 2010.05.17/outbox.cif.g08.bks.cpg/sg24_15_cif.got.tgz:28872.got - 2010.06.04 00:33:39.
