data_PCOD9334409
_publ_section_title
;
Structure prediction by ZEFSAII (Michael W. Deem and Ramdas Pophale) SiO2 
 PCOD9334409
Probable space group: I 21 21 21
;
_chemical_formula_sum "Si O2"
_cell_formula_units_Z 32
_cell_length_a 9.194237
_cell_length_b 5.265105
_cell_length_c 31.597225
_cell_angle_alpha 90.000000
_cell_angle_beta 90.000000
_cell_angle_gamma 90.000000
_cell_volume 1529.578159
_symmetry_space_group_name_H-M "I 21 21 21"
_symmetry_group_IT_number 24
_symmetry_cell_setting 'orthorhombic'
loop_
_space_group_symop_operation_xyz
x,y,z
-x,1/2-y,z
x,-y,1/2-z
1/2-x,y,-z
1/2+x,1/2+y,1/2+z
1/2-x,-y,1/2+z
1/2+x,1/2-y,-z
-x,1/2+y,1/2-z
loop_
_atom_site_type_symbol
_atom_site_label
_atom_site_fract_x
_atom_site_fract_y
_atom_site_fract_z
Si Si1 0.070441 0.500473 0.299575
Si Si2 0.103664 0.001026 0.528110
Si Si3 0.402044 0.997031 0.124309
Si Si4 0.332140 0.822879 0.289550
O O1 0.027424 0.500000 0.250000
O O2 0.240694 0.565698 0.297010
O O3 0.000000 0.750000 0.319679
O O4 0.000000 0.250000 0.318509
O O5 0.250000 0.995906 0.500000
O O6 0.000000 0.250000 0.521113
O O7 0.159574 0.012028 0.576986
O O8 0.000000 0.750000 0.522891
O O9 0.500000 0.250000 0.124841
O O10 0.310572 0.021544 0.167025
O O11 0.500000 0.750000 0.129075
O O12 0.500000 0.750000 0.283239
O O13 0.287644 0.000000 0.250000
#
# Coordination Sequence:
#
# PCOD9334409 Si02
#       4
#     8   8   8   8
#     4  10  21  37  54  74 108 154 197 241 299 352
#     4  10  20  38  65  92 122 159 198 246 306 367
#     4   9  20  36  56  88 126 157 190 246 313 357
#     4  11  21  35  62  92 119 156 211 259 293 348
#
# _framework density 20.9208
#
# number of rings (size 3 to 8) (size 9 to 14) (size 15 to 20)
#    0.000    2.000    0.000    4.500    0.000    6.000 
#    0.000    1.250    0.000   10.500    0.000    0.000 
#    0.000    0.000    0.000    0.000    0.000    0.000 
#
# Total GULP energy -89179.432611 kJ/mol
# GULP energy per Si atom -5573.714538 kJ/mol
# Density = 2.087318 g / cm^3
# Si number density = 20.920800 Si / 1000 Ang^3
#
#
#
# Elastic Constant Matrix: (Units=GPa)
#
#
# Indices 1 2 3 4 5 6 
#
# 1 146.8228 62.4763 46.6597 0.0000 0.0000 0.0000
# 2 62.4763 188.4992 44.0404 0.0000 0.0000 0.0000
# 3 46.6597 44.0404 163.6047 0.0000 0.0000 0.0000
# 4 0.0000 0.0000 0.0000 24.4226 0.0000 0.0000
# 5 0.0000 0.0000 0.0000 0.0000 16.4381 0.0000
# 6 0.0000 0.0000 0.0000 0.0000 0.0000 28.5234
#
#
#
# Elastic Compliance Matrix: (Units=1/GPa)
#
#
# Indices 1 2 3 4 5 6 
#
# 1 0.008374 -0.002366 -0.001751 0.000000 0.000000 0.000000
# 2 -0.002366 0.006330 -0.001029 0.000000 0.000000 0.000000
# 3 -0.001751 -0.001029 0.006889 0.000000 0.000000 0.000000
# 4 0.000000 0.000000 0.000000 0.040946 0.000000 0.000000
# 5 0.000000 0.000000 0.000000 0.000000 0.060834 0.000000
# 6 0.000000 0.000000 0.000000 0.000000 0.000000 0.035059
#
#
# Mechanical properties :
#
#
# Convention : Reuss Voigt Hill
#
# Bulk Modulus (GPa) = 88.50006 89.47550 88.98778
# Shear Modulus (GPa) = 28.98682 36.92683 32.95683
#
# Velocity S-wave (km/s) = 3.72634 4.20584 3.97333
# Velocity P-wave (km/s) = 7.80438 8.15150 7.97983
#
# Compressibility (1/GPa) = 0.01129943
#
# Stress axis : x y z
#
# Youngs Moduli (GPa) = 119.41022 157.98239 145.16373
#
# Poissons Ratio (x) = 0.37386 0.25423
# Poissons Ratio (y) = 0.28258 0.14937
# Poissons Ratio (z) = 0.20913 0.16256
#
# Static dielectric constant tensor:
#      x y z
#    x 1.801070 0.000000 0.000000 
#    y 0.000000 1.824340 0.000000 
#    z 0.000000 0.000000 1.780700 
# 
# From -- ./inp_files/1149.got.cif
#   From: 2010.05.17/outbox.cif.g08.bks.cpg/sg24_1_cif.got.tgz:1149.got - 2010.06.04 00:33:39.
