data_PCOD9334413
_publ_section_title
;
Structure prediction by ZEFSAII (Michael W. Deem and Ramdas Pophale) SiO2 
 PCOD9334413
Probable space group: I 21 21 21
;
_chemical_formula_sum "Si O2"
_cell_formula_units_Z 40
_cell_length_a 15.098106
_cell_length_b 8.108606
_cell_length_c 14.577222
_cell_angle_alpha 90.000000
_cell_angle_beta 90.000000
_cell_angle_gamma 90.000000
_cell_volume 1784.610469
_symmetry_space_group_name_H-M "I 21 21 21"
_symmetry_group_IT_number 24
_symmetry_cell_setting 'orthorhombic'
loop_
_space_group_symop_operation_xyz
x,y,z
-x,1/2-y,z
x,-y,1/2-z
1/2-x,y,-z
1/2+x,1/2+y,1/2+z
1/2-x,-y,1/2+z
1/2+x,1/2-y,-z
-x,1/2+y,1/2-z
loop_
_atom_site_type_symbol
_atom_site_label
_atom_site_fract_x
_atom_site_fract_y
_atom_site_fract_z
Si Si1 0.527113 0.065557 0.980775
Si Si2 0.273665 0.823141 0.696278
Si Si3 0.089352 0.358840 0.827233
Si Si4 0.591215 0.179514 0.675679
Si Si5 0.843045 0.464437 0.457660
O O1 0.500000 0.250000 0.955143
O O2 0.589776 0.066628 0.069446
O O3 0.431896 0.992387 0.015562
O O4 0.564340 0.969480 0.892083
O O5 0.175555 0.754722 0.684546
O O6 0.333243 0.686460 0.747601
O O7 0.319140 0.872394 0.600478
O O8 0.271682 0.000000 0.750000
O O9 0.089408 0.500000 0.750000
O O10 0.000000 0.250000 0.819978
O O11 0.500000 0.250000 0.718088
O O12 0.626199 0.319623 0.608003
O O13 0.750000 0.414628 0.500000
#
# Coordination Sequence:
#
# PCOD9334413 Si02
#       5
#     8   8   8   8   8
#     4  10  22  40  62  92 130 170 213 266 323 382
#     4  10  22  42  67  95 127 166 216 272 328 386
#     4  11  24  41  63  94 133 176 217 266 323 386
#     4   9  21  41  66  93 122 166 216 265 324 382
#     4  10  20  38  65  94 126 166 213 265 325 390
#
# _framework density 22.413854000000001
#
# number of rings (size 3 to 8) (size 9 to 14) (size 15 to 20)
#    0.000    2.000    0.000    3.000    0.000    9.600 
#    0.000   10.000    0.000    0.000    0.000    0.000 
#    0.000    0.000    0.000    0.000    0.000    0.000 
#
# Total GULP energy -111654.524199 kJ/mol
# GULP energy per Si atom -5582.726210 kJ/mol
# Density = 2.236284 g / cm^3
# Si number density = 22.413854 Si / 1000 Ang^3
#
#
#
# Elastic Constant Matrix: (Units=GPa)
#
#
# Indices 1 2 3 4 5 6 
#
# 1 163.1101 36.2231 47.8023 0.0000 0.0000 0.0000
# 2 36.2231 83.9274 34.1312 0.0000 0.0000 0.0000
# 3 47.8023 34.1312 69.0129 0.0000 0.0000 0.0000
# 4 0.0000 0.0000 0.0000 12.2227 0.0000 0.0000
# 5 0.0000 0.0000 0.0000 0.0000 32.2589 0.0000
# 6 0.0000 0.0000 0.0000 0.0000 0.0000 37.7211
#
#
#
# Elastic Compliance Matrix: (Units=1/GPa)
#
#
# Indices 1 2 3 4 5 6 
#
# 1 0.007835 -0.001470 -0.004700 0.000000 0.000000 0.000000
# 2 -0.001470 0.015191 -0.006494 0.000000 0.000000 0.000000
# 3 -0.004700 -0.006494 0.020957 0.000000 0.000000 0.000000
# 4 0.000000 0.000000 0.000000 0.081815 0.000000 0.000000
# 5 0.000000 0.000000 0.000000 0.000000 0.030999 0.000000
# 6 0.000000 0.000000 0.000000 0.000000 0.000000 0.026510
#
#
# Mechanical properties :
#
#
# Convention : Reuss Voigt Hill
#
# Bulk Modulus (GPa) = 53.60766 61.37374 57.49070
# Shear Modulus (GPa) = 23.27163 29.63345 26.45254
#
# Velocity S-wave (km/s) = 3.22572 3.64002 3.43911
# Velocity P-wave (km/s) = 6.15165 6.71624 6.44013
#
# Compressibility (1/GPa) = 0.01865405
#
# Stress axis : x y z
#
# Youngs Moduli (GPa) = 127.63841 65.82959 47.71641
#
# Poissons Ratio (x) = 0.09678 0.22425
# Poissons Ratio (y) = 0.18766 0.30989
# Poissons Ratio (z) = 0.59985 0.42752
#
# Static dielectric constant tensor:
#      x y z
#    x 1.903170 0.000000 0.000000 
#    y 0.000000 1.855840 0.000000 
#    z 0.000000 0.000000 1.867750 
# 
# From -- ./inp_files/24524.got.cif
#   From: 2010.05.17/outbox.cif.g08.bks.cpg/sg24_13_cif.got.tgz:24524.got - 2010.06.04 00:33:39.
