data_PCOD9334106
_publ_section_title
;
Structure prediction by ZEFSAII (Michael W. Deem and Ramdas Pophale) SiO2 
 PCOD9334106
Probable space group: I 21 21 21
;
_chemical_formula_sum "Si O2"
_cell_formula_units_Z 32
_cell_length_a 8.072892
_cell_length_b 15.261412
_cell_length_c 12.312395
_cell_angle_alpha 90.000000
_cell_angle_beta 90.000000
_cell_angle_gamma 90.000000
_cell_volume 1516.933000
_symmetry_space_group_name_H-M "I 21 21 21"
_symmetry_group_IT_number 24
_symmetry_cell_setting 'orthorhombic'
loop_
_space_group_symop_operation_xyz
x,y,z
-x,1/2-y,z
x,-y,1/2-z
1/2-x,y,-z
1/2+x,1/2+y,1/2+z
1/2-x,-y,1/2+z
1/2+x,1/2-y,-z
-x,1/2+y,1/2-z
loop_
_atom_site_type_symbol
_atom_site_label
_atom_site_fract_x
_atom_site_fract_y
_atom_site_fract_z
Si Si1 0.924071 0.900027 0.227527
Si Si2 0.448753 0.964741 0.998738
Si Si3 0.643054 0.180159 0.390175
Si Si4 0.067907 0.153919 0.049547
O O1 0.771902 0.834705 0.207028
O O2 0.012304 0.912642 0.112171
O O3 0.044213 0.865706 0.321898
O O4 0.867185 0.000000 0.250000
O O5 0.512851 0.064925 0.998727
O O6 0.250000 0.966326 0.000000
O O7 0.545915 0.910599 0.088807
O O8 0.500000 0.250000 0.371587
O O9 0.750000 0.201159 0.500000
O O10 0.000000 0.250000 0.025866
O O11 0.250000 0.153850 0.000000
#
# Coordination Sequence:
#
# PCOD9334106 Si02
#       4
#     8   8   8   8
#     4   9  20  39  60  86 119 155 198 244 293 350
#     4   9  19  38  62  89 119 151 192 245 301 351
#     4  10  20  35  61  91 122 155 190 243 300 353
#     4  10  22  40  61  84 118 161 201 242 287 346
#
# _framework density 21.095196000000001
#
# number of rings (size 3 to 8) (size 9 to 14) (size 15 to 20)
#    0.000    2.500    0.000    0.750    0.000   11.000 
#    0.000   15.000    0.000    0.000    0.000    0.000 
#    0.000    0.000    0.000    0.000    0.000    0.000 
#
# Total GULP energy -89188.440573 kJ/mol
# GULP energy per Si atom -5574.277536 kJ/mol
# Density = 2.104718 g / cm^3
# Si number density = 21.095196 Si / 1000 Ang^3
#
#
#
# Elastic Constant Matrix: (Units=GPa)
#
#
# Indices 1 2 3 4 5 6 
#
# 1 96.5456 52.5572 46.1766 0.0000 0.0000 0.0000
# 2 52.5572 144.4630 38.7206 0.0000 0.0000 0.0000
# 3 46.1766 38.7206 56.5006 0.0000 0.0000 0.0000
# 4 0.0000 0.0000 0.0000 37.5932 0.0000 0.0000
# 5 0.0000 0.0000 0.0000 0.0000 34.1599 0.0000
# 6 0.0000 0.0000 0.0000 0.0000 0.0000 37.1709
#
#
#
# Elastic Compliance Matrix: (Units=1/GPa)
#
#
# Indices 1 2 3 4 5 6 
#
# 1 0.018149 -0.003218 -0.012627 0.000000 0.000000 0.000000
# 2 -0.003218 0.009051 -0.003572 0.000000 0.000000 0.000000
# 3 -0.012627 -0.003572 0.030467 0.000000 0.000000 0.000000
# 4 0.000000 0.000000 0.000000 0.026601 0.000000 0.000000
# 5 0.000000 0.000000 0.000000 0.000000 0.029274 0.000000
# 6 0.000000 0.000000 0.000000 0.000000 0.000000 0.026903
#
#
# Mechanical properties :
#
#
# Convention : Reuss Voigt Hill
#
# Bulk Modulus (GPa) = 53.10383 63.60200 58.35292
# Shear Modulus (GPa) = 26.94587 32.45513 29.70050
#
# Velocity S-wave (km/s) = 3.57788 3.92664 3.75631
# Velocity P-wave (km/s) = 6.50356 7.12555 6.82165
#
# Compressibility (1/GPa) = 0.01883103
#
# Stress axis : x y z
#
# Youngs Moduli (GPa) = 55.09839 110.49093 32.82234
#
# Poissons Ratio (x) = 0.35560 0.41446
# Poissons Ratio (y) = 0.17733 0.11725
# Poissons Ratio (z) = 0.69575 0.39469
#
# Static dielectric constant tensor:
#      x y z
#    x 1.750740 0.000000 0.000000 
#    y 0.000000 1.798390 0.000000 
#    z 0.000000 0.000000 1.776750 
# 
# From -- ./inp_files/10234.got.cif
#   From: 2010.05.17/outbox.cif.g08.bks.cpg/sg24_6_cif.got.tgz:10234.got - 2010.06.04 00:33:39.
