data_PCOD9334096
_publ_section_title
;
Structure prediction by ZEFSAII (Michael W. Deem and Ramdas Pophale) SiO2 
 PCOD9334096
Probable space group: I 21 21 21
;
_chemical_formula_sum "Si O2"
_cell_formula_units_Z 48
_cell_length_a 7.550074
_cell_length_b 24.999057
_cell_length_c 11.433673
_cell_angle_alpha 90.000000
_cell_angle_beta 90.000000
_cell_angle_gamma 90.000000
_cell_volume 2158.045526
_symmetry_space_group_name_H-M "I 21 21 21"
_symmetry_group_IT_number 24
_symmetry_cell_setting 'orthorhombic'
loop_
_space_group_symop_operation_xyz
x,y,z
-x,1/2-y,z
x,-y,1/2-z
1/2-x,y,-z
1/2+x,1/2+y,1/2+z
1/2-x,-y,1/2+z
1/2+x,1/2-y,-z
-x,1/2+y,1/2-z
loop_
_atom_site_type_symbol
_atom_site_label
_atom_site_fract_x
_atom_site_fract_y
_atom_site_fract_z
Si Si1 0.909574 0.691913 0.262207
Si Si2 0.959322 0.387986 0.034057
Si Si3 0.004031 0.308409 0.842839
Si Si4 0.050046 0.883940 0.043488
Si Si5 0.122428 0.301880 0.604282
Si Si6 0.395245 0.001577 0.609236
O O1 0.982673 0.655056 0.364997
O O2 0.694294 0.689187 0.284253
O O3 0.953238 0.661561 0.142187
O O4 0.000000 0.750000 0.261952
O O5 0.001585 0.447225 0.079898
O O6 0.750000 0.389226 0.000000
O O7 0.041708 0.359858 0.921099
O O8 0.000000 0.250000 0.905578
O O9 0.150953 0.306887 0.741793
O O10 0.003203 0.942267 0.092270
O O11 0.250000 0.886912 0.000000
O O12 0.943954 0.860317 0.934885
O O13 0.250000 0.287499 0.500000
O O14 0.000000 0.250000 0.601197
O O15 0.250000 0.002279 0.500000
O O16 0.337310 0.000000 0.750000
#
# Coordination Sequence:
#
# PCOD9334096 Si02
#       6
#     8   8   8   8   8   8
#     4  11  21  34  59  87 124 162 199 251 313 370
#     4   9  19  37  58  86 124 163 212 262 311 363
#     4  10  22  38  57  88 128 162 210 258 312 381
#     4  11  21  35  58  89 123 156 206 255 314 370
#     4  11  24  39  60  87 125 163 206 259 319 381
#     4  10  20  35  60  91 125 165 214 269 314 366
#
# _framework density 22.242348
#
# number of rings (size 3 to 8) (size 9 to 14) (size 15 to 20)
#    0.000    1.667    3.333    1.500    7.000    0.000 
#    0.000    0.000    0.000    4.000    0.000    0.000 
#    0.000    0.000    0.000    0.000    0.000    0.000 
#
# Total GULP energy -133644.830394 kJ/mol
# GULP energy per Si atom -5568.534600 kJ/mol
# Density = 2.219172 g / cm^3
# Si number density = 22.242348 Si / 1000 Ang^3
#
#
#
# Elastic Constant Matrix: (Units=GPa)
#
#
# Indices 1 2 3 4 5 6 
#
# 1 25.5843 13.6888 19.2867 0.0000 0.0000 0.0000
# 2 13.6888 206.0471 68.7524 0.0001 0.0000 0.0000
# 3 19.2867 68.7524 112.9280 0.0000 0.0001 0.0000
# 4 0.0000 0.0001 0.0000 50.6332 0.0001 0.0000
# 5 0.0000 0.0000 0.0001 0.0001 20.9803 0.0000
# 6 0.0000 0.0000 0.0000 0.0000 0.0000 22.2193
#
#
#
# Elastic Compliance Matrix: (Units=1/GPa)
#
#
# Indices 1 2 3 4 5 6 
#
# 1 0.044909 -0.000532 -0.007346 0.000000 0.000000 0.000000
# 2 -0.000532 0.006097 -0.003621 0.000000 0.000000 0.000000
# 3 -0.007346 -0.003621 0.012314 0.000000 0.000000 0.000000
# 4 0.000000 0.000000 0.000000 0.019750 0.000000 0.000000
# 5 0.000000 0.000000 0.000000 0.000000 0.047664 0.000000
# 6 0.000000 0.000000 0.000000 0.000000 0.000000 0.045006
#
#
# Mechanical properties :
#
#
# Convention : Reuss Voigt Hill
#
# Bulk Modulus (GPa) = 24.80052 60.89060 42.84556
# Shear Modulus (GPa) = 23.56509 34.95532 29.26021
#
# Velocity S-wave (km/s) = 3.25848 3.96860 3.63094
# Velocity P-wave (km/s) = 5.03302 6.95953 6.07315
#
# Compressibility (1/GPa) = 0.04032174
#
# Stress axis : x y z
#
# Youngs Moduli (GPa) = 22.26731 164.01944 81.20679
#
# Poissons Ratio (x) = 0.08733 0.59652
# Poissons Ratio (y) = 0.01186 0.29404
# Poissons Ratio (z) = 0.16357 0.59390
#
# Static dielectric constant tensor:
#      x y z
#    x 1.634300 0.000000 0.000000 
#    y 0.000000 1.847220 0.000000 
#    z 0.000000 0.000000 1.957620 
# 
# From -- ./inp_files/18592.got.cif
#   From: 2010.05.17/outbox.cif.g08.bks.cpg/sg24_10_cif.got.tgz:18592.got - 2010.06.04 00:33:39.
