data_PCOD9334661
_publ_section_title
;
Structure prediction by ZEFSAII (Michael W. Deem and Ramdas Pophale) SiO2 
 PCOD9334661
Probable space group: I 21 21 21
;
_chemical_formula_sum "Si O2"
_cell_formula_units_Z 36
_cell_length_a 12.551568
_cell_length_b 6.373239
_cell_length_c 19.452491
_cell_angle_alpha 90.000000
_cell_angle_beta 90.000000
_cell_angle_gamma 90.000000
_cell_volume 1556.085341
_symmetry_space_group_name_H-M "I 21 21 21"
_symmetry_group_IT_number 24
_symmetry_cell_setting 'orthorhombic'
loop_
_space_group_symop_operation_xyz
x,y,z
-x,1/2-y,z
x,-y,1/2-z
1/2-x,y,-z
1/2+x,1/2+y,1/2+z
1/2-x,-y,1/2+z
1/2+x,1/2-y,-z
-x,1/2+y,1/2-z
loop_
_atom_site_type_symbol
_atom_site_label
_atom_site_fract_x
_atom_site_fract_y
_atom_site_fract_z
Si Si1 0.000000 0.250000 0.485932
Si Si2 0.332526 0.569809 0.562914
Si Si3 0.928366 0.919959 0.682948
Si Si4 0.833987 0.719398 0.903093
Si Si5 0.268254 0.861599 0.684907
O O1 0.052955 0.463708 0.454111
O O2 0.100263 0.163744 0.529622
O O3 0.250000 0.644985 0.500000
O O4 0.269770 0.360081 0.585457
O O5 0.336060 0.735088 0.626494
O O6 0.819051 0.810935 0.708276
O O7 0.000000 0.750000 0.645484
O O8 0.989348 0.000000 0.750000
O O9 0.907040 0.113941 0.635767
O O10 0.800153 0.525816 0.858468
O O11 0.312492 0.000000 0.750000
#
# Coordination Sequence:
#
# PCOD9334661 Si02
#       5
#     4   8   8   8   8
#     4  10  20  42  64  92 138 180 230 290 336 420
#     4   9  22  40  62  96 138 184 237 282 347 424
#     4  11  21  31  52  91 136 178 225 269 343 419
#     4  10  21  38  61  94 135 182 223 285 348 413
#     4  11  21  38  62  96 138 185 227 285 352 417
#
# _framework density 23.134976000000002
#
# number of rings (size 3 to 8) (size 9 to 14) (size 15 to 20)
#    0.000    1.778    2.222    2.000    1.556    2.667 
#    0.000   10.000    0.000    0.000    5.778    1.556 
#    0.000    0.000    0.000    0.889    0.000    0.111 
#
# Total GULP energy -100256.308018 kJ/mol
# GULP energy per Si atom -5569.794890 kJ/mol
# Density = 2.308232 g / cm^3
# Si number density = 23.134976 Si / 1000 Ang^3
#
#
#
# Elastic Constant Matrix: (Units=GPa)
#
#
# Indices 1 2 3 4 5 6 
#
# 1 59.3421 53.5373 41.0174 0.0000 0.0000 0.0000
# 2 53.5373 133.4422 74.7458 0.0000 0.0000 0.0000
# 3 41.0174 74.7458 114.2022 0.0000 0.0000 0.0000
# 4 0.0000 0.0000 0.0000 60.3394 0.0000 0.0000
# 5 0.0000 0.0000 0.0000 0.0000 26.5220 0.0000
# 6 0.0000 0.0000 0.0000 0.0000 0.0000 40.6380
#
#
#
# Elastic Compliance Matrix: (Units=1/GPa)
#
#
# Indices 1 2 3 4 5 6 
#
# 1 0.027639 -0.008728 -0.004214 0.000000 0.000000 0.000000
# 2 -0.008728 0.014588 -0.006413 0.000000 0.000000 0.000000
# 3 -0.004214 -0.006413 0.014467 0.000000 0.000000 0.000000
# 4 0.000000 0.000000 0.000000 0.016573 0.000000 0.000000
# 5 0.000000 0.000000 0.000000 0.000000 0.037705 0.000000
# 6 0.000000 0.000000 0.000000 0.000000 0.000000 0.024607
#
#
# Mechanical properties :
#
#
# Convention : Reuss Voigt Hill
#
# Bulk Modulus (GPa) = 55.60765 71.73195 63.66980
# Shear Modulus (GPa) = 27.73409 34.67896 31.20652
#
# Velocity S-wave (km/s) = 3.46612 3.87587 3.67671
# Velocity P-wave (km/s) = 6.33301 7.14864 6.75315
#
# Compressibility (1/GPa) = 0.01798314
#
# Stress axis : x y z
#
# Youngs Moduli (GPa) = 36.18115 68.55089 69.12166
#
# Poissons Ratio (x) = 0.59832 0.29130
# Poissons Ratio (y) = 0.31579 0.44327
# Poissons Ratio (z) = 0.15248 0.43961
#
# Static dielectric constant tensor:
#      x y z
#    x 2.015500 0.000000 0.000000 
#    y 0.000000 1.924980 0.000000 
#    z 0.000000 0.000000 1.969770 
# 
# From -- ./inp_files/35410.got.cif
#   From: 2010.05.17/outbox.cif.g08.bks.cpg/sg24_18_cif.got.tgz:35410.got - 2010.06.04 00:33:39.
