data_PCOD9334627
_publ_section_title
;
Structure prediction by ZEFSAII (Michael W. Deem and Ramdas Pophale) SiO2 
 PCOD9334627
Probable space group: I 21 21 21
;
_chemical_formula_sum "Si O2"
_cell_formula_units_Z 40
_cell_length_a 16.146200
_cell_length_b 9.101864
_cell_length_c 13.141182
_cell_angle_alpha 90.000000
_cell_angle_beta 90.000000
_cell_angle_gamma 90.000000
_cell_volume 1931.234894
_symmetry_space_group_name_H-M "I 21 21 21"
_symmetry_group_IT_number 24
_symmetry_cell_setting 'orthorhombic'
loop_
_space_group_symop_operation_xyz
x,y,z
-x,1/2-y,z
x,-y,1/2-z
1/2-x,y,-z
1/2+x,1/2+y,1/2+z
1/2-x,-y,1/2+z
1/2+x,1/2-y,-z
-x,1/2+y,1/2-z
loop_
_atom_site_type_symbol
_atom_site_label
_atom_site_fract_x
_atom_site_fract_y
_atom_site_fract_z
Si Si1 0.526250 0.080249 0.847696
Si Si2 0.911538 0.829854 0.728077
Si Si3 0.659052 0.827113 0.498186
Si Si4 0.143768 0.994859 0.064447
Si Si5 0.687521 0.607714 0.154904
O O1 0.500000 0.250000 0.827890
O O2 0.591458 0.084237 0.938685
O O3 0.562352 0.000000 0.750000
O O4 0.443949 0.993079 0.880784
O O5 0.875021 0.806164 0.615188
O O6 0.845451 0.763019 0.807033
O O7 0.000000 0.750000 0.737041
O O8 0.923750 0.000000 0.750000
O O9 0.750000 0.895615 0.500000
O O10 0.667255 0.667320 0.552487
O O11 0.215869 0.911610 0.125825
O O12 0.141168 0.936255 0.949093
O O13 0.669665 0.500000 0.250000
#
# Coordination Sequence:
#
# PCOD9334627 Si02
#       5
#     8   8   8   8   8
#     4  10  23  42  68  99 136 185 238 298 361 427
#     4  12  27  44  70 106 147 190 240 299 366 433
#     4  11  22  43  69  98 143 192 235 299 364 429
#     4  10  20  40  73 103 132 181 250 294 357 439
#     4  11  20  39  73 103 135 186 239 294 357 437
#
# _framework density 20.712136999999998
#
# number of rings (size 3 to 8) (size 9 to 14) (size 15 to 20)
#    0.000    1.200    4.000    3.000    2.800    2.400 
#    7.200    0.000    0.000    0.000    0.000    0.000 
#    0.000    0.000    0.000    0.000    0.000    0.000 
#
# Total GULP energy -111826.951409 kJ/mol
# GULP energy per Si atom -5591.347570 kJ/mol
# Density = 2.066500 g / cm^3
# Si number density = 20.712137 Si / 1000 Ang^3
#
#
#
# Elastic Constant Matrix: (Units=GPa)
#
#
# Indices 1 2 3 4 5 6 
#
# 1 110.5106 54.5549 40.9809 0.0000 0.0000 0.0000
# 2 54.5549 85.8770 33.1974 0.0000 0.0000 0.0000
# 3 40.9809 33.1974 101.6448 0.0000 0.0000 0.0000
# 4 0.0000 0.0000 0.0000 41.3624 0.0000 0.0000
# 5 0.0000 0.0000 0.0000 0.0000 23.0189 0.0000
# 6 0.0000 0.0000 0.0000 0.0000 0.0000 25.3105
#
#
#
# Elastic Compliance Matrix: (Units=1/GPa)
#
#
# Indices 1 2 3 4 5 6 
#
# 1 0.014006 -0.007685 -0.003137 0.000000 0.000000 0.000000
# 2 -0.007685 0.017544 -0.002631 0.000000 0.000000 0.000000
# 3 -0.003137 -0.002631 0.011962 0.000000 0.000000 0.000000
# 4 0.000000 0.000000 0.000000 0.024177 0.000000 0.000000
# 5 0.000000 0.000000 0.000000 0.000000 0.043443 0.000000
# 6 0.000000 0.000000 0.000000 0.000000 0.000000 0.039509
#
#
# Mechanical properties :
#
#
# Convention : Reuss Voigt Hill
#
# Bulk Modulus (GPa) = 60.22117 61.72207 60.97162
# Shear Modulus (GPa) = 27.31015 29.22499 28.26757
#
# Velocity S-wave (km/s) = 3.63513 3.76041 3.69830
# Velocity P-wave (km/s) = 6.83794 6.97989 6.90928
#
# Compressibility (1/GPa) = 0.01660546
#
# Stress axis : x y z
#
# Youngs Moduli (GPa) = 71.39844 57.00041 83.59544
#
# Poissons Ratio (x) = 0.43804 0.26224
# Poissons Ratio (y) = 0.54869 0.21998
# Poissons Ratio (z) = 0.22398 0.14999
#
# Static dielectric constant tensor:
#      x y z
#    x 1.741420 0.000000 0.000000 
#    y 0.000000 1.747800 0.000000 
#    z 0.000000 0.000000 1.714810 
# 
# From -- ./inp_files/21353.got.cif
#   From: 2010.05.17/outbox.cif.g08.bks.cpg/sg24_11_cif.got.tgz:21353.got - 2010.06.04 00:33:39.
