data_PCOD9334480
_publ_section_title
;
Structure prediction by ZEFSAII (Michael W. Deem and Ramdas Pophale) SiO2 
 PCOD9334480
Probable space group: I 21 21 21
;
_chemical_formula_sum "Si O2"
_cell_formula_units_Z 40
_cell_length_a 17.251952
_cell_length_b 13.491594
_cell_length_c 7.452848
_cell_angle_alpha 90.000000
_cell_angle_beta 90.000000
_cell_angle_gamma 90.000000
_cell_volume 1734.697564
_symmetry_space_group_name_H-M "I 21 21 21"
_symmetry_group_IT_number 24
_symmetry_cell_setting 'orthorhombic'
loop_
_space_group_symop_operation_xyz
x,y,z
-x,1/2-y,z
x,-y,1/2-z
1/2-x,y,-z
1/2+x,1/2+y,1/2+z
1/2-x,-y,1/2+z
1/2+x,1/2-y,-z
-x,1/2+y,1/2-z
loop_
_atom_site_type_symbol
_atom_site_label
_atom_site_fract_x
_atom_site_fract_y
_atom_site_fract_z
Si Si1 0.498907 0.588561 0.543040
Si Si2 0.575066 0.120962 0.597026
Si Si3 0.728960 0.805441 0.801168
Si Si4 0.832654 0.636096 0.473990
Si Si5 0.106103 0.703315 0.732702
O O1 0.458067 0.482406 0.527086
O O2 0.473567 0.642106 0.726197
O O3 0.590955 0.573896 0.565128
O O4 0.460359 0.653434 0.385938
O O5 0.663213 0.114084 0.664855
O O6 0.578163 0.199459 0.436787
O O7 0.690456 0.722233 0.670852
O O8 0.809353 0.850200 0.727132
O O9 0.750000 0.763107 0.000000
O O10 0.750000 0.582887 0.500000
O O11 0.864923 0.692953 0.651124
#
# Coordination Sequence:
#
# PCOD9334480 Si02
#       5
#     8   8   8   8   8
#     4  11  22  40  61  93 129 168 206 267 323 381
#     4  10  22  39  61  90 129 165 208 253 319 392
#     4   9  19  39  61  95 124 166 209 257 323 381
#     4  10  21  41  66  89 127 166 216 272 321 375
#     4  10  20  39  62  92 127 164 208 258 315 386
#
# _framework density 23.058774
#
# number of rings (size 3 to 8) (size 9 to 14) (size 15 to 20)
#    0.000    2.000    2.000    1.200    0.000    0.000 
#   39.600    0.000    8.800    0.000    0.000    0.000 
#    0.000    0.000    0.000    0.000    0.000    0.000 
#
# Total GULP energy -111458.115800 kJ/mol
# GULP energy per Si atom -5572.905790 kJ/mol
# Density = 2.300629 g / cm^3
# Si number density = 23.058774 Si / 1000 Ang^3
#
#
#
# Elastic Constant Matrix: (Units=GPa)
#
#
# Indices 1 2 3 4 5 6 
#
# 1 213.1162 20.4981 -8.9676 0.0000 0.0000 0.0000
# 2 20.4981 22.7601 -9.2270 0.0000 0.0000 0.0000
# 3 -8.9676 -9.2270 79.2758 0.0000 0.0000 0.0000
# 4 0.0000 0.0000 0.0000 1.4351 0.0000 0.0000
# 5 0.0000 0.0000 0.0000 0.0000 -344.6561 0.0000
# 6 0.0000 0.0000 0.0000 0.0000 0.0000 -14.9284
#
#
#
# Elastic Compliance Matrix: (Units=1/GPa)
#
#
# Indices 1 2 3 4 5 6 
#
# 1 0.005137 -0.004609 0.000045 0.000000 0.000000 0.000000
# 2 -0.004609 0.050247 0.005327 0.000000 0.000000 0.000000
# 3 0.000045 0.005327 0.013239 0.000000 0.000000 0.000000
# 4 0.000000 0.000000 0.000000 0.696816 0.000000 0.000000
# 5 0.000000 0.000000 0.000000 0.000000 -0.002901 0.000000
# 6 0.000000 0.000000 0.000000 0.000000 0.000000 -0.066986
#
#
# Mechanical properties :
#
#
# Convention : Reuss Voigt Hill
#
# Bulk Modulus (GPa) = 14.25531 35.52879 24.89205
# Shear Modulus (GPa) = 6.96953 -50.77331 -21.90189
#
# Velocity S-wave (km/s) = 1.74042 -4.69754 -3.08527
# Velocity P-wave (km/s) = 3.19912 3.73914 1.36872
#
# Compressibility (1/GPa) = 0.07014932
#
# Stress axis : x y z
#
# Youngs Moduli (GPa) = 194.64962 19.90181 75.53290
#
# Poissons Ratio (x) = 0.09172 -0.00338
# Poissons Ratio (y) = 0.89708 -0.40236
# Poissons Ratio (z) = -0.00871 -0.10602
#
# Static dielectric constant tensor:
#      x y z
#    x 1.962170 0.000000 0.000000 
#    y 0.000000 1.915660 0.000000 
#    z 0.000000 0.000000 1.944200 
# 
# From -- ./inp_files/14005.got.cif
#   From: 2010.05.17/outbox.cif.g08.bks.cpg/sg24_8_cif.got.tgz:14005.got - 2010.06.04 00:33:39.
