data_PCOD9334460
_publ_section_title
;
Structure prediction by ZEFSAII (Michael W. Deem and Ramdas Pophale) SiO2 
 PCOD9334460
Probable space group: I 21 21 21
;
_chemical_formula_sum "Si O2"
_cell_formula_units_Z 60
_cell_length_a 13.143069
_cell_length_b 9.312061
_cell_length_c 26.887846
_cell_angle_alpha 90.000000
_cell_angle_beta 90.000000
_cell_angle_gamma 90.000000
_cell_volume 3290.778204
_symmetry_space_group_name_H-M "I 21 21 21"
_symmetry_group_IT_number 24
_symmetry_cell_setting 'orthorhombic'
loop_
_space_group_symop_operation_xyz
x,y,z
-x,1/2-y,z
x,-y,1/2-z
1/2-x,y,-z
1/2+x,1/2+y,1/2+z
1/2-x,-y,1/2+z
1/2+x,1/2-y,-z
-x,1/2+y,1/2-z
loop_
_atom_site_type_symbol
_atom_site_label
_atom_site_fract_x
_atom_site_fract_y
_atom_site_fract_z
Si Si1 0.246250 0.521789 0.306816
Si Si2 0.870837 0.474452 0.506725
Si Si3 0.873889 0.664117 0.415538
Si Si4 0.666916 0.507378 0.383951
Si Si5 0.878044 0.257726 0.680055
Si Si6 0.000000 0.750000 0.051917
Si Si7 0.383209 0.202435 0.207023
Si Si8 0.574497 0.027160 0.888235
O O1 0.213892 0.500000 0.250000
O O2 0.329755 0.399843 0.318106
O O3 0.305161 0.673027 0.309838
O O4 0.148291 0.507774 0.341584
O O5 0.750000 0.456178 0.500000
O O6 0.899148 0.606173 0.470621
O O7 0.894576 0.502058 0.564364
O O8 0.923254 0.335980 0.483306
O O9 0.769683 0.591744 0.397762
O O10 0.873266 0.836299 0.416220
O O11 0.961972 0.595705 0.380555
O O12 0.677049 0.345979 0.363580
O O13 0.620023 0.584355 0.335945
O O14 0.858138 0.327417 0.734856
O O15 0.000000 0.250000 0.671968
O O16 0.055371 0.624938 0.084315
O O17 0.500000 0.250000 0.209358
#
# Coordination Sequence:
#
# PCOD9334460 Si02
#       8
#     8   8   8   8   8   4   8   8
#     4  10  21  37  58  89 121 149 199 250 285 351
#     4   9  21  38  57  86 121 150 195 246 286 345
#     4   9  20  40  60  82 116 161 192 241 289 355
#     4  11  20  37  62  84 118 153 205 238 295 347
#     4  10  22  36  59  84 122 161 193 242 304 351
#     4  10  22  40  62  88 118 158 188 244 302 358
#     4  10  20  39  57  85 117 158 200 241 294 359
#     4  10  20  39  64  82 116 160 194 229 307 350
#
# _framework density 18.232769000000001
#
# number of rings (size 3 to 8) (size 9 to 14) (size 15 to 20)
#    0.000    2.133    1.333    1.200    6.533    2.133 
#    4.800    4.667    0.000    0.000    0.000    0.000 
#    0.000    0.000    0.000    0.000    0.000    0.000 
#
# Total GULP energy -167032.826626 kJ/mol
# GULP energy per Si atom -5567.760888 kJ/mol
# Density = 1.819127 g / cm^3
# Si number density = 18.232769 Si / 1000 Ang^3
#
#
#
# Elastic Constant Matrix: (Units=GPa)
#
#
# Indices 1 2 3 4 5 6 
#
# 1 68.2882 26.7086 35.4570 0.0000 0.0000 0.0000
# 2 26.7086 111.7214 56.3554 0.0000 0.0000 0.0000
# 3 35.4570 56.3554 98.4340 0.0000 0.0000 0.0000
# 4 0.0000 0.0000 0.0000 13.0391 0.0000 0.0000
# 5 0.0000 0.0000 0.0000 0.0000 0.6548 0.0000
# 6 0.0000 0.0000 0.0000 0.0000 0.0000 19.0255
#
#
#
# Elastic Compliance Matrix: (Units=1/GPa)
#
#
# Indices 1 2 3 4 5 6 
#
# 1 0.018182 -0.001467 -0.005710 0.000000 0.000000 0.000000
# 2 -0.001467 0.012704 -0.006745 0.000000 0.000000 0.000000
# 3 -0.005710 -0.006745 0.016077 0.000000 0.000000 0.000000
# 4 0.000000 0.000000 0.000000 0.076692 0.000000 0.000000
# 5 0.000000 0.000000 0.000000 0.000000 1.527146 0.000000
# 6 0.000000 0.000000 0.000000 0.000000 0.000000 0.052561
#
#
# Mechanical properties :
#
#
# Convention : Reuss Voigt Hill
#
# Bulk Modulus (GPa) = 52.29893 57.27619 54.78756
# Shear Modulus (GPa) = 2.87757 17.20540 10.04149
#
# Velocity S-wave (km/s) = 1.25764 3.07523 2.34933
# Velocity P-wave (km/s) = 5.55474 6.64014 6.12154
#
# Compressibility (1/GPa) = 0.01912085
#
# Stress axis : x y z
#
# Youngs Moduli (GPa) = 54.99926 78.71700 62.19918
#
# Poissons Ratio (x) = 0.11544 0.35514
# Poissons Ratio (y) = 0.08066 0.41953
# Poissons Ratio (z) = 0.31403 0.53094
#
# Static dielectric constant tensor:
#      x y z
#    x 1.617620 0.000000 0.000000 
#    y 0.000000 1.705720 0.000000 
#    z 0.000000 0.000000 1.639070 
# 
# From -- ./inp_files/35833.got.cif
#   From: 2010.05.17/outbox.cif.g08.bks.cpg/sg24_18_cif.got.tgz:35833.got - 2010.06.04 00:33:39.
