data_PCOD9334447
_publ_section_title
;
Structure prediction by ZEFSAII (Michael W. Deem and Ramdas Pophale) SiO2 
 PCOD9334447
Probable space group: I 21 21 21
;
_chemical_formula_sum "Si O2"
_cell_formula_units_Z 48
_cell_length_a 14.721574
_cell_length_b 5.911032
_cell_length_c 23.081343
_cell_angle_alpha 90.000000
_cell_angle_beta 90.000000
_cell_angle_gamma 90.000000
_cell_volume 2008.531428
_symmetry_space_group_name_H-M "I 21 21 21"
_symmetry_group_IT_number 24
_symmetry_cell_setting 'orthorhombic'
loop_
_space_group_symop_operation_xyz
x,y,z
-x,1/2-y,z
x,-y,1/2-z
1/2-x,y,-z
1/2+x,1/2+y,1/2+z
1/2-x,-y,1/2+z
1/2+x,1/2-y,-z
-x,1/2+y,1/2-z
loop_
_atom_site_type_symbol
_atom_site_label
_atom_site_fract_x
_atom_site_fract_y
_atom_site_fract_z
Si Si1 0.278346 0.117966 0.802249
Si Si2 0.569060 0.048186 0.818741
Si Si3 0.750000 0.439263 0.000000
Si Si4 0.182995 0.756080 0.101424
Si Si5 0.084376 0.142315 0.820132
Si Si6 0.500000 0.750000 0.102980
Si Si7 0.849684 0.933856 0.572918
O O1 0.332138 0.339064 0.816491
O O2 0.176162 0.166404 0.784572
O O3 0.330470 0.000000 0.750000
O O4 0.277587 0.938137 0.853252
O O5 0.500000 0.250000 0.838191
O O6 0.547191 0.000000 0.750000
O O7 0.593205 0.848441 0.865749
O O8 0.688616 0.596567 0.957773
O O9 0.820767 0.267834 0.969341
O O10 0.257028 0.563682 0.087905
O O11 0.107117 0.312017 0.872094
O O12 0.000000 0.250000 0.786699
O O13 0.057944 0.911344 0.853227
O O14 0.428815 0.616639 0.061808
#
# Coordination Sequence:
#
# PCOD9334447 Si02
#       7
#     8   8   4   8   8   4   8
#     4  12  23  44  71 111 151 199 249 304 383 462
#     4  12  27  47  78 119 154 204 264 334 405 478
#     4  12  24  42  78 114 148 212 260 326 390 484
#     4  12  24  45  77 111 151 203 254 323 398 466
#     4  10  21  39  65 105 149 190 242 298 365 455
#     4  10  20  38  70 104 144 196 248 312 364 458
#     4  11  21  41  72 107 143 198 255 306 381 461
#
# _framework density 23.898059
#
# number of rings (size 3 to 8) (size 9 to 14) (size 15 to 20)
#    0.000    0.667    6.667    1.000    0.000    0.000 
#    1.500    0.000    0.000   71.000    0.000    0.000 
#    0.000    0.000    0.000    0.000    0.000    0.000 
#
# Total GULP energy -133765.106152 kJ/mol
# GULP energy per Si atom -5573.546090 kJ/mol
# Density = 2.384367 g / cm^3
# Si number density = 23.898059 Si / 1000 Ang^3
#
#
#
# Elastic Constant Matrix: (Units=GPa)
#
#
# Indices 1 2 3 4 5 6 
#
# 1 144.5818 38.3746 18.2049 0.0000 0.0000 0.0000
# 2 38.3746 80.9596 32.0172 0.0000 0.0000 0.0000
# 3 18.2049 32.0172 90.2444 0.0000 0.0000 0.0000
# 4 0.0000 0.0000 0.0000 21.4683 0.0000 0.0000
# 5 0.0000 0.0000 0.0000 0.0000 20.1566 0.0000
# 6 0.0000 0.0000 0.0000 0.0000 0.0000 -64.5128
#
#
#
# Elastic Compliance Matrix: (Units=1/GPa)
#
#
# Indices 1 2 3 4 5 6 
#
# 1 0.007919 -0.003631 -0.000309 0.000000 0.000000 0.000000
# 2 -0.003631 0.016033 -0.004956 0.000000 0.000000 0.000000
# 3 -0.000309 -0.004956 0.012902 0.000000 0.000000 0.000000
# 4 0.000000 0.000000 0.000000 0.046580 0.000000 0.000000
# 5 0.000000 0.000000 0.000000 0.000000 0.049612 0.000000
# 6 0.000000 0.000000 0.000000 0.000000 0.000000 -0.015501
#
#
# Mechanical properties :
#
#
# Convention : Reuss Voigt Hill
#
# Bulk Modulus (GPa) = 52.46242 54.77547 53.61895
# Shear Modulus (GPa) = 35.28801 10.56835 22.92818
#
# Velocity S-wave (km/s) = 3.84683 2.10520 3.10080
# Velocity P-wave (km/s) = 6.45996 5.37395 5.94182
#
# Compressibility (1/GPa) = 0.01906126
#
# Stress axis : x y z
#
# Youngs Moduli (GPa) = 126.27405 62.37156 77.51000
#
# Poissons Ratio (x) = 0.22650 0.02396
# Poissons Ratio (y) = 0.45856 0.38411
# Poissons Ratio (z) = 0.03904 0.30909
#
# Static dielectric constant tensor:
#      x y z
#    x 1.969080 0.000000 0.000000 
#    y 0.000000 2.032800 0.000000 
#    z 0.000000 0.000000 1.938160 
# 
# From -- ./inp_files/37373.got.cif
#   From: 2010.05.17/outbox.cif.g08.bks.cpg/sg24_19_cif.got.tgz:37373.got - 2010.06.04 00:33:39.
