data_PCOD9334571
_publ_section_title
;
Structure prediction by ZEFSAII (Michael W. Deem and Ramdas Pophale) SiO2 
 PCOD9334571
Probable space group: I 21 21 21
;
_chemical_formula_sum "Si O2"
_cell_formula_units_Z 56
_cell_length_a 5.640337
_cell_length_b 30.289146
_cell_length_c 14.253902
_cell_angle_alpha 90.000000
_cell_angle_beta 90.000000
_cell_angle_gamma 90.000000
_cell_volume 2435.150742
_symmetry_space_group_name_H-M "I 21 21 21"
_symmetry_group_IT_number 24
_symmetry_cell_setting 'orthorhombic'
loop_
_space_group_symop_operation_xyz
x,y,z
-x,1/2-y,z
x,-y,1/2-z
1/2-x,y,-z
1/2+x,1/2+y,1/2+z
1/2-x,-y,1/2+z
1/2+x,1/2-y,-z
-x,1/2+y,1/2-z
loop_
_atom_site_type_symbol
_atom_site_label
_atom_site_fract_x
_atom_site_fract_y
_atom_site_fract_z
Si Si1 0.590315 0.106971 0.248161
Si Si2 0.100157 0.538504 0.595419
Si Si3 0.497369 0.563122 0.058133
Si Si4 0.499055 0.200115 0.528014
Si Si5 0.749032 0.668359 0.619921
Si Si6 0.000000 0.750000 0.652874
Si Si7 0.750000 0.403771 0.000000
Si Si8 0.375820 0.307369 0.737394
O O1 0.683458 0.064541 0.188184
O O2 0.483065 0.092330 0.347800
O O3 0.411162 0.135991 0.183814
O O4 0.794618 0.141881 0.269538
O O5 0.250000 0.547520 0.500000
O O6 0.053056 0.486686 0.596778
O O7 0.855796 0.563256 0.574300
O O8 0.250000 0.573309 0.000000
O O9 0.750000 0.563783 0.000000
O O10 0.500000 0.250000 0.484780
O O11 0.250000 0.178520 0.500000
O O12 0.511726 0.204003 0.638648
O O13 0.750000 0.178899 0.500000
O O14 0.910896 0.709415 0.587370
O O15 0.601366 0.634189 0.554042
O O16 0.569808 0.694126 0.683651
O O17 0.830661 0.775986 0.726211
#
# Coordination Sequence:
#
# PCOD9334571 Si02
#       8
#     8   8   8   8   8   4   4   8
#     4  10  24  41  65 101 136 182 230 286 351 421
#     4  10  20  42  71 100 137 179 233 283 351 420
#     4  11  25  46  70 104 145 187 231 288 350 425
#     4  10  23  38  61  89 120 166 228 282 329 396
#     4  10  22  40  64  93 132 172 231 278 356 408
#     4  10  22  40  62  92 126 178 222 286 346 414
#     4  10  20  40  66 100 128 174 222 290 336 430
#     4  11  23  41  64  90 130 179 223 288 345 413
#
# _framework density 22.996524000000001
#
# number of rings (size 3 to 8) (size 9 to 14) (size 15 to 20)
#    0.000    1.714    0.714    2.571    9.000    0.571 
#    2.571    1.429    0.000    0.000    0.000    0.000 
#    0.000    0.000    0.000    0.000    0.000    0.000 
#
# Total GULP energy -155899.694930 kJ/mol
# GULP energy per Si atom -5567.846247 kJ/mol
# Density = 2.294418 g / cm^3
# Si number density = 22.996524 Si / 1000 Ang^3
#
#
#
# Elastic Constant Matrix: (Units=GPa)
#
#
# Indices 1 2 3 4 5 6 
#
# 1 63.0256 7.6979 -3.8973 0.0000 0.0000 0.0000
# 2 7.6979 125.6943 21.8476 0.0000 0.0000 0.0000
# 3 -3.8973 21.8476 47.9980 0.0000 0.0000 0.0000
# 4 0.0000 0.0000 0.0000 39.1375 0.0000 0.0000
# 5 0.0000 0.0000 0.0000 0.0000 28.6783 0.0000
# 6 0.0000 0.0000 0.0000 0.0000 0.0000 25.4121
#
#
#
# Elastic Compliance Matrix: (Units=1/GPa)
#
#
# Indices 1 2 3 4 5 6 
#
# 1 0.016146 -0.001321 0.001912 0.000000 0.000000 0.000000
# 2 -0.001321 0.008747 -0.004089 0.000000 0.000000 0.000000
# 3 0.001912 -0.004089 0.022851 0.000000 0.000000 0.000000
# 4 0.000000 0.000000 0.000000 0.025551 0.000000 0.000000
# 5 0.000000 0.000000 0.000000 0.000000 0.034870 0.000000
# 6 0.000000 0.000000 0.000000 0.000000 0.000000 0.039351
#
#
# Mechanical properties :
#
#
# Convention : Reuss Voigt Hill
#
# Bulk Modulus (GPa) = 24.54058 32.00160 28.27109
# Shear Modulus (GPa) = 29.74517 32.71690 31.23104
#
# Velocity S-wave (km/s) = 3.60038 3.77595 3.68921
# Velocity P-wave (km/s) = 5.28944 5.74077 5.51972
#
# Compressibility (1/GPa) = 0.04074883
#
# Stress axis : x y z
#
# Youngs Moduli (GPa) = 61.93403 114.31905 43.76241
#
# Poissons Ratio (x) = 0.15105 -0.08369
# Poissons Ratio (y) = 0.08183 0.17894
# Poissons Ratio (z) = -0.11845 0.46744
#
# Static dielectric constant tensor:
#      x y z
#    x 1.922920 0.000000 0.000000 
#    y 0.000000 1.878020 0.000000 
#    z 0.000000 0.000000 1.943560 
# 
# From -- ./inp_files/24126.got.cif
#   From: 2010.05.17/outbox.cif.g08.bks.cpg/sg24_13_cif.got.tgz:24126.got - 2010.06.04 00:33:39.
