data_PCOD9334492
_publ_section_title
;
Structure prediction by ZEFSAII (Michael W. Deem and Ramdas Pophale) SiO2 
 PCOD9334492
Probable space group: I 21 21 21
;
_chemical_formula_sum "Si O2"
_cell_formula_units_Z 44
_cell_length_a 9.145379
_cell_length_b 7.295370
_cell_length_c 31.996983
_cell_angle_alpha 90.000000
_cell_angle_beta 90.000000
_cell_angle_gamma 90.000000
_cell_volume 2134.804264
_symmetry_space_group_name_H-M "I 21 21 21"
_symmetry_group_IT_number 24
_symmetry_cell_setting 'orthorhombic'
loop_
_space_group_symop_operation_xyz
x,y,z
-x,1/2-y,z
x,-y,1/2-z
1/2-x,y,-z
1/2+x,1/2+y,1/2+z
1/2-x,-y,1/2+z
1/2+x,1/2-y,-z
-x,1/2+y,1/2-z
loop_
_atom_site_type_symbol
_atom_site_label
_atom_site_fract_x
_atom_site_fract_y
_atom_site_fract_z
Si Si1 0.122443 0.494667 0.375930
Si Si2 0.101445 0.589154 0.289229
Si Si3 0.147753 0.856683 0.712459
Si Si4 0.000000 0.250000 0.502667
Si Si5 0.740475 0.695905 0.939419
Si Si6 0.281707 0.906014 0.622783
O O1 0.142010 0.454815 0.326533
O O2 0.181070 0.339910 0.405849
O O3 0.205895 0.687261 0.383562
O O4 0.948760 0.522326 0.380598
O O5 0.022705 0.500000 0.250000
O O6 0.240969 0.697683 0.272886
O O7 0.000000 0.750000 0.307609
O O8 0.213398 0.936896 0.668923
O O9 0.000000 0.750000 0.702137
O O10 0.129460 0.000000 0.750000
O O11 0.868380 0.201757 0.534543
O O12 0.895292 0.360921 0.469986
O O13 0.797611 0.519447 0.913866
#
# Coordination Sequence:
#
# PCOD9334492 Si02
#       6
#     8   8   8   4   8   8
#     4  10  20  39  63  96 123 163 213 264 315 382
#     4  11  22  36  60  92 126 163 220 263 307 382
#     4  11  24  42  58  88 131 171 217 269 317 382
#     4  10  24  42  64 102 126 160 222 266 318 410
#     4  11  22  43  68  92 134 168 206 271 332 379
#     4  10  21  40  64  92 124 167 214 257 320 387
#
# _framework density 20.610787999999999
#
# number of rings (size 3 to 8) (size 9 to 14) (size 15 to 20)
#    0.000    1.455    5.455    1.091    2.545    2.909 
#    1.636    5.455    0.000    0.000    0.000    0.000 
#    0.000    0.000    0.000    0.000    0.000    0.000 
#
# Total GULP energy -122479.490302 kJ/mol
# GULP energy per Si atom -5567.249559 kJ/mol
# Density = 2.056388 g / cm^3
# Si number density = 20.610788 Si / 1000 Ang^3
#
#
#
# Elastic Constant Matrix: (Units=GPa)
#
#
# Indices 1 2 3 4 5 6 
#
# 1 73.8407 12.7623 26.1267 0.0000 0.0000 0.0000
# 2 12.7623 58.4739 53.3560 0.0000 0.0000 0.0000
# 3 26.1267 53.3560 142.3422 0.0000 0.0000 0.0000
# 4 0.0000 0.0000 0.0000 10.7076 0.0000 0.0000
# 5 0.0000 0.0000 0.0000 0.0000 17.5274 0.0000
# 6 0.0000 0.0000 0.0000 0.0000 0.0000 20.0240
#
#
#
# Elastic Compliance Matrix: (Units=1/GPa)
#
#
# Indices 1 2 3 4 5 6 
#
# 1 0.014531 -0.001121 -0.002247 0.000000 0.000000 0.000000
# 2 -0.001121 0.026078 -0.009569 0.000000 0.000000 0.000000
# 3 -0.002247 -0.009569 0.011025 0.000000 0.000000 0.000000
# 4 0.000000 0.000000 0.000000 0.093391 0.000000 0.000000
# 5 0.000000 0.000000 0.000000 0.000000 0.057054 0.000000
# 6 0.000000 0.000000 0.000000 0.000000 0.000000 0.049940
#
#
# Mechanical properties :
#
#
# Convention : Reuss Voigt Hill
#
# Bulk Modulus (GPa) = 38.82113 51.01630 44.91872
# Shear Modulus (GPa) = 17.45313 21.81257 19.63285
#
# Velocity S-wave (km/s) = 2.91313 3.25669 3.08969
# Velocity P-wave (km/s) = 5.49467 6.24078 5.87957
#
# Compressibility (1/GPa) = 0.02575917
#
# Stress axis : x y z
#
# Youngs Moduli (GPa) = 68.81605 38.34611 90.70475
#
# Poissons Ratio (x) = 0.04300 0.20381
# Poissons Ratio (y) = 0.07717 0.86799
# Poissons Ratio (z) = 0.15462 0.36695
#
# Static dielectric constant tensor:
#      x y z
#    x 1.808250 0.000000 0.000000 
#    y 0.000000 1.778760 0.000000 
#    z 0.000000 0.000000 1.779470 
# 
# From -- ./inp_files/38237.got.cif
#   From: 2010.05.17/outbox.cif.g08.bks.cpg/sg24_20_cif.got.tgz:38237.got - 2010.06.04 00:33:39.
