data_PCOD9334083
_publ_section_title
;
Structure prediction by ZEFSAII (Michael W. Deem and Ramdas Pophale) SiO2 
 PCOD9334083
Probable space group: I 21 21 21
;
_chemical_formula_sum "Si O2"
_cell_formula_units_Z 52
_cell_length_a 8.331790
_cell_length_b 12.057451
_cell_length_c 27.097626
_cell_angle_alpha 90.000000
_cell_angle_beta 90.000000
_cell_angle_gamma 90.000000
_cell_volume 2722.231564
_symmetry_space_group_name_H-M "I 21 21 21"
_symmetry_group_IT_number 24
_symmetry_cell_setting 'orthorhombic'
loop_
_space_group_symop_operation_xyz
x,y,z
-x,1/2-y,z
x,-y,1/2-z
1/2-x,y,-z
1/2+x,1/2+y,1/2+z
1/2-x,-y,1/2+z
1/2+x,1/2-y,-z
-x,1/2+y,1/2-z
loop_
_atom_site_type_symbol
_atom_site_label
_atom_site_fract_x
_atom_site_fract_y
_atom_site_fract_z
Si Si1 0.867318 0.955171 0.955957
Si Si2 0.399754 0.866850 0.351317
Si Si3 0.891138 0.641210 0.537491
Si Si4 0.689892 0.785785 0.826469
Si Si5 0.500000 0.750000 0.107404
Si Si6 0.218771 0.529780 0.647037
Si Si7 0.312790 0.260856 0.786565
O O1 0.951614 0.853728 0.927376
O O2 0.778367 0.027927 0.912828
O O3 0.750000 0.919912 0.000000
O O4 0.001582 0.036476 0.977314
O O5 0.500000 0.750000 0.350507
O O6 0.333821 0.879030 0.406374
O O7 0.527475 0.963439 0.341529
O O8 0.265861 0.847004 0.311148
O O9 0.750000 0.658097 0.500000
O O10 0.000000 0.750000 0.538341
O O11 0.500000 0.750000 0.833694
O O12 0.834822 0.733965 0.860260
O O13 0.743642 0.772385 0.769590
O O14 0.698959 0.917118 0.836789
O O15 0.283848 0.634455 0.677182
O O16 0.500000 0.250000 0.782988
#
# Coordination Sequence:
#
# PCOD9334083 Si02
#       7
#     8   8   8   8   4   8   8
#     4  10  22  43  62  90 124 164 222 265 322 399
#     4   8  17  33  55  80 118 159 204 245 306 392
#     4  10  20  35  58  88 126 165 210 261 323 388
#     4  10  22  42  65  91 128 164 220 273 322 396
#     4  10  24  46  68  92 126 176 218 276 342 384
#     4   9  19  39  60  83 122 168 201 264 324 380
#     4  10  20  35  60  95 127 160 208 266 323 391
#
# _framework density 19.101976000000001
#
# number of rings (size 3 to 8) (size 9 to 14) (size 15 to 20)
#    0.000    2.462    0.000    1.846    3.231    2.462 
#   19.385    0.000    0.000    0.000    0.000    0.000 
#    0.000    0.000    0.000    0.000    0.000    0.000 
#
# Total GULP energy -144744.005220 kJ/mol
# GULP energy per Si atom -5567.077124 kJ/mol
# Density = 1.905850 g / cm^3
# Si number density = 19.101976 Si / 1000 Ang^3
#
#
#
# Elastic Constant Matrix: (Units=GPa)
#
#
# Indices 1 2 3 4 5 6 
#
# 1 71.9783 33.6963 57.2825 0.0000 0.0000 0.0000
# 2 33.6963 70.7479 29.4823 0.0000 0.0000 0.0000
# 3 57.2825 29.4823 80.2146 0.0000 0.0000 0.0000
# 4 0.0000 0.0000 0.0000 6.8212 0.0000 0.0000
# 5 0.0000 0.0000 0.0000 0.0000 32.8884 0.0000
# 6 0.0000 0.0000 0.0000 0.0000 0.0000 34.0905
#
#
#
# Elastic Compliance Matrix: (Units=1/GPa)
#
#
# Indices 1 2 3 4 5 6 
#
# 1 0.035206 -0.007429 -0.022411 0.000000 0.000000 0.000000
# 2 -0.007429 0.018259 -0.001406 0.000000 0.000000 0.000000
# 3 -0.022411 -0.001406 0.028987 0.000000 0.000000 0.000000
# 4 0.000000 0.000000 0.000000 0.146601 0.000000 0.000000
# 5 0.000000 0.000000 0.000000 0.000000 0.030406 0.000000
# 6 0.000000 0.000000 0.000000 0.000000 0.000000 0.029334
#
#
# Mechanical properties :
#
#
# Convention : Reuss Voigt Hill
#
# Bulk Modulus (GPa) = 50.09767 51.54034 50.81900
# Shear Modulus (GPa) = 13.96894 21.59201 17.78048
#
# Velocity S-wave (km/s) = 2.70716 3.36572 3.05424
# Velocity P-wave (km/s) = 6.00458 6.49187 6.25297
#
# Compressibility (1/GPa) = 0.01996101
#
# Stress axis : x y z
#
# Youngs Moduli (GPa) = 28.40423 54.76795 34.49823
#
# Poissons Ratio (x) = 0.40688 0.77313
# Poissons Ratio (y) = 0.21102 0.04849
# Poissons Ratio (z) = 0.63656 0.07699
#
# Static dielectric constant tensor:
#      x y z
#    x 1.714780 0.000000 0.000000 
#    y 0.000000 1.679830 0.000000 
#    z 0.000000 0.000000 1.697060 
# 
# From -- ./inp_files/36869.got.cif
#   From: 2010.05.17/outbox.cif.g08.bks.cpg/sg24_19_cif.got.tgz:36869.got - 2010.06.04 00:33:39.
