data_PCOD9334114
_publ_section_title
;
Structure prediction by ZEFSAII (Michael W. Deem and Ramdas Pophale) SiO2 
 PCOD9334114
Probable space group: I 21 21 21
;
_chemical_formula_sum "Si O2"
_cell_formula_units_Z 64
_cell_length_a 30.382942
_cell_length_b 8.757795
_cell_length_c 12.060454
_cell_angle_alpha 90.000000
_cell_angle_beta 90.000000
_cell_angle_gamma 90.000000
_cell_volume 3209.136989
_symmetry_space_group_name_H-M "I 21 21 21"
_symmetry_group_IT_number 24
_symmetry_cell_setting 'orthorhombic'
loop_
_space_group_symop_operation_xyz
x,y,z
-x,1/2-y,z
x,-y,1/2-z
1/2-x,y,-z
1/2+x,1/2+y,1/2+z
1/2-x,-y,1/2+z
1/2+x,1/2-y,-z
-x,1/2+y,1/2-z
loop_
_atom_site_type_symbol
_atom_site_label
_atom_site_fract_x
_atom_site_fract_y
_atom_site_fract_z
Si Si1 0.451663 0.820851 0.750960
Si Si2 0.169125 0.817117 0.834617
Si Si3 0.292745 0.712576 0.557024
Si Si4 0.322486 0.618339 0.960332
Si Si5 0.916226 0.067299 0.371954
Si Si6 0.634439 0.351614 0.097091
Si Si7 0.551741 0.212908 0.988804
Si Si8 0.773671 0.332946 0.292717
O O1 0.500000 0.750000 0.754062
O O2 0.427703 0.745094 0.855470
O O3 0.432875 0.777768 0.630948
O O4 0.454040 0.000000 0.750000
O O5 0.151148 0.779873 0.712712
O O6 0.221699 0.843603 0.819953
O O7 0.144670 0.968794 0.881807
O O8 0.162835 0.682684 0.921671
O O9 0.250000 0.786918 0.500000
O O10 0.295023 0.535043 0.526269
O O11 0.335305 0.793496 0.504538
O O12 0.285275 0.727253 0.687679
O O13 0.364727 0.561635 0.892416
O O14 0.297882 0.755559 0.896618
O O15 0.927708 0.000000 0.250000
O O16 0.940548 0.968444 0.466350
O O17 0.584901 0.293826 0.073950
O O18 0.500000 0.250000 0.005964
O O19 0.788456 0.500000 0.250000
#
# Coordination Sequence:
#
# PCOD9334114 Si02
#       8
#     8   8   8   8   8   8   8   8
#     4  10  20  35  62  96 132 172 207 265 345 413
#     4  11  24  45  62  90 127 178 226 276 319 396
#     4  12  22  40  64  94 127 171 213 269 331 394
#     4  12  26  38  63  95 132 171 218 271 325 392
#     4  10  21  40  59  95 140 164 211 274 336 406
#     4  11  23  44  69  89 127 176 226 274 338 384
#     4  10  21  41  69  95 129 175 225 285 338 403
#     4  12  23  41  64  94 131 173 223 267 323 389
#
# _framework density 19.943057
#
# number of rings (size 3 to 8) (size 9 to 14) (size 15 to 20)
#    0.000    1.000    3.750    4.875    3.500    1.000 
#    0.000    0.000    5.500    0.000    0.000    0.000 
#    0.000    0.000    0.000    0.000    0.000    0.000 
#
# Total GULP energy -178564.090528 kJ/mol
# GULP energy per Si atom -5580.127829 kJ/mol
# Density = 1.989767 g / cm^3
# Si number density = 19.943057 Si / 1000 Ang^3
#
#
#
# Elastic Constant Matrix: (Units=GPa)
#
#
# Indices 1 2 3 4 5 6 
#
# 1 121.4705 23.6809 20.0317 0.0000 0.0000 0.0000
# 2 23.6809 87.2439 7.9012 0.0000 0.0000 0.0000
# 3 20.0317 7.9012 55.2778 0.0000 0.0000 0.0000
# 4 0.0000 0.0000 0.0000 91.4598 0.0000 0.0000
# 5 0.0000 0.0000 0.0000 0.0000 89.5638 0.0000
# 6 0.0000 0.0000 0.0000 0.0000 0.0000 21.4668
#
#
#
# Elastic Compliance Matrix: (Units=1/GPa)
#
#
# Indices 1 2 3 4 5 6 
#
# 1 0.009159 -0.002214 -0.003003 0.000000 0.000000 0.000000
# 2 -0.002214 0.012148 -0.000934 0.000000 0.000000 0.000000
# 3 -0.003003 -0.000934 0.019312 0.000000 0.000000 0.000000
# 4 0.000000 0.000000 0.000000 0.010934 0.000000 0.000000
# 5 0.000000 0.000000 0.000000 0.000000 0.011165 0.000000
# 6 0.000000 0.000000 0.000000 0.000000 0.000000 0.046584
#
#
# Mechanical properties :
#
#
# Convention : Reuss Voigt Hill
#
# Bulk Modulus (GPa) = 35.31401 40.80221 38.05811
# Shear Modulus (GPa) = 38.15557 54.65663 46.40610
#
# Velocity S-wave (km/s) = 4.37879 5.24079 4.82906
# Velocity P-wave (km/s) = 6.58110 7.55810 7.08646
#
# Compressibility (1/GPa) = 0.02831737
#
# Stress axis : x y z
#
# Youngs Moduli (GPa) = 109.17890 82.32001 51.78115
#
# Poissons Ratio (x) = 0.18227 0.15548
# Poissons Ratio (y) = 0.24174 0.04836
# Poissons Ratio (z) = 0.32783 0.07688
#
# Static dielectric constant tensor:
#      x y z
#    x 1.675410 0.000000 0.000000 
#    y 0.000000 1.777140 0.000000 
#    z 0.000000 0.000000 1.731800 
# 
# From -- ./inp_files/23187.got.cif
#   From: 2010.05.17/outbox.cif.g08.bks.cpg/sg24_12_cif.got.tgz:23187.got - 2010.06.04 00:33:39.
