data_PCOD9334716
_publ_section_title
;
Structure prediction by ZEFSAII (Michael W. Deem and Ramdas Pophale) SiO2 
 PCOD9334716
Probable space group: I 21 21 21
;
_chemical_formula_sum "Si O2"
_cell_formula_units_Z 48
_cell_length_a 9.639156
_cell_length_b 10.876044
_cell_length_c 22.744062
_cell_angle_alpha 90.000000
_cell_angle_beta 90.000000
_cell_angle_gamma 90.000000
_cell_volume 2384.393863
_symmetry_space_group_name_H-M "I 21 21 21"
_symmetry_group_IT_number 24
_symmetry_cell_setting 'orthorhombic'
loop_
_space_group_symop_operation_xyz
x,y,z
-x,1/2-y,z
x,-y,1/2-z
1/2-x,y,-z
1/2+x,1/2+y,1/2+z
1/2-x,-y,1/2+z
1/2+x,1/2-y,-z
-x,1/2+y,1/2-z
loop_
_atom_site_type_symbol
_atom_site_label
_atom_site_fract_x
_atom_site_fract_y
_atom_site_fract_z
Si Si1 0.344027 0.370378 0.746371
Si Si2 0.318565 0.008496 0.152377
Si Si3 0.113178 0.352392 0.116255
Si Si4 0.347900 0.795662 0.445554
Si Si5 0.979112 0.608102 0.134204
Si Si6 0.630306 0.676354 0.239949
O O1 0.265642 0.500000 0.750000
O O2 0.379146 0.339755 0.813073
O O3 0.472059 0.389299 0.702689
O O4 0.244763 0.270957 0.718315
O O5 0.368224 0.090309 0.098673
O O6 0.298575 0.101338 0.207286
O O7 0.177613 0.940896 0.133561
O O8 0.413783 0.907848 0.185022
O O9 0.258530 0.310167 0.088073
O O10 0.000000 0.250000 0.097286
O O11 0.067280 0.494504 0.105401
O O12 0.500000 0.750000 0.462906
O O13 0.250000 0.831560 0.500000
O O14 0.000000 0.750000 0.112764
O O15 0.500000 0.750000 0.264611
#
# Coordination Sequence:
#
# PCOD9334716 Si02
#       6
#     8   8   8   8   8   8
#     4  10  21  30  56  93 135 180 217 262 321 412
#     4  11  24  40  65  94 142 182 227 294 343 413
#     4  11  21  37  66  96 139 181 232 281 338 401
#     4  12  27  48  75 101 129 175 243 308 358 411
#     4  11  21  36  62 101 143 182 228 271 344 412
#     4  11  23  37  59  96 144 185 219 266 357 425
#
# _framework density 20.130903
#
# number of rings (size 3 to 8) (size 9 to 14) (size 15 to 20)
#    0.000    1.000    5.000    1.500    9.333    1.333 
#    0.000    0.000    0.000    2.000    0.000    0.000 
#    0.000    0.000    0.000    0.000    0.000    0.000 
#
# Total GULP energy -133833.921234 kJ/mol
# GULP energy per Si atom -5576.413385 kJ/mol
# Density = 2.008508 g / cm^3
# Si number density = 20.130903 Si / 1000 Ang^3
#
#
#
# Elastic Constant Matrix: (Units=GPa)
#
#
# Indices 1 2 3 4 5 6 
#
# 1 76.0755 30.3089 10.7041 0.0000 0.0000 0.0000
# 2 30.3089 141.7743 27.1283 0.0000 0.0000 0.0000
# 3 10.7041 27.1283 73.5910 0.0000 0.0000 0.0000
# 4 0.0000 0.0000 0.0000 11.7630 0.0000 0.0000
# 5 0.0000 0.0000 0.0000 0.0000 15.2734 0.0000
# 6 0.0000 0.0000 0.0000 0.0000 0.0000 12.1357
#
#
#
# Elastic Compliance Matrix: (Units=1/GPa)
#
#
# Indices 1 2 3 4 5 6 
#
# 1 0.014442 -0.002889 -0.001036 0.000000 0.000000 0.000000
# 2 -0.002889 0.008167 -0.002590 0.000000 0.000000 0.000000
# 3 -0.001036 -0.002590 0.014694 0.000000 0.000000 0.000000
# 4 0.000000 0.000000 0.000000 0.085012 0.000000 0.000000
# 5 0.000000 0.000000 0.000000 0.000000 0.065473 0.000000
# 6 0.000000 0.000000 0.000000 0.000000 0.000000 0.082402
#
#
# Mechanical properties :
#
#
# Convention : Reuss Voigt Hill
#
# Bulk Modulus (GPa) = 41.19904 47.52481 44.36192
# Shear Modulus (GPa) = 17.16381 22.72105 19.94243
#
# Velocity S-wave (km/s) = 2.92312 3.36321 3.15085
# Velocity P-wave (km/s) = 5.64826 6.22420 5.94321
#
# Compressibility (1/GPa) = 0.02427241
#
# Stress axis : x y z
#
# Youngs Moduli (GPa) = 69.24431 122.44715 68.05441
#
# Poissons Ratio (x) = 0.35378 0.07047
# Poissons Ratio (y) = 0.20006 0.17628
# Poissons Ratio (z) = 0.07170 0.31718
#
# Static dielectric constant tensor:
#      x y z
#    x 1.753720 0.000000 0.000000 
#    y 0.000000 1.823680 0.000000 
#    z 0.000000 0.000000 1.691660 
# 
# From -- ./inp_files/35150.got.cif
#   From: 2010.05.17/outbox.cif.g08.bks.cpg/sg24_18_cif.got.tgz:35150.got - 2010.06.04 00:33:39.
