data_PCOD9334482
_publ_section_title
;
Structure prediction by ZEFSAII (Michael W. Deem and Ramdas Pophale) SiO2 
 PCOD9334482
Probable space group: I 21 21 21
;
_chemical_formula_sum "Si O2"
_cell_formula_units_Z 48
_cell_length_a 16.716686
_cell_length_b 9.464008
_cell_length_c 13.483589
_cell_angle_alpha 90.000000
_cell_angle_beta 90.000000
_cell_angle_gamma 90.000000
_cell_volume 2133.196143
_symmetry_space_group_name_H-M "I 21 21 21"
_symmetry_group_IT_number 24
_symmetry_cell_setting 'orthorhombic'
loop_
_space_group_symop_operation_xyz
x,y,z
-x,1/2-y,z
x,-y,1/2-z
1/2-x,y,-z
1/2+x,1/2+y,1/2+z
1/2-x,-y,1/2+z
1/2+x,1/2-y,-z
-x,1/2+y,1/2-z
loop_
_atom_site_type_symbol
_atom_site_label
_atom_site_fract_x
_atom_site_fract_y
_atom_site_fract_z
Si Si1 0.344546 0.548288 0.491628
Si Si2 0.911845 0.707672 0.643716
Si Si3 0.933081 0.136115 0.193800
Si Si4 0.216846 0.231566 0.287541
Si Si5 0.124519 0.626642 0.819310
Si Si6 0.274745 0.036452 0.107929
O O1 0.250000 0.523129 0.500000
O O2 0.357590 0.678951 0.415814
O O3 0.384730 0.586546 0.596033
O O4 0.385661 0.416465 0.433083
O O5 0.907613 0.735994 0.762159
O O6 0.870341 0.558553 0.620342
O O7 0.000000 0.750000 0.610320
O O8 0.870553 0.207910 0.270458
O O9 0.000000 0.250000 0.166378
O O10 0.968320 0.000000 0.250000
O O11 0.280179 0.356355 0.302833
O O12 0.237664 0.141614 0.189140
O O13 0.237864 0.117745 0.372360
O O14 0.092366 0.500000 0.750000
O O15 0.250000 0.082394 0.000000
#
# Coordination Sequence:
#
# PCOD9334482 Si02
#       6
#     8   8   8   8   8   8
#     4  11  21  40  71  95 124 174 239 273 332 417
#     4  10  20  39  62  98 134 171 213 277 359 415
#     4  12  27  45  68  99 141 189 230 295 352 410
#     4  10  21  40  64  95 131 177 237 281 338 412
#     4   9  19  38  64  94 119 167 219 280 336 404
#     4  10  21  37  64  97 134 183 230 282 339 418
#
# _framework density 22.501446999999999
#
# number of rings (size 3 to 8) (size 9 to 14) (size 15 to 20)
#    0.000    1.667    0.000    6.500    2.333    2.000 
#   18.000    0.833    0.000    0.000    0.000    0.000 
#    0.000    0.000    0.000    0.000    0.000    0.000 
#
# Total GULP energy -133922.763345 kJ/mol
# GULP energy per Si atom -5580.115139 kJ/mol
# Density = 2.245023 g / cm^3
# Si number density = 22.501447 Si / 1000 Ang^3
#
#
#
# Elastic Constant Matrix: (Units=GPa)
#
#
# Indices 1 2 3 4 5 6 
#
# 1 80.1859 9.2652 29.8831 0.0000 0.0000 0.0000
# 2 9.2652 67.4448 37.8876 0.0000 0.0000 0.0000
# 3 29.8831 37.8876 99.0085 0.0000 0.0000 0.0000
# 4 0.0000 0.0000 0.0000 22.1884 0.0000 0.0000
# 5 0.0000 0.0000 0.0000 0.0000 15.5628 0.0000
# 6 0.0000 0.0000 0.0000 0.0000 0.0000 12.4165
#
#
#
# Elastic Compliance Matrix: (Units=1/GPa)
#
#
# Indices 1 2 3 4 5 6 
#
# 1 0.014069 0.000577 -0.004467 0.000000 0.000000 0.000000
# 2 0.000577 0.018911 -0.007411 0.000000 0.000000 0.000000
# 3 -0.004467 -0.007411 0.014284 0.000000 0.000000 0.000000
# 4 0.000000 0.000000 0.000000 0.045069 0.000000 0.000000
# 5 0.000000 0.000000 0.000000 0.000000 0.064256 0.000000
# 6 0.000000 0.000000 0.000000 0.000000 0.000000 0.080538
#
#
# Mechanical properties :
#
#
# Convention : Reuss Voigt Hill
#
# Bulk Modulus (GPa) = 40.54813 44.52341 42.53577
# Shear Modulus (GPa) = 18.66027 21.34043 20.00035
#
# Velocity S-wave (km/s) = 2.88287 3.08296 2.98459
# Velocity P-wave (km/s) = 5.39820 5.70111 5.55172
#
# Compressibility (1/GPa) = 0.02466205
#
# Stress axis : x y z
#
# Youngs Moduli (GPa) = 71.07753 52.88015 70.00729
#
# Poissons Ratio (x) = -0.03049 0.31273
# Poissons Ratio (y) = -0.04099 0.51880
# Poissons Ratio (z) = 0.31751 0.39187
#
# Static dielectric constant tensor:
#      x y z
#    x 1.880490 0.000000 0.000000 
#    y 0.000000 1.933080 0.000000 
#    z 0.000000 0.000000 1.826760 
# 
# From -- ./inp_files/27043.got.cif
#   From: 2010.05.17/outbox.cif.g08.bks.cpg/sg24_14_cif.got.tgz:27043.got - 2010.06.04 00:33:39.
