data_PCOD9334377
_publ_section_title
;
Structure prediction by ZEFSAII (Michael W. Deem and Ramdas Pophale) SiO2 
 PCOD9334377
Probable space group: I 21 21 21
;
_chemical_formula_sum "Si O2"
_cell_formula_units_Z 56
_cell_length_a 14.532914
_cell_length_b 12.955026
_cell_length_c 16.428161
_cell_angle_alpha 90.000000
_cell_angle_beta 90.000000
_cell_angle_gamma 90.000000
_cell_volume 3093.000163
_symmetry_space_group_name_H-M "I 21 21 21"
_symmetry_group_IT_number 24
_symmetry_cell_setting 'orthorhombic'
loop_
_space_group_symop_operation_xyz
x,y,z
-x,1/2-y,z
x,-y,1/2-z
1/2-x,y,-z
1/2+x,1/2+y,1/2+z
1/2-x,-y,1/2+z
1/2+x,1/2-y,-z
-x,1/2+y,1/2-z
loop_
_atom_site_type_symbol
_atom_site_label
_atom_site_fract_x
_atom_site_fract_y
_atom_site_fract_z
Si Si1 0.414346 0.674628 0.420302
Si Si2 0.859844 0.999763 0.345546
Si Si3 0.746156 0.791157 0.685485
Si Si4 0.261190 0.290145 0.624320
Si Si5 0.897810 0.703977 0.991966
Si Si6 0.333243 0.168876 0.952178
Si Si7 0.511848 0.490104 0.981180
O O1 0.500000 0.750000 0.405748
O O2 0.348398 0.679624 0.343063
O O3 0.358284 0.729158 0.494456
O O4 0.450244 0.562723 0.447958
O O5 0.813729 0.887726 0.346608
O O6 0.943400 0.017927 0.407577
O O7 0.888799 0.000000 0.250000
O O8 0.785207 0.087117 0.371644
O O9 0.741226 0.766365 0.780198
O O10 0.706336 0.696473 0.634844
O O11 0.344061 0.235206 0.574793
O O12 0.168776 0.252680 0.577716
O O13 0.000000 0.750000 0.988780
O O14 0.921432 0.582205 0.990300
O O15 0.423549 0.101494 0.949549
O O16 0.250000 0.114690 0.000000
#
# Coordination Sequence:
#
# PCOD9334377 Si02
#       7
#     8   8   8   8   8   8   8
#     4   9  19  35  60  91 115 150 197 249 305 362
#     4  10  21  36  60  93 119 152 201 257 303 357
#     4  10  20  38  63  87 123 155 190 260 314 353
#     4  10  24  42  58  87 121 160 211 243 299 363
#     4  11  24  41  62  84 118 169 207 250 290 362
#     4   9  19  35  59  91 120 152 189 247 316 366
#     4  11  21  36  61  91 119 158 207 247 301 371
#
# _framework density 18.105398000000001
#
# number of rings (size 3 to 8) (size 9 to 14) (size 15 to 20)
#    0.000    2.000    2.857    0.000    4.000    1.714 
#    0.000    0.000    0.000    0.000    0.000    0.000 
#    0.000    0.000    0.000    0.000    0.000    0.000 
#
# Total GULP energy -155897.921027 kJ/mol
# GULP energy per Si atom -5567.782894 kJ/mol
# Density = 1.806419 g / cm^3
# Si number density = 18.105398 Si / 1000 Ang^3
#
#
#
# Elastic Constant Matrix: (Units=GPa)
#
#
# Indices 1 2 3 4 5 6 
#
# 1 106.3937 20.7825 45.4648 0.0000 0.0000 0.0000
# 2 20.7825 62.3505 35.2553 0.0000 0.0000 0.0000
# 3 45.4648 35.2553 98.3899 0.0000 0.0000 0.0000
# 4 0.0000 0.0000 0.0000 17.4460 0.0000 0.0000
# 5 0.0000 0.0000 0.0000 0.0000 5.0343 0.0000
# 6 0.0000 0.0000 0.0000 0.0000 0.0000 35.6009
#
#
#
# Elastic Compliance Matrix: (Units=1/GPa)
#
#
# Indices 1 2 3 4 5 6 
#
# 1 0.011768 -0.001063 -0.005057 0.000000 0.000000 0.000000
# 2 -0.001063 0.020210 -0.006750 0.000000 0.000000 0.000000
# 3 -0.005057 -0.006750 0.014919 0.000000 0.000000 0.000000
# 4 0.000000 0.000000 0.000000 0.057320 0.000000 0.000000
# 5 0.000000 0.000000 0.000000 0.000000 0.198639 0.000000
# 6 0.000000 0.000000 0.000000 0.000000 0.000000 0.028089
#
#
# Mechanical properties :
#
#
# Convention : Reuss Voigt Hill
#
# Bulk Modulus (GPa) = 47.26788 52.23771 49.75279
# Shear Modulus (GPa) = 13.74623 22.65832 18.20227
#
# Velocity S-wave (km/s) = 2.75841 3.54145 3.17417
# Velocity P-wave (km/s) = 6.02568 6.75552 6.40101
#
# Compressibility (1/GPa) = 0.02115602
#
# Stress axis : x y z
#
# Youngs Moduli (GPa) = 84.97916 49.48143 67.02813
#
# Poissons Ratio (x) = 0.05260 0.33894
# Poissons Ratio (y) = 0.09034 0.45246
# Poissons Ratio (z) = 0.42972 0.33402
#
# Static dielectric constant tensor:
#      x y z
#    x 1.625820 0.000000 0.000000 
#    y 0.000000 1.665600 0.000000 
#    z 0.000000 0.000000 1.615560 
# 
# From -- ./inp_files/25809.got.cif
#   From: 2010.05.17/outbox.cif.g08.bks.cpg/sg24_13_cif.got.tgz:25809.got - 2010.06.04 00:33:39.
