data_PCOD9334959
_publ_section_title
;
Structure prediction by ZEFSAII (Michael W. Deem and Ramdas Pophale) SiO2 
 PCOD9334959
Probable space group: I 21 21 21
;
_chemical_formula_sum "Si O2"
_cell_formula_units_Z 48
_cell_length_a 17.526713
_cell_length_b 15.821136
_cell_length_c 9.150961
_cell_angle_alpha 90.000000
_cell_angle_beta 90.000000
_cell_angle_gamma 90.000000
_cell_volume 2537.492945
_symmetry_space_group_name_H-M "I 21 21 21"
_symmetry_group_IT_number 24
_symmetry_cell_setting 'orthorhombic'
loop_
_space_group_symop_operation_xyz
x,y,z
-x,1/2-y,z
x,-y,1/2-z
1/2-x,y,-z
1/2+x,1/2+y,1/2+z
1/2-x,-y,1/2+z
1/2+x,1/2-y,-z
-x,1/2+y,1/2-z
loop_
_atom_site_type_symbol
_atom_site_label
_atom_site_fract_x
_atom_site_fract_y
_atom_site_fract_z
Si Si1 0.044616 0.364532 0.939434
Si Si2 0.040317 0.404544 0.274609
Si Si3 0.984130 0.500000 0.750000
Si Si4 0.781858 0.916858 0.162235
Si Si5 0.296693 0.723847 0.352498
Si Si6 0.090568 0.832391 0.775238
Si Si7 0.000000 0.750000 0.019071
O O1 0.124106 0.325240 0.887416
O O2 0.037278 0.459353 0.874070
O O3 0.968700 0.326574 0.862171
O O4 0.041162 0.364402 0.112750
O O5 0.007497 0.500000 0.250000
O O6 0.126583 0.416720 0.332022
O O7 0.005557 0.334213 0.383021
O O8 0.930538 0.572211 0.819684
O O9 0.751686 0.834064 0.244351
O O10 0.755765 0.000000 0.250000
O O11 0.750000 0.920187 0.000000
O O12 0.250000 0.736790 0.500000
O O13 0.325821 0.810352 0.279608
O O14 0.068713 0.767698 0.904459
#
# Coordination Sequence:
#
# PCOD9334959 Si02
#       7
#     8   8   4   8   8   8   4
#     4  10  21  39  60  92 117 165 214 263 317 388
#     4  11  25  38  56  93 131 158 211 270 331 383
#     4   8  20  36  72  84 118 156 226 272 306 376
#     4  11  25  37  55  85 127 167 203 252 326 401
#     4  12  22  37  61  91 127 167 205 262 327 393
#     4  10  21  40  64  90 119 166 226 253 322 385
#     4  12  22  38  66  90 128 172 218 274 320 392
#
# _framework density 18.916307
#
# number of rings (size 3 to 8) (size 9 to 14) (size 15 to 20)
#    1.000    0.333    3.333    2.500    5.833    0.000 
#    0.000    0.000    0.000    3.000    2.167    0.000 
#    0.000    0.000    0.000    0.000    0.000    0.000 
#
# Total GULP energy -133694.111898 kJ/mol
# GULP energy per Si atom -5570.587996 kJ/mol
# Density = 1.887325 g / cm^3
# Si number density = 18.916307 Si / 1000 Ang^3
#
#
#
# Elastic Constant Matrix: (Units=GPa)
#
#
# Indices 1 2 3 4 5 6 
#
# 1 47.8587 22.0456 19.7044 0.0000 0.0000 0.0000
# 2 22.0456 73.0204 20.7222 0.0000 0.0000 0.0000
# 3 19.7044 20.7222 132.3321 0.0000 0.0000 0.0000
# 4 0.0000 0.0000 0.0000 31.3380 0.0000 0.0000
# 5 0.0000 0.0000 0.0000 0.0000 17.9216 0.0000
# 6 0.0000 0.0000 0.0000 0.0000 0.0000 19.8177
#
#
#
# Elastic Compliance Matrix: (Units=1/GPa)
#
#
# Indices 1 2 3 4 5 6 
#
# 1 0.025143 -0.006832 -0.002674 0.000000 0.000000 0.000000
# 2 -0.006832 0.016188 -0.001518 0.000000 0.000000 0.000000
# 3 -0.002674 -0.001518 0.008193 0.000000 0.000000 0.000000
# 4 0.000000 0.000000 0.000000 0.031910 0.000000 0.000000
# 5 0.000000 0.000000 0.000000 0.000000 0.055799 0.000000
# 6 0.000000 0.000000 0.000000 0.000000 0.000000 0.050460
#
#
# Mechanical properties :
#
#
# Convention : Reuss Voigt Hill
#
# Bulk Modulus (GPa) = 36.39502 42.01729 39.20615
# Shear Modulus (GPa) = 22.84166 26.53139 24.68653
#
# Velocity S-wave (km/s) = 3.47870 3.74915 3.61645
# Velocity P-wave (km/s) = 5.95121 6.40327 6.18138
#
# Compressibility (1/GPa) = 0.02747629
#
# Stress axis : x y z
#
# Youngs Moduli (GPa) = 39.77268 61.77353 122.06207
#
# Poissons Ratio (x) = 0.42204 0.32639
# Poissons Ratio (y) = 0.27173 0.18525
# Poissons Ratio (z) = 0.10635 0.09375
#
# Static dielectric constant tensor:
#      x y z
#    x 1.630770 0.000000 0.000000 
#    y 0.000000 1.779710 0.000000 
#    z 0.000000 0.000000 1.672780 
# 
# From -- ./inp_files/14224.got.cif
#   From: 2010.05.17/outbox.cif.g08.bks.cpg/sg24_8_cif.got.tgz:14224.got - 2010.06.04 00:33:39.
