data_PCOD9334950
_publ_section_title
;
Structure prediction by ZEFSAII (Michael W. Deem and Ramdas Pophale) SiO2 
 PCOD9334950
Probable space group: I 21 21 21
;
_chemical_formula_sum "Si O2"
_cell_formula_units_Z 48
_cell_length_a 28.795167
_cell_length_b 8.806936
_cell_length_c 8.808875
_cell_angle_alpha 90.000000
_cell_angle_beta 90.000000
_cell_angle_gamma 90.000000
_cell_volume 2233.905972
_symmetry_space_group_name_H-M "I 21 21 21"
_symmetry_group_IT_number 24
_symmetry_cell_setting 'orthorhombic'
loop_
_space_group_symop_operation_xyz
x,y,z
-x,1/2-y,z
x,-y,1/2-z
1/2-x,y,-z
1/2+x,1/2+y,1/2+z
1/2-x,-y,1/2+z
1/2+x,1/2-y,-z
-x,1/2+y,1/2-z
loop_
_atom_site_type_symbol
_atom_site_label
_atom_site_fract_x
_atom_site_fract_y
_atom_site_fract_z
Si Si1 0.800030 0.661642 0.074656
Si Si2 0.801252 0.704223 0.427167
Si Si3 0.528494 0.405451 0.404310
Si Si4 0.872637 0.632417 0.853174
Si Si5 0.967552 0.103036 0.115276
Si Si6 0.117821 0.369948 0.882073
O O1 0.801738 0.727953 0.244232
O O2 0.811200 0.479040 0.067389
O O3 0.750000 0.681611 0.000000
O O4 0.837172 0.724766 0.955737
O O5 0.750000 0.724433 0.500000
O O6 0.837135 0.809516 0.521863
O O7 0.500000 0.250000 0.385388
O O8 0.524338 0.500000 0.250000
O O9 0.582735 0.407537 0.450875
O O10 0.503564 0.494504 0.534761
O O11 0.849604 0.500000 0.750000
O O12 0.896331 0.731270 0.724315
O O13 0.000000 0.250000 0.153953
O O14 0.948022 0.000000 0.250000
O O15 0.924572 0.117834 0.998822
O O16 0.124826 0.500000 0.750000
#
# Coordination Sequence:
#
# PCOD9334950 Si02
#       6
#     8   8   8   8   8   8
#     4  10  21  38  71 104 137 169 231 301 344 395
#     4  10  22  42  67 103 139 180 227 286 350 414
#     4  11  22  40  65  96 133 177 227 276 337 412
#     4  11  21  39  67 101 131 177 236 278 341 408
#     4  12  27  46  67  97 135 180 231 290 353 410
#     4  12  26  44  67  97 141 181 223 280 349 427
#
# _framework density 21.487026
#
# number of rings (size 3 to 8) (size 9 to 14) (size 15 to 20)
#    0.000    1.000    1.667    6.500    2.333    4.000 
#    0.000    3.333    0.000    0.000    0.000    0.000 
#    0.000    0.000    0.000    0.000    0.000    0.000 
#
# Total GULP energy -133695.313971 kJ/mol
# GULP energy per Si atom -5570.638082 kJ/mol
# Density = 2.143812 g / cm^3
# Si number density = 21.487026 Si / 1000 Ang^3
#
#
#
# Elastic Constant Matrix: (Units=GPa)
#
#
# Indices 1 2 3 4 5 6 
#
# 1 123.8223 18.6747 61.7558 0.0000 0.0000 0.0000
# 2 18.6747 75.8227 33.7560 0.0000 0.0000 0.0000
# 3 61.7558 33.7560 121.4275 0.0000 0.0000 0.0000
# 4 0.0000 0.0000 0.0000 16.2991 0.0000 0.0000
# 5 0.0000 0.0000 0.0000 0.0000 25.9433 0.0000
# 6 0.0000 0.0000 0.0000 0.0000 0.0000 25.6342
#
#
#
# Elastic Compliance Matrix: (Units=1/GPa)
#
#
# Indices 1 2 3 4 5 6 
#
# 1 0.010825 -0.000246 -0.005437 0.000000 0.000000 0.000000
# 2 -0.000246 0.015057 -0.004061 0.000000 0.000000 0.000000
# 3 -0.005437 -0.004061 0.012129 0.000000 0.000000 0.000000
# 4 0.000000 0.000000 0.000000 0.061353 0.000000 0.000000
# 5 0.000000 0.000000 0.000000 0.000000 0.038546 0.000000
# 6 0.000000 0.000000 0.000000 0.000000 0.000000 0.039010
#
#
# Mechanical properties :
#
#
# Convention : Reuss Voigt Hill
#
# Bulk Modulus (GPa) = 53.98293 61.04950 57.51621
# Shear Modulus (GPa) = 24.68132 27.36769 26.02451
#
# Velocity S-wave (km/s) = 3.39287 3.57274 3.48397
# Velocity P-wave (km/s) = 6.36606 6.74487 6.55820
#
# Compressibility (1/GPa) = 0.01852437
#
# Stress axis : x y z
#
# Youngs Moduli (GPa) = 92.38016 66.41418 82.44394
#
# Poissons Ratio (x) = 0.01631 0.44825
# Poissons Ratio (y) = 0.02268 0.33479
# Poissons Ratio (z) = 0.50228 0.26970
#
# Static dielectric constant tensor:
#      x y z
#    x 1.840040 0.000000 0.000000 
#    y 0.000000 2.300400 0.000000 
#    z 0.000000 0.000000 1.727120 
# 
# From -- ./inp_files/16801.got.cif
#   From: 2010.05.17/outbox.cif.g08.bks.cpg/sg24_9_cif.got.tgz:16801.got - 2010.06.04 00:33:39.
