data_PCOD9334880
_publ_section_title
;
Structure prediction by ZEFSAII (Michael W. Deem and Ramdas Pophale) SiO2 
 PCOD9334880
Probable space group: I 21 21 21
;
_chemical_formula_sum "Si O2"
_cell_formula_units_Z 32
_cell_length_a 18.537792
_cell_length_b 13.999959
_cell_length_c 5.365361
_cell_angle_alpha 90.000000
_cell_angle_beta 90.000000
_cell_angle_gamma 90.000000
_cell_volume 1392.463169
_symmetry_space_group_name_H-M "I 21 21 21"
_symmetry_group_IT_number 24
_symmetry_cell_setting 'orthorhombic'
loop_
_space_group_symop_operation_xyz
x,y,z
-x,1/2-y,z
x,-y,1/2-z
1/2-x,y,-z
1/2+x,1/2+y,1/2+z
1/2-x,-y,1/2+z
1/2+x,1/2-y,-z
-x,1/2+y,1/2-z
loop_
_atom_site_type_symbol
_atom_site_label
_atom_site_fract_x
_atom_site_fract_y
_atom_site_fract_z
Si Si1 0.019883 0.638826 0.362118
Si Si2 0.671603 0.064458 0.997102
Si Si3 0.958261 0.351723 0.650810
Si Si4 0.294978 0.884604 0.246024
O O1 0.103479 0.629101 0.432111
O O2 0.000000 0.750000 0.349370
O O3 0.980140 0.595082 0.598159
O O4 0.989412 0.601350 0.100583
O O5 0.661621 0.000000 0.250000
O O6 0.750000 0.114207 0.000000
O O7 0.675967 0.000000 0.750000
O O8 0.872950 0.338576 0.687788
O O9 0.000000 0.250000 0.657214
O O10 0.250000 0.861013 0.500000
O O11 0.306178 0.000000 0.250000
O O12 0.250000 0.861076 0.000000
#
# Coordination Sequence:
#
# PCOD9334880 Si02
#       4
#     8   8   8   8
#     4  10  21  38  58  87 122 158 200 243 298 360
#     4  10  21  38  61  89 121 158 201 250 302 357
#     4  10  21  38  58  86 120 154 197 242 294 356
#     4  10  21  38  60  86 116 152 194 243 299 355
#
# _framework density 22.98086
#
# number of rings (size 3 to 8) (size 9 to 14) (size 15 to 20)
#    0.000    2.000    0.000    3.000    0.000    3.000 
#    0.000   15.000    0.000    0.000    0.000    0.000 
#    0.000    0.000    0.000    0.000    0.000    0.000 
#
# Total GULP energy -89203.149596 kJ/mol
# GULP energy per Si atom -5575.196850 kJ/mol
# Density = 2.292855 g / cm^3
# Si number density = 22.980860 Si / 1000 Ang^3
#
#
#
# Elastic Constant Matrix: (Units=GPa)
#
#
# Indices 1 2 3 4 5 6 
#
# 1 267.0233 57.8007 77.5492 0.0000 0.0000 0.0000
# 2 57.8007 73.3095 45.0095 0.0000 0.0000 0.0000
# 3 77.5492 45.0095 250.3024 0.0000 0.0000 0.0000
# 4 0.0000 0.0000 0.0000 10.3976 0.0000 0.0000
# 5 0.0000 0.0000 0.0000 0.0000 -0.7071 0.0000
# 6 0.0000 0.0000 0.0000 0.0000 0.0000 -143.0572
#
#
#
# Elastic Compliance Matrix: (Units=1/GPa)
#
#
# Indices 1 2 3 4 5 6 
#
# 1 0.004684 -0.003150 -0.000885 0.000000 0.000000 0.000000
# 2 -0.003150 0.017452 -0.002162 0.000000 0.000000 0.000000
# 3 -0.000885 -0.002162 0.004658 0.000000 0.000000 0.000000
# 4 0.000000 0.000000 0.000000 0.096176 0.000000 0.000000
# 5 0.000000 0.000000 0.000000 0.000000 -1.414303 0.000000
# 6 0.000000 0.000000 0.000000 0.000000 0.000000 -0.006990
#
#
# Mechanical properties :
#
#
# Convention : Reuss Voigt Hill
#
# Bulk Modulus (GPa) = 69.44411 105.70599 87.57505
# Shear Modulus (GPa) = -3.90280 0.67839 -1.61221
#
# Velocity S-wave (km/s) = -1.30460 0.54391 -0.83849
# Velocity P-wave (km/s) = 5.29288 6.81848 6.10353
#
# Compressibility (1/GPa) = 0.01440007
#
# Stress axis : x y z
#
# Youngs Moduli (GPa) = 213.50519 57.30086 214.67910
#
# Poissons Ratio (x) = 0.18048 0.18994
# Poissons Ratio (y) = 0.67247 0.46421
# Poissons Ratio (z) = 0.18890 0.12390
#
# Static dielectric constant tensor:
#      x y z
#    x 2.059970 0.000000 0.000000 
#    y 0.000000 2.326940 0.000000 
#    z 0.000000 0.000000 2.383360 
# 
# From -- ./inp_files/1958.got.cif
#   From: 2010.05.17/outbox.cif.g08.bks.cpg/sg24_1_cif.got.tgz:1958.got - 2010.06.04 00:33:39.
