data_PCOD9334431
_publ_section_title
;
Structure prediction by ZEFSAII (Michael W. Deem and Ramdas Pophale) SiO2 
 PCOD9334431
Probable space group: I 21 21 21
;
_chemical_formula_sum "Si O2"
_cell_formula_units_Z 40
_cell_length_a 7.983650
_cell_length_b 27.246336
_cell_length_c 8.102426
_cell_angle_alpha 90.000000
_cell_angle_beta 90.000000
_cell_angle_gamma 90.000000
_cell_volume 1762.481920
_symmetry_space_group_name_H-M "I 21 21 21"
_symmetry_group_IT_number 24
_symmetry_cell_setting 'orthorhombic'
loop_
_space_group_symop_operation_xyz
x,y,z
-x,1/2-y,z
x,-y,1/2-z
1/2-x,y,-z
1/2+x,1/2+y,1/2+z
1/2-x,-y,1/2+z
1/2+x,1/2-y,-z
-x,1/2+y,1/2-z
loop_
_atom_site_type_symbol
_atom_site_label
_atom_site_fract_x
_atom_site_fract_y
_atom_site_fract_z
Si Si1 0.615813 0.540309 0.371924
Si Si2 0.547771 0.693892 0.515010
Si Si3 0.046598 0.861573 0.804094
Si Si4 0.597723 0.968288 0.900086
Si Si5 0.948022 0.366599 0.330374
O O1 0.697809 0.500000 0.250000
O O2 0.750000 0.562801 0.500000
O O3 0.527850 0.582903 0.266478
O O4 0.494917 0.506824 0.481746
O O5 0.500000 0.750000 0.542175
O O6 0.750000 0.690400 0.500000
O O7 0.482358 0.673781 0.339572
O O8 0.485662 0.660737 0.668311
O O9 0.248624 0.858051 0.822312
O O10 0.984842 0.850767 0.989005
O O11 0.482493 0.924734 0.832369
O O12 0.666196 0.000000 0.750000
O O13 0.750000 0.945264 0.000000
#
# Coordination Sequence:
#
# PCOD9334431 Si02
#       5
#     8   8   8   8   8
#     4  12  21  35  62  93 122 167 217 256 300 361
#     4  10  22  43  66  94 121 155 203 263 323 376
#     4  10  20  38  67  91 121 161 214 257 301 365
#     4  12  25  40  56  87 133 172 207 255 313 369
#     4  10  21  41  62  89 123 164 208 259 303 367
#
# _framework density 22.695269
#
# number of rings (size 3 to 8) (size 9 to 14) (size 15 to 20)
#    0.000    1.200    2.000    6.600    0.000    0.800 
#    3.600    1.000    0.000    0.000    0.000    0.000 
#    0.000    0.000    0.000    0.000    0.000    0.000 
#
# Total GULP energy -111790.497427 kJ/mol
# GULP energy per Si atom -5589.524871 kJ/mol
# Density = 2.264361 g / cm^3
# Si number density = 22.695269 Si / 1000 Ang^3
#
#
#
# Elastic Constant Matrix: (Units=GPa)
#
#
# Indices 1 2 3 4 5 6 
#
# 1 27.3189 -8.0986 24.8584 0.0000 -0.0003 -0.0001
# 2 -8.0986 77.5023 73.4072 0.0005 -0.0003 -0.0001
# 3 24.8584 73.4072 206.2058 -0.0023 -0.0007 0.0010
# 4 0.0000 0.0005 -0.0023 27.0967 -0.0003 0.0001
# 5 -0.0003 -0.0003 -0.0007 -0.0003 21.5140 0.0002
# 6 -0.0001 -0.0001 0.0010 0.0001 0.0002 23.8621
#
#
#
# Elastic Compliance Matrix: (Units=1/GPa)
#
#
# Indices 1 2 3 4 5 6 
#
# 1 0.053388 0.017614 -0.012706 -0.000001 0.000001 0.000001
# 2 0.017614 0.025278 -0.011122 -0.000001 0.000000 0.000001
# 3 -0.012706 -0.011122 0.010341 0.000001 0.000000 -0.000001
# 4 -0.000001 -0.000001 0.000001 0.036905 0.000000 0.000000
# 5 0.000001 0.000000 0.000000 0.000000 0.046481 0.000000
# 6 0.000001 0.000001 -0.000001 0.000000 0.000000 0.041907
#
#
# Mechanical properties :
#
#
# Convention : Reuss Voigt Hill
#
# Bulk Modulus (GPa) = 13.05871 54.59567 33.82719
# Shear Modulus (GPa) = 19.82123 29.21858 24.51990
#
# Velocity S-wave (km/s) = 2.95848 3.59197 3.29051
# Velocity P-wave (km/s) = 4.17571 6.42738 5.41977
#
# Compressibility (1/GPa) = 0.07657726
#
# Stress axis : x y z
#
# Youngs Moduli (GPa) = 18.73077 39.56057 96.70622
#
# Poissons Ratio (x) = -0.69681 1.22878
# Poissons Ratio (y) = -0.32992 1.07556
# Poissons Ratio (z) = 0.23800 0.43999
#
# Static dielectric constant tensor:
#      x y z
#    x 1.863310 0.000000 0.000000 
#    y 0.000000 1.794230 0.000000 
#    z 0.000000 0.000000 1.908730 
# 
# From -- ./inp_files/9255.got.cif
#   From: 2010.05.17/outbox.cif.g08.bks.cpg/sg24_5_cif.got.tgz:9255.got - 2010.06.04 00:33:39.
