data_PCOD9334710
_publ_section_title
;
Structure prediction by ZEFSAII (Michael W. Deem and Ramdas Pophale) SiO2 
 PCOD9334710
Probable space group: I 21 21 21
;
_chemical_formula_sum "Si O2"
_cell_formula_units_Z 48
_cell_length_a 13.844501
_cell_length_b 10.792807
_cell_length_c 15.246164
_cell_angle_alpha 90.000000
_cell_angle_beta 90.000000
_cell_angle_gamma 90.000000
_cell_volume 2278.097487
_symmetry_space_group_name_H-M "I 21 21 21"
_symmetry_group_IT_number 24
_symmetry_cell_setting 'orthorhombic'
loop_
_space_group_symop_operation_xyz
x,y,z
-x,1/2-y,z
x,-y,1/2-z
1/2-x,y,-z
1/2+x,1/2+y,1/2+z
1/2-x,-y,1/2+z
1/2+x,1/2-y,-z
-x,1/2+y,1/2-z
loop_
_atom_site_type_symbol
_atom_site_label
_atom_site_fract_x
_atom_site_fract_y
_atom_site_fract_z
Si Si1 0.057402 0.019852 0.586646
Si Si2 0.901542 0.000000 0.250000
Si Si3 0.957414 0.387290 0.393773
Si Si4 0.384540 0.227000 0.769877
Si Si5 0.225561 0.171041 0.898921
Si Si6 0.000000 0.250000 0.689707
Si Si7 0.371481 0.405259 0.178547
O O1 0.067091 0.042156 0.482565
O O2 0.060699 0.153800 0.631956
O O3 0.139463 0.925959 0.620578
O O4 0.951474 0.969468 0.615223
O O5 0.849702 0.868739 0.262798
O O6 0.967819 0.968753 0.164370
O O7 0.877791 0.347049 0.321680
O O8 0.000000 0.250000 0.417657
O O9 0.500000 0.250000 0.787376
O O10 0.322325 0.156516 0.841531
O O11 0.189686 0.310820 0.879605
O O12 0.250000 0.157423 0.000000
O O13 0.069995 0.321053 0.754021
O O14 0.326782 0.500000 0.250000
#
# Coordination Sequence:
#
# PCOD9334710 Si02
#       7
#     8   4   8   8   8   4   8
#     4  11  22  42  73 100 136 174 237 285 351 424
#     4   8  18  36  70  84 124 184 210 286 344 412
#     4   9  19  39  66  99 124 179 229 282 353 420
#     4   9  22  43  64  96 134 182 230 278 360 406
#     4  12  27  41  64 108 140 182 235 295 347 426
#     4  10  20  46  72  92 134 186 220 288 354 426
#     4  10  23  45  70  97 132 184 227 287 357 419
#
# _framework density 21.070212999999999
#
# number of rings (size 3 to 8) (size 9 to 14) (size 15 to 20)
#    0.000    2.333    2.500    0.000    8.167    0.000 
#    6.000    0.000    0.000    0.000    0.000    0.000 
#    0.000    0.000    0.000    0.000    0.000    0.000 
#
# Total GULP energy -133767.549639 kJ/mol
# GULP energy per Si atom -5573.647902 kJ/mol
# Density = 2.102226 g / cm^3
# Si number density = 21.070213 Si / 1000 Ang^3
#
#
#
# Elastic Constant Matrix: (Units=GPa)
#
#
# Indices 1 2 3 4 5 6 
#
# 1 66.8573 24.6594 34.5161 0.0000 0.0000 0.0000
# 2 24.6594 105.0088 40.7481 0.0000 0.0000 0.0000
# 3 34.5161 40.7481 127.0473 0.0000 0.0000 0.0000
# 4 0.0000 0.0000 0.0000 45.3212 0.0000 0.0000
# 5 0.0000 0.0000 0.0000 0.0000 29.2186 0.0000
# 6 0.0000 0.0000 0.0000 0.0000 0.0000 28.7147
#
#
#
# Elastic Compliance Matrix: (Units=1/GPa)
#
#
# Indices 1 2 3 4 5 6 
#
# 1 0.018027 -0.002665 -0.004043 0.000000 0.000000 0.000000
# 2 -0.002665 0.011271 -0.002891 0.000000 0.000000 0.000000
# 3 -0.004043 -0.002891 0.009897 0.000000 0.000000 0.000000
# 4 0.000000 0.000000 0.000000 0.022065 0.000000 0.000000
# 5 0.000000 0.000000 0.000000 0.000000 0.034225 0.000000
# 6 0.000000 0.000000 0.000000 0.000000 0.000000 0.034825
#
#
# Mechanical properties :
#
#
# Convention : Reuss Voigt Hill
#
# Bulk Modulus (GPa) = 50.00609 55.41786 52.71197
# Shear Modulus (GPa) = 32.01595 33.91688 32.96642
#
# Velocity S-wave (km/s) = 3.90229 4.01647 3.95979
# Velocity P-wave (km/s) = 6.63991 6.91867 6.78072
#
# Compressibility (1/GPa) = 0.01999756
#
# Stress axis : x y z
#
# Youngs Moduli (GPa) = 55.47149 88.72692 101.04364
#
# Poissons Ratio (x) = 0.23641 0.40852
# Poissons Ratio (y) = 0.14780 0.29211
# Poissons Ratio (z) = 0.22427 0.25650
#
# Static dielectric constant tensor:
#      x y z
#    x 1.748560 0.000000 0.000000 
#    y 0.000000 1.845660 0.000000 
#    z 0.000000 0.000000 1.732710 
# 
# From -- ./inp_files/26479.got.cif
#   From: 2010.05.17/outbox.cif.g08.bks.cpg/sg24_14_cif.got.tgz:26479.got - 2010.06.04 00:33:39.
