data_PCOD9334231
_publ_section_title
;
Structure prediction by ZEFSAII (Michael W. Deem and Ramdas Pophale) SiO2 
 PCOD9334231
Probable space group: I 21 21 21
;
_chemical_formula_sum "Si O2"
_cell_formula_units_Z 40
_cell_length_a 5.026932
_cell_length_b 26.054196
_cell_length_c 16.658186
_cell_angle_alpha 90.000000
_cell_angle_beta 90.000000
_cell_angle_gamma 90.000000
_cell_volume 2181.767125
_symmetry_space_group_name_H-M "I 21 21 21"
_symmetry_group_IT_number 24
_symmetry_cell_setting 'orthorhombic'
loop_
_space_group_symop_operation_xyz
x,y,z
-x,1/2-y,z
x,-y,1/2-z
1/2-x,y,-z
1/2+x,1/2+y,1/2+z
1/2-x,-y,1/2+z
1/2+x,1/2-y,-z
-x,1/2+y,1/2-z
loop_
_atom_site_type_symbol
_atom_site_label
_atom_site_fract_x
_atom_site_fract_y
_atom_site_fract_z
Si Si1 0.894364 0.532035 0.326194
Si Si2 0.083208 0.364817 0.253399
Si Si3 0.858834 0.120488 0.586819
Si Si4 0.402899 0.503369 0.082624
Si Si5 0.080441 0.191175 0.713607
O O1 0.787203 0.500000 0.250000
O O2 0.968519 0.589289 0.298950
O O3 0.666662 0.527704 0.393726
O O4 0.171758 0.506446 0.352558
O O5 0.874518 0.318839 0.256344
O O6 0.128586 0.383957 0.345275
O O7 0.372026 0.341926 0.232768
O O8 0.750000 0.134925 0.500000
O O9 0.044956 0.163602 0.626659
O O10 0.980901 0.063602 0.580262
O O11 0.250000 0.490622 0.000000
O O12 0.000000 0.250000 0.710274
#
# Coordination Sequence:
#
# PCOD9334231 Si02
#       5
#     8   8   8   8   8
#     4  12  20  36  57  80 110 148 192 224 281 335
#     4  10  21  35  53  79 102 148 186 232 273 325
#     4   9  21  36  51  77 113 149 191 228 273 321
#     4  11  23  36  55  82 116 150 186 228 275 338
#     4  10  20  37  52  76 108 145 193 236 276 315
#
# _framework density 18.333763999999999
#
# number of rings (size 3 to 8) (size 9 to 14) (size 15 to 20)
#    1.200    0.400    2.000    4.200    0.000    0.800 
#    3.600    0.000    0.000    0.000    0.000    0.000 
#    0.000   44.800    0.000    0.000    0.000    0.000 
#
# Total GULP energy -111424.523704 kJ/mol
# GULP energy per Si atom -5571.226185 kJ/mol
# Density = 1.829204 g / cm^3
# Si number density = 18.333764 Si / 1000 Ang^3
#
#
#
# Elastic Constant Matrix: (Units=GPa)
#
#
# Indices 1 2 3 4 5 6 
#
# 1 67.1812 1.4356 4.6915 0.0000 0.0000 0.0000
# 2 1.4356 57.1482 17.0547 0.0000 0.0000 0.0000
# 3 4.6915 17.0547 34.9908 0.0000 0.0000 0.0000
# 4 0.0000 0.0000 0.0000 17.3570 0.0000 0.0000
# 5 0.0000 0.0000 0.0000 0.0000 29.7046 0.0000
# 6 0.0000 0.0000 0.0000 0.0000 0.0000 10.3811
#
#
#
# Elastic Compliance Matrix: (Units=1/GPa)
#
#
# Indices 1 2 3 4 5 6 
#
# 1 0.015029 0.000262 -0.002143 0.000000 0.000000 0.000000
# 2 0.000262 0.020481 -0.010018 0.000000 0.000000 0.000000
# 3 -0.002143 -0.010018 0.033749 0.000000 0.000000 0.000000
# 4 0.000000 0.000000 0.000000 0.057614 0.000000 0.000000
# 5 0.000000 0.000000 0.000000 0.000000 0.033665 0.000000
# 6 0.000000 0.000000 0.000000 0.000000 0.000000 0.096329
#
#
# Mechanical properties :
#
#
# Convention : Reuss Voigt Hill
#
# Bulk Modulus (GPa) = 21.99629 22.85375 22.42502
# Shear Modulus (GPa) = 16.90228 20.56444 18.73336
#
# Velocity S-wave (km/s) = 3.03961 3.35277 3.20002
# Velocity P-wave (km/s) = 4.93383 5.24219 5.09035
#
# Compressibility (1/GPa) = 0.04546221
#
# Stress axis : x y z
#
# Youngs Moduli (GPa) = 66.53734 48.82483 29.63053
#
# Poissons Ratio (x) = -0.01279 0.06349
# Poissons Ratio (y) = -0.01743 0.29683
# Poissons Ratio (z) = 0.14257 0.48912
#
# Static dielectric constant tensor:
#      x y z
#    x 1.655490 0.000000 0.000000 
#    y 0.000000 1.617530 0.000000 
#    z 0.000000 0.000000 1.682710 
# 
# From -- ./inp_files/23719.got.cif
#   From: 2010.05.17/outbox.cif.g08.bks.cpg/sg24_12_cif.got.tgz:23719.got - 2010.06.04 00:33:39.
