data_PCOD9334483
_publ_section_title
;
Structure prediction by ZEFSAII (Michael W. Deem and Ramdas Pophale) SiO2 
 PCOD9334483
Probable space group: I 21 21 21
;
_chemical_formula_sum "Si O2"
_cell_formula_units_Z 64
_cell_length_a 8.910806
_cell_length_b 23.939399
_cell_length_c 13.749077
_cell_angle_alpha 90.000000
_cell_angle_beta 90.000000
_cell_angle_gamma 90.000000
_cell_volume 2932.944035
_symmetry_space_group_name_H-M "I 21 21 21"
_symmetry_group_IT_number 24
_symmetry_cell_setting 'orthorhombic'
loop_
_space_group_symop_operation_xyz
x,y,z
-x,1/2-y,z
x,-y,1/2-z
1/2-x,y,-z
1/2+x,1/2+y,1/2+z
1/2-x,-y,1/2+z
1/2+x,1/2-y,-z
-x,1/2+y,1/2-z
loop_
_atom_site_type_symbol
_atom_site_label
_atom_site_fract_x
_atom_site_fract_y
_atom_site_fract_z
Si Si1 0.191812 0.436281 0.220134
Si Si2 0.517379 0.883926 0.189334
Si Si3 0.083392 0.041297 0.519342
Si Si4 0.282037 0.294986 0.395279
Si Si5 0.189700 0.129200 0.871562
Si Si6 0.482408 0.923387 0.546663
Si Si7 0.999581 0.372903 0.362640
Si Si8 0.654019 0.718766 0.729361
O O1 0.227679 0.500000 0.250000
O O2 0.334390 0.400114 0.250636
O O3 0.127236 0.416557 0.115761
O O4 0.055797 0.420982 0.291477
O O5 0.467285 0.935426 0.122359
O O6 0.565161 0.829826 0.124376
O O7 0.389049 0.875514 0.267784
O O8 0.250000 0.020450 0.500000
O O9 0.073507 0.095256 0.450883
O O10 0.991876 0.986464 0.490975
O O11 0.250000 0.265290 0.500000
O O12 0.252978 0.258027 0.299443
O O13 0.147484 0.340302 0.397699
O O14 0.330578 0.087313 0.888858
O O15 0.263466 0.190831 0.862376
O O16 0.065714 0.115210 0.954362
O O17 0.900592 0.330137 0.302296
O O18 0.500000 0.750000 0.700448
#
# Coordination Sequence:
#
# PCOD9334483 Si02
#       8
#     8   8   8   8   8   8   8   8
#     4  11  23  40  69  99 139 196 234 297 368 440
#     4  11  27  42  69 105 152 175 237 307 371 449
#     4  12  23  39  67 107 141 194 229 291 378 456
#     4  10  21  43  66  99 141 182 229 298 373 445
#     4  11  24  48  67 103 144 188 243 313 351 442
#     4  11  25  45  72  95 143 193 250 293 362 440
#     4  10  20  39  62  98 141 177 231 287 362 447
#     4  10  22  41  75  98 137 191 241 297 374 428
#
# _framework density 21.821076999999999
#
# number of rings (size 3 to 8) (size 9 to 14) (size 15 to 20)
#    0.000    1.250    5.000    0.750    1.750    2.500 
#    4.500    0.000   11.000    0.000    0.000    0.000 
#    0.000    0.000    0.000    0.000    0.000    0.000 
#
# Total GULP energy -178381.686597 kJ/mol
# GULP energy per Si atom -5574.427706 kJ/mol
# Density = 2.177141 g / cm^3
# Si number density = 21.821077 Si / 1000 Ang^3
#
#
#
# Elastic Constant Matrix: (Units=GPa)
#
#
# Indices 1 2 3 4 5 6 
#
# 1 55.5236 9.8924 35.9207 -0.0002 0.0000 0.0000
# 2 9.8924 63.4467 5.5442 -0.0001 0.0000 0.0000
# 3 35.9207 5.5442 57.1640 -0.0009 0.0000 0.0001
# 4 -0.0002 -0.0001 -0.0009 158.6174 0.0002 0.0006
# 5 0.0000 0.0000 0.0000 0.0002 38.1339 0.0000
# 6 0.0000 0.0000 0.0001 0.0006 0.0000 -12.2123
#
#
#
# Elastic Compliance Matrix: (Units=1/GPa)
#
#
# Indices 1 2 3 4 5 6 
#
# 1 0.030961 -0.003154 -0.019149 0.000000 0.000000 0.000000
# 2 -0.003154 0.016217 0.000409 0.000000 0.000000 0.000000
# 3 -0.019149 0.000409 0.029487 0.000000 0.000000 0.000000
# 4 0.000000 0.000000 0.000000 0.006304 0.000000 0.000000
# 5 0.000000 0.000000 0.000000 0.000000 0.026223 0.000000
# 6 0.000000 0.000000 0.000000 0.000000 0.000000 -0.081885
#
#
# Mechanical properties :
#
#
# Convention : Reuss Voigt Hill
#
# Bulk Modulus (GPa) = 30.41682 30.98319 30.70001
# Shear Modulus (GPa) = 60.93483 45.22627 53.08055
#
# Velocity S-wave (km/s) = 5.29012 4.55752 4.93743
# Velocity P-wave (km/s) = 7.16124 6.47489 6.82669
#
# Compressibility (1/GPa) = 0.03287655
#
# Stress axis : x y z
#
# Youngs Moduli (GPa) = 32.29898 61.66266 33.91344
#
# Poissons Ratio (x) = 0.19448 0.64942
# Poissons Ratio (y) = 0.10187 -0.01387
# Poissons Ratio (z) = 0.61850 -0.02522
#
# Static dielectric constant tensor:
#      x y z
#    x 1.775800 0.000000 0.000000 
#    y 0.000000 1.835260 0.000000 
#    z 0.000000 0.000000 1.911580 
# 
# From -- ./inp_files/25216.got.cif
#   From: 2010.05.17/outbox.cif.g08.bks.cpg/sg24_13_cif.got.tgz:25216.got - 2010.06.04 00:33:39.
