data_PCOD9334202
_publ_section_title
;
Structure prediction by ZEFSAII (Michael W. Deem and Ramdas Pophale) SiO2 
 PCOD9334202
Probable space group: I 21 21 21
;
_chemical_formula_sum "Si O2"
_cell_formula_units_Z 64
_cell_length_a 10.964030
_cell_length_b 29.551232
_cell_length_c 9.909527
_cell_angle_alpha 90.000000
_cell_angle_beta 90.000000
_cell_angle_gamma 90.000000
_cell_volume 3210.692636
_symmetry_space_group_name_H-M "I 21 21 21"
_symmetry_group_IT_number 24
_symmetry_cell_setting 'orthorhombic'
loop_
_space_group_symop_operation_xyz
x,y,z
-x,1/2-y,z
x,-y,1/2-z
1/2-x,y,-z
1/2+x,1/2+y,1/2+z
1/2-x,-y,1/2+z
1/2+x,1/2-y,-z
-x,1/2+y,1/2-z
loop_
_atom_site_type_symbol
_atom_site_label
_atom_site_fract_x
_atom_site_fract_y
_atom_site_fract_z
Si Si1 0.479083 0.053104 0.841190
Si Si2 0.505812 0.303769 0.269917
Si Si3 0.886011 0.467063 0.448936
Si Si4 0.229071 0.645891 0.659844
Si Si5 0.742104 0.041642 0.162057
Si Si6 0.603045 0.630181 0.001420
Si Si7 0.491096 0.848928 0.704831
Si Si8 0.385349 0.783026 0.493796
O O1 0.393302 0.045758 0.710708
O O2 0.617083 0.046683 0.790967
O O3 0.471536 0.105007 0.881725
O O4 0.453557 0.015196 0.952667
O O5 0.500000 0.250000 0.304519
O O6 0.375056 0.321711 0.217352
O O7 0.549414 0.334966 0.391877
O O8 0.600460 0.310276 0.145856
O O9 0.750000 0.474168 0.500000
O O10 0.936688 0.422424 0.522916
O O11 0.250000 0.650730 0.500000
O O12 0.192621 0.592828 0.682369
O O13 0.363257 0.657515 0.716713
O O14 0.689139 0.000000 0.250000
O O15 0.750000 0.032641 0.000000
O O16 0.558610 0.644016 0.853633
O O17 0.750000 0.630282 0.000000
O O18 0.416842 0.811339 0.625840
O O19 0.500000 0.750000 0.483290
O O20 0.250000 0.763058 0.500000
#
# Coordination Sequence:
#
# PCOD9334202 Si02
#       8
#     8   8   8   8   8   8   8   8
#     4   9  18  36  58  88 125 164 207 261 314 370
#     4  11  25  42  66  91 131 167 213 281 333 392
#     4   9  17  33  62  82 119 170 204 250 311 373
#     4  10  21  42  65  96 134 169 216 277 327 382
#     4  10  20  36  63  91 131 174 206 263 322 383
#     4  10  22  42  60  90 132 170 211 270 328 385
#     4  10  21  39  69  90 127 172 210 268 329 396
#     4  11  25  41  68  97 121 169 220 268 334 397
#
# _framework density 19.933394
#
# number of rings (size 3 to 8) (size 9 to 14) (size 15 to 20)
#    0.000    2.000    2.500    0.750    3.500    2.500 
#    2.250    2.500    2.750    0.000    0.000    0.000 
#    0.000    0.000    0.000    0.000    0.000    0.000 
#
# Total GULP energy -178344.346133 kJ/mol
# GULP energy per Si atom -5573.260817 kJ/mol
# Density = 1.988802 g / cm^3
# Si number density = 19.933394 Si / 1000 Ang^3
#
#
#
# Elastic Constant Matrix: (Units=GPa)
#
#
# Indices 1 2 3 4 5 6 
#
# 1 100.2248 54.3636 37.1983 0.0005 0.0004 -0.0002
# 2 54.3636 123.7147 41.3489 0.0006 -0.0001 -0.0003
# 3 37.1983 41.3489 71.1867 0.0028 0.0002 -0.0016
# 4 0.0005 0.0006 0.0028 24.5254 0.0001 -0.0004
# 5 0.0004 -0.0001 0.0002 0.0001 30.0268 0.0000
# 6 -0.0002 -0.0003 -0.0016 -0.0004 0.0000 26.8241
#
#
#
# Elastic Compliance Matrix: (Units=1/GPa)
#
#
# Indices 1 2 3 4 5 6 
#
# 1 0.014281 -0.004692 -0.004737 0.000000 0.000000 0.000000
# 2 -0.004692 0.011572 -0.004270 0.000000 0.000000 0.000000
# 3 -0.004737 -0.004270 0.019003 -0.000002 0.000000 0.000001
# 4 0.000000 0.000000 -0.000002 0.040774 0.000000 0.000001
# 5 0.000000 0.000000 0.000000 0.000000 0.033304 0.000000
# 6 0.000000 0.000000 0.000001 0.000001 0.000000 0.037280
#
#
# Mechanical properties :
#
#
# Convention : Reuss Voigt Hill
#
# Bulk Modulus (GPa) = 57.28011 62.32752 59.80382
# Shear Modulus (GPa) = 26.39492 27.08961 26.74227
#
# Velocity S-wave (km/s) = 3.64284 3.69047 3.66673
# Velocity P-wave (km/s) = 6.81850 7.03528 6.92774
#
# Compressibility (1/GPa) = 0.01745807
#
# Stress axis : x y z
#
# Youngs Moduli (GPa) = 70.02419 86.41504 52.62354
#
# Poissons Ratio (x) = 0.40547 0.24927
# Poissons Ratio (y) = 0.32857 0.22469
# Poissons Ratio (z) = 0.33170 0.36897
#
# Static dielectric constant tensor:
#      x y z
#    x 1.732680 0.000000 0.000000 
#    y 0.000000 1.799400 0.000000 
#    z 0.000000 0.000000 1.703380 
# 
# From -- ./inp_files/11640.got.cif
#   From: 2010.05.17/outbox.cif.g08.bks.cpg/sg24_6_cif.got.tgz:11640.got - 2010.06.04 00:33:39.
