data_PCOD9334898
_publ_section_title
;
Structure prediction by ZEFSAII (Michael W. Deem and Ramdas Pophale) SiO2 
 PCOD9334898
Probable space group: I 21 21 21
;
_chemical_formula_sum "Si O2"
_cell_formula_units_Z 56
_cell_length_a 23.986927
_cell_length_b 5.103666
_cell_length_c 24.657815
_cell_angle_alpha 90.000000
_cell_angle_beta 90.000000
_cell_angle_gamma 90.000000
_cell_volume 3018.640874
_symmetry_space_group_name_H-M "I 21 21 21"
_symmetry_group_IT_number 24
_symmetry_cell_setting 'orthorhombic'
loop_
_space_group_symop_operation_xyz
x,y,z
-x,1/2-y,z
x,-y,1/2-z
1/2-x,y,-z
1/2+x,1/2+y,1/2+z
1/2-x,-y,1/2+z
1/2+x,1/2-y,-z
-x,1/2+y,1/2-z
loop_
_atom_site_type_symbol
_atom_site_label
_atom_site_fract_x
_atom_site_fract_y
_atom_site_fract_z
Si Si1 0.960090 0.497333 0.687854
Si Si2 0.341769 0.858353 0.871219
Si Si3 0.819336 0.802858 0.560866
Si Si4 0.354382 0.794124 0.124097
Si Si5 0.812748 0.869512 0.435157
Si Si6 0.259401 0.249630 0.288298
Si Si7 0.433879 0.751207 0.786807
O O1 0.937911 0.500000 0.750000
O O2 0.910033 0.430761 0.647194
O O3 0.000000 0.250000 0.685081
O O4 0.000000 0.750000 0.678300
O O5 0.333636 0.657149 0.920316
O O6 0.292727 0.798502 0.828064
O O7 0.398591 0.785861 0.840869
O O8 0.336082 0.152965 0.893343
O O9 0.827150 0.518104 0.586833
O O10 0.828464 0.797452 0.496494
O O11 0.754383 0.875263 0.569635
O O12 0.857134 0.024521 0.589910
O O13 0.313992 0.725983 0.174378
O O14 0.251098 0.500000 0.250000
O O15 0.265729 0.000000 0.250000
O O16 0.500000 0.750000 0.797817
O O17 0.419787 0.500000 0.750000
O O18 0.420515 0.000000 0.750000
#
# Coordination Sequence:
#
# PCOD9334898 Si02
#       7
#     8   8   8   8   8   8   8
#     4  10  22  40  61  86 115 156 202 239 286 356
#     4  12  21  38  58  86 121 158 193 244 297 351
#     4  11  22  39  59  87 117 155 201 243 293 361
#     4  12  22  39  61  86 119 153 195 246 299 351
#     4  11  22  38  60  85 119 155 201 242 293 361
#     4  12  23  34  52  86 124 152 184 235 304 362
#     4  10  21  38  60  86 117 159 203 237 281 351
#
# _framework density 18.551396
#
# number of rings (size 3 to 8) (size 9 to 14) (size 15 to 20)
#    0.000    0.857    2.857    5.571    0.000    4.000 
#    0.000    0.000    0.000    8.571    0.000    0.000 
#    0.000    0.000    0.000    0.000    0.000    0.000 
#
# Total GULP energy -156465.712466 kJ/mol
# GULP energy per Si atom -5588.061159 kJ/mol
# Density = 1.850917 g / cm^3
# Si number density = 18.551396 Si / 1000 Ang^3
#
#
#
# Elastic Constant Matrix: (Units=GPa)
#
#
# Indices 1 2 3 4 5 6 
#
# 1 34.9597 -4.2918 18.9551 0.0000 0.0000 0.0000
# 2 -4.2918 44.0892 -7.6063 0.0000 0.0000 0.0000
# 3 18.9551 -7.6063 68.3684 0.0000 0.0000 0.0000
# 4 0.0000 0.0000 0.0000 35.5753 0.0000 0.0000
# 5 0.0000 0.0000 0.0000 0.0000 23.4396 0.0000
# 6 0.0000 0.0000 0.0000 0.0000 0.0000 25.0314
#
#
#
# Elastic Compliance Matrix: (Units=1/GPa)
#
#
# Indices 1 2 3 4 5 6 
#
# 1 0.033790 0.001706 -0.009179 0.000000 0.000000 0.000000
# 2 0.001706 0.023211 0.002109 0.000000 0.000000 0.000000
# 3 -0.009179 0.002109 0.017406 0.000000 0.000000 0.000000
# 4 0.000000 0.000000 0.000000 0.028109 0.000000 0.000000
# 5 0.000000 0.000000 0.000000 0.000000 0.042663 0.000000
# 6 0.000000 0.000000 0.000000 0.000000 0.000000 0.039950
#
#
# Mechanical properties :
#
#
# Convention : Reuss Voigt Hill
#
# Bulk Modulus (GPa) = 15.70328 17.94792 16.82560
# Shear Modulus (GPa) = 23.03261 26.16660 24.59960
#
# Velocity S-wave (km/s) = 3.52740 3.75973 3.64541
# Velocity P-wave (km/s) = 5.00731 5.34257 5.17766
#
# Compressibility (1/GPa) = 0.06368096
#
# Stress axis : x y z
#
# Youngs Moduli (GPa) = 29.59427 43.08253 57.45117
#
# Poissons Ratio (x) = -0.07349 0.52732
# Poissons Ratio (y) = -0.05048 -0.12119
# Poissons Ratio (z) = 0.27163 -0.09088
#
# Static dielectric constant tensor:
#      x y z
#    x 1.608950 0.000000 0.000000 
#    y 0.000000 1.620550 0.000000 
#    z 0.000000 0.000000 1.640020 
# 
# From -- ./inp_files/34258.got.cif
#   From: 2010.05.17/outbox.cif.g08.bks.cpg/sg24_18_cif.got.tgz:34258.got - 2010.06.04 00:33:39.
