data_PCOD9334727
_publ_section_title
;
Structure prediction by ZEFSAII (Michael W. Deem and Ramdas Pophale) SiO2 
 PCOD9334727
Probable space group: I 21 21 21
;
_chemical_formula_sum "Si O2"
_cell_formula_units_Z 48
_cell_length_a 9.495599
_cell_length_b 27.120652
_cell_length_c 8.263008
_cell_angle_alpha 90.000000
_cell_angle_beta 90.000000
_cell_angle_gamma 90.000000
_cell_volume 2127.946306
_symmetry_space_group_name_H-M "I 21 21 21"
_symmetry_group_IT_number 24
_symmetry_cell_setting 'orthorhombic'
loop_
_space_group_symop_operation_xyz
x,y,z
-x,1/2-y,z
x,-y,1/2-z
1/2-x,y,-z
1/2+x,1/2+y,1/2+z
1/2-x,-y,1/2+z
1/2+x,1/2-y,-z
-x,1/2+y,1/2-z
loop_
_atom_site_type_symbol
_atom_site_label
_atom_site_fract_x
_atom_site_fract_y
_atom_site_fract_z
Si Si1 0.194057 0.625697 0.268340
Si Si2 0.631181 0.285527 0.899834
Si Si3 0.607076 0.401186 0.401055
Si Si4 0.475573 0.193562 0.577990
Si Si5 0.984712 0.872230 0.576787
Si Si6 0.142318 0.534971 0.891717
O O1 0.086021 0.607932 0.409413
O O2 0.341347 0.647099 0.337450
O O3 0.256266 0.578695 0.174284
O O4 0.110565 0.666864 0.164556
O O5 0.500000 0.250000 0.882304
O O6 0.646530 0.304658 0.716816
O O7 0.750000 0.258201 0.000000
O O8 0.587855 0.330054 0.015548
O O9 0.750000 0.410878 0.500000
O O10 0.566245 0.344910 0.441910
O O11 0.574683 0.404075 0.206835
O O12 0.490805 0.438784 0.471317
O O13 0.500000 0.250000 0.525397
O O14 0.092027 0.500000 0.750000
O O15 0.250000 0.504048 0.000000
#
# Coordination Sequence:
#
# PCOD9334727 Si02
#       6
#     8   8   8   8   8   8
#     4   9  19  40  63  98 132 170 228 297 333 407
#     4  10  21  33  53  81 119 169 231 279 322 392
#     4  11  23  43  62  96 144 178 220 288 346 426
#     4  10  21  37  61  91 138 186 226 274 341 407
#     4   9  20  34  62  85 126 175 221 273 341 395
#     4  11  24  43  75 102 133 174 236 299 361 416
#
# _framework density 22.556961999999999
#
# number of rings (size 3 to 8) (size 9 to 14) (size 15 to 20)
#    0.000    2.000    1.667    1.000   11.667    0.667 
#    6.000    0.833    0.000    4.000    0.000    0.000 
#    0.000    0.000    0.000    0.000    0.000    0.000 
#
# Total GULP energy -133687.943738 kJ/mol
# GULP energy per Si atom -5570.330989 kJ/mol
# Density = 2.250562 g / cm^3
# Si number density = 22.556962 Si / 1000 Ang^3
#
#
#
# Elastic Constant Matrix: (Units=GPa)
#
#
# Indices 1 2 3 4 5 6 
#
# 1 112.9429 34.6582 44.6234 -0.0003 0.0006 0.0000
# 2 34.6582 74.9712 17.0048 0.0001 0.0002 -0.0001
# 3 44.6234 17.0048 62.8647 0.0004 -0.0028 0.0001
# 4 -0.0003 0.0001 0.0004 26.0174 0.0002 -0.0003
# 5 0.0006 0.0002 -0.0028 0.0002 37.3318 -0.0001
# 6 0.0000 -0.0001 0.0001 -0.0003 -0.0001 18.8461
#
#
#
# Elastic Compliance Matrix: (Units=1/GPa)
#
#
# Indices 1 2 3 4 5 6 
#
# 1 0.013510 -0.004336 -0.008417 0.000000 -0.000001 0.000000
# 2 -0.004336 0.015602 -0.001142 0.000000 0.000000 0.000000
# 3 -0.008417 -0.001142 0.022191 0.000000 0.000002 0.000000
# 4 0.000000 0.000000 0.000000 0.038436 0.000000 0.000001
# 5 -0.000001 0.000000 0.000002 0.000000 0.026787 0.000000
# 6 0.000000 0.000000 0.000000 0.000001 0.000000 0.053061
#
#
# Mechanical properties :
#
#
# Convention : Reuss Voigt Hill
#
# Bulk Modulus (GPa) = 42.53164 49.26128 45.89646
# Shear Modulus (GPa) = 24.36456 26.73856 25.55156
#
# Velocity S-wave (km/s) = 3.29011 3.44667 3.36930
# Velocity P-wave (km/s) = 5.77315 6.14210 5.96048
#
# Compressibility (1/GPa) = 0.02351191
#
# Stress axis : x y z
#
# Youngs Moduli (GPa) = 74.01760 64.09345 45.06366
#
# Poissons Ratio (x) = 0.27794 0.37930
# Poissons Ratio (y) = 0.32098 0.05147
# Poissons Ratio (z) = 0.62301 0.07321
#
# Static dielectric constant tensor:
#      x y z
#    x 1.881510 0.000000 0.000000 
#    y 0.000000 1.806080 0.000000 
#    z 0.000000 0.000000 2.017490 
# 
# From -- ./inp_files/9737.got.cif
#   From: 2010.05.17/outbox.cif.g08.bks.cpg/sg24_5_cif.got.tgz:9737.got - 2010.06.04 00:33:39.
