data_PCOD9334896
_publ_section_title
;
Structure prediction by ZEFSAII (Michael W. Deem and Ramdas Pophale) SiO2 
 PCOD9334896
Probable space group: I 21 21 21
;
_chemical_formula_sum "Si O2"
_cell_formula_units_Z 48
_cell_length_a 24.104070
_cell_length_b 5.015593
_cell_length_c 18.426901
_cell_angle_alpha 90.000000
_cell_angle_beta 90.000000
_cell_angle_gamma 90.000000
_cell_volume 2227.742396
_symmetry_space_group_name_H-M "I 21 21 21"
_symmetry_group_IT_number 24
_symmetry_cell_setting 'orthorhombic'
loop_
_space_group_symop_operation_xyz
x,y,z
-x,1/2-y,z
x,-y,1/2-z
1/2-x,y,-z
1/2+x,1/2+y,1/2+z
1/2-x,-y,1/2+z
1/2+x,1/2-y,-z
-x,1/2+y,1/2-z
loop_
_atom_site_type_symbol
_atom_site_label
_atom_site_fract_x
_atom_site_fract_y
_atom_site_fract_z
Si Si1 0.112089 0.801201 0.959433
Si Si2 0.460083 0.997445 0.173751
Si Si3 0.064756 0.721629 0.462180
Si Si4 0.727077 0.902193 0.670411
Si Si5 0.401221 0.259620 0.799722
Si Si6 0.265357 0.897231 0.082677
O O1 0.075777 0.923623 0.894748
O O2 0.173112 0.779111 0.926884
O O3 0.089115 0.530320 0.994161
O O4 0.104155 0.027728 0.019758
O O5 0.500000 0.750000 0.185468
O O6 0.500000 0.250000 0.161513
O O7 0.426913 0.000000 0.250000
O O8 0.067746 0.710491 0.375632
O O9 0.000000 0.750000 0.483273
O O10 0.664316 0.799952 0.682302
O O11 0.760313 0.657751 0.633570
O O12 0.747707 0.000000 0.750000
O O13 0.728837 0.159257 0.617384
O O14 0.420106 0.500000 0.750000
O O15 0.407923 0.000000 0.750000
O O16 0.250000 0.971199 0.000000
#
# Coordination Sequence:
#
# PCOD9334896 Si02
#       6
#     8   8   8   8   8   8
#     4  12  24  41  63  93 127 167 214 265 320 376
#     4  10  21  38  60  85 118 160 206 257 314 374
#     4  12  25  42  66  94 129 169 215 267 319 379
#     4  11  23  42  65  94 129 170 212 263 325 384
#     4  11  23  42  67  95 129 169 212 260 320 385
#     4  12  24  41  65  93 129 169 216 266 317 382
#
# _framework density 21.546475000000001
#
# number of rings (size 3 to 8) (size 9 to 14) (size 15 to 20)
#    0.000    0.667    0.000   10.000    0.000    2.000 
#    0.000    1.667    0.000    0.000    0.000    0.000 
#    0.000    0.000    0.000    0.000    0.000    0.000 
#
# Total GULP energy -134133.269514 kJ/mol
# GULP energy per Si atom -5588.886230 kJ/mol
# Density = 2.149743 g / cm^3
# Si number density = 21.546475 Si / 1000 Ang^3
#
#
#
# Elastic Constant Matrix: (Units=GPa)
#
#
# Indices 1 2 3 4 5 6 
#
# 1 43.7681 22.6519 27.6322 0.0000 0.0000 0.0000
# 2 22.6519 151.9587 31.4668 0.0000 0.0000 0.0000
# 3 27.6322 31.4668 130.2441 0.0000 0.0000 0.0000
# 4 0.0000 0.0000 0.0000 28.2015 0.0000 0.0000
# 5 0.0000 0.0000 0.0000 0.0000 28.1310 0.0000
# 6 0.0000 0.0000 0.0000 0.0000 0.0000 4.9197
#
#
#
# Elastic Compliance Matrix: (Units=1/GPa)
#
#
# Indices 1 2 3 4 5 6 
#
# 1 0.027672 -0.003062 -0.005131 0.000000 0.000000 0.000000
# 2 -0.003062 0.007266 -0.001106 0.000000 0.000000 0.000000
# 3 -0.005131 -0.001106 0.009034 0.000000 0.000000 0.000000
# 4 0.000000 0.000000 0.000000 0.035459 0.000000 0.000000
# 5 0.000000 0.000000 0.000000 0.000000 0.035548 0.000000
# 6 0.000000 0.000000 0.000000 0.000000 0.000000 0.203263
#
#
# Mechanical properties :
#
#
# Convention : Reuss Voigt Hill
#
# Bulk Modulus (GPa) = 39.41128 54.38586 46.89857
# Shear Modulus (GPa) = 14.48025 28.53178 21.50602
#
# Velocity S-wave (km/s) = 2.59520 3.64290 3.16273
# Velocity P-wave (km/s) = 5.22600 6.55670 5.92880
#
# Compressibility (1/GPa) = 0.02537345
#
# Stress axis : x y z
#
# Youngs Moduli (GPa) = 36.13768 137.62304 110.69771
#
# Poissons Ratio (x) = 0.42147 0.56798
# Poissons Ratio (y) = 0.11067 0.12241
# Poissons Ratio (z) = 0.18542 0.15218
#
# Static dielectric constant tensor:
#      x y z
#    x 1.784880 0.000000 0.000000 
#    y 0.000000 1.823670 0.000000 
#    z 0.000000 0.000000 1.850690 
# 
# From -- ./inp_files/28021.got.cif
#   From: 2010.05.17/outbox.cif.g08.bks.cpg/sg24_15_cif.got.tgz:28021.got - 2010.06.04 00:33:39.
