data_PCOD9335341
_publ_section_title
;
Structure prediction by ZEFSAII (Michael W. Deem and Ramdas Pophale) SiO2 
 PCOD9335341
Probable space group: I 21 21 21
;
_chemical_formula_sum "Si O2"
_cell_formula_units_Z 36
_cell_length_a 9.511684
_cell_length_b 7.952222
_cell_length_c 21.147032
_cell_angle_alpha 90.000000
_cell_angle_beta 90.000000
_cell_angle_gamma 90.000000
_cell_volume 1599.540835
_symmetry_space_group_name_H-M "I 21 21 21"
_symmetry_group_IT_number 24
_symmetry_cell_setting 'orthorhombic'
loop_
_space_group_symop_operation_xyz
x,y,z
-x,1/2-y,z
x,-y,1/2-z
1/2-x,y,-z
1/2+x,1/2+y,1/2+z
1/2-x,-y,1/2+z
1/2+x,1/2-y,-z
-x,1/2+y,1/2-z
loop_
_atom_site_type_symbol
_atom_site_label
_atom_site_fract_x
_atom_site_fract_y
_atom_site_fract_z
Si Si1 0.658085 0.689943 0.434973
Si Si2 0.125600 0.354663 0.295179
Si Si3 0.400598 0.411674 0.909296
Si Si4 0.250000 0.370298 0.500000
Si Si5 0.151540 0.827159 0.876243
O O1 0.500000 0.750000 0.446742
O O2 0.750000 0.661087 0.500000
O O3 0.744594 0.836069 0.399067
O O4 0.653793 0.523357 0.392664
O O5 0.181978 0.500000 0.250000
O O6 0.061442 0.455366 0.355542
O O7 0.242166 0.229686 0.321712
O O8 0.000000 0.250000 0.263543
O O9 0.500000 0.250000 0.910855
O O10 0.378798 0.515646 0.974168
O O11 0.202328 0.261540 0.558952
O O12 0.000000 0.750000 0.861663
#
# Coordination Sequence:
#
# PCOD9335341 Si02
#       5
#     8   8   8   4   8
#     4  12  24  40  63  97 142 184 222 269 332 409
#     4  11  25  48  72  99 133 178 235 294 346 408
#     4  11  23  39  64  99 133 181 227 277 336 407
#     4  10  22  36  62  98 144 176 220 268 338 410
#     4  11  25  43  67 103 141 184 228 284 341 409
#
# _framework density 22.506457000000001
#
# number of rings (size 3 to 8) (size 9 to 14) (size 15 to 20)
#    0.000    0.889    2.222    5.333    3.111    3.556 
#    0.000    4.444    0.000    0.000    0.000    0.000 
#    0.000    0.000    0.000    0.000    0.000    0.000 
#
# Total GULP energy -100713.592478 kJ/mol
# GULP energy per Si atom -5595.199582 kJ/mol
# Density = 2.245523 g / cm^3
# Si number density = 22.506457 Si / 1000 Ang^3
#
#
#
# Elastic Constant Matrix: (Units=GPa)
#
#
# Indices 1 2 3 4 5 6 
#
# 1 129.9742 27.2805 9.5997 0.0000 0.0000 0.0000
# 2 27.2805 107.6666 13.2036 0.0000 0.0000 0.0000
# 3 9.5997 13.2036 46.5953 0.0000 0.0000 0.0000
# 4 0.0000 0.0000 0.0000 35.6735 0.0000 0.0000
# 5 0.0000 0.0000 0.0000 0.0000 13.3413 0.0000
# 6 0.0000 0.0000 0.0000 0.0000 0.0000 36.5952
#
#
#
# Elastic Compliance Matrix: (Units=1/GPa)
#
#
# Indices 1 2 3 4 5 6 
#
# 1 0.008184 -0.001934 -0.001138 0.000000 0.000000 0.000000
# 2 -0.001934 0.010079 -0.002458 0.000000 0.000000 0.000000
# 3 -0.001138 -0.002458 0.022392 0.000000 0.000000 0.000000
# 4 0.000000 0.000000 0.000000 0.028032 0.000000 0.000000
# 5 0.000000 0.000000 0.000000 0.000000 0.074955 0.000000
# 6 0.000000 0.000000 0.000000 0.000000 0.000000 0.027326
#
#
# Mechanical properties :
#
#
# Convention : Reuss Voigt Hill
#
# Bulk Modulus (GPa) = 33.78842 42.71153 38.24997
# Shear Modulus (GPa) = 26.05614 32.73216 29.39415
#
# Velocity S-wave (km/s) = 3.40622 3.81773 3.61783
# Velocity P-wave (km/s) = 5.52405 6.20097 5.87227
#
# Compressibility (1/GPa) = 0.02959594
#
# Stress axis : x y z
#
# Youngs Moduli (GPa) = 122.19224 99.21249 44.65830
#
# Poissons Ratio (x) = 0.19188 0.05082
# Poissons Ratio (y) = 0.23633 0.10976
# Poissons Ratio (z) = 0.13905 0.24383
#
# Static dielectric constant tensor:
#      x y z
#    x 1.850450 0.000000 0.000000 
#    y 0.000000 1.848810 0.000000 
#    z 0.000000 0.000000 1.862190 
# 
# From -- ./inp_files/9046.got.cif
#   From: 2010.05.17/outbox.cif.g08.bks.cpg/sg24_5_cif.got.tgz:9046.got - 2010.06.04 00:33:39.
