data_PCOD9335250
_publ_section_title
;
Structure prediction by ZEFSAII (Michael W. Deem and Ramdas Pophale) SiO2 
 PCOD9335250
Probable space group: I 21 21 21
;
_chemical_formula_sum "Si O2"
_cell_formula_units_Z 44
_cell_length_a 12.025736
_cell_length_b 10.221872
_cell_length_c 14.418418
_cell_angle_alpha 90.000000
_cell_angle_beta 90.000000
_cell_angle_gamma 90.000000
_cell_volume 1772.391733
_symmetry_space_group_name_H-M "I 21 21 21"
_symmetry_group_IT_number 24
_symmetry_cell_setting 'orthorhombic'
loop_
_space_group_symop_operation_xyz
x,y,z
-x,1/2-y,z
x,-y,1/2-z
1/2-x,y,-z
1/2+x,1/2+y,1/2+z
1/2-x,-y,1/2+z
1/2+x,1/2-y,-z
-x,1/2+y,1/2-z
loop_
_atom_site_type_symbol
_atom_site_label
_atom_site_fract_x
_atom_site_fract_y
_atom_site_fract_z
Si Si1 0.253907 0.248553 0.890093
Si Si2 0.263954 0.319169 0.701453
Si Si3 0.964049 0.890532 0.065667
Si Si4 0.038453 0.380320 0.922591
Si Si5 0.712026 0.441278 0.605743
Si Si6 0.061757 0.500000 0.750000
O O1 0.319918 0.313604 0.804981
O O2 0.135379 0.309408 0.865641
O O3 0.262003 0.093795 0.883526
O O4 0.250000 0.282274 0.000000
O O5 0.357375 0.369560 0.630192
O O6 0.238409 0.169867 0.671630
O O7 0.152242 0.406078 0.696655
O O8 0.000000 0.750000 0.022495
O O9 0.078329 0.930858 0.116276
O O10 0.939938 0.005163 0.993549
O O11 0.983018 0.447148 0.832871
O O12 0.000000 0.250000 0.977759
O O13 0.750000 0.408982 0.500000
#
# Coordination Sequence:
#
# PCOD9335250 Si02
#       6
#     8   8   8   8   8   4
#     4  10  22  43  70  98 141 187 237 292 369 431
#     4  10  23  43  65 105 139 187 238 297 364 437
#     4  10  24  44  70 106 142 182 241 294 363 436
#     4  11  24  45  67 103 137 187 244 301 363 431
#     4  10  21  43  72 105 141 193 235 294 370 431
#     4  10  26  42  66 100 136 194 238 302 370 426
#
# _framework density 24.825210999999999
#
# number of rings (size 3 to 8) (size 9 to 14) (size 15 to 20)
#    0.000    1.818    0.000    2.727   10.182    0.727 
#   19.636    2.727    0.000    0.000    0.000    0.000 
#    0.000    0.000    0.000    0.000    0.000    0.000 
#
# Total GULP energy -122489.969277 kJ/mol
# GULP energy per Si atom -5567.725876 kJ/mol
# Density = 2.476871 g / cm^3
# Si number density = 24.825211 Si / 1000 Ang^3
#
#
#
# Elastic Constant Matrix: (Units=GPa)
#
#
# Indices 1 2 3 4 5 6 
#
# 1 40.0750 16.6807 -12.8931 0.0000 0.0000 0.0000
# 2 16.6807 163.6698 59.5397 0.0000 0.0000 0.0000
# 3 -12.8931 59.5397 128.2672 0.0000 0.0000 0.0000
# 4 0.0000 0.0000 0.0000 34.4745 0.0000 0.0000
# 5 0.0000 0.0000 0.0000 0.0000 4.6574 0.0000
# 6 0.0000 0.0000 0.0000 0.0000 0.0000 32.5567
#
#
#
# Elastic Compliance Matrix: (Units=1/GPa)
#
#
# Indices 1 2 3 4 5 6 
#
# 1 0.028569 -0.004760 0.005081 0.000000 0.000000 0.000000
# 2 -0.004760 0.008144 -0.004259 0.000000 0.000000 0.000000
# 3 0.005081 -0.004259 0.010284 0.000000 0.000000 0.000000
# 4 0.000000 0.000000 0.000000 0.029007 0.000000 0.000000
# 5 0.000000 0.000000 0.000000 0.000000 0.214710 0.000000
# 6 0.000000 0.000000 0.000000 0.000000 0.000000 0.030716
#
#
# Mechanical properties :
#
#
# Convention : Reuss Voigt Hill
#
# Bulk Modulus (GPa) = 25.56108 50.96296 38.26202
# Shear Modulus (GPa) = 14.60507 32.25005 23.42756
#
# Velocity S-wave (km/s) = 2.42815 3.60819 3.07530
# Velocity P-wave (km/s) = 4.26380 6.15890 5.29679
#
# Compressibility (1/GPa) = 0.03912198
#
# Stress axis : x y z
#
# Youngs Moduli (GPa) = 35.00253 122.78493 97.23919
#
# Poissons Ratio (x) = 0.58448 -0.49410
# Poissons Ratio (y) = 0.16662 0.41414
# Poissons Ratio (z) = -0.17786 0.52293
#
# Static dielectric constant tensor:
#      x y z
#    x 2.172740 0.000000 0.000000 
#    y 0.000000 2.310540 0.000000 
#    z 0.000000 0.000000 2.225360 
# 
# From -- ./inp_files/30675.got.cif
#   From: 2010.05.17/outbox.cif.g08.bks.cpg/sg24_16_cif.got.tgz:30675.got - 2010.06.04 00:33:39.
