data_PCOD9335642
_publ_section_title
;
Structure prediction by ZEFSAII (Michael W. Deem and Ramdas Pophale) SiO2 
 PCOD9335642
Probable space group: I 21 21 21
;
_chemical_formula_sum "Si O2"
_cell_formula_units_Z 40
_cell_length_a 17.880213
_cell_length_b 5.886482
_cell_length_c 16.487671
_cell_angle_alpha 90.000000
_cell_angle_beta 90.000000
_cell_angle_gamma 90.000000
_cell_volume 1735.352961
_symmetry_space_group_name_H-M "I 21 21 21"
_symmetry_group_IT_number 24
_symmetry_cell_setting 'orthorhombic'
loop_
_space_group_symop_operation_xyz
x,y,z
-x,1/2-y,z
x,-y,1/2-z
1/2-x,y,-z
1/2+x,1/2+y,1/2+z
1/2-x,-y,1/2+z
1/2+x,1/2-y,-z
-x,1/2+y,1/2-z
loop_
_atom_site_type_symbol
_atom_site_label
_atom_site_fract_x
_atom_site_fract_y
_atom_site_fract_z
Si Si1 0.374361 0.061532 0.487957
Si Si2 0.706864 0.000000 0.250000
Si Si3 0.577455 0.140906 0.339961
Si Si4 0.834368 0.924076 0.116785
Si Si5 0.958735 0.000000 0.250000
Si Si6 0.750000 0.250947 0.000000
Si Si7 0.000000 0.250000 0.932574
O O1 0.394162 0.248598 0.422582
O O2 0.350433 0.184162 0.571789
O O3 0.305026 0.918395 0.452447
O O4 0.448711 0.908975 0.489029
O O5 0.642189 0.181374 0.274101
O O6 0.763646 0.045372 0.323358
O O7 0.500000 0.250000 0.312492
O O8 0.554046 0.892872 0.373377
O O9 0.905933 0.990013 0.170186
O O10 0.809044 0.098445 0.047529
O O11 0.000000 0.750000 0.251628
#
# Coordination Sequence:
#
# PCOD9335642 Si02
#       7
#     8   4   8   8   4   4   4
#     4  11  23  44  70 106 143 181 250 311 373 449
#     4  11  22  44  66  97 146 190 232 289 374 454
#     4  10  23  42  66 105 143 183 235 294 362 448
#     4  11  26  47  74 107 146 195 254 318 380 456
#     4  11  30  56  78 113 158 208 264 321 400 480
#     4  12  24  44  74 106 140 188 246 318 374 442
#     4  10  22  42  70 102 138 184 236 304 384 434
#
# _framework density 23.050066000000001
#
# number of rings (size 3 to 8) (size 9 to 14) (size 15 to 20)
#    0.000    1.200    0.000    5.400    4.200    4.000 
#    1.800    4.000    0.000    0.000    0.000    0.000 
#    0.000    0.000    0.000    0.000    0.000    0.000 
#
# Total GULP energy -111367.805975 kJ/mol
# GULP energy per Si atom -5568.390299 kJ/mol
# Density = 2.299760 g / cm^3
# Si number density = 23.050066 Si / 1000 Ang^3
#
#
#
# Elastic Constant Matrix: (Units=GPa)
#
#
# Indices 1 2 3 4 5 6 
#
# 1 163.3816 75.9004 69.3713 0.0000 0.0000 0.0000
# 2 75.9004 122.7821 55.5169 0.0000 0.0000 0.0000
# 3 69.3713 55.5169 91.7846 0.0000 0.0000 0.0000
# 4 0.0000 0.0000 0.0000 -50.9705 0.0000 0.0000
# 5 0.0000 0.0000 0.0000 0.0000 22.2367 0.0000
# 6 0.0000 0.0000 0.0000 0.0000 0.0000 48.2199
#
#
#
# Elastic Compliance Matrix: (Units=1/GPa)
#
#
# Indices 1 2 3 4 5 6 
#
# 1 0.010200 -0.003881 -0.005362 0.000000 0.000000 0.000000
# 2 -0.003881 0.012687 -0.004741 0.000000 0.000000 0.000000
# 3 -0.005362 -0.004741 0.017815 0.000000 0.000000 0.000000
# 4 0.000000 0.000000 0.000000 -0.019619 0.000000 0.000000
# 5 0.000000 0.000000 0.000000 0.000000 0.044971 0.000000
# 6 0.000000 0.000000 0.000000 0.000000 0.000000 0.020738
#
#
# Mechanical properties :
#
#
# Convention : Reuss Voigt Hill
#
# Bulk Modulus (GPa) = 78.52211 86.61393 82.56802
# Shear Modulus (GPa) = 42.01516 15.70789 28.86153
#
# Velocity S-wave (km/s) = 4.27403 2.61333 3.54237
# Velocity P-wave (km/s) = 7.64829 6.83842 7.25466
#
# Compressibility (1/GPa) = 0.01273527
#
# Stress axis : x y z
#
# Youngs Moduli (GPa) = 98.03645 78.81957 56.13229
#
# Poissons Ratio (x) = 0.30591 0.30098
# Poissons Ratio (y) = 0.38049 0.26610
# Poissons Ratio (z) = 0.52566 0.37365
#
# Static dielectric constant tensor:
#      x y z
#    x 1.861550 0.000000 0.000000 
#    y 0.000000 1.954630 0.000000 
#    z 0.000000 0.000000 1.840090 
# 
# From -- ./inp_files/31041.got.cif
#   From: 2010.05.17/outbox.cif.g08.bks.cpg/sg24_16_cif.got.tgz:31041.got - 2010.06.04 00:33:39.
