data_PCOD9335506
_publ_section_title
;
Structure prediction by ZEFSAII (Michael W. Deem and Ramdas Pophale) SiO2 
 PCOD9335506
Probable space group: I 21 21 21
;
_chemical_formula_sum "Si O2"
_cell_formula_units_Z 32
_cell_length_a 13.460097
_cell_length_b 18.136102
_cell_length_c 5.058057
_cell_angle_alpha 90.000000
_cell_angle_beta 90.000000
_cell_angle_gamma 90.000000
_cell_volume 1234.740969
_symmetry_space_group_name_H-M "I 21 21 21"
_symmetry_group_IT_number 24
_symmetry_cell_setting 'orthorhombic'
loop_
_space_group_symop_operation_xyz
x,y,z
-x,1/2-y,z
x,-y,1/2-z
1/2-x,y,-z
1/2+x,1/2+y,1/2+z
1/2-x,-y,1/2+z
1/2+x,1/2-y,-z
-x,1/2+y,1/2-z
loop_
_atom_site_type_symbol
_atom_site_label
_atom_site_fract_x
_atom_site_fract_y
_atom_site_fract_z
Si Si1 0.852566 0.183795 0.668378
Si Si2 0.073005 0.157172 0.617334
Si Si3 0.859770 0.422748 0.115513
Si Si4 0.366255 0.457069 0.003773
O O1 0.750000 0.172077 0.500000
O O2 0.872336 0.269475 0.729132
O O3 0.958185 0.166276 0.525389
O O4 0.860097 0.129780 0.922720
O O5 0.131361 0.133781 0.356741
O O6 0.076001 0.101404 0.863886
O O7 0.883394 0.500000 0.250000
O O8 0.750000 0.427143 0.000000
O O9 0.407063 0.500000 0.750000
O O10 0.410724 0.500000 0.250000
O O11 0.250000 0.477411 0.000000
#
# Coordination Sequence:
#
# PCOD9335506 Si02
#       4
#     8   8   8   8
#     4  11  25  48  76 109 155 206 250 311 381 449
#     4  11  28  46  74 116 152 194 260 314 371 457
#     4  12  25  49  79 111 150 197 249 317 384 444
#     4  10  22  40  65  98 136 187 244 290 352 437
#
# _framework density 25.916364999999999
#
# number of rings (size 3 to 8) (size 9 to 14) (size 15 to 20)
#    0.000    1.000    0.000    6.750    0.000   16.000 
#    0.000    3.750    0.000    1.500    0.000    0.000 
#    0.000    0.000    0.000    0.000    0.000    0.000 
#
# Total GULP energy -89424.628684 kJ/mol
# GULP energy per Si atom -5589.039293 kJ/mol
# Density = 2.585738 g / cm^3
# Si number density = 25.916365 Si / 1000 Ang^3
#
#
#
# Elastic Constant Matrix: (Units=GPa)
#
#
# Indices 1 2 3 4 5 6 
#
# 1 162.2740 88.1508 92.5574 0.0000 0.0000 0.0000
# 2 88.1508 144.4782 74.3188 0.0000 0.0000 0.0000
# 3 92.5574 74.3188 177.0877 0.0000 0.0000 0.0000
# 4 0.0000 0.0000 0.0000 50.1399 0.0000 0.0000
# 5 0.0000 0.0000 0.0000 0.0000 19.5248 0.0000
# 6 0.0000 0.0000 0.0000 0.0000 0.0000 31.9645
#
#
#
# Elastic Compliance Matrix: (Units=1/GPa)
#
#
# Indices 1 2 3 4 5 6 
#
# 1 0.010818 -0.004708 -0.003678 0.000000 0.000000 0.000000
# 2 -0.004708 0.010876 -0.002104 0.000000 0.000000 0.000000
# 3 -0.003678 -0.002104 0.008452 0.000000 0.000000 0.000000
# 4 0.000000 0.000000 0.000000 0.019944 0.000000 0.000000
# 5 0.000000 0.000000 0.000000 0.000000 0.051217 0.000000
# 6 0.000000 0.000000 0.000000 0.000000 0.000000 0.031285
#
#
# Mechanical properties :
#
#
# Convention : Reuss Voigt Hill
#
# Bulk Modulus (GPa) = 109.09681 110.43265 109.76473
# Shear Modulus (GPa) = 31.92273 35.58004 33.75138
#
# Velocity S-wave (km/s) = 3.51345 3.70926 3.61268
# Velocity P-wave (km/s) = 7.65808 7.81335 7.73611
#
# Compressibility (1/GPa) = 0.00916617
#
# Stress axis : x y z
#
# Youngs Moduli (GPa) = 92.43752 91.94336 118.31218
#
# Poissons Ratio (x) = 0.43291 0.43518
# Poissons Ratio (y) = 0.43523 0.24888
# Poissons Ratio (z) = 0.34001 0.19341
#
# Static dielectric constant tensor:
#      x y z
#    x 2.139650 0.000000 0.000000 
#    y 0.000000 2.107810 0.000000 
#    z 0.000000 0.000000 2.126000 
# 
# From -- ./inp_files/3181.got.cif
#   From: 2010.05.17/outbox.cif.g08.bks.cpg/sg24_2_cif.got.tgz:3181.got - 2010.06.04 00:33:39.
