data_PCOD9335423
_publ_section_title
;
Structure prediction by ZEFSAII (Michael W. Deem and Ramdas Pophale) SiO2 
 PCOD9335423
Probable space group: I 21 21 21
;
_chemical_formula_sum "Si O2"
_cell_formula_units_Z 48
_cell_length_a 13.995961
_cell_length_b 12.812555
_cell_length_c 12.920970
_cell_angle_alpha 90.000000
_cell_angle_beta 90.000000
_cell_angle_gamma 90.000000
_cell_volume 2317.040284
_symmetry_space_group_name_H-M "I 21 21 21"
_symmetry_group_IT_number 24
_symmetry_cell_setting 'orthorhombic'
loop_
_space_group_symop_operation_xyz
x,y,z
-x,1/2-y,z
x,-y,1/2-z
1/2-x,y,-z
1/2+x,1/2+y,1/2+z
1/2-x,-y,1/2+z
1/2+x,1/2-y,-z
-x,1/2+y,1/2-z
loop_
_atom_site_type_symbol
_atom_site_label
_atom_site_fract_x
_atom_site_fract_y
_atom_site_fract_z
Si Si1 0.545965 0.646870 0.823071
Si Si2 0.955015 0.933509 0.383247
Si Si3 0.750000 0.726180 0.126179
Si Si4 0.045965 0.146870 0.676929
Si Si5 0.250000 0.529920 0.122905
Si Si6 0.044985 0.566491 0.616753
O O1 0.500000 0.750000 0.871358
O O2 0.512527 0.542823 0.880343
O O3 0.503416 0.633311 0.707234
O O4 0.657625 0.667907 0.829551
O O5 0.846119 0.965067 0.354521
O O6 0.957016 0.890393 0.500000
O O7 0.657625 0.667907 0.170449
O O8 0.750000 0.849087 0.158748
O O9 0.750000 0.721122 0.000000
O O10 0.012527 0.042823 0.619657
O O11 0.000000 0.250000 0.628642
O O12 0.003417 0.133311 0.792766
O O13 0.346119 0.465067 0.145479
O O14 0.250000 0.541046 0.000000
#
# Coordination Sequence:
#
# PCOD9335423 Si02
#       6
#     8   8   8   8   8   8
#     4  11  23  38  61  93 125 164 207 260 312 373
#     4  10  22  39  61  91 129 167 207 256 311 370
#     4  11  22  38  65  96 125 159 211 263 313 370
#     4  11  23  38  61  93 125 164 207 260 312 373
#     4   9  18  36  65  93 118 158 210 264 308 354
#     4  10  22  39  61  91 129 167 207 256 311 370
#
# _framework density 20.716083000000001
#
# number of rings (size 3 to 8) (size 9 to 14) (size 15 to 20)
#    0.000    1.667    3.333    1.000    0.000    8.667 
#    0.000    2.500    0.000    0.000    0.000    0.000 
#    0.000    0.000    0.000    0.000    0.000    0.000 
#
# Total GULP energy -134020.244612 kJ/mol
# GULP energy per Si atom -5584.176859 kJ/mol
# Density = 2.066893 g / cm^3
# Si number density = 20.716083 Si / 1000 Ang^3
#
#
#
# Elastic Constant Matrix: (Units=GPa)
#
#
# Indices 1 2 3 4 5 6 
#
# 1 221.7256 43.3772 38.8194 0.0000 0.0000 0.0000
# 2 43.3772 82.9683 15.3075 0.0000 0.0000 0.0000
# 3 38.8194 15.3075 144.0981 0.0000 0.0000 0.0000
# 4 0.0000 0.0000 0.0000 5.5507 0.0000 0.0000
# 5 0.0000 0.0000 0.0000 0.0000 -29.3484 0.0000
# 6 0.0000 0.0000 0.0000 0.0000 0.0000 -14.5541
#
#
#
# Elastic Compliance Matrix: (Units=1/GPa)
#
#
# Indices 1 2 3 4 5 6 
#
# 1 0.005200 -0.002509 -0.001134 0.000000 0.000000 0.000000
# 2 -0.002509 0.013505 -0.000759 0.000000 0.000000 0.000000
# 3 -0.001134 -0.000759 0.007326 0.000000 0.000000 0.000000
# 4 0.000000 0.000000 0.000000 0.180157 0.000000 0.000000
# 5 0.000000 0.000000 0.000000 0.000000 -0.034073 0.000000
# 6 0.000000 0.000000 0.000000 0.000000 0.000000 -0.068709
#
#
# Mechanical properties :
#
#
# Convention : Reuss Voigt Hill
#
# Bulk Modulus (GPa) = 58.05167 71.53337 64.79252
# Shear Modulus (GPa) = 42.39076 15.74884 29.06980
#
# Velocity S-wave (km/s) = 4.52848 2.76021 3.75006
# Velocity P-wave (km/s) = 7.44488 6.69056 7.07778
#
# Compressibility (1/GPa) = 0.01722603
#
# Stress axis : x y z
#
# Youngs Moduli (GPa) = 192.32530 74.04891 136.50291
#
# Poissons Ratio (x) = 0.18580 0.15482
# Poissons Ratio (y) = 0.48257 0.10356
# Poissons Ratio (z) = 0.21813 0.05618
#
# Static dielectric constant tensor:
#      x y z
#    x 1.812130 0.000000 0.000000 
#    y 0.000000 1.708570 0.000000 
#    z 0.000000 0.000000 1.811620 
# 
# From -- ./inp_files/25726.got.cif
#   From: 2010.05.17/outbox.cif.g08.bks.cpg/sg24_13_cif.got.tgz:25726.got - 2010.06.04 00:33:39.
