data_PCOD9335503
_publ_section_title
;
Structure prediction by ZEFSAII (Michael W. Deem and Ramdas Pophale) SiO2 
 PCOD9335503
Probable space group: I 21 21 21
;
_chemical_formula_sum "Si O2"
_cell_formula_units_Z 28
_cell_length_a 6.940012
_cell_length_b 16.952461
_cell_length_c 11.101587
_cell_angle_alpha 90.000000
_cell_angle_beta 90.000000
_cell_angle_gamma 90.000000
_cell_volume 1306.104850
_symmetry_space_group_name_H-M "I 21 21 21"
_symmetry_group_IT_number 24
_symmetry_cell_setting 'orthorhombic'
loop_
_space_group_symop_operation_xyz
x,y,z
-x,1/2-y,z
x,-y,1/2-z
1/2-x,y,-z
1/2+x,1/2+y,1/2+z
1/2-x,-y,1/2+z
1/2+x,1/2-y,-z
-x,1/2+y,1/2-z
loop_
_atom_site_type_symbol
_atom_site_label
_atom_site_fract_x
_atom_site_fract_y
_atom_site_fract_z
Si Si1 0.174848 0.151669 0.754759
Si Si2 0.010609 0.044877 0.134749
Si Si3 0.737327 0.193452 0.131701
Si Si4 0.750000 0.576277 0.000000
O O1 0.288252 0.083308 0.823538
O O2 0.280870 0.235375 0.776661
O O3 0.184947 0.127593 0.615060
O O4 0.967335 0.162185 0.817951
O O5 0.925134 0.000000 0.250000
O O6 0.875015 0.118930 0.111861
O O7 0.070199 0.980035 0.037159
O O8 0.750000 0.233871 0.000000
#
# Coordination Sequence:
#
# PCOD9335503 Si02
#       4
#     8   8   8   4
#     4  10  24  43  65 102 136 184 229 292 360 412
#     4  10  22  40  65  96 132 177 227 287 352 417
#     4  11  24  40  69  98 131 181 237 283 343 435
#     4  10  22  46  68  98 152 180 228 308 362 424
#
# _framework density 21.43779
#
# number of rings (size 3 to 8) (size 9 to 14) (size 15 to 20)
#    0.000    1.714    0.000    2.571   10.000    5.714 
#   20.571    0.000    0.000    0.000    0.000    0.000 
#    0.000    0.000    0.000    0.000    0.000    0.000 
#
# Total GULP energy -78098.072075 kJ/mol
# GULP energy per Si atom -5578.433720 kJ/mol
# Density = 2.138900 g / cm^3
# Si number density = 21.437790 Si / 1000 Ang^3
#
#
#
# Elastic Constant Matrix: (Units=GPa)
#
#
# Indices 1 2 3 4 5 6 
#
# 1 75.2657 29.7803 55.9094 0.0000 0.0000 0.0000
# 2 29.7803 124.3961 79.8398 0.0000 0.0000 0.0000
# 3 55.9094 79.8398 163.7001 0.0000 0.0000 0.0000
# 4 0.0000 0.0000 0.0000 42.4164 0.0000 0.0000
# 5 0.0000 0.0000 0.0000 0.0000 13.0586 0.0000
# 6 0.0000 0.0000 0.0000 0.0000 0.0000 32.3202
#
#
#
# Elastic Compliance Matrix: (Units=1/GPa)
#
#
# Indices 1 2 3 4 5 6 
#
# 1 0.017826 -0.000524 -0.005833 0.000000 0.000000 0.000000
# 2 -0.000524 0.011717 -0.005536 0.000000 0.000000 0.000000
# 3 -0.005833 -0.005536 0.010801 0.000000 0.000000 0.000000
# 4 0.000000 0.000000 0.000000 0.023576 0.000000 0.000000
# 5 0.000000 0.000000 0.000000 0.000000 0.076578 0.000000
# 6 0.000000 0.000000 0.000000 0.000000 0.000000 0.030940
#
#
# Mechanical properties :
#
#
# Convention : Reuss Voigt Hill
#
# Bulk Modulus (GPa) = 60.38932 77.15789 68.77361
# Shear Modulus (GPa) = 24.90746 30.74787 27.82767
#
# Velocity S-wave (km/s) = 3.41229 3.79130 3.60678
# Velocity P-wave (km/s) = 6.61481 7.43202 7.03529
#
# Compressibility (1/GPa) = 0.01655922
#
# Stress axis : x y z
#
# Youngs Moduli (GPa) = 56.09677 85.34423 92.58638
#
# Poissons Ratio (x) = 0.04472 0.54003
# Poissons Ratio (y) = 0.02940 0.51254
# Poissons Ratio (z) = 0.32720 0.47245
#
# Static dielectric constant tensor:
#      x y z
#    x 1.869760 0.000000 0.000000 
#    y 0.000000 1.836080 0.000000 
#    z 0.000000 0.000000 1.806130 
# 
# From -- ./inp_files/8756.got.cif
#   From: 2010.05.17/outbox.cif.g08.bks.cpg/sg24_5_cif.got.tgz:8756.got - 2010.06.04 00:33:39.
