data_PCOD9335681
_publ_section_title
;
Structure prediction by ZEFSAII (Michael W. Deem and Ramdas Pophale) SiO2 
 PCOD9335681
Probable space group: I 21 21 21
;
_chemical_formula_sum "Si O2"
_cell_formula_units_Z 44
_cell_length_a 8.937180
_cell_length_b 14.286141
_cell_length_c 16.544686
_cell_angle_alpha 90.000000
_cell_angle_beta 90.000000
_cell_angle_gamma 90.000000
_cell_volume 2112.389336
_symmetry_space_group_name_H-M "I 21 21 21"
_symmetry_group_IT_number 24
_symmetry_cell_setting 'orthorhombic'
loop_
_space_group_symop_operation_xyz
x,y,z
-x,1/2-y,z
x,-y,1/2-z
1/2-x,y,-z
1/2+x,1/2+y,1/2+z
1/2-x,-y,1/2+z
1/2+x,1/2-y,-z
-x,1/2+y,1/2-z
loop_
_atom_site_type_symbol
_atom_site_label
_atom_site_fract_x
_atom_site_fract_y
_atom_site_fract_z
Si Si1 0.500000 0.750000 0.213173
Si Si2 0.083862 0.006644 0.370403
Si Si3 0.585649 0.978164 0.030384
Si Si4 0.168939 0.153434 0.582098
Si Si5 0.144997 0.588016 0.690722
Si Si6 0.471337 0.358851 0.759654
O O1 0.639941 0.725270 0.154480
O O2 0.463883 0.663492 0.270192
O O3 0.234127 0.064934 0.386586
O O4 0.977116 0.081027 0.323006
O O5 0.009275 0.982540 0.455412
O O6 0.092209 0.914559 0.315041
O O7 0.601868 0.051996 0.102538
O O8 0.493018 0.887900 0.059389
O O9 0.750000 0.952779 0.000000
O O10 0.250000 0.187889 0.500000
O O11 0.141378 0.500000 0.750000
O O12 0.313471 0.627413 0.695819
O O13 0.500000 0.250000 0.746642
#
# Coordination Sequence:
#
# PCOD9335681 Si02
#       6
#     4   8   8   8   8   8
#     4  12  26  44  68 102 146 176 236 284 342 428
#     4  10  22  43  66  98 138 174 224 290 338 408
#     4  11  21  43  72  91 136 184 229 278 341 409
#     4  10  24  43  68 106 132 180 228 285 352 397
#     4  12  23  44  67 101 134 189 227 278 350 407
#     4  11  22  41  71 100 135 177 233 278 352 410
#
# _framework density 20.829494
#
# number of rings (size 3 to 8) (size 9 to 14) (size 15 to 20)
#    0.000    1.091    5.455    1.091    0.000    5.091 
#   11.455    0.000    0.000    0.000    0.000    0.000 
#    0.000    0.000    0.000    0.000    0.000    0.000 
#
# Total GULP energy -122987.315814 kJ/mol
# GULP energy per Si atom -5590.332537 kJ/mol
# Density = 2.078208 g / cm^3
# Si number density = 20.829494 Si / 1000 Ang^3
#
#
#
# Elastic Constant Matrix: (Units=GPa)
#
#
# Indices 1 2 3 4 5 6 
#
# 1 77.0119 20.5748 36.8268 0.0000 0.0000 0.0000
# 2 20.5748 103.7064 48.2849 0.0000 0.0000 0.0000
# 3 36.8268 48.2849 144.2652 0.0000 0.0000 0.0000
# 4 0.0000 0.0000 0.0000 22.2262 0.0000 0.0000
# 5 0.0000 0.0000 0.0000 0.0000 32.2557 0.0000
# 6 0.0000 0.0000 0.0000 0.0000 0.0000 18.5314
#
#
#
# Elastic Compliance Matrix: (Units=1/GPa)
#
#
# Indices 1 2 3 4 5 6 
#
# 1 0.014962 -0.001410 -0.003348 0.000000 0.000000 0.000000
# 2 -0.001410 0.011555 -0.003508 0.000000 0.000000 0.000000
# 3 -0.003348 -0.003508 0.008960 0.000000 0.000000 0.000000
# 4 0.000000 0.000000 0.000000 0.044992 0.000000 0.000000
# 5 0.000000 0.000000 0.000000 0.000000 0.031002 0.000000
# 6 0.000000 0.000000 0.000000 0.000000 0.000000 0.053962
#
#
# Mechanical properties :
#
#
# Convention : Reuss Voigt Hill
#
# Bulk Modulus (GPa) = 52.77631 59.59516 56.18573
# Shear Modulus (GPa) = 26.55604 29.22246 27.88925
#
# Velocity S-wave (km/s) = 3.57448 3.74964 3.66311
# Velocity P-wave (km/s) = 6.51369 6.88618 6.70253
#
# Compressibility (1/GPa) = 0.01894790
#
# Stress axis : x y z
#
# Youngs Moduli (GPa) = 66.83383 86.53917 111.60417
#
# Poissons Ratio (x) = 0.12201 0.37361
# Poissons Ratio (y) = 0.09423 0.39147
# Poissons Ratio (z) = 0.22373 0.30355
#
# Static dielectric constant tensor:
#      x y z
#    x 1.784590 0.000000 0.000000 
#    y 0.000000 1.707670 0.000000 
#    z 0.000000 0.000000 1.766090 
# 
# From -- ./inp_files/29402.got.cif
#   From: 2010.05.17/outbox.cif.g08.bks.cpg/sg24_15_cif.got.tgz:29402.got - 2010.06.04 00:33:39.
