data_PCOD9335275
_publ_section_title
;
Structure prediction by ZEFSAII (Michael W. Deem and Ramdas Pophale) SiO2 
 PCOD9335275
Probable space group: I 21 21 21
;
_chemical_formula_sum "Si O2"
_cell_formula_units_Z 32
_cell_length_a 5.287511
_cell_length_b 16.688076
_cell_length_c 16.376293
_cell_angle_alpha 90.000000
_cell_angle_beta 90.000000
_cell_angle_gamma 90.000000
_cell_volume 1445.017653
_symmetry_space_group_name_H-M "I 21 21 21"
_symmetry_group_IT_number 24
_symmetry_cell_setting 'orthorhombic'
loop_
_space_group_symop_operation_xyz
x,y,z
-x,1/2-y,z
x,-y,1/2-z
1/2-x,y,-z
1/2+x,1/2+y,1/2+z
1/2-x,-y,1/2+z
1/2+x,1/2-y,-z
-x,1/2+y,1/2-z
loop_
_atom_site_type_symbol
_atom_site_label
_atom_site_fract_x
_atom_site_fract_y
_atom_site_fract_z
Si Si1 0.384155 0.376724 0.833728
Si Si2 0.000000 0.250000 0.781305
Si Si3 0.106311 0.835078 0.165335
Si Si4 0.500000 0.250000 0.948451
Si Si5 0.493696 0.021468 0.551463
O O1 0.444352 0.376657 0.737957
O O2 0.572438 0.322995 0.888517
O O3 0.402418 0.460775 0.878707
O O4 0.143324 0.317391 0.834034
O O5 0.841295 0.304836 0.718377
O O6 0.000000 0.750000 0.134366
O O7 0.119472 0.899368 0.094447
O O8 0.250000 0.270623 0.000000
O O9 0.750000 0.038836 0.500000
O O10 0.250000 0.988468 0.500000
#
# Coordination Sequence:
#
# PCOD9335275 Si02
#       5
#     8   4   8   4   8
#     4  11  23  45  71 110 144 197 245 302 371 458
#     4  10  21  44  86 105 142 192 270 300 371 438
#     4  10  24  47  77 104 141 203 261 307 367 453
#     4  12  23  36  66 103 146 186 224 290 369 442
#     4  12  30  48  71 113 157 197 246 318 382 438
#
# _framework density 22.145057999999999
#
# number of rings (size 3 to 8) (size 9 to 14) (size 15 to 20)
#    0.000    1.000    3.750    3.000   10.500    1.000 
#    0.000    0.000    0.000    0.000    0.000    0.000 
#    0.000    0.000    0.000    0.000    0.000    0.000 
#
# Total GULP energy -89070.752139 kJ/mol
# GULP energy per Si atom -5566.922009 kJ/mol
# Density = 2.209465 g / cm^3
# Si number density = 22.145058 Si / 1000 Ang^3
#
#
#
# Elastic Constant Matrix: (Units=GPa)
#
#
# Indices 1 2 3 4 5 6 
#
# 1 109.2699 25.3995 17.1012 0.0000 0.0000 0.0000
# 2 25.3995 141.6801 47.8671 0.0000 0.0000 0.0000
# 3 17.1012 47.8671 43.4824 0.0000 0.0000 0.0000
# 4 0.0000 0.0000 0.0000 11.9605 0.0000 0.0000
# 5 0.0000 0.0000 0.0000 0.0000 13.4768 0.0000
# 6 0.0000 0.0000 0.0000 0.0000 0.0000 13.4994
#
#
#
# Elastic Compliance Matrix: (Units=1/GPa)
#
#
# Indices 1 2 3 4 5 6 
#
# 1 0.009798 -0.000724 -0.003057 0.000000 0.000000 0.000000
# 2 -0.000724 0.011291 -0.012145 0.000000 0.000000 0.000000
# 3 -0.003057 -0.012145 0.037570 0.000000 0.000000 0.000000
# 4 0.000000 0.000000 0.000000 0.083609 0.000000 0.000000
# 5 0.000000 0.000000 0.000000 0.000000 0.074202 0.000000
# 6 0.000000 0.000000 0.000000 0.000000 0.000000 0.074077
#
#
# Mechanical properties :
#
#
# Convention : Reuss Voigt Hill
#
# Bulk Modulus (GPa) = 37.30242 52.79645 45.04944
# Shear Modulus (GPa) = 15.09051 21.39164 18.24107
#
# Velocity S-wave (km/s) = 2.61327 3.11139 2.87315
# Velocity P-wave (km/s) = 5.09772 6.06635 5.60301
#
# Compressibility (1/GPa) = 0.02680791
#
# Stress axis : x y z
#
# Youngs Moduli (GPa) = 102.05848 88.56472 26.61714
#
# Poissons Ratio (x) = 0.06411 0.08136
# Poissons Ratio (y) = 0.07387 0.32327
# Poissons Ratio (z) = 0.31197 1.07563
#
# Static dielectric constant tensor:
#      x y z
#    x 1.933610 0.000000 0.000000 
#    y 0.000000 1.833500 0.000000 
#    z 0.000000 0.000000 1.828900 
# 
# From -- ./inp_files/4298.got.cif
#   From: 2010.05.17/outbox.cif.g08.bks.cpg/sg24_3_cif.got.tgz:4298.got - 2010.06.04 00:33:39.
