data_PCOD9335173
_publ_section_title
;
Structure prediction by ZEFSAII (Michael W. Deem and Ramdas Pophale) SiO2 
 PCOD9335173
Probable space group: I 21 21 21
;
_chemical_formula_sum "Si O2"
_cell_formula_units_Z 36
_cell_length_a 6.340590
_cell_length_b 18.168082
_cell_length_c 16.389979
_cell_angle_alpha 90.000000
_cell_angle_beta 90.000000
_cell_angle_gamma 90.000000
_cell_volume 1888.065906
_symmetry_space_group_name_H-M "I 21 21 21"
_symmetry_group_IT_number 24
_symmetry_cell_setting 'orthorhombic'
loop_
_space_group_symop_operation_xyz
x,y,z
-x,1/2-y,z
x,-y,1/2-z
1/2-x,y,-z
1/2+x,1/2+y,1/2+z
1/2-x,-y,1/2+z
1/2+x,1/2-y,-z
-x,1/2+y,1/2-z
loop_
_atom_site_type_symbol
_atom_site_label
_atom_site_fract_x
_atom_site_fract_y
_atom_site_fract_z
Si Si1 0.964381 0.333544 0.180824
Si Si2 0.288022 0.381960 0.660448
Si Si3 0.578685 0.575782 0.280228
Si Si4 0.787909 0.961115 0.404232
Si Si5 0.750000 0.216063 0.500000
O O1 0.725918 0.358506 0.192352
O O2 0.000000 0.250000 0.155073
O O3 0.068839 0.346018 0.269796
O O4 0.065858 0.392658 0.119508
O O5 0.373215 0.461578 0.631268
O O6 0.258859 0.331494 0.582304
O O7 0.068128 0.397647 0.706211
O O8 0.689085 0.500000 0.250000
O O9 0.427295 0.553923 0.354861
O O10 0.750000 0.967586 0.500000
O O11 0.500000 0.250000 0.497955
#
# Coordination Sequence:
#
# PCOD9335173 Si02
#       5
#     8   8   8   8   4
#     4  11  23  39  62  92 125 174 222 285 342 413
#     4  10  22  41  66  90 133 173 222 276 339 421
#     4   9  20  39  65  90 119 171 223 267 333 414
#     4  10  21  42  61  92 127 169 225 277 337 419
#     4  12  28  44  66 110 148 180 224 288 358 414
#
# _framework density 19.067132999999998
#
# number of rings (size 3 to 8) (size 9 to 14) (size 15 to 20)
#    0.000    1.778    1.111    4.000    6.222    3.556 
#    4.000    0.000    0.000    0.000    0.000    0.000 
#    0.000    0.000    0.000    0.000    0.000    0.000 
#
# Total GULP energy -100287.424151 kJ/mol
# GULP energy per Si atom -5571.523564 kJ/mol
# Density = 1.902373 g / cm^3
# Si number density = 19.067133 Si / 1000 Ang^3
#
#
#
# Elastic Constant Matrix: (Units=GPa)
#
#
# Indices 1 2 3 4 5 6 
#
# 1 63.6967 36.7122 8.1076 0.0000 0.0000 0.0000
# 2 36.7122 105.9222 -0.8340 0.0000 0.0000 0.0000
# 3 8.1076 -0.8340 47.2642 0.0000 0.0000 0.0000
# 4 0.0000 0.0000 0.0000 49.9010 0.0000 0.0000
# 5 0.0000 0.0000 0.0000 0.0000 -6.6722 0.0000
# 6 0.0000 0.0000 0.0000 0.0000 0.0000 46.3184
#
#
#
# Elastic Compliance Matrix: (Units=1/GPa)
#
#
# Indices 1 2 3 4 5 6 
#
# 1 0.020210 -0.007033 -0.003591 0.000000 0.000000 0.000000
# 2 -0.007033 0.011890 0.001416 0.000000 0.000000 0.000000
# 3 -0.003591 0.001416 0.021799 0.000000 0.000000 0.000000
# 4 0.000000 0.000000 0.000000 0.020040 0.000000 0.000000
# 5 0.000000 0.000000 0.000000 0.000000 -0.149876 0.000000
# 6 0.000000 0.000000 0.000000 0.000000 0.000000 0.021590
#
#
# Mechanical properties :
#
#
# Convention : Reuss Voigt Hill
#
# Bulk Modulus (GPa) = 28.18250 33.87272 31.02761
# Shear Modulus (GPa) = -207.41777 29.43595 -88.99091
#
# Velocity S-wave (km/s) = -10.44122 3.93339 -6.83913
# Velocity P-wave (km/s) = 11.42567 6.19938 6.78652
#
# Compressibility (1/GPa) = 0.03548301
#
# Stress axis : x y z
#
# Youngs Moduli (GPa) = 49.48046 84.10682 45.87447
#
# Poissons Ratio (x) = 0.59152 0.16473
# Poissons Ratio (y) = 0.34799 -0.06497
# Poissons Ratio (z) = 0.17768 -0.11911
#
# Static dielectric constant tensor:
#      x y z
#    x 1.710850 0.000000 0.000000 
#    y 0.000000 1.677640 0.000000 
#    z 0.000000 0.000000 1.615270 
# 
# From -- ./inp_files/3337.got.cif
#   From: 2010.05.17/outbox.cif.g08.bks.cpg/sg24_2_cif.got.tgz:3337.got - 2010.06.04 00:33:39.
