data_PCOD9335453
_publ_section_title
;
Structure prediction by ZEFSAII (Michael W. Deem and Ramdas Pophale) SiO2 
 PCOD9335453
Probable space group: I 21 21 21
;
_chemical_formula_sum "Si O2"
_cell_formula_units_Z 44
_cell_length_a 7.629519
_cell_length_b 16.516223
_cell_length_c 17.170238
_cell_angle_alpha 90.000000
_cell_angle_beta 90.000000
_cell_angle_gamma 90.000000
_cell_volume 2163.636065
_symmetry_space_group_name_H-M "I 21 21 21"
_symmetry_group_IT_number 24
_symmetry_cell_setting 'orthorhombic'
loop_
_space_group_symop_operation_xyz
x,y,z
-x,1/2-y,z
x,-y,1/2-z
1/2-x,y,-z
1/2+x,1/2+y,1/2+z
1/2-x,-y,1/2+z
1/2+x,1/2-y,-z
-x,1/2+y,1/2-z
loop_
_atom_site_type_symbol
_atom_site_label
_atom_site_fract_x
_atom_site_fract_y
_atom_site_fract_z
Si Si1 0.831047 0.402519 0.686398
Si Si2 0.750000 0.600169 0.500000
Si Si3 0.176822 0.494294 0.840155
Si Si4 0.034481 0.965154 0.084355
Si Si5 0.336283 0.795815 0.926871
Si Si6 0.550265 0.657164 0.351743
O O1 0.235438 0.500000 0.750000
O O2 0.803715 0.320573 0.637405
O O3 0.851535 0.380209 0.776268
O O4 0.001644 0.450831 0.657596
O O5 0.602979 0.540327 0.535175
O O6 0.667206 0.649814 0.429113
O O7 0.333753 0.525421 0.893135
O O8 0.116459 0.403090 0.860088
O O9 0.919331 0.619298 0.041884
O O10 0.159968 0.953998 0.160723
O O11 0.500000 0.750000 0.890855
O O12 0.250000 0.752299 0.000000
O O13 0.500000 0.750000 0.337603
#
# Coordination Sequence:
#
# PCOD9335453 Si02
#       6
#     8   4   8   8   8   8
#     4   9  22  46  69  95 137 180 222 293 340 406
#     4  12  24  44  68  94 142 192 226 292 336 408
#     4  10  22  39  73  98 121 178 236 278 337 414
#     4  10  22  42  69  96 128 183 236 271 342 415
#     4  10  22  40  63 102 140 175 216 284 357 406
#     4  11  25  45  67 101 145 179 230 297 349 405
#
# _framework density 20.336137999999998
#
# number of rings (size 3 to 8) (size 9 to 14) (size 15 to 20)
#    1.091    0.727    2.727    0.000    2.545    7.273 
#    0.000    0.909    0.000    0.000    0.000    0.000 
#    0.000    0.000    0.000    0.000    0.000    0.000 
#
# Total GULP energy -122695.352257 kJ/mol
# GULP energy per Si atom -5577.061466 kJ/mol
# Density = 2.028985 g / cm^3
# Si number density = 20.336138 Si / 1000 Ang^3
#
#
#
# Elastic Constant Matrix: (Units=GPa)
#
#
# Indices 1 2 3 4 5 6 
#
# 1 96.5583 40.5276 41.5842 0.0000 0.0000 0.0000
# 2 40.5276 74.2150 20.2572 0.0000 0.0000 0.0000
# 3 41.5842 20.2572 86.8830 0.0000 0.0000 0.0000
# 4 0.0000 0.0000 0.0000 16.7867 0.0000 0.0000
# 5 0.0000 0.0000 0.0000 0.0000 32.2552 0.0000
# 6 0.0000 0.0000 0.0000 0.0000 0.0000 25.7394
#
#
#
# Elastic Compliance Matrix: (Units=1/GPa)
#
#
# Indices 1 2 3 4 5 6 
#
# 1 0.015879 -0.007045 -0.005957 0.000000 0.000000 0.000000
# 2 -0.007045 0.017516 -0.000712 0.000000 0.000000 0.000000
# 3 -0.005957 -0.000712 0.014527 0.000000 0.000000 0.000000
# 4 0.000000 0.000000 0.000000 0.059571 0.000000 0.000000
# 5 0.000000 0.000000 0.000000 0.000000 0.031003 0.000000
# 6 0.000000 0.000000 0.000000 0.000000 0.000000 0.038851
#
#
# Mechanical properties :
#
#
# Convention : Reuss Voigt Hill
#
# Bulk Modulus (GPa) = 48.79731 51.37715 50.08723
# Shear Modulus (GPa) = 23.62868 25.30874 24.46871
#
# Velocity S-wave (km/s) = 3.41237 3.53160 3.47250
# Velocity P-wave (km/s) = 6.29072 6.47676 6.38442
#
# Compressibility (1/GPa) = 0.02049293
#
# Stress axis : x y z
#
# Youngs Moduli (GPa) = 62.97567 57.09073 68.83678
#
# Poissons Ratio (x) = 0.40222 0.41009
# Poissons Ratio (y) = 0.44368 0.04901
# Poissons Ratio (z) = 0.37518 0.04064
#
# Static dielectric constant tensor:
#      x y z
#    x 1.701880 0.000000 0.000000 
#    y 0.000000 1.741540 0.000000 
#    z 0.000000 0.000000 1.732520 
# 
# From -- ./inp_files/26970.got.cif
#   From: 2010.05.17/outbox.cif.g08.bks.cpg/sg24_14_cif.got.tgz:26970.got - 2010.06.04 00:33:39.
