data_PCOD9335631
_publ_section_title
;
Structure prediction by ZEFSAII (Michael W. Deem and Ramdas Pophale) SiO2 
 PCOD9335631
Probable space group: I 21 21 21
;
_chemical_formula_sum "Si O2"
_cell_formula_units_Z 40
_cell_length_a 5.043499
_cell_length_b 11.664181
_cell_length_c 26.074519
_cell_angle_alpha 90.000000
_cell_angle_beta 90.000000
_cell_angle_gamma 90.000000
_cell_volume 1533.919240
_symmetry_space_group_name_H-M "I 21 21 21"
_symmetry_group_IT_number 24
_symmetry_cell_setting 'orthorhombic'
loop_
_space_group_symop_operation_xyz
x,y,z
-x,1/2-y,z
x,-y,1/2-z
1/2-x,y,-z
1/2+x,1/2+y,1/2+z
1/2-x,-y,1/2+z
1/2+x,1/2-y,-z
-x,1/2+y,1/2-z
loop_
_atom_site_type_symbol
_atom_site_label
_atom_site_fract_x
_atom_site_fract_y
_atom_site_fract_z
Si Si1 0.750000 0.033239 0.000000
Si Si2 0.339629 0.871162 0.760955
Si Si3 0.647548 0.899767 0.612270
Si Si4 0.878115 0.459774 0.635096
Si Si5 0.000000 0.750000 0.680612
Si Si6 0.854727 0.344979 0.452301
O O1 0.753184 0.109261 0.947228
O O2 0.518020 0.948576 0.978432
O O3 0.500000 0.750000 0.759084
O O4 0.212883 0.887817 0.816575
O O5 0.113366 0.849160 0.717867
O O6 0.460706 0.000000 0.750000
O O7 0.762841 0.794254 0.644577
O O8 0.346219 0.942474 0.621106
O O9 0.823597 0.998817 0.638532
O O10 0.875614 0.390107 0.582661
O O11 0.750000 0.274177 0.500000
O O12 0.000000 0.250000 0.418672
#
# Coordination Sequence:
#
# PCOD9335631 Si02
#       6
#     4   8   8   8   4   8
#     4  10  22  42  68 100 150 188 254 308 388 464
#     4  12  27  49  79 114 158 214 269 340 396 483
#     4  11  25  47  77 110 150 204 253 330 393 481
#     4  11  25  46  72 110 154 198 262 317 400 470
#     4  12  28  48  80 108 158 200 270 324 404 472
#     4  11  20  36  62  99 143 191 242 309 384 464
#
# _framework density 26.076992000000001
#
# number of rings (size 3 to 8) (size 9 to 14) (size 15 to 20)
#    0.000    0.800    5.000    1.800    2.800    0.800 
#    1.800    4.000    0.000    0.000    0.000    0.000 
#    0.000    0.000    0.000    0.000    0.000    0.000 
#
# Total GULP energy -111498.535078 kJ/mol
# GULP energy per Si atom -5574.926754 kJ/mol
# Density = 2.601764 g / cm^3
# Si number density = 26.076992 Si / 1000 Ang^3
#
#
#
# Elastic Constant Matrix: (Units=GPa)
#
#
# Indices 1 2 3 4 5 6 
#
# 1 62.2278 21.0079 -4.4290 0.0000 0.0000 0.0000
# 2 21.0079 123.4692 35.9465 0.0000 0.0000 0.0000
# 3 -4.4290 35.9465 183.6187 0.0000 0.0000 0.0000
# 4 0.0000 0.0000 0.0000 37.7085 0.0000 0.0000
# 5 0.0000 0.0000 0.0000 0.0000 32.0378 0.0000
# 6 0.0000 0.0000 0.0000 0.0000 0.0000 33.1549
#
#
#
# Elastic Compliance Matrix: (Units=1/GPa)
#
#
# Indices 1 2 3 4 5 6 
#
# 1 0.017238 -0.003239 0.001050 0.000000 0.000000 0.000000
# 2 -0.003239 0.009197 -0.001879 0.000000 0.000000 0.000000
# 3 0.001050 -0.001879 0.005839 0.000000 0.000000 0.000000
# 4 0.000000 0.000000 0.000000 0.026519 0.000000 0.000000
# 5 0.000000 0.000000 0.000000 0.000000 0.031213 0.000000
# 6 0.000000 0.000000 0.000000 0.000000 0.000000 0.030161
#
#
# Mechanical properties :
#
#
# Convention : Reuss Voigt Hill
#
# Bulk Modulus (GPa) = 41.42589 52.70739 47.06664
# Shear Modulus (GPa) = 36.67042 41.69958 39.18500
#
# Velocity S-wave (km/s) = 3.75405 4.00321 3.88063
# Velocity P-wave (km/s) = 5.89160 6.45164 6.17797
#
# Compressibility (1/GPa) = 0.02413950
#
# Stress axis : x y z
#
# Youngs Moduli (GPa) = 58.01114 108.72912 171.25738
#
# Poissons Ratio (x) = 0.35213 -0.17979
# Poissons Ratio (y) = 0.18788 0.32173
# Poissons Ratio (z) = -0.06090 0.20426
#
# Static dielectric constant tensor:
#      x y z
#    x 2.236870 0.000000 0.000000 
#    y 0.000000 2.197600 0.000000 
#    z 0.000000 0.000000 2.051900 
# 
# From -- ./inp_files/36336.got.cif
#   From: 2010.05.17/outbox.cif.g08.bks.cpg/sg24_19_cif.got.tgz:36336.got - 2010.06.04 00:33:39.
