data_PCOD9335826
_publ_section_title
;
Structure prediction by ZEFSAII (Michael W. Deem and Ramdas Pophale) SiO2 
 PCOD9335826
Probable space group: I 21 21 21
;
_chemical_formula_sum "Si O2"
_cell_formula_units_Z 28
_cell_length_a 13.705486
_cell_length_b 11.278322
_cell_length_c 7.235393
_cell_angle_alpha 90.000000
_cell_angle_beta 90.000000
_cell_angle_gamma 90.000000
_cell_volume 1118.410036
_symmetry_space_group_name_H-M "I 21 21 21"
_symmetry_group_IT_number 24
_symmetry_cell_setting 'orthorhombic'
loop_
_space_group_symop_operation_xyz
x,y,z
-x,1/2-y,z
x,-y,1/2-z
1/2-x,y,-z
1/2+x,1/2+y,1/2+z
1/2-x,-y,1/2+z
1/2+x,1/2-y,-z
-x,1/2+y,1/2-z
loop_
_atom_site_type_symbol
_atom_site_label
_atom_site_fract_x
_atom_site_fract_y
_atom_site_fract_z
Si Si1 0.861966 0.700878 0.471452
Si Si2 0.010112 0.976125 0.968145
Si Si3 0.500000 0.250000 0.299412
Si Si4 0.817578 0.111669 0.341438
O O1 0.750000 0.664908 0.500000
O O2 0.911430 0.766116 0.649452
O O3 0.856207 0.793040 0.304314
O O4 0.925887 0.581280 0.447674
O O5 0.049456 0.156909 0.558354
O O6 0.996161 0.000000 0.750000
O O7 0.908673 0.954608 0.065655
O O8 0.750000 0.165572 0.500000
O O9 0.760836 0.000000 0.250000
#
# Coordination Sequence:
#
# PCOD9335826 Si02
#       4
#     8   8   4   8
#     4  11  24  47  74 107 148 193 250 306 364 445
#     4  10  23  45  73 104 143 191 244 305 369 437
#     4  10  22  48  74 104 146 194 240 306 378 440
#     4  12  24  42  72 109 149 199 249 302 367 444
#
# _framework density 25.035540000000001
#
# number of rings (size 3 to 8) (size 9 to 14) (size 15 to 20)
#    0.000    1.143    0.000    6.857    0.000    3.429 
#    0.000   25.714    0.000    0.000    0.000    0.000 
#    0.000    0.000    0.000    0.000    0.000    0.000 
#
# Total GULP energy -78160.068082 kJ/mol
# GULP energy per Si atom -5582.862006 kJ/mol
# Density = 2.497856 g / cm^3
# Si number density = 25.035540 Si / 1000 Ang^3
#
#
#
# Elastic Constant Matrix: (Units=GPa)
#
#
# Indices 1 2 3 4 5 6 
#
# 1 151.7816 71.8326 35.8156 0.0000 0.0000 0.0000
# 2 71.8326 193.1265 82.1195 0.0000 0.0000 0.0000
# 3 35.8156 82.1195 96.7429 0.0000 0.0000 0.0000
# 4 0.0000 0.0000 0.0000 47.2276 0.0000 0.0000
# 5 0.0000 0.0000 0.0000 0.0000 46.3952 0.0000
# 6 0.0000 0.0000 0.0000 0.0000 0.0000 38.7573
#
#
#
# Elastic Compliance Matrix: (Units=1/GPa)
#
#
# Indices 1 2 3 4 5 6 
#
# 1 0.008025 -0.002694 -0.000684 0.000000 0.000000 0.000000
# 2 -0.002694 0.009007 -0.006648 0.000000 0.000000 0.000000
# 3 -0.000684 -0.006648 0.016233 0.000000 0.000000 0.000000
# 4 0.000000 0.000000 0.000000 0.021174 0.000000 0.000000
# 5 0.000000 0.000000 0.000000 0.000000 0.021554 0.000000
# 6 0.000000 0.000000 0.000000 0.000000 0.000000 0.025802
#
#
# Mechanical properties :
#
#
# Convention : Reuss Voigt Hill
#
# Bulk Modulus (GPa) = 75.68624 91.24295 83.46459
# Shear Modulus (GPa) = 39.60381 43.26823 41.43602
#
# Velocity S-wave (km/s) = 3.98163 4.16176 4.07269
# Velocity P-wave (km/s) = 7.17182 7.72128 7.45161
#
# Compressibility (1/GPa) = 0.01321244
#
# Stress axis : x y z
#
# Youngs Moduli (GPa) = 124.61430 111.02833 61.60257
#
# Poissons Ratio (x) = 0.29909 0.04215
# Poissons Ratio (y) = 0.33569 0.40953
# Poissons Ratio (z) = 0.08527 0.73812
#
# Static dielectric constant tensor:
#      x y z
#    x 1.974700 0.000000 0.000000 
#    y 0.000000 2.792050 0.000000 
#    z 0.000000 0.000000 2.072800 
# 
# From -- ./inp_files/11848.got.cif
#   From: 2010.05.17/outbox.cif.g08.bks.cpg/sg24_6_cif.got.tgz:11848.got - 2010.06.04 00:33:39.
