data_PCOD9335662
_publ_section_title
;
Structure prediction by ZEFSAII (Michael W. Deem and Ramdas Pophale) SiO2 
 PCOD9335662
Probable space group: I 21 21 21
;
_chemical_formula_sum "Si O2"
_cell_formula_units_Z 48
_cell_length_a 17.235974
_cell_length_b 10.978087
_cell_length_c 11.619719
_cell_angle_alpha 90.000000
_cell_angle_beta 90.000000
_cell_angle_gamma 90.000000
_cell_volume 2198.660247
_symmetry_space_group_name_H-M "I 21 21 21"
_symmetry_group_IT_number 24
_symmetry_cell_setting 'orthorhombic'
loop_
_space_group_symop_operation_xyz
x,y,z
-x,1/2-y,z
x,-y,1/2-z
1/2-x,y,-z
1/2+x,1/2+y,1/2+z
1/2-x,-y,1/2+z
1/2+x,1/2-y,-z
-x,1/2+y,1/2-z
loop_
_atom_site_type_symbol
_atom_site_label
_atom_site_fract_x
_atom_site_fract_y
_atom_site_fract_z
Si Si1 0.807445 0.118440 0.672375
Si Si2 0.571859 0.404698 0.087494
Si Si3 0.263871 0.064932 0.126204
Si Si4 0.168162 0.709027 0.311092
Si Si5 0.750000 0.959227 0.500000
Si Si6 0.567075 0.673273 0.161687
Si Si7 0.000000 0.250000 0.112310
O O1 0.719773 0.162870 0.703130
O O2 0.861449 0.235478 0.677904
O O3 0.827852 0.000000 0.750000
O O4 0.811932 0.052801 0.551121
O O5 0.659936 0.355283 0.095948
O O6 0.582858 0.550093 0.092565
O O7 0.536946 0.367314 0.211108
O O8 0.527816 0.354497 0.977764
O O9 0.193717 0.153211 0.159378
O O10 0.281316 0.000000 0.250000
O O11 0.250000 0.001268 0.000000
O O12 0.205437 0.624534 0.409957
O O13 0.075070 0.707114 0.315246
O O14 0.500000 0.750000 0.102706
#
# Coordination Sequence:
#
# PCOD9335662 Si02
#       7
#     8   8   8   8   4   8   4
#     4  10  23  41  68  96 128 186 230 290 352 424
#     4  11  22  38  61  99 135 179 230 289 355 428
#     4  12  22  43  70 102 140 185 238 298 360 426
#     4  11  22  43  66 101 137 180 242 285 355 430
#     4  10  22  42  74  90 130 186 244 290 340 444
#     4  11  23  36  60  99 141 164 222 305 363 413
#     4  12  24  38  72  98 134 196 230 288 354 444
#
# _framework density 21.831477
#
# number of rings (size 3 to 8) (size 9 to 14) (size 15 to 20)
#    0.000    1.000    6.667    0.000    7.000    0.000 
#    6.000    2.500    1.833    0.000    0.000    0.000 
#    0.000    0.000    0.000    0.000    0.000    0.000 
#
# Total GULP energy -133651.426635 kJ/mol
# GULP energy per Si atom -5568.809443 kJ/mol
# Density = 2.178179 g / cm^3
# Si number density = 21.831477 Si / 1000 Ang^3
#
#
#
# Elastic Constant Matrix: (Units=GPa)
#
#
# Indices 1 2 3 4 5 6 
#
# 1 125.7075 36.7145 6.4960 0.0000 0.0000 0.0000
# 2 36.7145 106.1176 16.0995 0.0000 0.0000 0.0000
# 3 6.4960 16.0995 60.3913 0.0000 0.0000 0.0000
# 4 0.0000 0.0000 0.0000 14.7598 0.0000 0.0000
# 5 0.0000 0.0000 0.0000 0.0000 16.1068 0.0000
# 6 0.0000 0.0000 0.0000 0.0000 0.0000 32.8329
#
#
#
# Elastic Compliance Matrix: (Units=1/GPa)
#
#
# Indices 1 2 3 4 5 6 
#
# 1 0.008850 -0.003041 -0.000141 0.000000 0.000000 0.000000
# 2 -0.003041 0.010865 -0.002569 0.000000 0.000000 0.000000
# 3 -0.000141 -0.002569 0.017259 0.000000 0.000000 0.000000
# 4 0.000000 0.000000 0.000000 0.067752 0.000000 0.000000
# 5 0.000000 0.000000 0.000000 0.000000 0.062086 0.000000
# 6 0.000000 0.000000 0.000000 0.000000 0.000000 0.030457
#
#
# Mechanical properties :
#
#
# Convention : Reuss Voigt Hill
#
# Bulk Modulus (GPa) = 39.25947 45.64850 42.45398
# Shear Modulus (GPa) = 23.01365 28.26700 25.64032
#
# Velocity S-wave (km/s) = 3.25029 3.60221 3.43077
# Velocity P-wave (km/s) = 5.66638 6.18515 5.93144
#
# Compressibility (1/GPa) = 0.02547156
#
# Stress axis : x y z
#
# Youngs Moduli (GPa) = 112.99027 92.03604 57.94125
#
# Poissons Ratio (x) = 0.27984 0.00819
# Poissons Ratio (y) = 0.34356 0.14888
# Poissons Ratio (z) = 0.01598 0.23648
#
# Static dielectric constant tensor:
#      x y z
#    x 1.859250 0.000000 0.000000 
#    y 0.000000 1.820870 0.000000 
#    z 0.000000 0.000000 2.093980 
# 
# From -- ./inp_files/21573.got.cif
#   From: 2010.05.17/outbox.cif.g08.bks.cpg/sg24_11_cif.got.tgz:21573.got - 2010.06.04 00:33:39.
