data_PCOD9335718
_publ_section_title
;
Structure prediction by ZEFSAII (Michael W. Deem and Ramdas Pophale) SiO2 
 PCOD9335718
Probable space group: I 21 21 21
;
_chemical_formula_sum "Si O2"
_cell_formula_units_Z 40
_cell_length_a 22.918599
_cell_length_b 7.948122
_cell_length_c 8.677267
_cell_angle_alpha 90.000000
_cell_angle_beta 90.000000
_cell_angle_gamma 90.000000
_cell_volume 1580.649403
_symmetry_space_group_name_H-M "I 21 21 21"
_symmetry_group_IT_number 24
_symmetry_cell_setting 'orthorhombic'
loop_
_space_group_symop_operation_xyz
x,y,z
-x,1/2-y,z
x,-y,1/2-z
1/2-x,y,-z
1/2+x,1/2+y,1/2+z
1/2-x,-y,1/2+z
1/2+x,1/2-y,-z
-x,1/2+y,1/2-z
loop_
_atom_site_type_symbol
_atom_site_label
_atom_site_fract_x
_atom_site_fract_y
_atom_site_fract_z
Si Si1 0.172971 0.000000 0.750000
Si Si2 0.097763 0.807990 0.267626
Si Si3 0.511009 0.000000 0.250000
Si Si4 0.703613 0.000000 0.250000
Si Si5 0.888437 0.188180 0.579275
Si Si6 0.000000 0.750000 0.495436
Si Si7 0.729831 0.724393 0.644570
O O1 0.136338 0.855180 0.834117
O O2 0.219938 0.917758 0.633882
O O3 0.054814 0.713421 0.384991
O O4 0.163378 0.819309 0.335023
O O5 0.075675 0.000000 0.250000
O O6 0.101855 0.725324 0.099703
O O7 0.552697 0.133688 0.335916
O O8 0.481452 0.097605 0.108418
O O9 0.656014 0.034737 0.386229
O O10 0.747002 0.156335 0.278301
O O11 0.750000 0.835549 0.500000
#
# Coordination Sequence:
#
# PCOD9335718 Si02
#       7
#     4   8   4   4   8   4   8
#     4  10  22  43  76 112 158 209 240 298 398 476
#     4  12  29  49  81 119 155 200 265 336 383 454
#     4  11  30  55  80 112 146 211 257 326 392 478
#     4   9  24  42  72 116 156 214 239 300 394 470
#     4  10  25  48  80 115 158 198 257 316 391 471
#     4  12  34  54  84 108 152 208 268 326 396 458
#     4  11  24  42  71 114 159 199 248 307 389 463
#
# _framework density 25.306055000000001
#
# number of rings (size 3 to 8) (size 9 to 14) (size 15 to 20)
#    0.000    1.200    1.000    1.200   19.600    1.600 
#    0.000    0.000    0.000    0.000    0.000    0.000 
#    0.000    0.000    0.000    0.000    0.000    0.000 
#
# Total GULP energy -111683.424053 kJ/mol
# GULP energy per Si atom -5584.171203 kJ/mol
# Density = 2.524846 g / cm^3
# Si number density = 25.306055 Si / 1000 Ang^3
#
#
#
# Elastic Constant Matrix: (Units=GPa)
#
#
# Indices 1 2 3 4 5 6 
#
# 1 105.8849 25.7980 60.7753 0.0000 0.0000 0.0000
# 2 25.7980 77.3758 34.2982 0.0000 0.0000 0.0000
# 3 60.7753 34.2982 170.1383 0.0000 0.0000 0.0000
# 4 0.0000 0.0000 0.0000 43.6242 0.0000 0.0000
# 5 0.0000 0.0000 0.0000 0.0000 28.4690 0.0000
# 6 0.0000 0.0000 0.0000 0.0000 0.0000 47.5298
#
#
#
# Elastic Compliance Matrix: (Units=1/GPa)
#
#
# Indices 1 2 3 4 5 6 
#
# 1 0.012259 -0.002357 -0.003904 0.000000 0.000000 0.000000
# 2 -0.002357 0.014645 -0.002110 0.000000 0.000000 0.000000
# 3 -0.003904 -0.002110 0.007698 0.000000 0.000000 0.000000
# 4 0.000000 0.000000 0.000000 0.022923 0.000000 0.000000
# 5 0.000000 0.000000 0.000000 0.000000 0.035126 0.000000
# 6 0.000000 0.000000 0.000000 0.000000 0.000000 0.021039
#
#
# Mechanical properties :
#
#
# Convention : Reuss Voigt Hill
#
# Bulk Modulus (GPa) = 55.99283 66.12688 61.05985
# Shear Modulus (GPa) = 36.66058 39.42643 38.04350
#
# Velocity S-wave (km/s) = 3.81029 3.95141 3.88149
# Velocity P-wave (km/s) = 6.44454 6.85608 6.65349
#
# Compressibility (1/GPa) = 0.01785943
#
# Stress axis : x y z
#
# Youngs Moduli (GPa) = 81.57097 68.28168 129.91095
#
# Poissons Ratio (x) = 0.16093 0.50718
# Poissons Ratio (y) = 0.19225 0.27417
# Poissons Ratio (z) = 0.31846 0.14410
#
# Static dielectric constant tensor:
#      x y z
#    x 1.932890 0.000000 0.000000 
#    y 0.000000 2.676890 0.000000 
#    z 0.000000 0.000000 0.987320 
# 
# From -- ./inp_files/15684.got.cif
#   From: 2010.05.17/outbox.cif.g08.bks.cpg/sg24_8_cif.got.tgz:15684.got - 2010.06.04 00:33:39.
