data_PCOD9335600
_publ_section_title
;
Structure prediction by ZEFSAII (Michael W. Deem and Ramdas Pophale) SiO2 
 PCOD9335600
Probable space group: I 21 21 21
;
_chemical_formula_sum "Si O2"
_cell_formula_units_Z 56
_cell_length_a 22.392785
_cell_length_b 10.753817
_cell_length_c 11.588737
_cell_angle_alpha 90.000000
_cell_angle_beta 90.000000
_cell_angle_gamma 90.000000
_cell_volume 2790.659560
_symmetry_space_group_name_H-M "I 21 21 21"
_symmetry_group_IT_number 24
_symmetry_cell_setting 'orthorhombic'
loop_
_space_group_symop_operation_xyz
x,y,z
-x,1/2-y,z
x,-y,1/2-z
1/2-x,y,-z
1/2+x,1/2+y,1/2+z
1/2-x,-y,1/2+z
1/2+x,1/2-y,-z
-x,1/2+y,1/2-z
loop_
_atom_site_type_symbol
_atom_site_label
_atom_site_fract_x
_atom_site_fract_y
_atom_site_fract_z
Si Si1 0.179348 0.677194 0.313589
Si Si2 0.899667 0.737668 0.961733
Si Si3 0.373327 0.957360 0.458011
Si Si4 0.750000 0.317221 0.000000
Si Si5 0.687679 0.072940 0.562390
Si Si6 0.000000 0.750000 0.154782
Si Si7 0.420337 0.884940 0.686819
Si Si8 0.960170 0.639924 0.730072
O O1 0.233082 0.737935 0.386687
O O2 0.196982 0.648458 0.182052
O O3 0.161714 0.555730 0.387777
O O4 0.122503 0.766836 0.307593
O O5 0.866497 0.605167 0.970496
O O6 0.937469 0.710116 0.846099
O O7 0.854020 0.851153 0.974096
O O8 0.944420 0.761467 0.068562
O O9 0.309610 0.896129 0.479215
O O10 0.423009 0.921839 0.554236
O O11 0.402299 0.901422 0.343036
O O12 0.750000 0.048837 0.500000
O O13 0.980352 0.641538 0.242451
O O14 0.388712 0.000000 0.750000
O O15 0.989166 0.500000 0.750000
O O16 0.000000 0.750000 0.673076
#
# Coordination Sequence:
#
# PCOD9335600 Si02
#       8
#     8   8   8   4   8   4   8   8
#     4  10  22  43  60  96 130 167 219 270 325 397
#     4  11  23  44  64  98 127 176 225 270 330 401
#     4  10  23  43  66  97 133 168 228 268 338 394
#     4  10  22  42  64  90 134 168 206 294 326 376
#     4  11  23  40  66  91 133 172 222 267 329 399
#     4  12  22  38  64  94 130 164 206 280 316 390
#     4  11  22  41  66  95 132 166 215 270 333 393
#     4  10  23  45  66  94 134 177 226 277 323 410
#
# _framework density 20.066941
#
# number of rings (size 3 to 8) (size 9 to 14) (size 15 to 20)
#    0.000    1.429    4.286    0.000    4.000    1.143 
#    5.143    0.714    0.000    0.000    0.000    0.000 
#    0.000    0.000    0.000    0.000    0.000    0.000 
#
# Total GULP energy -155929.428975 kJ/mol
# GULP energy per Si atom -5568.908178 kJ/mol
# Density = 2.002127 g / cm^3
# Si number density = 20.066941 Si / 1000 Ang^3
#
#
#
# Elastic Constant Matrix: (Units=GPa)
#
#
# Indices 1 2 3 4 5 6 
#
# 1 48.0426 48.5144 12.6836 0.0000 0.0000 0.0000
# 2 48.5144 121.1454 27.4179 0.0000 0.0000 0.0000
# 3 12.6836 27.4179 79.7960 0.0000 0.0000 0.0000
# 4 0.0000 0.0000 0.0000 13.2143 0.0000 0.0000
# 5 0.0000 0.0000 0.0000 0.0000 17.9265 0.0000
# 6 0.0000 0.0000 0.0000 0.0000 0.0000 14.9799
#
#
#
# Elastic Compliance Matrix: (Units=1/GPa)
#
#
# Indices 1 2 3 4 5 6 
#
# 1 0.034996 -0.013831 -0.000810 0.000000 0.000000 0.000000
# 2 -0.013831 0.014417 -0.002755 0.000000 0.000000 0.000000
# 3 -0.000810 -0.002755 0.013607 0.000000 0.000000 0.000000
# 4 0.000000 0.000000 0.000000 0.075676 0.000000 0.000000
# 5 0.000000 0.000000 0.000000 0.000000 0.055783 0.000000
# 6 0.000000 0.000000 0.000000 0.000000 0.000000 0.066756
#
#
# Mechanical properties :
#
#
# Convention : Reuss Voigt Hill
#
# Bulk Modulus (GPa) = 35.42705 47.35731 41.39218
# Shear Modulus (GPa) = 16.36997 19.91535 18.14266
#
# Velocity S-wave (km/s) = 2.85926 3.15373 3.01010
# Velocity P-wave (km/s) = 5.34727 6.07554 5.72300
#
# Compressibility (1/GPa) = 0.02822702
#
# Stress axis : x y z
#
# Youngs Moduli (GPa) = 28.57490 69.36260 73.48931
#
# Poissons Ratio (x) = 0.95937 0.05954
# Poissons Ratio (y) = 0.39522 0.20248
# Poissons Ratio (z) = 0.02315 0.19111
#
# Static dielectric constant tensor:
#      x y z
#    x 1.684590 0.000000 0.000000 
#    y 0.000000 1.768500 0.000000 
#    z 0.000000 0.000000 1.797140 
# 
# From -- ./inp_files/22227.got.cif
#   From: 2010.05.17/outbox.cif.g08.bks.cpg/sg24_12_cif.got.tgz:22227.got - 2010.06.04 00:33:39.
