data_PCOD9335283
_publ_section_title
;
Structure prediction by ZEFSAII (Michael W. Deem and Ramdas Pophale) SiO2 
 PCOD9335283
Probable space group: I 21 21 21
;
_chemical_formula_sum "Si O2"
_cell_formula_units_Z 36
_cell_length_a 7.781296
_cell_length_b 22.539453
_cell_length_c 7.740649
_cell_angle_alpha 90.000000
_cell_angle_beta 90.000000
_cell_angle_gamma 90.000000
_cell_volume 1357.602669
_symmetry_space_group_name_H-M "I 21 21 21"
_symmetry_group_IT_number 24
_symmetry_cell_setting 'orthorhombic'
loop_
_space_group_symop_operation_xyz
x,y,z
-x,1/2-y,z
x,-y,1/2-z
1/2-x,y,-z
1/2+x,1/2+y,1/2+z
1/2-x,-y,1/2+z
1/2+x,1/2-y,-z
-x,1/2+y,1/2-z
loop_
_atom_site_type_symbol
_atom_site_label
_atom_site_fract_x
_atom_site_fract_y
_atom_site_fract_z
Si Si1 0.207026 0.761751 0.691190
Si Si2 0.250000 0.149449 0.500000
Si Si3 0.850032 0.131749 0.242780
Si Si4 0.439284 0.963117 0.571223
Si Si5 0.531346 0.922363 0.102363
O O1 0.250000 0.785533 0.500000
O O2 0.278508 0.802468 0.844927
O O3 0.304938 0.698879 0.705636
O O4 0.000000 0.750000 0.711789
O O5 0.340887 0.100352 0.371172
O O6 0.670355 0.096943 0.261543
O O7 0.933624 0.119568 0.431859
O O8 0.966777 0.098283 0.106428
O O9 0.250000 0.955453 0.500000
O O10 0.437514 0.000000 0.750000
O O11 0.537320 0.009410 0.446362
#
# Coordination Sequence:
#
# PCOD9335283 Si02
#       5
#     8   4   8   8   8
#     4  12  29  50  75 120 165 214 283 344 424 506
#     4  12  24  48  90 108 160 226 268 352 414 506
#     4  10  23  47  74 111 159 210 267 347 418 495
#     4  10  22  47  75 114 158 210 270 342 415 507
#     4  10  21  45  81 115 147 210 285 324 428 503
#
# _framework density 26.517333000000001
#
# number of rings (size 3 to 8) (size 9 to 14) (size 15 to 20)
#    0.000    1.333    3.333    1.333    3.111    0.000 
#   24.000    0.000    0.000    0.000    0.000    0.000 
#    0.000    0.000    0.000    0.000    0.000    0.000 
#
# Total GULP energy -100760.960377 kJ/mol
# GULP energy per Si atom -5597.831132 kJ/mol
# Density = 2.645698 g / cm^3
# Si number density = 26.517333 Si / 1000 Ang^3
#
#
#
# Elastic Constant Matrix: (Units=GPa)
#
#
# Indices 1 2 3 4 5 6 
#
# 1 39.8518 14.1293 -8.3796 -0.0003 0.0001 0.0001
# 2 14.1293 155.7375 22.7813 0.0000 0.0003 0.0002
# 3 -8.3796 22.7813 136.8158 -0.0047 0.0013 -0.0018
# 4 -0.0003 0.0000 -0.0047 26.6816 -0.0003 -0.0005
# 5 0.0001 0.0003 0.0013 -0.0003 15.6729 -0.0003
# 6 0.0001 0.0002 -0.0018 -0.0005 -0.0003 55.6107
#
#
#
# Elastic Compliance Matrix: (Units=1/GPa)
#
#
# Indices 1 2 3 4 5 6 
#
# 1 0.026488 -0.002706 0.002073 0.000001 0.000000 0.000000
# 2 -0.002706 0.006858 -0.001308 0.000000 0.000000 0.000000
# 3 0.002073 -0.001308 0.007654 0.000001 -0.000001 0.000000
# 4 0.000001 0.000000 0.000001 0.037479 0.000001 0.000000
# 5 0.000000 0.000000 -0.000001 0.000001 0.063804 0.000000
# 6 0.000000 0.000000 0.000000 0.000000 0.000000 0.017982
#
#
# Mechanical properties :
#
#
# Convention : Reuss Voigt Hill
#
# Bulk Modulus (GPa) = 26.94114 43.27412 35.10763
# Shear Modulus (GPa) = 28.32532 39.85132 34.08832
#
# Velocity S-wave (km/s) = 3.27185 3.88085 3.58929
# Velocity P-wave (km/s) = 4.94522 6.03622 5.51775
#
# Compressibility (1/GPa) = 0.03711795
#
# Stress axis : x y z
#
# Youngs Moduli (GPa) = 37.75235 145.81750 130.65399
#
# Poissons Ratio (x) = 0.39464 -0.27085
# Poissons Ratio (y) = 0.10217 0.17085
# Poissons Ratio (z) = -0.07826 0.19068
#
# Static dielectric constant tensor:
#      x y z
#    x 1.497960 0.000000 0.000000 
#    y 0.000000 1.966970 0.000000 
#    z 0.000000 0.000000 2.098080 
# 
# From -- ./inp_files/9089.got.cif
#   From: 2010.05.17/outbox.cif.g08.bks.cpg/sg24_5_cif.got.tgz:9089.got - 2010.06.04 00:33:39.
