data_PCOD9335527
_publ_section_title
;
Structure prediction by ZEFSAII (Michael W. Deem and Ramdas Pophale) SiO2 
 PCOD9335527
Probable space group: I 21 21 21
;
_chemical_formula_sum "Si O2"
_cell_formula_units_Z 56
_cell_length_a 28.265423
_cell_length_b 5.707517
_cell_length_c 15.866349
_cell_angle_alpha 90.000000
_cell_angle_beta 90.000000
_cell_angle_gamma 90.000000
_cell_volume 2559.644818
_symmetry_space_group_name_H-M "I 21 21 21"
_symmetry_group_IT_number 24
_symmetry_cell_setting 'orthorhombic'
loop_
_space_group_symop_operation_xyz
x,y,z
-x,1/2-y,z
x,-y,1/2-z
1/2-x,y,-z
1/2+x,1/2+y,1/2+z
1/2-x,-y,1/2+z
1/2+x,1/2-y,-z
-x,1/2+y,1/2-z
loop_
_atom_site_type_symbol
_atom_site_label
_atom_site_fract_x
_atom_site_fract_y
_atom_site_fract_z
Si Si1 0.219097 0.061318 0.580320
Si Si2 0.556842 0.250042 0.292103
Si Si3 0.292731 0.663461 0.828338
Si Si4 0.619198 0.804420 0.049296
Si Si5 0.322456 0.324965 0.978780
Si Si6 0.016094 0.996534 0.345690
Si Si7 0.877435 0.559221 0.125294
O O1 0.250000 0.139348 0.500000
O O2 0.252085 0.142323 0.656510
O O3 0.168403 0.187024 0.581555
O O4 0.208558 0.793583 0.553000
O O5 0.500000 0.250000 0.293225
O O6 0.571675 0.500000 0.250000
O O7 0.578764 0.240972 0.384672
O O8 0.571813 0.000000 0.250000
O O9 0.281117 0.500000 0.750000
O O10 0.344081 0.783732 0.815574
O O11 0.299615 0.513115 0.914981
O O12 0.633248 0.069843 0.029466
O O13 0.608198 0.703176 0.957965
O O14 0.342380 0.133112 0.914089
O O15 0.072803 0.978026 0.339939
O O16 0.000000 0.250000 0.382408
O O17 0.995636 0.000000 0.250000
O O18 0.000000 0.750000 0.386749
#
# Coordination Sequence:
#
# PCOD9335527 Si02
#       7
#     8   8   8   8   8   8   8
#     4  11  21  42  63  92 133 182 230 277 357 419
#     4  10  24  47  74 104 143 182 228 300 375 436
#     4  11  25  40  66 103 135 180 239 295 360 428
#     4  10  23  41  70  98 128 184 230 279 356 429
#     4  10  22  40  69  91 135 184 225 290 345 427
#     4  10  24  42  63  92 134 184 229 281 354 417
#     4  10  23  40  64  96 133 178 231 287 351 420
#
# _framework density 21.878036000000002
#
# number of rings (size 3 to 8) (size 9 to 14) (size 15 to 20)
#    0.000    1.714    4.286    0.000   12.000    1.714 
#    0.000    1.429    0.000    0.000    0.000    0.000 
#    0.000    0.000    0.000    0.000    0.000    0.000 
#
# Total GULP energy -156080.175151 kJ/mol
# GULP energy per Si atom -5574.291970 kJ/mol
# Density = 2.182824 g / cm^3
# Si number density = 21.878036 Si / 1000 Ang^3
#
#
#
# Elastic Constant Matrix: (Units=GPa)
#
#
# Indices 1 2 3 4 5 6 
#
# 1 45.7336 23.1407 5.9407 0.0000 0.0000 0.0000
# 2 23.1407 118.8232 25.4017 0.0000 0.0000 0.0000
# 3 5.9407 25.4017 67.3701 0.0000 0.0000 0.0000
# 4 0.0000 0.0000 0.0000 29.7276 0.0000 0.0000
# 5 0.0000 0.0000 0.0000 0.0000 31.5975 0.0000
# 6 0.0000 0.0000 0.0000 0.0000 0.0000 21.3298
#
#
#
# Elastic Compliance Matrix: (Units=1/GPa)
#
#
# Indices 1 2 3 4 5 6 
#
# 1 0.024265 -0.004642 -0.000389 0.000000 0.000000 0.000000
# 2 -0.004642 0.010042 -0.003377 0.000000 0.000000 0.000000
# 3 -0.000389 -0.003377 0.016151 0.000000 0.000000 0.000000
# 4 0.000000 0.000000 0.000000 0.033639 0.000000 0.000000
# 5 0.000000 0.000000 0.000000 0.000000 0.031648 0.000000
# 6 0.000000 0.000000 0.000000 0.000000 0.000000 0.046883
#
#
# Mechanical properties :
#
#
# Convention : Reuss Voigt Hill
#
# Bulk Modulus (GPa) = 29.72570 37.87701 33.80136
# Shear Modulus (GPa) = 26.22486 28.36055 27.29270
#
# Velocity S-wave (km/s) = 3.46596 3.60433 3.53582
# Velocity P-wave (km/s) = 5.44368 5.88829 5.67034
#
# Compressibility (1/GPa) = 0.03364092
#
# Stress axis : x y z
#
# Youngs Moduli (GPa) = 41.21102 99.58296 61.91586
#
# Poissons Ratio (x) = 0.46231 0.02410
# Poissons Ratio (y) = 0.19132 0.20908
# Poissons Ratio (z) = 0.01604 0.33628
#
# Static dielectric constant tensor:
#      x y z
#    x 1.789700 0.000000 0.000000 
#    y 0.000000 1.926120 0.000000 
#    z 0.000000 0.000000 1.776000 
# 
# From -- ./inp_files/28231.got.cif
#   From: 2010.05.17/outbox.cif.g08.bks.cpg/sg24_15_cif.got.tgz:28231.got - 2010.06.04 00:33:39.
