data_PCOD9335472
_publ_section_title
;
Structure prediction by ZEFSAII (Michael W. Deem and Ramdas Pophale) SiO2 
 PCOD9335472
Probable space group: I 21 21 21
;
_chemical_formula_sum "Si O2"
_cell_formula_units_Z 64
_cell_length_a 24.852100
_cell_length_b 5.019674
_cell_length_c 24.058208
_cell_angle_alpha 90.000000
_cell_angle_beta 90.000000
_cell_angle_gamma 90.000000
_cell_volume 3001.247981
_symmetry_space_group_name_H-M "I 21 21 21"
_symmetry_group_IT_number 24
_symmetry_cell_setting 'orthorhombic'
loop_
_space_group_symop_operation_xyz
x,y,z
-x,1/2-y,z
x,-y,1/2-z
1/2-x,y,-z
1/2+x,1/2+y,1/2+z
1/2-x,-y,1/2+z
1/2+x,1/2-y,-z
-x,1/2+y,1/2-z
loop_
_atom_site_type_symbol
_atom_site_label
_atom_site_fract_x
_atom_site_fract_y
_atom_site_fract_z
Si Si1 0.806275 0.396853 0.404915
Si Si2 0.649169 0.971937 0.816917
Si Si3 0.109419 0.879380 0.559550
Si Si4 0.690192 0.626938 0.138703
Si Si5 0.960678 0.002207 0.113642
Si Si6 0.810429 0.882087 0.478327
Si Si7 0.768579 0.862793 0.690783
Si Si8 0.555919 0.104229 0.483997
O O1 0.832225 0.308608 0.345981
O O2 0.741329 0.414783 0.401948
O O3 0.826320 0.663980 0.432538
O O4 0.817740 0.161209 0.448290
O O5 0.592481 0.026795 0.847755
O O6 0.705742 0.131277 0.827441
O O7 0.641254 0.000000 0.750000
O O8 0.135454 0.008441 0.614494
O O9 0.154251 0.694913 0.530744
O O10 0.062977 0.655176 0.555439
O O11 0.095699 0.146357 0.525545
O O12 0.695266 0.937067 0.153495
O O13 0.708037 0.430805 0.188149
O O14 0.000000 0.750000 0.125171
O O15 0.943259 0.986056 0.048572
O O16 0.000000 0.250000 0.120942
O O17 0.750000 0.861343 0.500000
O O18 0.768922 0.000000 0.750000
O O19 0.500000 0.250000 0.472948
#
# Coordination Sequence:
#
# PCOD9335472 Si02
#       8
#     8   8   8   8   8   8   8   8
#     4  11  23  38  56  83 128 157 200 251 304 386
#     4  10  23  41  63  87 116 162 213 265 325 366
#     4  12  23  37  62  89 124 160 199 259 305 368
#     4  11  22  37  58  91 124 158 204 247 296 361
#     4  11  24  43  64  82 112 154 212 277 325 369
#     4  12  23  35  57  87 123 162 202 241 310 381
#     4  10  22  40  62  87 128 172 204 245 302 382
#     4  11  24  42  62  86 119 166 212 254 317 378
#
# _framework density 21.324463000000002
#
# number of rings (size 3 to 8) (size 9 to 14) (size 15 to 20)
#    0.000    1.000    1.250    7.125    1.750    3.500 
#    0.000    5.625    0.000    0.000    0.000    0.000 
#    0.000   28.000    0.000    0.000    0.000    0.000 
#
# Total GULP energy -178580.177922 kJ/mol
# GULP energy per Si atom -5580.630560 kJ/mol
# Density = 2.127593 g / cm^3
# Si number density = 21.324463 Si / 1000 Ang^3
#
#
#
# Elastic Constant Matrix: (Units=GPa)
#
#
# Indices 1 2 3 4 5 6 
#
# 1 99.4964 45.7910 48.9789 0.0000 0.0000 0.0000
# 2 45.7910 137.5717 42.8161 0.0000 0.0000 0.0000
# 3 48.9789 42.8161 83.3179 0.0000 0.0000 0.0000
# 4 0.0000 0.0000 0.0000 22.1963 0.0000 0.0000
# 5 0.0000 0.0000 0.0000 0.0000 28.8075 0.0000
# 6 0.0000 0.0000 0.0000 0.0000 0.0000 35.9249
#
#
#
# Elastic Compliance Matrix: (Units=1/GPa)
#
#
# Indices 1 2 3 4 5 6 
#
# 1 0.014920 -0.002662 -0.007403 0.000000 0.000000 0.000000
# 2 -0.002662 0.009128 -0.003126 0.000000 0.000000 0.000000
# 3 -0.007403 -0.003126 0.017960 0.000000 0.000000 0.000000
# 4 0.000000 0.000000 0.000000 0.045052 0.000000 0.000000
# 5 0.000000 0.000000 0.000000 0.000000 0.034713 0.000000
# 6 0.000000 0.000000 0.000000 0.000000 0.000000 0.027836
#
#
# Mechanical properties :
#
#
# Convention : Reuss Voigt Hill
#
# Bulk Modulus (GPa) = 63.99266 66.17310 65.08288
# Shear Modulus (GPa) = 27.59386 29.57242 28.58314
#
# Velocity S-wave (km/s) = 3.60112 3.72799 3.66511
# Velocity P-wave (km/s) = 6.88222 7.04482 6.96400
#
# Compressibility (1/GPa) = 0.01562679
#
# Stress axis : x y z
#
# Youngs Moduli (GPa) = 67.02430 109.55467 55.67865
#
# Poissons Ratio (x) = 0.29166 0.41217
# Poissons Ratio (y) = 0.17843 0.17403
# Poissons Ratio (z) = 0.49616 0.34243
#
# Static dielectric constant tensor:
#      x y z
#    x 1.871480 0.000000 0.000000 
#    y 0.000000 1.852890 0.000000 
#    z 0.000000 0.000000 1.817750 
# 
# From -- ./inp_files/36144.got.cif
#   From: 2010.05.17/outbox.cif.g08.bks.cpg/sg24_19_cif.got.tgz:36144.got - 2010.06.04 00:33:39.
