data_PCOD9335376
_publ_section_title
;
Structure prediction by ZEFSAII (Michael W. Deem and Ramdas Pophale) SiO2 
 PCOD9335376
Probable space group: I 21 21 21
;
_chemical_formula_sum "Si O2"
_cell_formula_units_Z 60
_cell_length_a 10.918077
_cell_length_b 27.100239
_cell_length_c 9.560919
_cell_angle_alpha 90.000000
_cell_angle_beta 90.000000
_cell_angle_gamma 90.000000
_cell_volume 2828.908579
_symmetry_space_group_name_H-M "I 21 21 21"
_symmetry_group_IT_number 24
_symmetry_cell_setting 'orthorhombic'
loop_
_space_group_symop_operation_xyz
x,y,z
-x,1/2-y,z
x,-y,1/2-z
1/2-x,y,-z
1/2+x,1/2+y,1/2+z
1/2-x,-y,1/2+z
1/2+x,1/2-y,-z
-x,1/2+y,1/2-z
loop_
_atom_site_type_symbol
_atom_site_label
_atom_site_fract_x
_atom_site_fract_y
_atom_site_fract_z
Si Si1 0.114854 0.718333 0.654799
Si Si2 0.994073 0.113128 0.801114
Si Si3 0.015727 0.385507 0.278846
Si Si4 0.615260 0.781606 0.681967
Si Si5 0.010299 0.959890 0.445455
Si Si6 0.762407 0.606795 0.834856
Si Si7 0.608997 0.060391 0.459750
Si Si8 0.719546 0.500000 0.750000
O O1 0.245667 0.732120 0.722223
O O2 0.117331 0.724389 0.486311
O O3 0.000000 0.750000 0.708226
O O4 0.089763 0.660410 0.674027
O O5 0.120718 0.132186 0.732868
O O6 0.923816 0.076927 0.695580
O O7 0.027344 0.082635 0.940087
O O8 0.085609 0.337402 0.227703
O O9 0.053993 0.432439 0.184665
O O10 0.040246 0.401379 0.437195
O O11 0.868153 0.380118 0.265299
O O12 0.500000 0.750000 0.736231
O O13 0.133524 0.982199 0.377775
O O14 0.937822 0.005550 0.508578
O O15 0.787873 0.548381 0.803866
O O16 0.750000 0.614384 0.000000
O O17 0.750000 0.063797 0.500000
#
# Coordination Sequence:
#
# PCOD9335376 Si02
#       8
#     8   8   8   8   8   8   8   4
#     4  10  23  44  67 100 138 163 216 284 333 399
#     4  12  25  41  67  99 128 177 221 271 339 394
#     4  11  22  43  65  93 134 173 215 270 339 384
#     4  10  22  43  71  99 131 174 216 272 343 405
#     4  11  22  42  61  97 130 176 222 268 324 391
#     4  11  23  38  64  90 136 173 218 272 323 392
#     4  12  25  41  62  91 134 178 223 267 320 399
#     4  10  22  38  60  90 140 174 218 278 318 380
#
# _framework density 21.209595
#
# number of rings (size 3 to 8) (size 9 to 14) (size 15 to 20)
#    0.000    1.067    5.333    1.200    5.600    4.800 
#    0.000    0.667    0.000    0.000    0.000    0.000 
#    0.000    0.000    0.000    0.000    0.000    0.000 
#
# Total GULP energy -167656.455336 kJ/mol
# GULP energy per Si atom -5588.548511 kJ/mol
# Density = 2.116132 g / cm^3
# Si number density = 21.209595 Si / 1000 Ang^3
#
#
#
# Elastic Constant Matrix: (Units=GPa)
#
#
# Indices 1 2 3 4 5 6 
#
# 1 132.0912 32.7623 12.5855 0.0000 -0.0002 -0.0002
# 2 32.7623 63.2114 -8.0629 0.0001 -0.0002 -0.0003
# 3 12.5855 -8.0629 54.5054 0.0005 -0.0010 -0.0009
# 4 0.0000 0.0001 0.0005 12.4193 -0.0001 -0.0001
# 5 -0.0002 -0.0002 -0.0010 -0.0001 14.7402 0.0001
# 6 -0.0002 -0.0003 -0.0009 -0.0001 0.0001 21.4260
#
#
#
# Elastic Compliance Matrix: (Units=1/GPa)
#
#
# Indices 1 2 3 4 5 6 
#
# 1 0.009103 -0.005082 -0.002854 0.000000 0.000000 0.000000
# 2 -0.005082 0.018961 0.003978 0.000000 0.000000 0.000000
# 3 -0.002854 0.003978 0.019594 -0.000001 0.000001 0.000001
# 4 0.000000 0.000000 -0.000001 0.080520 0.000001 0.000000
# 5 0.000000 0.000000 0.000001 0.000001 0.067842 0.000000
# 6 0.000000 0.000000 0.000001 0.000000 0.000000 0.046672
#
#
# Mechanical properties :
#
#
# Convention : Reuss Voigt Hill
#
# Bulk Modulus (GPa) = 25.16103 36.04195 30.60149
# Shear Modulus (GPa) = 18.94979 23.88530 21.41754
#
# Velocity S-wave (km/s) = 2.99231 3.35946 3.18119
# Velocity P-wave (km/s) = 4.88133 5.66376 5.28704
#
# Compressibility (1/GPa) = 0.03974400
#
# Stress axis : x y z
#
# Youngs Moduli (GPa) = 109.85518 52.73878 51.03535
#
# Poissons Ratio (x) = 0.26802 0.14564
# Poissons Ratio (y) = 0.55828 -0.20304
# Poissons Ratio (z) = 0.31349 -0.20982
#
# Static dielectric constant tensor:
#      x y z
#    x 1.797710 0.000000 0.000000 
#    y 0.000000 1.747450 0.000000 
#    z 0.000000 0.000000 1.746140 
# 
# From -- ./inp_files/11521.got.cif
#   From: 2010.05.17/outbox.cif.g08.bks.cpg/sg24_6_cif.got.tgz:11521.got - 2010.06.04 00:33:39.
