data_PCOD9335944
_publ_section_title
;
Structure prediction by ZEFSAII (Michael W. Deem and Ramdas Pophale) SiO2 
 PCOD9335944
Probable space group: I 21 21 21
;
_chemical_formula_sum "Si O2"
_cell_formula_units_Z 32
_cell_length_a 18.086191
_cell_length_b 4.975994
_cell_length_c 14.800005
_cell_angle_alpha 90.000000
_cell_angle_beta 90.000000
_cell_angle_gamma 90.000000
_cell_volume 1331.952763
_symmetry_space_group_name_H-M "I 21 21 21"
_symmetry_group_IT_number 24
_symmetry_cell_setting 'orthorhombic'
loop_
_space_group_symop_operation_xyz
x,y,z
-x,1/2-y,z
x,-y,1/2-z
1/2-x,y,-z
1/2+x,1/2+y,1/2+z
1/2-x,-y,1/2+z
1/2+x,1/2-y,-z
-x,1/2+y,1/2-z
loop_
_atom_site_type_symbol
_atom_site_label
_atom_site_fract_x
_atom_site_fract_y
_atom_site_fract_z
Si Si1 0.665599 0.319753 0.337781
Si Si2 0.078954 0.165732 0.488815
Si Si3 0.806817 0.500000 0.250000
Si Si4 0.054091 0.500000 0.750000
Si Si5 0.423156 0.674057 0.639050
O O1 0.640637 0.500000 0.250000
O O2 0.643667 0.384516 0.439318
O O3 0.752576 0.339442 0.319262
O O4 0.614772 0.054810 0.327901
O O5 0.087556 0.383164 0.407098
O O6 0.000000 0.250000 0.533419
O O7 0.070737 0.879663 0.443413
O O8 0.856242 0.281517 0.199221
O O9 0.000000 0.750000 0.734255
O O10 0.500000 0.750000 0.690110
#
# Coordination Sequence:
#
# PCOD9335944 Si02
#       5
#     8   8   4   4   8
#     4  10  25  43  68 109 148 192 242 297 386 439
#     4  10  23  43  70 105 141 184 241 305 366 442
#     4  10  25  50  71 108 144 194 252 304 379 452
#     4  12  23  40  65 100 146 200 238 286 347 450
#     4  10  24  46  74 103 137 190 250 310 365 431
#
# _framework density 24.024877
#
# number of rings (size 3 to 8) (size 9 to 14) (size 15 to 20)
#    0.750    1.000    1.250    0.750    3.500    8.000 
#    0.000    2.500    0.000    0.000    0.000    0.000 
#    0.000    0.000    0.000    0.000    0.000    0.000 
#
# Total GULP energy -89110.082768 kJ/mol
# GULP energy per Si atom -5569.380173 kJ/mol
# Density = 2.397020 g / cm^3
# Si number density = 24.024877 Si / 1000 Ang^3
#
#
#
# Elastic Constant Matrix: (Units=GPa)
#
#
# Indices 1 2 3 4 5 6 
#
# 1 197.4886 31.8810 63.2964 0.0000 0.0000 0.0000
# 2 31.8810 109.3268 30.0993 0.0000 0.0000 0.0000
# 3 63.2964 30.0993 89.8922 0.0000 0.0000 0.0000
# 4 0.0000 0.0000 0.0000 34.1682 0.0000 0.0000
# 5 0.0000 0.0000 0.0000 0.0000 67.5950 0.0000
# 6 0.0000 0.0000 0.0000 0.0000 0.0000 -768.0152
#
#
#
# Elastic Compliance Matrix: (Units=1/GPa)
#
#
# Indices 1 2 3 4 5 6 
#
# 1 0.006589 -0.000709 -0.004402 0.000000 0.000000 0.000000
# 2 -0.000709 0.010152 -0.002900 0.000000 0.000000 0.000000
# 3 -0.004402 -0.002900 0.015195 0.000000 0.000000 0.000000
# 4 0.000000 0.000000 0.000000 0.029267 0.000000 0.000000
# 5 0.000000 0.000000 0.000000 0.000000 0.014794 0.000000
# 6 0.000000 0.000000 0.000000 0.000000 0.000000 -0.001302
#
#
# Mechanical properties :
#
#
# Convention : Reuss Voigt Hill
#
# Bulk Modulus (GPa) = 62.83909 71.91789 67.37849
# Shear Modulus (GPa) = 52.07144 -115.15500 -31.54178
#
# Velocity S-wave (km/s) = 4.66058 -6.93077 -3.62730
# Velocity P-wave (km/s) = 7.42792 5.83504 3.25009
#
# Compressibility (1/GPa) = 0.01591366
#
# Stress axis : x y z
#
# Youngs Moduli (GPa) = 151.76853 98.50158 65.81126
#
# Poissons Ratio (x) = 0.06989 0.28970
# Poissons Ratio (y) = 0.10768 0.19083
# Poissons Ratio (z) = 0.66808 0.28563
#
# Static dielectric constant tensor:
#      x y z
#    x 2.045980 0.000000 0.000000 
#    y 0.000000 1.996370 0.000000 
#    z 0.000000 0.000000 2.177510 
# 
# From -- ./inp_files/30545.got.cif
#   From: 2010.05.17/outbox.cif.g08.bks.cpg/sg24_16_cif.got.tgz:30545.got - 2010.06.04 00:33:39.
