data_PCOD9335927
_publ_section_title
;
Structure prediction by ZEFSAII (Michael W. Deem and Ramdas Pophale) SiO2 
 PCOD9335927
Probable space group: I 21 21 21
;
_chemical_formula_sum "Si O2"
_cell_formula_units_Z 32
_cell_length_a 9.182216
_cell_length_b 11.044923
_cell_length_c 13.841295
_cell_angle_alpha 90.000000
_cell_angle_beta 90.000000
_cell_angle_gamma 90.000000
_cell_volume 1403.740798
_symmetry_space_group_name_H-M "I 21 21 21"
_symmetry_group_IT_number 24
_symmetry_cell_setting 'orthorhombic'
loop_
_space_group_symop_operation_xyz
x,y,z
-x,1/2-y,z
x,-y,1/2-z
1/2-x,y,-z
1/2+x,1/2+y,1/2+z
1/2-x,-y,1/2+z
1/2+x,1/2-y,-z
-x,1/2+y,1/2-z
loop_
_atom_site_type_symbol
_atom_site_label
_atom_site_fract_x
_atom_site_fract_y
_atom_site_fract_z
Si Si1 0.169068 0.568137 0.896338
Si Si2 0.785775 0.834955 0.298351
Si Si3 0.616061 0.419974 0.835307
Si Si4 0.914741 0.364413 0.483008
O O1 0.189939 0.432324 0.856356
O O2 0.234708 0.653662 0.812637
O O3 0.250000 0.570858 0.000000
O O4 0.004913 0.605671 0.920541
O O5 0.789612 0.701481 0.343991
O O6 0.953220 0.879843 0.304208
O O7 0.681974 0.500000 0.750000
O O8 0.592801 0.511676 0.923049
O O9 0.750000 0.327820 0.500000
O O10 0.000000 0.250000 0.436749
#
# Coordination Sequence:
#
# PCOD9335927 Si02
#       4
#     8   8   8   8
#     4  11  21  46  77 108 153 206 258 326 393 463
#     4  10  23  42  75 118 154 209 256 325 393 464
#     4  11  23  42  73 111 156 201 261 312 390 467
#     4  12  29  47  76 111 152 208 264 318 394 474
#
# _framework density 22.796232
#
# number of rings (size 3 to 8) (size 9 to 14) (size 15 to 20)
#    0.000    1.000    5.000    0.750   10.500    1.000 
#    4.500    0.000    0.000    0.000    0.000    0.000 
#    0.000    0.000    0.000    0.000    0.000    0.000 
#
# Total GULP energy -89468.815985 kJ/mol
# GULP energy per Si atom -5591.800999 kJ/mol
# Density = 2.274435 g / cm^3
# Si number density = 22.796232 Si / 1000 Ang^3
#
#
#
# Elastic Constant Matrix: (Units=GPa)
#
#
# Indices 1 2 3 4 5 6 
#
# 1 126.4064 52.5733 50.1784 0.0000 0.0000 0.0000
# 2 52.5733 213.2810 62.5514 0.0000 0.0000 0.0000
# 3 50.1784 62.5514 123.6463 0.0000 0.0000 0.0000
# 4 0.0000 0.0000 0.0000 4.2314 0.0000 0.0000
# 5 0.0000 0.0000 0.0000 0.0000 12.2765 0.0000
# 6 0.0000 0.0000 0.0000 0.0000 0.0000 23.7914
#
#
#
# Elastic Compliance Matrix: (Units=1/GPa)
#
#
# Indices 1 2 3 4 5 6 
#
# 1 0.009807 -0.001468 -0.003237 0.000000 0.000000 0.000000
# 2 -0.001468 0.005725 -0.002301 0.000000 0.000000 0.000000
# 3 -0.003237 -0.002301 0.010565 0.000000 0.000000 0.000000
# 4 0.000000 0.000000 0.000000 0.236327 0.000000 0.000000
# 5 0.000000 0.000000 0.000000 0.000000 0.081456 0.000000
# 6 0.000000 0.000000 0.000000 0.000000 0.000000 0.042032
#
#
# Mechanical properties :
#
#
# Convention : Reuss Voigt Hill
#
# Bulk Modulus (GPa) = 82.74304 88.21553 85.47928
# Shear Modulus (GPa) = 12.37771 27.92858 20.15314
#
# Velocity S-wave (km/s) = 2.33270 3.50400 2.97653
# Velocity P-wave (km/s) = 6.60537 7.42645 7.02791
#
# Compressibility (1/GPa) = 0.01208561
#
# Stress axis : x y z
#
# Youngs Moduli (GPa) = 101.97312 174.66597 94.65101
#
# Poissons Ratio (x) = 0.25639 0.30639
# Poissons Ratio (y) = 0.14969 0.21776
# Poissons Ratio (z) = 0.33010 0.40184
#
# Static dielectric constant tensor:
#      x y z
#    x 1.870010 0.000000 0.000000 
#    y 0.000000 1.928290 0.000000 
#    z 0.000000 0.000000 1.865490 
# 
# From -- ./inp_files/24355.got.cif
#   From: 2010.05.17/outbox.cif.g08.bks.cpg/sg24_13_cif.got.tgz:24355.got - 2010.06.04 00:33:39.
