data_PCOD9336815
_publ_section_title
;
Structure prediction by ZEFSAII (Michael W. Deem and Ramdas Pophale) SiO2 
 PCOD9336815
Probable space group: I 21 21 21
;
_chemical_formula_sum "Si O2"
_cell_formula_units_Z 36
_cell_length_a 5.224521
_cell_length_b 21.669374
_cell_length_c 14.803565
_cell_angle_alpha 90.000000
_cell_angle_beta 90.000000
_cell_angle_gamma 90.000000
_cell_volume 1675.942674
_symmetry_space_group_name_H-M "I 21 21 21"
_symmetry_group_IT_number 24
_symmetry_cell_setting 'orthorhombic'
loop_
_space_group_symop_operation_xyz
x,y,z
-x,1/2-y,z
x,-y,1/2-z
1/2-x,y,-z
1/2+x,1/2+y,1/2+z
1/2-x,-y,1/2+z
1/2+x,1/2-y,-z
-x,1/2+y,1/2-z
loop_
_atom_site_type_symbol
_atom_site_label
_atom_site_fract_x
_atom_site_fract_y
_atom_site_fract_z
Si Si1 0.473963 0.072435 0.741245
Si Si2 0.471791 0.632986 0.167689
Si Si3 0.000000 0.250000 0.797515
Si Si4 0.000000 0.750000 0.418227
Si Si5 0.750000 0.791330 0.000000
Si Si6 0.998731 0.389181 0.049137
O O1 0.749839 0.086246 0.698060
O O2 0.481040 0.100025 0.843458
O O3 0.250659 0.102339 0.679444
O O4 0.427093 0.000000 0.750000
O O5 0.479161 0.689599 0.237285
O O6 0.379136 0.665113 0.075455
O O7 0.748763 0.252564 0.856817
O O8 0.996790 0.815332 0.468125
O O9 0.500000 0.750000 0.968018
O O10 0.750000 0.415280 0.000000
O O11 0.250000 0.415045 0.000000
#
# Coordination Sequence:
#
# PCOD9336815 Si02
#       6
#     8   8   4   4   4   8
#     4  12  27  50  72  94 140 197 243 285 345 424
#     4  12  24  46  72 102 142 186 235 293 365 425
#     4  12  20  39  71  98 136 182 216 276 359 425
#     4  12  22  39  67 102 138 174 214 270 357 423
#     4  12  26  42  74 116 150 176 232 312 378 450
#     4  12  24  42  67 102 136 171 224 285 341 408
#
# _framework density 21.480447999999999
#
# number of rings (size 3 to 8) (size 9 to 14) (size 15 to 20)
#    0.000    0.000    5.556    5.333    1.556    0.000 
#    6.000    0.000    0.000    0.000    0.000    0.000 
#    0.000    0.000    0.000    0.000    0.000    0.000 
#
# Total GULP energy -100663.879187 kJ/mol
# GULP energy per Si atom -5592.437733 kJ/mol
# Density = 2.143156 g / cm^3
# Si number density = 21.480448 Si / 1000 Ang^3
#
#
#
# Elastic Constant Matrix: (Units=GPa)
#
#
# Indices 1 2 3 4 5 6 
#
# 1 174.7562 15.4596 44.3127 0.0000 0.0000 0.0000
# 2 15.4596 78.9049 3.9680 0.0000 0.0000 0.0000
# 3 44.3127 3.9680 82.2220 0.0000 0.0000 0.0000
# 4 0.0000 0.0000 0.0000 10.3189 0.0000 0.0000
# 5 0.0000 0.0000 0.0000 0.0000 28.3350 0.0000
# 6 0.0000 0.0000 0.0000 0.0000 0.0000 76.6072
#
#
#
# Elastic Compliance Matrix: (Units=1/GPa)
#
#
# Indices 1 2 3 4 5 6 
#
# 1 0.006729 -0.001139 -0.003571 0.000000 0.000000 0.000000
# 2 -0.001139 0.012897 -0.000009 0.000000 0.000000 0.000000
# 3 -0.003571 -0.000009 0.014087 0.000000 0.000000 0.000000
# 4 0.000000 0.000000 0.000000 0.096909 0.000000 0.000000
# 5 0.000000 0.000000 0.000000 0.000000 0.035292 0.000000
# 6 0.000000 0.000000 0.000000 0.000000 0.000000 0.013054
#
#
# Mechanical properties :
#
#
# Convention : Reuss Voigt Hill
#
# Bulk Modulus (GPa) = 41.19391 51.48485 46.33938
# Shear Modulus (GPa) = 25.44566 41.19509 33.32037
#
# Velocity S-wave (km/s) = 3.44553 4.38401 3.94279
# Velocity P-wave (km/s) = 5.92013 7.04602 6.50747
#
# Compressibility (1/GPa) = 0.02427543
#
# Stress axis : x y z
#
# Youngs Moduli (GPa) = 148.61991 77.53727 70.98561
#
# Poissons Ratio (x) = 0.08829 0.25351
# Poissons Ratio (y) = 0.16924 0.00062
# Poissons Ratio (z) = 0.53077 0.00068
#
# Static dielectric constant tensor:
#      x y z
#    x 1.808100 0.000000 0.000000 
#    y 0.000000 1.753060 0.000000 
#    z 0.000000 0.000000 1.779840 
# 
# From -- ./inp_files/23641.got.cif
#   From: 2010.05.17/outbox.cif.g08.bks.cpg/sg24_12_cif.got.tgz:23641.got - 2010.06.04 00:33:39.
