data_PCOD9336528
_publ_section_title
;
Structure prediction by ZEFSAII (Michael W. Deem and Ramdas Pophale) SiO2 
 PCOD9336528
Probable space group: I 21 21 21
;
_chemical_formula_sum "Si O2"
_cell_formula_units_Z 28
_cell_length_a 5.576864
_cell_length_b 31.958240
_cell_length_c 7.395429
_cell_angle_alpha 90.000000
_cell_angle_beta 90.000000
_cell_angle_gamma 90.000000
_cell_volume 1318.063336
_symmetry_space_group_name_H-M "I 21 21 21"
_symmetry_group_IT_number 24
_symmetry_cell_setting 'orthorhombic'
loop_
_space_group_symop_operation_xyz
x,y,z
-x,1/2-y,z
x,-y,1/2-z
1/2-x,y,-z
1/2+x,1/2+y,1/2+z
1/2-x,-y,1/2+z
1/2+x,1/2-y,-z
-x,1/2+y,1/2-z
loop_
_atom_site_type_symbol
_atom_site_label
_atom_site_fract_x
_atom_site_fract_y
_atom_site_fract_z
Si Si1 0.057093 0.342364 0.355925
Si Si2 0.750000 0.414927 0.500000
Si Si3 0.750000 0.886431 0.500000
Si Si4 0.425896 0.039777 0.159657
Si Si5 0.250000 0.225121 0.500000
O O1 0.250000 0.325454 0.500000
O O2 0.148302 0.357370 0.160923
O O3 0.966324 0.383730 0.459001
O O4 0.845957 0.307584 0.346287
O O5 0.725519 0.442474 0.324375
O O6 0.566324 0.919728 0.412076
O O7 0.563985 0.000000 0.250000
O O8 0.250000 0.025974 0.000000
O O9 0.500000 0.250000 0.453956
#
# Coordination Sequence:
#
# PCOD9336528 Si02
#       5
#     8   4   4   8   4
#     4  11  23  42  76 105 144 190 240 300 369 441
#     4  11  22  40  64  96 136 192 244 300 362 436
#     4  12  26  42  70 109 140 188 256 301 366 444
#     4  12  25  40  64  97 144 191 250 315 370 416
#     4  11  24  48  82 113 150 194 236 295 382 458
#
# _framework density 21.243288
#
# number of rings (size 3 to 8) (size 9 to 14) (size 15 to 20)
#    0.000    0.571    8.571    0.000    0.000    3.429 
#    0.000    0.000    6.286    0.000    0.000    0.000 
#    0.000    0.000    0.000    0.000    0.000    0.000 
#
# Total GULP energy -77950.145262 kJ/mol
# GULP energy per Si atom -5567.867519 kJ/mol
# Density = 2.119494 g / cm^3
# Si number density = 21.243288 Si / 1000 Ang^3
#
#
#
# Elastic Constant Matrix: (Units=GPa)
#
#
# Indices 1 2 3 4 5 6 
#
# 1 92.8890 64.5017 58.7089 0.0000 0.0000 0.0000
# 2 64.5017 134.4192 63.4980 -0.0001 0.0000 0.0003
# 3 58.7089 63.4980 154.2876 0.0007 -0.0003 0.0008
# 4 0.0000 -0.0001 0.0007 15.1671 0.0001 -0.0001
# 5 0.0000 0.0000 -0.0003 0.0001 31.7533 0.0000
# 6 0.0000 0.0003 0.0008 -0.0001 0.0000 90.7956
#
#
#
# Elastic Compliance Matrix: (Units=1/GPa)
#
#
# Indices 1 2 3 4 5 6 
#
# 1 0.018011 -0.006710 -0.004092 0.000000 0.000000 0.000000
# 2 -0.006710 0.011734 -0.002276 0.000000 0.000000 0.000000
# 3 -0.004092 -0.002276 0.008975 0.000000 0.000000 0.000000
# 4 0.000000 0.000000 0.000000 0.065932 0.000000 0.000000
# 5 0.000000 0.000000 0.000000 0.000000 0.031493 0.000000
# 6 0.000000 0.000000 0.000000 0.000000 0.000000 0.011014
#
#
# Mechanical properties :
#
#
# Convention : Reuss Voigt Hill
#
# Bulk Modulus (GPa) = 79.58758 83.89034 81.73896
# Shear Modulus (GPa) = 28.16848 40.53568 34.35208
#
# Velocity S-wave (km/s) = 3.64537 4.37299 4.02566
# Velocity P-wave (km/s) = 7.43401 8.06681 7.75686
#
# Compressibility (1/GPa) = 0.01256477
#
# Stress axis : x y z
#
# Youngs Moduli (GPa) = 55.52160 85.22021 111.41688
#
# Poissons Ratio (x) = 0.57179 0.45593
# Poissons Ratio (y) = 0.37253 0.25361
# Poissons Ratio (z) = 0.22720 0.19398
#
# Static dielectric constant tensor:
#      x y z
#    x 1.859830 0.000000 0.000000 
#    y 0.000000 1.854640 0.000000 
#    z 0.000000 0.000000 1.580480 
# 
# From -- ./inp_files/8224.got.cif
#   From: 2010.05.17/outbox.cif.g08.bks.cpg/sg24_5_cif.got.tgz:8224.got - 2010.06.04 00:33:39.
