data_PCOD9336210
_publ_section_title
;
Structure prediction by ZEFSAII (Michael W. Deem and Ramdas Pophale) SiO2 
 PCOD9336210
Probable space group: I 21 21 21
;
_chemical_formula_sum "Si O2"
_cell_formula_units_Z 44
_cell_length_a 8.343540
_cell_length_b 16.471021
_cell_length_c 14.430813
_cell_angle_alpha 90.000000
_cell_angle_beta 90.000000
_cell_angle_gamma 90.000000
_cell_volume 1983.177891
_symmetry_space_group_name_H-M "I 21 21 21"
_symmetry_group_IT_number 24
_symmetry_cell_setting 'orthorhombic'
loop_
_space_group_symop_operation_xyz
x,y,z
-x,1/2-y,z
x,-y,1/2-z
1/2-x,y,-z
1/2+x,1/2+y,1/2+z
1/2-x,-y,1/2+z
1/2+x,1/2-y,-z
-x,1/2+y,1/2-z
loop_
_atom_site_type_symbol
_atom_site_label
_atom_site_fract_x
_atom_site_fract_y
_atom_site_fract_z
Si Si1 0.740352 0.817907 0.728820
Si Si2 0.000000 0.250000 0.626353
Si Si3 0.250000 0.556364 0.000000
Si Si4 0.510121 0.152974 0.625165
Si Si5 0.943318 0.955212 0.650338
Si Si6 0.750000 0.350133 0.500000
Si Si7 0.155574 0.189841 0.904678
O O1 0.574644 0.849207 0.771144
O O2 0.803415 0.889505 0.665421
O O3 0.736799 0.734032 0.673057
O O4 0.879536 0.800776 0.806871
O O5 0.116424 0.197891 0.560382
O O6 0.349340 0.613422 0.932842
O O7 0.122638 0.508758 0.934899
O O8 0.500000 0.250000 0.610590
O O9 0.351807 0.111311 0.583874
O O10 0.094955 0.899103 0.624934
O O11 0.963765 0.000000 0.750000
O O12 0.000000 0.250000 0.912733
O O13 0.250000 0.187075 0.000000
#
# Coordination Sequence:
#
# PCOD9336210 Si02
#       7
#     8   4   4   8   8   4   8
#     4  11  22  43  74 100 140 190 245 297 359 442
#     4  12  18  40  60 104 138 176 230 284 370 410
#     4  12  27  48  72 102 147 204 240 304 383 452
#     4  12  23  41  67 104 138 179 243 299 361 438
#     4  11  24  47  73 101 152 198 241 303 380 446
#     4  12  23  34  64 104 143 174 226 306 357 430
#     4  10  24  46  75 109 144 194 249 307 360 443
#
# _framework density 22.186615
#
# number of rings (size 3 to 8) (size 9 to 14) (size 15 to 20)
#    0.000    0.727    7.273    1.636    5.091    0.727 
#    1.636    0.000    0.000    2.182    0.000    0.000 
#    0.000    0.000    0.000    0.000    0.000    0.000 
#
# Total GULP energy -122724.848956 kJ/mol
# GULP energy per Si atom -5578.402225 kJ/mol
# Density = 2.213612 g / cm^3
# Si number density = 22.186615 Si / 1000 Ang^3
#
#
#
# Elastic Constant Matrix: (Units=GPa)
#
#
# Indices 1 2 3 4 5 6 
#
# 1 80.5943 12.0288 40.7909 0.0000 0.0000 0.0000
# 2 12.0288 79.9379 32.8559 0.0000 0.0000 0.0000
# 3 40.7909 32.8559 108.5718 0.0000 0.0000 0.0000
# 4 0.0000 0.0000 0.0000 37.8060 0.0000 0.0000
# 5 0.0000 0.0000 0.0000 0.0000 59.1553 0.0000
# 6 0.0000 0.0000 0.0000 0.0000 0.0000 8.3810
#
#
#
# Elastic Compliance Matrix: (Units=1/GPa)
#
#
# Indices 1 2 3 4 5 6 
#
# 1 0.015322 0.000069 -0.005777 0.000000 0.000000 0.000000
# 2 0.000069 0.014287 -0.004349 0.000000 0.000000 0.000000
# 3 -0.005777 -0.004349 0.012697 0.000000 0.000000 0.000000
# 4 0.000000 0.000000 0.000000 0.026451 0.000000 0.000000
# 5 0.000000 0.000000 0.000000 0.000000 0.016905 0.000000
# 6 0.000000 0.000000 0.000000 0.000000 0.000000 0.119318
#
#
# Mechanical properties :
#
#
# Convention : Reuss Voigt Hill
#
# Bulk Modulus (GPa) = 45.06443 48.93946 47.00195
# Shear Modulus (GPa) = 21.50616 33.29702 27.40159
#
# Velocity S-wave (km/s) = 3.11678 3.87818 3.51814
# Velocity P-wave (km/s) = 5.77132 6.49305 6.14279
#
# Compressibility (1/GPa) = 0.02219045
#
# Stress axis : x y z
#
# Youngs Moduli (GPa) = 65.26761 69.99355 78.75720
#
# Poissons Ratio (x) = -0.00483 0.45500
# Poissons Ratio (y) = -0.00450 0.34255
# Poissons Ratio (z) = 0.37707 0.30443
#
# Static dielectric constant tensor:
#      x y z
#    x 1.878230 0.000000 0.000000 
#    y 0.000000 1.819780 0.000000 
#    z 0.000000 0.000000 2.023130 
# 
# From -- ./inp_files/24767.got.cif
#   From: 2010.05.17/outbox.cif.g08.bks.cpg/sg24_13_cif.got.tgz:24767.got - 2010.06.04 00:33:39.
