data_PCOD9336287
_publ_section_title
;
Structure prediction by ZEFSAII (Michael W. Deem and Ramdas Pophale) SiO2 
 PCOD9336287
Probable space group: I 21 21 21
;
_chemical_formula_sum "Si O2"
_cell_formula_units_Z 32
_cell_length_a 8.759940
_cell_length_b 31.200273
_cell_length_c 5.099979
_cell_angle_alpha 90.000000
_cell_angle_beta 90.000000
_cell_angle_gamma 90.000000
_cell_volume 1393.888110
_symmetry_space_group_name_H-M "I 21 21 21"
_symmetry_group_IT_number 24
_symmetry_cell_setting 'orthorhombic'
loop_
_space_group_symop_operation_xyz
x,y,z
-x,1/2-y,z
x,-y,1/2-z
1/2-x,y,-z
1/2+x,1/2+y,1/2+z
1/2-x,-y,1/2+z
1/2+x,1/2-y,-z
-x,1/2+y,1/2-z
loop_
_atom_site_type_symbol
_atom_site_label
_atom_site_fract_x
_atom_site_fract_y
_atom_site_fract_z
Si Si1 0.359259 0.451003 0.247652
Si Si2 0.918935 0.289256 0.899438
Si Si3 0.355289 0.665799 0.748350
Si Si4 0.080682 0.120221 0.589519
O O1 0.417573 0.500000 0.250000
O O2 0.250000 0.445176 0.500000
O O3 0.495480 0.416877 0.252801
O O4 0.250000 0.446026 0.000000
O O5 0.911654 0.334041 0.741232
O O6 0.000000 0.250000 0.749665
O O7 0.750000 0.279243 0.000000
O O8 0.033869 0.297559 0.140890
O O9 0.250000 0.654505 0.500000
O O10 0.250000 0.675965 0.000000
O O11 0.470730 0.629287 0.842825
O O12 0.250000 0.108833 0.500000
#
# Coordination Sequence:
#
# PCOD9336287 Si02
#       4
#     8   8   8   8
#     4  10  25  48  79 115 149 192 247 302 370 457
#     4  12  28  50  73 111 152 201 256 317 369 442
#     4  12  26  47  75 108 142 198 250 305 372 438
#     4  12  27  48  78 112 154 196 250 313 375 444
#
# _framework density 22.957364999999999
#
# number of rings (size 3 to 8) (size 9 to 14) (size 15 to 20)
#    0.000    0.500    5.000    1.500    7.000    1.000 
#    4.500    5.000    0.000    0.000    0.000    0.000 
#    0.000    0.000    0.000    0.000    0.000    0.000 
#
# Total GULP energy -89607.322278 kJ/mol
# GULP energy per Si atom -5600.457642 kJ/mol
# Density = 2.290511 g / cm^3
# Si number density = 22.957365 Si / 1000 Ang^3
#
#
#
# Elastic Constant Matrix: (Units=GPa)
#
#
# Indices 1 2 3 4 5 6 
#
# 1 207.8627 89.5468 69.2386 0.0690 -0.0254 0.0150
# 2 89.5468 176.6780 36.4545 -0.0332 -0.0397 0.0154
# 3 69.2386 36.4545 145.7098 0.1266 -0.1441 0.0753
# 4 0.0690 -0.0332 0.1266 86.8216 -0.0697 0.1338
# 5 -0.0254 -0.0397 -0.1441 -0.0697 28.0881 0.0431
# 6 0.0150 0.0154 0.0753 0.1338 0.0431 32.4488
#
#
#
# Elastic Compliance Matrix: (Units=1/GPa)
#
#
# Indices 1 2 3 4 5 6 
#
# 1 0.006953 -0.002997 -0.002554 -0.000003 -0.000011 0.000004
# 2 -0.002997 0.007260 -0.000392 0.000006 0.000006 -0.000001
# 3 -0.002554 -0.000392 0.008175 -0.000010 0.000039 -0.000018
# 4 -0.000003 0.000006 -0.000010 0.011518 0.000029 -0.000048
# 5 -0.000011 0.000006 0.000039 0.000029 0.035603 -0.000048
# 6 0.000004 -0.000001 -0.000018 -0.000048 -0.000048 0.030818
#
#
# Mechanical properties :
#
#
# Convention : Reuss Voigt Hill
#
# Bulk Modulus (GPa) = 95.22887 102.30334 98.76611
# Shear Modulus (GPa) = 43.21054 51.80576 47.50815
#
# Velocity S-wave (km/s) = 4.34315 4.75553 4.55401
# Velocity P-wave (km/s) = 8.16832 8.64942 8.41231
#
# Compressibility (1/GPa) = 0.01050102
#
# Stress axis : x y z
#
# Youngs Moduli (GPa) = 143.83010 137.74338 122.32769
#
# Poissons Ratio (x) = 0.41280 0.31243
# Poissons Ratio (y) = 0.43104 0.04798
# Poissons Ratio (z) = 0.36734 0.05403
#
# Static dielectric constant tensor:
#      x y z
#    x 1.803520 -0.000010 0.000040 
#    y -0.000010 1.924390 0.000000 
#    z 0.000040 0.000000 1.936130 
# 
# From -- ./inp_files/1277.got.cif
#   From: 2010.05.17/outbox.cif.g08.bks.cpg/sg24_1_cif.got.tgz:1277.got - 2010.06.04 00:33:39.
