data_PCOD9336709
_publ_section_title
;
Structure prediction by ZEFSAII (Michael W. Deem and Ramdas Pophale) SiO2 
 PCOD9336709
Probable space group: I 21 21 21
;
_chemical_formula_sum "Si O2"
_cell_formula_units_Z 48
_cell_length_a 13.615764
_cell_length_b 16.926596
_cell_length_c 8.358502
_cell_angle_alpha 90.000000
_cell_angle_beta 90.000000
_cell_angle_gamma 90.000000
_cell_volume 1926.371723
_symmetry_space_group_name_H-M "I 21 21 21"
_symmetry_group_IT_number 24
_symmetry_cell_setting 'orthorhombic'
loop_
_space_group_symop_operation_xyz
x,y,z
-x,1/2-y,z
x,-y,1/2-z
1/2-x,y,-z
1/2+x,1/2+y,1/2+z
1/2-x,-y,1/2+z
1/2+x,1/2-y,-z
-x,1/2+y,1/2-z
loop_
_atom_site_type_symbol
_atom_site_label
_atom_site_fract_x
_atom_site_fract_y
_atom_site_fract_z
Si Si1 0.358874 0.722663 0.339316
Si Si2 0.902492 0.303108 0.503992
Si Si3 0.025995 0.851127 0.482865
Si Si4 0.850649 0.192054 0.257052
Si Si5 0.150289 0.464857 0.426857
Si Si6 0.054814 0.016878 0.568596
O O1 0.365189 0.769188 0.172476
O O2 0.389643 0.787269 0.475295
O O3 0.448439 0.659926 0.366653
O O4 0.251383 0.684854 0.338418
O O5 0.849501 0.277036 0.341388
O O6 0.000000 0.250000 0.484531
O O7 0.909673 0.397396 0.512750
O O8 0.950614 0.832688 0.337430
O O9 0.075422 0.936398 0.470724
O O10 0.842881 0.128387 0.398780
O O11 0.132084 0.500000 0.250000
O O12 0.250000 0.496779 0.500000
O O13 0.062443 0.480072 0.546503
O O14 0.084776 0.000000 0.750000
#
# Coordination Sequence:
#
# PCOD9336709 Si02
#       6
#     8   8   8   8   8   8
#     4  11  24  46  73 102 151 199 249 308 375 439
#     4  12  23  44  72 109 144 199 253 298 369 449
#     4  11  25  46  74 110 150 200 248 310 381 442
#     4  12  27  45  73 112 149 197 257 313 369 456
#     4  12  26  40  64 108 157 192 242 313 388 459
#     4  12  24  44  73 106 152 198 249 309 381 450
#
# _framework density 24.917307999999998
#
# number of rings (size 3 to 8) (size 9 to 14) (size 15 to 20)
#    0.000    0.333    6.667    2.500    7.000    0.000 
#    0.000    0.000    0.000   14.000    0.000    0.000 
#    0.000    0.000    0.000    0.000    0.000    0.000 
#
# Total GULP energy -134105.977282 kJ/mol
# GULP energy per Si atom -5587.749053 kJ/mol
# Density = 2.486060 g / cm^3
# Si number density = 24.917308 Si / 1000 Ang^3
#
#
#
# Elastic Constant Matrix: (Units=GPa)
#
#
# Indices 1 2 3 4 5 6 
#
# 1 44.3151 -0.8076 -2.0253 0.0000 0.0000 0.0000
# 2 -0.8076 177.9937 29.0941 0.0000 0.0000 0.0000
# 3 -2.0253 29.0941 90.0966 0.0000 0.0000 0.0000
# 4 0.0000 0.0000 0.0000 37.2508 0.0000 0.0000
# 5 0.0000 0.0000 0.0000 0.0000 24.8354 0.0000
# 6 0.0000 0.0000 0.0000 0.0000 0.0000 18.0425
#
#
#
# Elastic Compliance Matrix: (Units=1/GPa)
#
#
# Indices 1 2 3 4 5 6 
#
# 1 0.022589 0.000021 0.000501 0.000000 0.000000 0.000000
# 2 0.000021 0.005931 -0.001915 0.000000 0.000000 0.000000
# 3 0.000501 -0.001915 0.011729 0.000000 0.000000 0.000000
# 4 0.000000 0.000000 0.000000 0.026845 0.000000 0.000000
# 5 0.000000 0.000000 0.000000 0.000000 0.040265 0.000000
# 6 0.000000 0.000000 0.000000 0.000000 0.000000 0.055425
#
#
# Mechanical properties :
#
#
# Convention : Reuss Voigt Hill
#
# Bulk Modulus (GPa) = 26.69322 40.54756 33.62039
# Shear Modulus (GPa) = 28.08080 35.10203 31.59142
#
# Velocity S-wave (km/s) = 3.36066 3.75739 3.56455
# Velocity P-wave (km/s) = 5.07885 5.92724 5.51937
#
# Compressibility (1/GPa) = 0.03746269
#
# Stress axis : x y z
#
# Youngs Moduli (GPa) = 44.26944 168.59804 85.26012
#
# Poissons Ratio (x) = -0.00347 -0.04273
# Poissons Ratio (y) = -0.00091 0.16326
# Poissons Ratio (z) = -0.02218 0.32284
#
# Static dielectric constant tensor:
#      x y z
#    x 2.034220 0.000000 0.000000 
#    y 0.000000 2.078300 0.000000 
#    z 0.000000 0.000000 2.040340 
# 
# From -- ./inp_files/12759.got.cif
#   From: 2010.05.17/outbox.cif.g08.bks.cpg/sg24_7_cif.got.tgz:12759.got - 2010.06.04 00:33:39.
