data_PCOD9336128
_publ_section_title
;
Structure prediction by ZEFSAII (Michael W. Deem and Ramdas Pophale) SiO2 
 PCOD9336128
Probable space group: I 21 21 21
;
_chemical_formula_sum "Si O2"
_cell_formula_units_Z 64
_cell_length_a 12.481343
_cell_length_b 14.284719
_cell_length_c 17.712396
_cell_angle_alpha 90.000000
_cell_angle_beta 90.000000
_cell_angle_gamma 90.000000
_cell_volume 3157.986965
_symmetry_space_group_name_H-M "I 21 21 21"
_symmetry_group_IT_number 24
_symmetry_cell_setting 'orthorhombic'
loop_
_space_group_symop_operation_xyz
x,y,z
-x,1/2-y,z
x,-y,1/2-z
1/2-x,y,-z
1/2+x,1/2+y,1/2+z
1/2-x,-y,1/2+z
1/2+x,1/2-y,-z
-x,1/2+y,1/2-z
loop_
_atom_site_type_symbol
_atom_site_label
_atom_site_fract_x
_atom_site_fract_y
_atom_site_fract_z
Si Si1 0.975434 0.395091 0.278552
Si Si2 0.267553 0.106575 0.278304
Si Si3 0.901692 0.183580 0.149359
Si Si4 0.128066 0.463176 0.024629
Si Si5 0.988642 0.617554 0.606780
Si Si6 0.829057 0.541325 0.936782
Si Si7 0.657480 0.239277 0.168135
Si Si8 0.005854 0.139577 0.455560
O O1 0.991145 0.500000 0.250000
O O2 0.065254 0.336331 0.235718
O O3 0.854268 0.371322 0.253650
O O4 0.978445 0.382672 0.367489
O O5 0.273914 0.098880 0.369045
O O6 0.338163 0.188475 0.239489
O O7 0.289655 0.000000 0.250000
O O8 0.898736 0.085889 0.103869
O O9 0.779259 0.218128 0.145948
O O10 0.000000 0.250000 0.120794
O O11 0.092458 0.571421 0.022206
O O12 0.250000 0.454362 0.000000
O O13 0.058990 0.403345 0.965842
O O14 0.076986 0.649147 0.670684
O O15 0.910891 0.527303 0.607396
O O16 0.902209 0.700425 0.604040
O O17 0.750000 0.494272 0.000000
O O18 0.898676 0.606270 0.990913
O O19 0.000000 0.250000 0.464175
#
# Coordination Sequence:
#
# PCOD9336128 Si02
#       8
#     8   8   8   8   8   8   8   8
#     4  11  22  41  69 103 134 177 232 297 359 418
#     4  11  22  41  69 101 141 184 241 300 355 431
#     4  12  24  38  69 109 139 189 234 288 373 431
#     4  11  24  45  68  98 148 189 236 294 364 448
#     4  10  24  43  67 103 143 187 238 296 360 446
#     4  11  23  44  73 107 137 189 247 305 378 428
#     4  11  23  43  66 100 149 190 237 294 363 445
#     4  11  25  45  71  99 143 182 240 309 361 436
#
# _framework density 20.266076000000002
#
# number of rings (size 3 to 8) (size 9 to 14) (size 15 to 20)
#    0.000    1.000    6.250    0.375    1.750    2.500 
#    2.250    0.000   13.750    0.000    0.000    0.000 
#    0.000    0.000    0.000    0.000    0.000    0.000 
#
# Total GULP energy -178173.771106 kJ/mol
# GULP energy per Si atom -5567.930347 kJ/mol
# Density = 2.021995 g / cm^3
# Si number density = 20.266076 Si / 1000 Ang^3
#
#
#
# Elastic Constant Matrix: (Units=GPa)
#
#
# Indices 1 2 3 4 5 6 
#
# 1 149.9389 55.5299 46.7698 0.0000 0.0000 0.0000
# 2 55.5299 107.6189 39.3891 0.0000 0.0000 0.0000
# 3 46.7698 39.3891 89.2676 0.0000 0.0000 0.0000
# 4 0.0000 0.0000 0.0000 30.0134 0.0000 0.0000
# 5 0.0000 0.0000 0.0000 0.0000 22.6593 0.0000
# 6 0.0000 0.0000 0.0000 0.0000 0.0000 19.3547
#
#
#
# Elastic Compliance Matrix: (Units=1/GPa)
#
#
# Indices 1 2 3 4 5 6 
#
# 1 0.008933 -0.003454 -0.003156 0.000000 0.000000 0.000000
# 2 -0.003454 0.012417 -0.003669 0.000000 0.000000 0.000000
# 3 -0.003156 -0.003669 0.014475 0.000000 0.000000 0.000000
# 4 0.000000 0.000000 0.000000 0.033318 0.000000 0.000000
# 5 0.000000 0.000000 0.000000 0.000000 0.044132 0.000000
# 6 0.000000 0.000000 0.000000 0.000000 0.000000 0.051667
#
#
# Mechanical properties :
#
#
# Convention : Reuss Voigt Hill
#
# Bulk Modulus (GPa) = 65.50504 70.02255 67.76379
# Shear Modulus (GPa) = 26.23419 28.08128 27.15773
#
# Velocity S-wave (km/s) = 3.60180 3.72644 3.66465
# Velocity P-wave (km/s) = 7.04911 7.28984 7.17049
#
# Compressibility (1/GPa) = 0.01526600
#
# Stress axis : x y z
#
# Youngs Moduli (GPa) = 111.94282 80.53222 69.08472
#
# Poissons Ratio (x) = 0.27817 0.21804
# Poissons Ratio (y) = 0.38667 0.25350
# Poissons Ratio (z) = 0.35331 0.29550
#
# Static dielectric constant tensor:
#      x y z
#    x 1.756300 0.000000 0.000000 
#    y 0.000000 1.786680 0.000000 
#    z 0.000000 0.000000 1.713760 
# 
# From -- ./inp_files/30385.got.cif
#   From: 2010.05.17/outbox.cif.g08.bks.cpg/sg24_16_cif.got.tgz:30385.got - 2010.06.04 00:33:39.
