data_PCOD9336699
_publ_section_title
;
Structure prediction by ZEFSAII (Michael W. Deem and Ramdas Pophale) SiO2 
 PCOD9336699
Probable space group: I 21 21 21
;
_chemical_formula_sum "Si O2"
_cell_formula_units_Z 48
_cell_length_a 26.091567
_cell_length_b 5.219862
_cell_length_c 15.082432
_cell_angle_alpha 90.000000
_cell_angle_beta 90.000000
_cell_angle_gamma 90.000000
_cell_volume 2054.142462
_symmetry_space_group_name_H-M "I 21 21 21"
_symmetry_group_IT_number 24
_symmetry_cell_setting 'orthorhombic'
loop_
_space_group_symop_operation_xyz
x,y,z
-x,1/2-y,z
x,-y,1/2-z
1/2-x,y,-z
1/2+x,1/2+y,1/2+z
1/2-x,-y,1/2+z
1/2+x,1/2-y,-z
-x,1/2+y,1/2-z
loop_
_atom_site_type_symbol
_atom_site_label
_atom_site_fract_x
_atom_site_fract_y
_atom_site_fract_z
Si Si1 0.411551 0.000000 0.750000
Si Si2 0.358383 0.180252 0.577205
Si Si3 0.590942 0.921633 0.343686
Si Si4 0.000000 0.250000 0.165375
Si Si5 0.539289 0.053598 0.507497
Si Si6 0.736125 0.254711 0.690835
Si Si7 0.655155 0.564441 0.115980
O O1 0.380059 0.028473 0.660979
O O2 0.451076 0.224683 0.773058
O O3 0.406334 0.354395 0.547316
O O4 0.306961 0.306939 0.616656
O O5 0.344658 0.018122 0.490042
O O6 0.630740 0.684828 0.337228
O O7 0.565767 0.000000 0.250000
O O8 0.555220 0.861909 0.428373
O O9 0.620816 0.183757 0.367720
O O10 0.006981 0.471197 0.093231
O O11 0.500000 0.250000 0.461907
O O12 0.719459 0.500000 0.750000
O O13 0.788670 0.355107 0.647685
O O14 0.743766 0.000000 0.750000
#
# Coordination Sequence:
#
# PCOD9336699 Si02
#       7
#     4   8   8   4   8   8   8
#     4  12  22  40  68 100 132 192 240 306 360 452
#     4  11  25  44  68 105 143 188 244 307 368 449
#     4  11  24  45  75 106 141 192 247 302 362 449
#     4  12  24  42  70  94 146 186 244 300 382 448
#     4  11  25  46  68 102 145 192 239 305 383 439
#     4  12  26  44  73 107 145 188 245 303 364 447
#     4  11  24  47  72 103 148 193 236 302 381 435
#
# _framework density 23.367414
#
# number of rings (size 3 to 8) (size 9 to 14) (size 15 to 20)
#    0.000    0.667    2.500    5.500    4.667    2.667 
#    1.500    5.000    0.000    0.000    0.000    0.000 
#    0.000    0.000    0.000    0.000    0.000    0.000 
#
# Total GULP energy -133976.378719 kJ/mol
# GULP energy per Si atom -5582.349113 kJ/mol
# Density = 2.331423 g / cm^3
# Si number density = 23.367414 Si / 1000 Ang^3
#
#
#
# Elastic Constant Matrix: (Units=GPa)
#
#
# Indices 1 2 3 4 5 6 
#
# 1 82.8506 19.8038 38.0761 0.0000 0.0000 0.0000
# 2 19.8038 102.6415 38.8987 0.0000 0.0000 0.0000
# 3 38.0761 38.8987 140.8616 0.0000 0.0000 0.0000
# 4 0.0000 0.0000 0.0000 33.5375 0.0000 0.0000
# 5 0.0000 0.0000 0.0000 0.0000 20.9234 0.0000
# 6 0.0000 0.0000 0.0000 0.0000 0.0000 10.1844
#
#
#
# Elastic Compliance Matrix: (Units=1/GPa)
#
#
# Indices 1 2 3 4 5 6 
#
# 1 0.013963 -0.001411 -0.003385 0.000000 0.000000 0.000000
# 2 -0.001411 0.011024 -0.002663 0.000000 0.000000 0.000000
# 3 -0.003385 -0.002663 0.008749 0.000000 0.000000 0.000000
# 4 0.000000 0.000000 0.000000 0.029817 0.000000 0.000000
# 5 0.000000 0.000000 0.000000 0.000000 0.047793 0.000000
# 6 0.000000 0.000000 0.000000 0.000000 0.000000 0.098189
#
#
# Mechanical properties :
#
#
# Convention : Reuss Voigt Hill
#
# Bulk Modulus (GPa) = 53.13810 57.76788 55.45299
# Shear Modulus (GPa) = 21.67071 28.23407 24.95239
#
# Velocity S-wave (km/s) = 3.04861 3.47978 3.27131
# Velocity P-wave (km/s) = 5.93141 6.39691 6.16855
#
# Compressibility (1/GPa) = 0.01881889
#
# Stress axis : x y z
#
# Youngs Moduli (GPa) = 71.61939 90.71045 114.29417
#
# Poissons Ratio (x) = 0.12802 0.38683
# Poissons Ratio (y) = 0.10108 0.30434
# Poissons Ratio (z) = 0.24240 0.24154
#
# Static dielectric constant tensor:
#      x y z
#    x 1.902760 0.000000 0.000000 
#    y 0.000000 2.193520 0.000000 
#    z 0.000000 0.000000 1.916640 
# 
# From -- ./inp_files/28056.got.cif
#   From: 2010.05.17/outbox.cif.g08.bks.cpg/sg24_15_cif.got.tgz:28056.got - 2010.06.04 00:33:39.
