data_PCOD9336638
_publ_section_title
;
Structure prediction by ZEFSAII (Michael W. Deem and Ramdas Pophale) SiO2 
 PCOD9336638
Probable space group: I 21 21 21
;
_chemical_formula_sum "Si O2"
_cell_formula_units_Z 48
_cell_length_a 8.350460
_cell_length_b 13.278040
_cell_length_c 18.407078
_cell_angle_alpha 90.000000
_cell_angle_beta 90.000000
_cell_angle_gamma 90.000000
_cell_volume 2040.935244
_symmetry_space_group_name_H-M "I 21 21 21"
_symmetry_group_IT_number 24
_symmetry_cell_setting 'orthorhombic'
loop_
_space_group_symop_operation_xyz
x,y,z
-x,1/2-y,z
x,-y,1/2-z
1/2-x,y,-z
1/2+x,1/2+y,1/2+z
1/2-x,-y,1/2+z
1/2+x,1/2-y,-z
-x,1/2+y,1/2-z
loop_
_atom_site_type_symbol
_atom_site_label
_atom_site_fract_x
_atom_site_fract_y
_atom_site_fract_z
Si Si1 0.947403 0.500000 0.750000
Si Si2 0.244263 0.868443 0.359827
Si Si3 0.250000 0.008098 0.500000
Si Si4 0.358473 0.672170 0.181314
Si Si5 0.089123 0.444254 0.546470
Si Si6 0.413613 0.388675 0.784732
Si Si7 0.191399 0.652534 0.582284
O O1 0.843295 0.431863 0.802070
O O2 0.064060 0.568131 0.795112
O O3 0.210794 0.937073 0.430564
O O4 0.327771 0.764328 0.384187
O O5 0.080634 0.847311 0.315624
O O6 0.411576 0.072913 0.485709
O O7 0.500000 0.750000 0.199888
O O8 0.356841 0.650489 0.095962
O O9 0.191682 0.674644 0.225336
O O10 0.250000 0.459488 0.500000
O O11 0.065089 0.561557 0.574702
O O12 0.439057 0.500000 0.750000
O O13 0.311938 0.396104 0.859015
O O14 0.250000 0.673068 0.500000
#
# Coordination Sequence:
#
# PCOD9336638 Si02
#       7
#     4   8   4   8   8   8   8
#     4  12  24  44  72 106 152 204 248 328 394 480
#     4  12  25  44  74 118 157 198 265 324 399 487
#     4  12  26  46  78 118 160 206 266 334 394 482
#     4  12  26  50  73 106 152 209 268 328 404 477
#     4  11  25  49  79 109 160 215 265 339 409 473
#     4  12  24  46  75 106 155 209 256 315 403 486
#     4  11  23  44  74 110 158 201 252 326 402 471
#
# _framework density 23.518630000000002
#
# number of rings (size 3 to 8) (size 9 to 14) (size 15 to 20)
#    0.000    0.333    5.833    3.500    0.000    0.667 
#    1.500    0.000    0.000    0.000    0.000    0.000 
#    0.000    0.000    0.000    0.000    0.000    0.000 
#
# Total GULP energy -133873.766320 kJ/mol
# GULP energy per Si atom -5578.073597 kJ/mol
# Density = 2.346510 g / cm^3
# Si number density = 23.518630 Si / 1000 Ang^3
#
#
#
# Elastic Constant Matrix: (Units=GPa)
#
#
# Indices 1 2 3 4 5 6 
#
# 1 159.3615 17.1260 57.6322 0.0000 0.0000 0.0000
# 2 17.1260 51.3659 35.5046 0.0000 0.0000 0.0000
# 3 57.6322 35.5046 118.9917 0.0000 0.0000 0.0000
# 4 0.0000 0.0000 0.0000 -13.3025 0.0000 0.0000
# 5 0.0000 0.0000 0.0000 0.0000 39.7398 0.0000
# 6 0.0000 0.0000 0.0000 0.0000 0.0000 35.5089
#
#
#
# Elastic Compliance Matrix: (Units=1/GPa)
#
#
# Indices 1 2 3 4 5 6 
#
# 1 0.007608 0.000013 -0.003689 0.000000 0.000000 0.000000
# 2 0.000013 0.024527 -0.007325 0.000000 0.000000 0.000000
# 3 -0.003689 -0.007325 0.012376 0.000000 0.000000 0.000000
# 4 0.000000 0.000000 0.000000 -0.075174 0.000000 0.000000
# 5 0.000000 0.000000 0.000000 0.000000 0.025164 0.000000
# 6 0.000000 0.000000 0.000000 0.000000 0.000000 0.028162
#
#
# Mechanical properties :
#
#
# Convention : Reuss Voigt Hill
#
# Bulk Modulus (GPa) = 44.42449 61.13829 52.78139
# Shear Modulus (GPa) = 95.84871 27.01965 61.43418
#
# Velocity S-wave (km/s) = 6.39084 3.39316 5.11646
# Velocity P-wave (km/s) = 8.56663 6.43456 7.57597
#
# Compressibility (1/GPa) = 0.02251011
#
# Stress axis : x y z
#
# Youngs Moduli (GPa) = 131.44795 40.77205 80.80184
#
# Poissons Ratio (x) = -0.00053 0.29804
# Poissons Ratio (y) = -0.00172 0.59184
# Poissons Ratio (z) = 0.48485 0.29864
#
# Static dielectric constant tensor:
#      x y z
#    x 2.029690 0.000000 0.000000 
#    y 0.000000 1.936970 0.000000 
#    z 0.000000 0.000000 -0.230440 
# 
# From -- ./inp_files/29513.got.cif
#   From: 2010.05.17/outbox.cif.g08.bks.cpg/sg24_15_cif.got.tgz:29513.got - 2010.06.04 00:33:39.
