data_PCOD9336160
_publ_section_title
;
Structure prediction by ZEFSAII (Michael W. Deem and Ramdas Pophale) SiO2 
 PCOD9336160
Probable space group: I 21 21 21
;
_chemical_formula_sum "Si O2"
_cell_formula_units_Z 60
_cell_length_a 17.341290
_cell_length_b 28.057678
_cell_length_c 5.917945
_cell_angle_alpha 90.000000
_cell_angle_beta 90.000000
_cell_angle_gamma 90.000000
_cell_volume 2879.413606
_symmetry_space_group_name_H-M "I 21 21 21"
_symmetry_group_IT_number 24
_symmetry_cell_setting 'orthorhombic'
loop_
_space_group_symop_operation_xyz
x,y,z
-x,1/2-y,z
x,-y,1/2-z
1/2-x,y,-z
1/2+x,1/2+y,1/2+z
1/2-x,-y,1/2+z
1/2+x,1/2-y,-z
-x,1/2+y,1/2-z
loop_
_atom_site_type_symbol
_atom_site_label
_atom_site_fract_x
_atom_site_fract_y
_atom_site_fract_z
Si Si1 0.406150 0.445668 0.837586
Si Si2 0.665720 0.721176 0.076321
Si Si3 0.833271 0.367039 0.885949
Si Si4 0.448566 0.188429 0.783472
Si Si5 0.450364 0.377245 0.476018
Si Si6 0.954152 0.446179 0.830465
Si Si7 0.750000 0.026997 0.000000
Si Si8 0.063246 0.713405 0.677719
O O1 0.407086 0.500000 0.750000
O O2 0.395213 0.404641 0.649922
O O3 0.490202 0.440518 0.951648
O O4 0.330783 0.444400 0.996791
O O5 0.670276 0.666721 0.165555
O O6 0.638238 0.754570 0.283722
O O7 0.750000 0.736001 0.000000
O O8 0.605625 0.723056 0.866737
O O9 0.874469 0.417558 0.849053
O O10 0.750000 0.370883 0.000000
O O11 0.891234 0.338567 0.049073
O O12 0.485833 0.151836 0.611808
O O13 0.521959 0.203968 0.938185
O O14 0.494033 0.419525 0.352733
O O15 0.422668 0.337013 0.299459
O O16 0.943427 0.500000 0.750000
O O17 0.748072 0.000000 0.250000
O O18 0.000000 0.750000 0.787137
#
# Coordination Sequence:
#
# PCOD9336160 Si02
#       8
#     8   8   8   8   8   8   4   8
#     4  11  23  41  72 103 136 191 240 304 369 444
#     4  12  26  44  72 105 141 192 237 302 373 442
#     4  12  24  42  68 106 140 188 244 295 361 436
#     4  12  22  42  70  97 139 180 239 297 356 444
#     4  12  23  41  68 106 136 182 241 298 360 439
#     4  12  23  42  68 104 146 189 253 297 358 445
#     4  10  24  44  70 106 142 188 246 310 378 458
#     4  12  24  40  69 105 136 184 241 295 360 449
#
# _framework density 20.837578000000001
#
# number of rings (size 3 to 8) (size 9 to 14) (size 15 to 20)
#    0.000    0.267    9.333    0.400    3.733    0.000 
#    0.000    5.333    0.000    0.000    0.000    0.000 
#    0.000    0.000    0.000    0.000    0.000    0.000 
#
# Total GULP energy -167227.990269 kJ/mol
# GULP energy per Si atom -5574.266342 kJ/mol
# Density = 2.079015 g / cm^3
# Si number density = 20.837578 Si / 1000 Ang^3
#
#
#
# Elastic Constant Matrix: (Units=GPa)
#
#
# Indices 1 2 3 4 5 6 
#
# 1 105.3857 39.2808 32.7091 -0.0001 0.0003 0.0001
# 2 39.2808 106.8097 37.4587 -0.0010 0.0004 -0.0003
# 3 32.7091 37.4587 69.9085 -0.0015 0.0019 0.0004
# 4 -0.0001 -0.0010 -0.0015 34.3641 0.0006 -0.0004
# 5 0.0003 0.0004 0.0019 0.0006 12.2737 0.0003
# 6 0.0001 -0.0003 0.0004 -0.0004 0.0003 7.5607
#
#
#
# Elastic Compliance Matrix: (Units=1/GPa)
#
#
# Indices 1 2 3 4 5 6 
#
# 1 0.011817 -0.002964 -0.003941 0.000000 0.000000 0.000000
# 2 -0.002964 0.012272 -0.005189 0.000000 0.000000 0.000001
# 3 -0.003941 -0.005189 0.018929 0.000001 -0.000003 -0.000001
# 4 0.000000 0.000000 0.000001 0.029100 -0.000001 0.000002
# 5 0.000000 0.000000 -0.000003 -0.000001 0.081475 -0.000003
# 6 0.000000 0.000001 -0.000001 0.000002 -0.000003 0.132262
#
#
# Mechanical properties :
#
#
# Convention : Reuss Voigt Hill
#
# Bulk Modulus (GPa) = 53.10557 55.66678 54.38618
# Shear Modulus (GPa) = 15.80679 22.35005 19.07842
#
# Velocity S-wave (km/s) = 2.75721 3.27859 3.02913
# Velocity P-wave (km/s) = 5.97303 6.41130 6.19604
#
# Compressibility (1/GPa) = 0.01883042
#
# Stress axis : x y z
#
# Youngs Moduli (GPa) = 84.62553 81.48480 52.82979
#
# Poissons Ratio (x) = 0.24150 0.20819
# Poissons Ratio (y) = 0.25081 0.27414
# Poissons Ratio (z) = 0.33350 0.42283
#
# Static dielectric constant tensor:
#      x y z
#    x 1.736630 0.000000 0.000000 
#    y 0.000000 1.780720 0.000000 
#    z 0.000000 0.000000 1.827360 
# 
# From -- ./inp_files/5008.got.cif
#   From: 2010.05.17/outbox.cif.g08.bks.cpg/sg24_3_cif.got.tgz:5008.got - 2010.06.04 00:33:39.
