data_PCOD9336844
_publ_section_title
;
Structure prediction by ZEFSAII (Michael W. Deem and Ramdas Pophale) SiO2 
 PCOD9336844
Probable space group: I 21 21 21
;
_chemical_formula_sum "Si O2"
_cell_formula_units_Z 52
_cell_length_a 19.669037
_cell_length_b 5.953286
_cell_length_c 20.213534
_cell_angle_alpha 90.000000
_cell_angle_beta 90.000000
_cell_angle_gamma 90.000000
_cell_volume 2366.911902
_symmetry_space_group_name_H-M "I 21 21 21"
_symmetry_group_IT_number 24
_symmetry_cell_setting 'orthorhombic'
loop_
_space_group_symop_operation_xyz
x,y,z
-x,1/2-y,z
x,-y,1/2-z
1/2-x,y,-z
1/2+x,1/2+y,1/2+z
1/2-x,-y,1/2+z
1/2+x,1/2-y,-z
-x,1/2+y,1/2-z
loop_
_atom_site_type_symbol
_atom_site_label
_atom_site_fract_x
_atom_site_fract_y
_atom_site_fract_z
Si Si1 0.858072 0.772779 0.341458
Si Si2 0.211838 0.747948 0.717576
Si Si3 0.440502 0.622665 0.912193
Si Si4 0.000000 0.250000 0.223566
Si Si5 0.351588 0.766954 0.428101
Si Si6 0.000000 0.250000 0.988213
Si Si7 0.750000 0.064604 0.500000
Si Si8 0.832466 0.428301 0.457479
O O1 0.793525 0.768092 0.294036
O O2 0.834172 0.626247 0.404628
O O3 0.929622 0.682397 0.314169
O O4 0.883038 0.014452 0.366895
O O5 0.193506 0.500000 0.750000
O O6 0.172175 0.757933 0.647247
O O7 0.199787 0.000000 0.750000
O O8 0.500000 0.750000 0.873336
O O9 0.405460 0.812160 0.955739
O O10 0.472464 0.437697 0.960278
O O11 0.020000 0.500000 0.250000
O O12 0.432592 0.777545 0.442396
O O13 0.311930 0.569160 0.467333
O O14 0.322481 0.976816 0.469335
O O15 0.781413 0.226354 0.444732
#
# Coordination Sequence:
#
# PCOD9336844 Si02
#       8
#     8   8   8   4   8   4   4   8
#     4  12  26  47  73 110 156 201 264 326 386 469
#     4  12  31  54  78 107 150 216 278 325 380 463
#     4  12  22  40  70 112 159 189 235 305 404 481
#     4  12  29  48  70 106 156 223 274 308 370 460
#     4  12  26  48  74 115 151 198 259 326 396 476
#     4  12  23  46  70 122 148 193 240 310 410 472
#     4  12  24  42  74 116 152 190 240 320 414 472
#     4  12  23  40  75 110 150 194 239 321 406 464
#
# _framework density 21.969553999999999
#
# number of rings (size 3 to 8) (size 9 to 14) (size 15 to 20)
#    0.000    0.000    4.615    5.538    9.692    0.000 
#    0.000    0.769    0.000    0.000    0.000    0.000 
#    0.000    0.000    0.000    0.000    0.000    0.000 
#
# Total GULP energy -144912.997715 kJ/mol
# GULP energy per Si atom -5573.576835 kJ/mol
# Density = 2.191955 g / cm^3
# Si number density = 21.969554 Si / 1000 Ang^3
#
#
#
# Elastic Constant Matrix: (Units=GPa)
#
#
# Indices 1 2 3 4 5 6 
#
# 1 99.5027 16.1195 17.9704 0.0000 0.0000 0.0000
# 2 16.1195 111.3532 54.0222 0.0000 0.0000 0.0000
# 3 17.9704 54.0222 83.5719 0.0000 0.0000 0.0000
# 4 0.0000 0.0000 0.0000 27.8998 0.0000 0.0000
# 5 0.0000 0.0000 0.0000 0.0000 33.6268 0.0000
# 6 0.0000 0.0000 0.0000 0.0000 0.0000 51.3936
#
#
#
# Elastic Compliance Matrix: (Units=1/GPa)
#
#
# Indices 1 2 3 4 5 6 
#
# 1 0.010485 -0.000618 -0.001855 0.000000 0.000000 0.000000
# 2 -0.000618 0.013120 -0.008348 0.000000 0.000000 0.000000
# 3 -0.001855 -0.008348 0.017761 0.000000 0.000000 0.000000
# 4 0.000000 0.000000 0.000000 0.035843 0.000000 0.000000
# 5 0.000000 0.000000 0.000000 0.000000 0.029738 0.000000
# 6 0.000000 0.000000 0.000000 0.000000 0.000000 0.019458
#
#
# Mechanical properties :
#
#
# Convention : Reuss Voigt Hill
#
# Bulk Modulus (GPa) = 50.70018 52.29470 51.49744
# Shear Modulus (GPa) = 32.33710 36.33842 34.33776
#
# Velocity S-wave (km/s) = 3.84070 4.07140 3.95773
# Velocity P-wave (km/s) = 6.54183 6.77913 6.66154
#
# Compressibility (1/GPa) = 0.01972380
#
# Stress axis : x y z
#
# Youngs Moduli (GPa) = 95.37325 76.22038 56.30313
#
# Poissons Ratio (x) = 0.04709 0.10446
# Poissons Ratio (y) = 0.05892 0.47002
# Poissons Ratio (z) = 0.17694 0.63629
#
# Static dielectric constant tensor:
#      x y z
#    x 1.893860 0.000000 0.000000 
#    y 0.000000 1.888380 0.000000 
#    z 0.000000 0.000000 1.851570 
# 
# From -- ./inp_files/34146.got.cif
#   From: 2010.05.17/outbox.cif.g08.bks.cpg/sg24_18_cif.got.tgz:34146.got - 2010.06.04 00:33:39.
