data_PCOD9336341
_publ_section_title
;
Structure prediction by ZEFSAII (Michael W. Deem and Ramdas Pophale) SiO2 
 PCOD9336341
Probable space group: I 21 21 21
;
_chemical_formula_sum "Si O2"
_cell_formula_units_Z 20
_cell_length_a 5.319545
_cell_length_b 28.259035
_cell_length_c 4.998120
_cell_angle_alpha 90.000000
_cell_angle_beta 90.000000
_cell_angle_gamma 90.000000
_cell_volume 751.343430
_symmetry_space_group_name_H-M "I 21 21 21"
_symmetry_group_IT_number 24
_symmetry_cell_setting 'orthorhombic'
loop_
_space_group_symop_operation_xyz
x,y,z
-x,1/2-y,z
x,-y,1/2-z
1/2-x,y,-z
1/2+x,1/2+y,1/2+z
1/2-x,-y,1/2+z
1/2+x,1/2-y,-z
-x,1/2+y,1/2-z
loop_
_atom_site_type_symbol
_atom_site_label
_atom_site_fract_x
_atom_site_fract_y
_atom_site_fract_z
Si Si1 0.075220 0.854644 0.761103
Si Si2 0.500000 0.750000 0.322069
Si Si3 0.250000 0.575685 0.000000
Si Si4 0.119229 0.000000 0.750000
O O1 0.250000 0.855741 0.500000
O O2 0.011757 0.799978 0.826731
O O3 0.823426 0.886023 0.771298
O O4 0.250000 0.873435 0.000000
O O5 0.250000 0.747346 0.500000
O O6 0.035181 0.537353 0.928066
O O7 0.250000 0.972875 0.500000
#
# Coordination Sequence:
#
# PCOD9336341 Si02
#       4
#     8   4   4   4
#     4  11  28  47  79 119 161 214 272 333 406 497
#     4  10  26  50  80 118 172 216 274 332 412 496
#     4  12  28  50  86 112 164 210 276 334 424 486
#     4  12  28  52  78 116 162 212 274 346 418 496
#
# _framework density 26.618988000000002
#
# number of rings (size 3 to 8) (size 9 to 14) (size 15 to 20)
#    0.000    0.800    0.000    3.600   14.000    8.000 
#    0.000    0.000    0.000    0.000    0.000    0.000 
#    0.000    0.000    0.000    0.000    0.000    0.000 
#
# Total GULP energy -55741.290129 kJ/mol
# GULP energy per Si atom -5574.129013 kJ/mol
# Density = 2.655840 g / cm^3
# Si number density = 26.618988 Si / 1000 Ang^3
#
#
#
# Elastic Constant Matrix: (Units=GPa)
#
#
# Indices 1 2 3 4 5 6 
#
# 1 124.2060 24.7566 65.0145 -0.0004 0.0000 -0.0001
# 2 24.7566 169.2331 2.0613 -0.0062 0.0000 0.0054
# 3 65.0145 2.0613 171.5557 -0.0053 -0.0014 0.0237
# 4 -0.0004 -0.0062 -0.0053 132.7248 -0.0020 -0.0119
# 5 0.0000 0.0000 -0.0014 -0.0020 39.9373 -0.0018
# 6 -0.0001 0.0054 0.0237 -0.0119 -0.0018 -34.5999
#
#
#
# Elastic Compliance Matrix: (Units=1/GPa)
#
#
# Indices 1 2 3 4 5 6 
#
# 1 0.010398 -0.001473 -0.003923 0.000000 0.000000 -0.000003
# 2 -0.001473 0.006119 0.000485 0.000000 0.000000 0.000001
# 3 -0.003923 0.000485 0.007310 0.000000 0.000000 0.000005
# 4 0.000000 0.000000 0.000000 0.007534 0.000000 -0.000003
# 5 0.000000 0.000000 0.000000 0.000000 0.025039 -0.000001
# 6 -0.000003 0.000001 0.000005 -0.000003 -0.000001 -0.028902
#
#
# Mechanical properties :
#
#
# Convention : Reuss Voigt Hill
#
# Bulk Modulus (GPa) = 71.40884 72.07328 71.74106
# Shear Modulus (GPa) = 119.07784 52.48991 85.78388
#
# Velocity S-wave (km/s) = 6.69562 4.44542 5.68300
# Velocity P-wave (km/s) = 9.30911 7.31326 8.37088
#
# Compressibility (1/GPa) = 0.01400387
#
# Stress axis : x y z
#
# Youngs Moduli (GPa) = 96.17031 163.43509 136.80171
#
# Poissons Ratio (x) = 0.24080 0.53666
# Poissons Ratio (y) = 0.14169 -0.06633
# Poissons Ratio (z) = 0.37727 -0.07924
#
# Static dielectric constant tensor:
#      x y z
#    x 2.201330 0.000000 -0.000010 
#    y 0.000000 2.107730 -0.000010 
#    z -0.000010 -0.000010 2.028520 
# 
# From -- ./inp_files/417.got.cif
#   From: 2010.05.17/outbox.cif.g08.bks.cpg/sg24_1_cif.got.tgz:417.got - 2010.06.04 00:33:39.
