data_PCOD9336925
_publ_section_title
;
Structure prediction by ZEFSAII (Michael W. Deem and Ramdas Pophale) SiO2 
 PCOD9336925
Probable space group: I 21 21 21
;
_chemical_formula_sum "Si O2"
_cell_formula_units_Z 28
_cell_length_a 13.811715
_cell_length_b 3.376689
_cell_length_c 18.489217
_cell_angle_alpha 90.000000
_cell_angle_beta 90.000000
_cell_angle_gamma 90.000000
_cell_volume 862.297627
_symmetry_space_group_name_H-M "I 21 21 21"
_symmetry_group_IT_number 24
_symmetry_cell_setting 'orthorhombic'
loop_
_space_group_symop_operation_xyz
x,y,z
-x,1/2-y,z
x,-y,1/2-z
1/2-x,y,-z
1/2+x,1/2+y,1/2+z
1/2-x,-y,1/2+z
1/2+x,1/2-y,-z
-x,1/2+y,1/2-z
loop_
_atom_site_type_symbol
_atom_site_label
_atom_site_fract_x
_atom_site_fract_y
_atom_site_fract_z
Si Si1 0.000000 0.250000 0.811656
Si Si2 0.387533 0.765302 0.988180
Si Si3 0.686214 0.776243 0.408888
Si Si4 0.612479 0.098826 0.835041
O O1 0.945222 0.500000 0.750000
O O2 0.912476 0.166582 0.864356
O O3 0.500000 0.750000 0.012348
O O4 0.190022 0.775569 0.936002
O O5 0.392359 0.730850 0.900599
O O6 0.358556 0.263954 0.998471
O O7 0.776737 0.764266 0.354594
O O8 0.500000 0.250000 0.834763
O O9 0.622800 0.000000 0.750000
#
# Coordination Sequence:
#
# PCOD9336925 Si02
#       4
#     4   8   8   8
#     4  12  24  46  80 118 158 200 258 338 418 476
#     4  12  25  51  84 118 160 213 278 342 410 491
#     4  12  27  52  80 121 159 211 277 339 414 491
#     4  12  30  52  81 125 173 229 277 343 418 509
#
# _framework density 32.471384
#
# number of rings (size 3 to 8) (size 9 to 14) (size 15 to 20)
#    0.000    0.000    2.857    6.000    0.000   12.571 
#    0.000    0.000    0.000    0.000    0.000    0.000 
#    0.000    0.000    0.000    0.000    0.000    0.000 
#
# Total GULP energy -77970.068335 kJ/mol
# GULP energy per Si atom -5569.290595 kJ/mol
# Density = 3.239748 g / cm^3
# Si number density = 32.471384 Si / 1000 Ang^3
#
#
#
# Elastic Constant Matrix: (Units=GPa)
#
#
# Indices 1 2 3 4 5 6 
#
# 1 374.7283 117.5726 199.3183 0.0000 0.0000 0.0000
# 2 117.5726 211.9669 114.6201 0.0000 0.0000 0.0000
# 3 199.3183 114.6201 358.3981 0.0000 0.0000 0.0000
# 4 0.0000 0.0000 0.0000 36.2922 0.0000 0.0000
# 5 0.0000 0.0000 0.0000 0.0000 223.2823 0.0000
# 6 0.0000 0.0000 0.0000 0.0000 0.0000 102.2880
#
#
#
# Elastic Compliance Matrix: (Units=1/GPa)
#
#
# Indices 1 2 3 4 5 6 
#
# 1 0.004043 -0.001241 -0.001851 0.000000 0.000000 0.000000
# 2 -0.001241 0.006085 -0.001256 0.000000 0.000000 0.000000
# 3 -0.001851 -0.001256 0.004221 0.000000 0.000000 0.000000
# 4 0.000000 0.000000 0.000000 0.027554 0.000000 0.000000
# 5 0.000000 0.000000 0.000000 0.000000 0.004479 0.000000
# 6 0.000000 0.000000 0.000000 0.000000 0.000000 0.009776
#
#
# Mechanical properties :
#
#
# Convention : Reuss Voigt Hill
#
# Bulk Modulus (GPa) = 176.91112 200.90172 188.90642
# Shear Modulus (GPa) = 74.91776 106.61132 90.76454
#
# Velocity S-wave (km/s) = 4.80854 5.73617 5.29272
# Velocity P-wave (km/s) = 9.24282 10.28962 9.78024
#
# Compressibility (1/GPa) = 0.00565256
#
# Stress axis : x y z
#
# Youngs Moduli (GPa) = 247.35235 164.32968 236.88657
#
# Poissons Ratio (x) = 0.20399 0.43856
# Poissons Ratio (y) = 0.30705 0.29749
# Poissons Ratio (z) = 0.45794 0.20637
#
# Static dielectric constant tensor:
#      x y z
#    x 2.163320 0.000000 0.000000 
#    y 0.000000 -44.050750 0.000000 
#    z 0.000000 0.000000 2.495950 
# 
# From -- ./inp_files/33101.got.cif
#   From: 2010.05.17/outbox.cif.g08.bks.cpg/sg24_17_cif.got.tgz:33101.got - 2010.06.04 00:33:39.
