data_PCOD9336095
_publ_section_title
;
Structure prediction by ZEFSAII (Michael W. Deem and Ramdas Pophale) SiO2 
 PCOD9336095
Probable space group: I 21 21 21
;
_chemical_formula_sum "Si O2"
_cell_formula_units_Z 52
_cell_length_a 17.262884
_cell_length_b 8.278326
_cell_length_c 18.054288
_cell_angle_alpha 90.000000
_cell_angle_beta 90.000000
_cell_angle_gamma 90.000000
_cell_volume 2580.098244
_symmetry_space_group_name_H-M "I 21 21 21"
_symmetry_group_IT_number 24
_symmetry_cell_setting 'orthorhombic'
loop_
_space_group_symop_operation_xyz
x,y,z
-x,1/2-y,z
x,-y,1/2-z
1/2-x,y,-z
1/2+x,1/2+y,1/2+z
1/2-x,-y,1/2+z
1/2+x,1/2-y,-z
-x,1/2+y,1/2-z
loop_
_atom_site_type_symbol
_atom_site_label
_atom_site_fract_x
_atom_site_fract_y
_atom_site_fract_z
Si Si1 0.726090 0.000000 0.750000
Si Si2 0.170286 0.660223 0.873463
Si Si3 0.335329 0.023272 0.124675
Si Si4 0.250000 0.527250 0.500000
Si Si5 0.303151 0.150612 0.802866
Si Si6 0.517682 0.008225 0.338860
Si Si7 0.350400 0.828868 0.533192
Si Si8 0.000000 0.250000 0.950963
O O1 0.783466 0.947836 0.815424
O O2 0.681620 0.833272 0.726756
O O3 0.196692 0.843676 0.865770
O O4 0.077685 0.648327 0.861178
O O5 0.197316 0.587507 0.950516
O O6 0.426559 0.005584 0.141839
O O7 0.289849 0.140029 0.180365
O O8 0.318625 0.081782 0.041027
O O9 0.310682 0.651883 0.536894
O O10 0.340036 0.111615 0.883354
O O11 0.322921 0.000000 0.750000
O O12 0.523780 0.000000 0.250000
O O13 0.547052 0.863588 0.393123
O O14 0.439128 0.827241 0.506907
#
# Coordination Sequence:
#
# PCOD9336095 Si02
#       8
#     4   8   8   4   8   8   8   4
#     4  12  24  38  60  96 130 166 204 262 326 374
#     4  12  24  37  59  93 131 171 210 256 308 377
#     4  11  24  39  61  93 134 172 211 257 319 392
#     4  12  22  38  64  88 122 168 222 252 302 382
#     4  12  24  42  66  96 127 164 219 278 328 378
#     4  11  24  35  58  92 136 172 204 250 312 388
#     4  11  22  44  64  88 124 171 217 264 320 388
#     4  10  24  42  64  88 126 182 210 256 324 388
#
# _framework density 20.154271999999999
#
# number of rings (size 3 to 8) (size 9 to 14) (size 15 to 20)
#    0.000    0.615    6.923    0.923    6.462    0.000 
#    0.000    0.000    1.692    0.000    0.000    0.000 
#    0.000    0.000    0.000    0.000    0.000    0.000 
#
# Total GULP energy -144822.575866 kJ/mol
# GULP energy per Si atom -5570.099072 kJ/mol
# Density = 2.010840 g / cm^3
# Si number density = 20.154272 Si / 1000 Ang^3
#
#
#
# Elastic Constant Matrix: (Units=GPa)
#
#
# Indices 1 2 3 4 5 6 
#
# 1 47.2439 2.9893 38.3241 0.0000 0.0000 0.0000
# 2 2.9893 110.1145 41.8008 0.0000 0.0000 0.0000
# 3 38.3241 41.8008 139.5406 0.0000 0.0000 0.0000
# 4 0.0000 0.0000 0.0000 30.9226 0.0000 0.0000
# 5 0.0000 0.0000 0.0000 0.0000 21.5808 0.0000
# 6 0.0000 0.0000 0.0000 0.0000 0.0000 20.6050
#
#
#
# Elastic Compliance Matrix: (Units=1/GPa)
#
#
# Indices 1 2 3 4 5 6 
#
# 1 0.027794 0.002418 -0.008358 0.000000 0.000000 0.000000
# 2 0.002418 0.010457 -0.003797 0.000000 0.000000 0.000000
# 3 -0.008358 -0.003797 0.010599 0.000000 0.000000 0.000000
# 4 0.000000 0.000000 0.000000 0.032339 0.000000 0.000000
# 5 0.000000 0.000000 0.000000 0.000000 0.046337 0.000000
# 6 0.000000 0.000000 0.000000 0.000000 0.000000 0.048532
#
#
# Mechanical properties :
#
#
# Convention : Reuss Voigt Hill
#
# Bulk Modulus (GPa) = 34.03994 51.45860 42.74927
# Shear Modulus (GPa) = 24.35190 28.87399 26.61295
#
# Velocity S-wave (km/s) = 3.47980 3.78914 3.63776
# Velocity P-wave (km/s) = 5.75080 6.68814 6.23710
#
# Compressibility (1/GPa) = 0.02937725
#
# Stress axis : x y z
#
# Youngs Moduli (GPa) = 35.97961 95.62915 94.34757
#
# Poissons Ratio (x) = -0.23125 0.78853
# Poissons Ratio (y) = -0.08700 0.35821
# Poissons Ratio (z) = 0.30071 0.36307
#
# Static dielectric constant tensor:
#      x y z
#    x 1.745880 0.000000 0.000000 
#    y 0.000000 1.791510 0.000000 
#    z 0.000000 0.000000 1.762100 
# 
# From -- ./inp_files/29673.got.cif
#   From: 2010.05.17/outbox.cif.g08.bks.cpg/sg24_15_cif.got.tgz:29673.got - 2010.06.04 00:33:39.
