data_PCOD9336060
_publ_section_title
;
Structure prediction by ZEFSAII (Michael W. Deem and Ramdas Pophale) SiO2 
 PCOD9336060
Probable space group: I 21 21 21
;
_chemical_formula_sum "Si O2"
_cell_formula_units_Z 40
_cell_length_a 14.349683
_cell_length_b 7.306711
_cell_length_c 16.711974
_cell_angle_alpha 90.000000
_cell_angle_beta 90.000000
_cell_angle_gamma 90.000000
_cell_volume 1752.233538
_symmetry_space_group_name_H-M "I 21 21 21"
_symmetry_group_IT_number 24
_symmetry_cell_setting 'orthorhombic'
loop_
_space_group_symop_operation_xyz
x,y,z
-x,1/2-y,z
x,-y,1/2-z
1/2-x,y,-z
1/2+x,1/2+y,1/2+z
1/2-x,-y,1/2+z
1/2+x,1/2-y,-z
-x,1/2+y,1/2-z
loop_
_atom_site_type_symbol
_atom_site_label
_atom_site_fract_x
_atom_site_fract_y
_atom_site_fract_z
Si Si1 0.597393 0.256648 0.811999
Si Si2 0.112889 0.622489 0.851472
Si Si3 0.695049 0.767911 0.311850
Si Si4 0.418677 0.013732 0.413320
Si Si5 0.989337 0.531748 0.087772
O O1 0.500000 0.250000 0.761687
O O2 0.699937 0.242973 0.779439
O O3 0.592360 0.452848 0.855598
O O4 0.574786 0.090423 0.875235
O O5 0.185303 0.459408 0.857975
O O6 0.129706 0.716049 0.765755
O O7 0.120653 0.779953 0.917007
O O8 0.010897 0.533436 0.858544
O O9 0.656663 0.614606 0.371434
O O10 0.459484 0.964607 0.499597
O O11 0.000000 0.750000 0.086159
#
# Coordination Sequence:
#
# PCOD9336060 Si02
#       5
#     8   8   8   8   8
#     4   8  23  41  64  89 124 177 215 267 314 382
#     4  10  24  36  65  92 128 168 201 266 325 391
#     4  11  23  40  62  94 134 165 221 258 328 390
#     4  11  22  38  62  98 131 166 206 262 331 389
#     4   9  19  41  64  88 129 169 213 265 326 374
#
# _framework density 22.828006999999999
#
# number of rings (size 3 to 8) (size 9 to 14) (size 15 to 20)
#    1.200    0.800    2.000    1.200   16.800    2.400 
#    0.000    0.000    8.800    0.000    0.000    0.000 
#    0.000    0.000    0.000    0.000    0.000    0.000 
#
# Total GULP energy -111439.342948 kJ/mol
# GULP energy per Si atom -5571.967147 kJ/mol
# Density = 2.277605 g / cm^3
# Si number density = 22.828007 Si / 1000 Ang^3
#
#
#
# Elastic Constant Matrix: (Units=GPa)
#
#
# Indices 1 2 3 4 5 6 
#
# 1 100.9504 12.6595 25.5510 0.0000 0.0000 0.0000
# 2 12.6595 117.4902 3.6978 0.0000 0.0000 0.0000
# 3 25.5510 3.6978 59.9386 0.0000 0.0000 0.0000
# 4 0.0000 0.0000 0.0000 15.8343 0.0000 0.0000
# 5 0.0000 0.0000 0.0000 0.0000 -8.2881 0.0000
# 6 0.0000 0.0000 0.0000 0.0000 0.0000 9.9088
#
#
#
# Elastic Compliance Matrix: (Units=1/GPa)
#
#
# Indices 1 2 3 4 5 6 
#
# 1 0.011235 -0.001062 -0.004724 0.000000 0.000000 0.000000
# 2 -0.001062 0.008628 -0.000080 0.000000 0.000000 0.000000
# 3 -0.004724 -0.000080 0.018702 0.000000 0.000000 0.000000
# 4 0.000000 0.000000 0.000000 0.063154 0.000000 0.000000
# 5 0.000000 0.000000 0.000000 0.000000 -0.120654 0.000000
# 6 0.000000 0.000000 0.000000 0.000000 0.000000 0.100920
#
#
# Mechanical properties :
#
#
# Convention : Reuss Voigt Hill
#
# Bulk Modulus (GPa) = 37.26500 40.24398 38.75449
# Shear Modulus (GPa) = 48.70431 19.25572 33.98002
#
# Velocity S-wave (km/s) = 4.62403 2.90748 3.86232
# Velocity P-wave (km/s) = 6.69840 5.37947 6.07484
#
# Compressibility (1/GPa) = 0.02683483
#
# Stress axis : x y z
#
# Youngs Moduli (GPa) = 89.01085 115.89810 53.46948
#
# Poissons Ratio (x) = 0.12307 0.25257
# Poissons Ratio (y) = 0.09452 0.00426
# Poissons Ratio (z) = 0.42045 0.00923
#
# Static dielectric constant tensor:
#      x y z
#    x 1.853680 0.000000 0.000000 
#    y 0.000000 1.987140 0.000000 
#    z 0.000000 0.000000 1.907270 
# 
# From -- ./inp_files/33256.got.cif
#   From: 2010.05.17/outbox.cif.g08.bks.cpg/sg24_17_cif.got.tgz:33256.got - 2010.06.04 00:33:39.
