data_PCOD9336620
_publ_section_title
;
Structure prediction by ZEFSAII (Michael W. Deem and Ramdas Pophale) SiO2 
 PCOD9336620
Probable space group: I 21 21 21
;
_chemical_formula_sum "Si O2"
_cell_formula_units_Z 48
_cell_length_a 14.894863
_cell_length_b 17.787219
_cell_length_c 9.165127
_cell_angle_alpha 90.000000
_cell_angle_beta 90.000000
_cell_angle_gamma 90.000000
_cell_volume 2428.192160
_symmetry_space_group_name_H-M "I 21 21 21"
_symmetry_group_IT_number 24
_symmetry_cell_setting 'orthorhombic'
loop_
_space_group_symop_operation_xyz
x,y,z
-x,1/2-y,z
x,-y,1/2-z
1/2-x,y,-z
1/2+x,1/2+y,1/2+z
1/2-x,-y,1/2+z
1/2+x,1/2-y,-z
-x,1/2+y,1/2-z
loop_
_atom_site_type_symbol
_atom_site_label
_atom_site_fract_x
_atom_site_fract_y
_atom_site_fract_z
Si Si1 0.827547 0.729817 0.622058
Si Si2 0.830591 0.445546 0.884143
Si Si3 0.957828 0.879371 0.248966
Si Si4 0.157605 0.500000 0.750000
Si Si5 0.257313 0.349199 0.674642
Si Si6 0.000000 0.250000 0.060386
Si Si7 0.982104 0.004492 0.486007
O O1 0.750000 0.733548 0.500000
O O2 0.842584 0.642032 0.659202
O O3 0.797336 0.779677 0.758481
O O4 0.915736 0.763184 0.544402
O O5 0.808602 0.500000 0.750000
O O6 0.750000 0.448857 0.000000
O O7 0.923622 0.475359 0.952293
O O8 0.861640 0.842991 0.216745
O O9 0.947510 0.945441 0.366564
O O10 0.019245 0.819299 0.331810
O O11 0.992960 0.917043 0.100493
O O12 0.218532 0.425566 0.746701
O O13 0.092015 0.492569 0.611474
O O14 0.250000 0.354484 0.500000
#
# Coordination Sequence:
#
# PCOD9336620 Si02
#       7
#     8   8   8   4   8   4   8
#     4  11  25  44  72  96 137 184 236 285 349 432
#     4  11  26  45  67  97 130 183 237 291 347 411
#     4  11  24  42  70  99 134 182 227 288 348 426
#     4  12  24  40  68 102 142 178 222 284 370 434
#     4  12  26  44  66 109 143 177 229 293 365 430
#     4  12  22  44  72 104 136 192 234 286 362 426
#     4  11  23  43  69 100 135 177 235 283 349 426
#
# _framework density 19.767793000000001
#
# number of rings (size 3 to 8) (size 9 to 14) (size 15 to 20)
#    0.000    0.667    5.833    2.000    2.333    0.667 
#    3.000    0.000    0.000    0.000    0.000    0.000 
#    0.000    0.000    0.000    0.000    0.000    0.000 
#
# Total GULP energy -134154.076610 kJ/mol
# GULP energy per Si atom -5589.753192 kJ/mol
# Density = 1.972280 g / cm^3
# Si number density = 19.767793 Si / 1000 Ang^3
#
#
#
# Elastic Constant Matrix: (Units=GPa)
#
#
# Indices 1 2 3 4 5 6 
#
# 1 74.8477 13.7245 5.8589 0.0000 0.0000 0.0000
# 2 13.7245 109.3851 43.6767 0.0000 0.0000 0.0000
# 3 5.8589 43.6767 81.7610 0.0000 0.0000 0.0000
# 4 0.0000 0.0000 0.0000 37.2373 0.0000 0.0000
# 5 0.0000 0.0000 0.0000 0.0000 144.0432 0.0000
# 6 0.0000 0.0000 0.0000 0.0000 0.0000 27.0757
#
#
#
# Elastic Compliance Matrix: (Units=1/GPa)
#
#
# Indices 1 2 3 4 5 6 
#
# 1 0.013676 -0.001684 -0.000081 0.000000 0.000000 0.000000
# 2 -0.001684 0.011828 -0.006198 0.000000 0.000000 0.000000
# 3 -0.000081 -0.006198 0.015547 0.000000 0.000000 0.000000
# 4 0.000000 0.000000 0.000000 0.026855 0.000000 0.000000
# 5 0.000000 0.000000 0.000000 0.000000 0.006942 0.000000
# 6 0.000000 0.000000 0.000000 0.000000 0.000000 0.036933
#
#
# Mechanical properties :
#
#
# Convention : Reuss Voigt Hill
#
# Bulk Modulus (GPa) = 39.79821 43.61265 41.70543
# Shear Modulus (GPa) = 36.74271 55.18683 45.96477
#
# Velocity S-wave (km/s) = 4.31596 5.28944 4.82730
# Velocity P-wave (km/s) = 6.70919 7.70809 7.22592
#
# Compressibility (1/GPa) = 0.02512676
#
# Stress axis : x y z
#
# Youngs Moduli (GPa) = 73.12346 84.54494 64.31925
#
# Poissons Ratio (x) = 0.14235 0.00518
# Poissons Ratio (y) = 0.12312 0.39864
# Poissons Ratio (z) = 0.00589 0.52400
#
# Static dielectric constant tensor:
#      x y z
#    x 1.673700 0.000000 0.000000 
#    y 0.000000 1.658770 0.000000 
#    z 0.000000 0.000000 1.680390 
# 
# From -- ./inp_files/12845.got.cif
#   From: 2010.05.17/outbox.cif.g08.bks.cpg/sg24_7_cif.got.tgz:12845.got - 2010.06.04 00:33:39.
