data_PCOD9336031
_publ_section_title
;
Structure prediction by ZEFSAII (Michael W. Deem and Ramdas Pophale) SiO2 
 PCOD9336031
Probable space group: I 21 21 21
;
_chemical_formula_sum "Si O2"
_cell_formula_units_Z 28
_cell_length_a 8.196173
_cell_length_b 9.283571
_cell_length_c 14.831946
_cell_angle_alpha 90.000000
_cell_angle_beta 90.000000
_cell_angle_gamma 90.000000
_cell_volume 1128.559122
_symmetry_space_group_name_H-M "I 21 21 21"
_symmetry_group_IT_number 24
_symmetry_cell_setting 'orthorhombic'
loop_
_space_group_symop_operation_xyz
x,y,z
-x,1/2-y,z
x,-y,1/2-z
1/2-x,y,-z
1/2+x,1/2+y,1/2+z
1/2-x,-y,1/2+z
1/2+x,1/2-y,-z
-x,1/2+y,1/2-z
loop_
_atom_site_type_symbol
_atom_site_label
_atom_site_fract_x
_atom_site_fract_y
_atom_site_fract_z
Si Si1 0.817863 0.707943 0.863631
Si Si2 0.243072 0.516745 0.391094
Si Si3 0.500000 0.750000 0.583417
Si Si4 0.029960 0.000000 0.750000
Si Si5 0.250000 0.961045 0.500000
O O1 0.706133 0.847905 0.870931
O O2 0.860507 0.640064 0.767208
O O3 0.757456 0.570815 0.917496
O O4 0.000000 0.750000 0.901365
O O5 0.250000 0.528019 0.500000
O O6 0.117562 0.641100 0.362382
O O7 0.410362 0.531155 0.334334
O O8 0.397788 0.855419 0.519492
#
# Coordination Sequence:
#
# PCOD9336031 Si02
#       5
#     8   8   4   4   4
#     4  10  23  45  79 111 155 213 278 328 412 504
#     4  11  23  49  77 116 163 214 275 336 410 499
#     4  12  26  42  70 116 164 208 264 350 400 488
#     4  10  24  46  82 116 156 220 278 336 410 506
#     4  12  26  42  76 112 160 212 280 336 412 488
#
# _framework density 24.810395
#
# number of rings (size 3 to 8) (size 9 to 14) (size 15 to 20)
#    0.000    1.143    2.857    3.429    0.000    6.857 
#    7.714    7.143    0.000    0.000    0.000    0.000 
#    0.000    0.000    0.000    0.000    0.000    0.000 
#
# Total GULP energy -78203.232891 kJ/mol
# GULP energy per Si atom -5585.945206 kJ/mol
# Density = 2.475393 g / cm^3
# Si number density = 24.810395 Si / 1000 Ang^3
#
#
#
# Elastic Constant Matrix: (Units=GPa)
#
#
# Indices 1 2 3 4 5 6 
#
# 1 64.8266 83.1357 25.3520 0.0000 0.0000 0.0000
# 2 83.1357 259.6755 48.7060 0.0000 0.0000 0.0000
# 3 25.3520 48.7060 93.8721 0.0000 0.0000 0.0000
# 4 0.0000 0.0000 0.0000 33.1134 0.0000 0.0000
# 5 0.0000 0.0000 0.0000 0.0000 37.9016 0.0000
# 6 0.0000 0.0000 0.0000 0.0000 0.0000 66.2382
#
#
#
# Elastic Compliance Matrix: (Units=1/GPa)
#
#
# Indices 1 2 3 4 5 6 
#
# 1 0.026964 -0.008050 -0.003105 0.000000 0.000000 0.000000
# 2 -0.008050 0.006670 -0.001286 0.000000 0.000000 0.000000
# 3 -0.003105 -0.001286 0.012159 0.000000 0.000000 0.000000
# 4 0.000000 0.000000 0.000000 0.030199 0.000000 0.000000
# 5 0.000000 0.000000 0.000000 0.000000 0.026384 0.000000
# 6 0.000000 0.000000 0.000000 0.000000 0.000000 0.015097
#
#
# Mechanical properties :
#
#
# Convention : Reuss Voigt Hill
#
# Bulk Modulus (GPa) = 47.82707 81.41796 64.62252
# Shear Modulus (GPa) = 33.48382 44.86267 39.17325
#
# Velocity S-wave (km/s) = 3.67766 4.25693 3.97785
# Velocity P-wave (km/s) = 6.11167 7.55310 6.87029
#
# Compressibility (1/GPa) = 0.02090866
#
# Stress axis : x y z
#
# Youngs Moduli (GPa) = 37.08665 149.93611 82.24421
#
# Poissons Ratio (x) = 1.20700 0.25539
# Poissons Ratio (y) = 0.29855 0.10580
# Poissons Ratio (z) = 0.11516 0.19288
#
# Static dielectric constant tensor:
#      x y z
#    x 2.054350 0.000000 0.000000 
#    y 0.000000 1.994440 0.000000 
#    z 0.000000 0.000000 2.042960 
# 
# From -- ./inp_files/29160.got.cif
#   From: 2010.05.17/outbox.cif.g08.bks.cpg/sg24_15_cif.got.tgz:29160.got - 2010.06.04 00:33:39.
