data_PCOD9336274
_publ_section_title
;
Structure prediction by ZEFSAII (Michael W. Deem and Ramdas Pophale) SiO2 
 PCOD9336274
Probable space group: I 21 21 21
;
_chemical_formula_sum "Si O2"
_cell_formula_units_Z 32
_cell_length_a 15.464610
_cell_length_b 13.756284
_cell_length_c 5.632300
_cell_angle_alpha 90.000000
_cell_angle_beta 90.000000
_cell_angle_gamma 90.000000
_cell_volume 1198.190535
_symmetry_space_group_name_H-M "I 21 21 21"
_symmetry_group_IT_number 24
_symmetry_cell_setting 'orthorhombic'
loop_
_space_group_symop_operation_xyz
x,y,z
-x,1/2-y,z
x,-y,1/2-z
1/2-x,y,-z
1/2+x,1/2+y,1/2+z
1/2-x,-y,1/2+z
1/2+x,1/2-y,-z
-x,1/2+y,1/2-z
loop_
_atom_site_type_symbol
_atom_site_label
_atom_site_fract_x
_atom_site_fract_y
_atom_site_fract_z
Si Si1 0.250000 0.437745 0.000000
Si Si2 0.832009 0.406985 0.619810
Si Si3 0.483839 0.455199 0.502485
Si Si4 0.150955 0.243549 0.984841
Si Si5 0.500000 0.750000 0.854396
O O1 0.246596 0.500000 0.250000
O O2 0.170495 0.359232 0.977955
O O3 0.790621 0.500000 0.750000
O O4 0.750000 0.357618 0.500000
O O5 0.911669 0.458735 0.490004
O O6 0.878917 0.321387 0.764783
O O7 0.451699 0.500000 0.750000
O O8 0.462826 0.341894 0.508694
O O9 0.458276 0.500000 0.250000
O O10 0.081001 0.220767 0.186154
O O11 0.250000 0.204128 0.000000
#
# Coordination Sequence:
#
# PCOD9336274 Si02
#       5
#     4   8   8   8   4
#     4  10  26  52  78 106 152 210 274 330 372 454
#     4  11  21  39  72 113 159 199 248 323 414 497
#     4  11  26  45  70 111 156 203 261 324 402 477
#     4  10  25  46  78 113 153 212 270 327 407 474
#     4  12  24  50  78 112 166 212 268 348 390 482
#
# _framework density 26.706938999999998
#
# number of rings (size 3 to 8) (size 9 to 14) (size 15 to 20)
#    0.750    0.500    0.000    6.000    1.750    5.000 
#    0.000    6.250    0.000    0.000    0.000    0.000 
#    0.000    0.000    0.000    0.000    0.000    0.000 
#
# Total GULP energy -89289.827967 kJ/mol
# GULP energy per Si atom -5580.614248 kJ/mol
# Density = 2.664615 g / cm^3
# Si number density = 26.706939 Si / 1000 Ang^3
#
#
#
# Elastic Constant Matrix: (Units=GPa)
#
#
# Indices 1 2 3 4 5 6 
#
# 1 97.3321 -1.4484 15.8605 0.0000 0.0000 0.0000
# 2 -1.4484 201.9212 125.4498 0.0000 0.0000 0.0000
# 3 15.8605 125.4498 201.5010 0.0000 0.0000 0.0000
# 4 0.0000 0.0000 0.0000 67.9040 0.0000 0.0000
# 5 0.0000 0.0000 0.0000 0.0000 39.9623 0.0000
# 6 0.0000 0.0000 0.0000 0.0000 0.0000 44.9694
#
#
#
# Elastic Compliance Matrix: (Units=1/GPa)
#
#
# Indices 1 2 3 4 5 6 
#
# 1 0.010521 0.000962 -0.001427 0.000000 0.000000 0.000000
# 2 0.000962 0.008164 -0.005159 0.000000 0.000000 0.000000
# 3 -0.001427 -0.005159 0.008287 0.000000 0.000000 0.000000
# 4 0.000000 0.000000 0.000000 0.014727 0.000000 0.000000
# 5 0.000000 0.000000 0.000000 0.000000 0.025024 0.000000
# 6 0.000000 0.000000 0.000000 0.000000 0.000000 0.022237
#
#
# Mechanical properties :
#
#
# Convention : Reuss Voigt Hill
#
# Bulk Modulus (GPa) = 63.59411 86.71980 75.15695
# Shear Modulus (GPa) = 47.41657 54.62665 51.02161
#
# Velocity S-wave (km/s) = 4.21817 4.52753 4.37558
# Velocity P-wave (km/s) = 6.89837 7.73775 7.33008
#
# Compressibility (1/GPa) = 0.01572473
#
# Stress axis : x y z
#
# Youngs Moduli (GPa) = 95.04822 122.48477 120.67497
#
# Poissons Ratio (x) = -0.11784 0.17222
# Poissons Ratio (y) = -0.09145 0.62252
# Poissons Ratio (z) = 0.13564 0.63185
#
# Static dielectric constant tensor:
#      x y z
#    x 2.022370 0.000000 0.000000 
#    y 0.000000 2.094940 0.000000 
#    z 0.000000 0.000000 2.381550 
# 
# From -- ./inp_files/4296.got.cif
#   From: 2010.05.17/outbox.cif.g08.bks.cpg/sg24_3_cif.got.tgz:4296.got - 2010.06.04 00:33:39.
