data_PCOD9336590
_publ_section_title
;
Structure prediction by ZEFSAII (Michael W. Deem and Ramdas Pophale) SiO2 
 PCOD9336590
Probable space group: I 21 21 21
;
_chemical_formula_sum "Si O2"
_cell_formula_units_Z 32
_cell_length_a 14.557915
_cell_length_b 8.041297
_cell_length_c 9.664231
_cell_angle_alpha 90.000000
_cell_angle_beta 90.000000
_cell_angle_gamma 90.000000
_cell_volume 1131.338546
_symmetry_space_group_name_H-M "I 21 21 21"
_symmetry_group_IT_number 24
_symmetry_cell_setting 'orthorhombic'
loop_
_space_group_symop_operation_xyz
x,y,z
-x,1/2-y,z
x,-y,1/2-z
1/2-x,y,-z
1/2+x,1/2+y,1/2+z
1/2-x,-y,1/2+z
1/2+x,1/2-y,-z
-x,1/2+y,1/2-z
loop_
_atom_site_type_symbol
_atom_site_label
_atom_site_fract_x
_atom_site_fract_y
_atom_site_fract_z
Si Si1 0.478424 0.556630 0.386766
Si Si2 0.142712 0.055807 0.478542
Si Si3 0.891754 0.296065 0.211475
Si Si4 0.833913 0.943403 0.111003
O O1 0.500000 0.750000 0.371218
O O2 0.423989 0.500000 0.250000
O O3 0.569348 0.438150 0.397864
O O4 0.423451 0.509060 0.525514
O O5 0.250000 0.069828 0.500000
O O6 0.130084 0.859436 0.445063
O O7 0.129379 0.233009 0.391950
O O8 0.879348 0.500000 0.250000
O O9 0.826961 0.123123 0.212439
O O10 0.000000 0.250000 0.216520
O O11 0.750000 0.943146 0.000000
#
# Coordination Sequence:
#
# PCOD9336590 Si02
#       4
#     8   8   8   8
#     4  12  26  40  62  95 133 165 209 274 326 372
#     4  11  23  39  64  95 132 166 209 262 323 383
#     4   8  20  39  69  90 117 168 219 258 299 389
#     4   8  19  41  67  93 113 158 228 258 303 366
#
# _framework density 28.285079
#
# number of rings (size 3 to 8) (size 9 to 14) (size 15 to 20)
#    1.500    0.500    2.500    0.000   10.500    2.000 
#    0.000    5.000    5.500    0.000    0.000    0.000 
#    0.000    0.000    0.000    0.000    0.000    0.000 
#
# Total GULP energy -89126.714038 kJ/mol
# GULP energy per Si atom -5570.419627 kJ/mol
# Density = 2.822070 g / cm^3
# Si number density = 28.285079 Si / 1000 Ang^3
#
#
#
# Elastic Constant Matrix: (Units=GPa)
#
#
# Indices 1 2 3 4 5 6 
#
# 1 169.0625 36.8136 62.5781 0.0000 0.0000 0.0000
# 2 36.8136 273.4816 101.5767 0.0000 0.0000 0.0000
# 3 62.5781 101.5767 178.4427 0.0000 0.0000 0.0000
# 4 0.0000 0.0000 0.0000 55.1288 0.0000 0.0000
# 5 0.0000 0.0000 0.0000 0.0000 64.1771 0.0000
# 6 0.0000 0.0000 0.0000 0.0000 0.0000 63.3985
#
#
#
# Elastic Compliance Matrix: (Units=1/GPa)
#
#
# Indices 1 2 3 4 5 6 
#
# 1 0.006798 -0.000038 -0.002362 0.000000 0.000000 0.000000
# 2 -0.000038 0.004637 -0.002626 0.000000 0.000000 0.000000
# 3 -0.002362 -0.002626 0.007928 0.000000 0.000000 0.000000
# 4 0.000000 0.000000 0.000000 0.018139 0.000000 0.000000
# 5 0.000000 0.000000 0.000000 0.000000 0.015582 0.000000
# 6 0.000000 0.000000 0.000000 0.000000 0.000000 0.015773
#
#
# Mechanical properties :
#
#
# Convention : Reuss Voigt Hill
#
# Bulk Modulus (GPa) = 107.41868 113.65815 110.53842
# Shear Modulus (GPa) = 60.96598 64.54212 62.75405
#
# Velocity S-wave (km/s) = 4.64768 4.78205 4.71534
# Velocity P-wave (km/s) = 8.17685 8.41195 8.29523
#
# Compressibility (1/GPa) = 0.00930937
#
# Stress axis : x y z
#
# Youngs Moduli (GPa) = 147.11041 215.65048 126.14115
#
# Poissons Ratio (x) = 0.00810 0.29801
# Poissons Ratio (y) = 0.00553 0.33131
# Poissons Ratio (z) = 0.34754 0.56640
#
# Static dielectric constant tensor:
#      x y z
#    x 2.140300 0.000000 0.000000 
#    y 0.000000 2.186890 0.000000 
#    z 0.000000 0.000000 2.117260 
# 
# From -- ./inp_files/20409.got.cif
#   From: 2010.05.17/outbox.cif.g08.bks.cpg/sg24_11_cif.got.tgz:20409.got - 2010.06.04 00:33:39.
