data_PCOD9336010
_publ_section_title
;
Structure prediction by ZEFSAII (Michael W. Deem and Ramdas Pophale) SiO2 
 PCOD9336010
Probable space group: I 21 21 21
;
_chemical_formula_sum "Si O2"
_cell_formula_units_Z 28
_cell_length_a 11.712488
_cell_length_b 4.977092
_cell_length_c 20.683203
_cell_angle_alpha 90.000000
_cell_angle_beta 90.000000
_cell_angle_gamma 90.000000
_cell_volume 1205.709331
_symmetry_space_group_name_H-M "I 21 21 21"
_symmetry_group_IT_number 24
_symmetry_cell_setting 'orthorhombic'
loop_
_space_group_symop_operation_xyz
x,y,z
-x,1/2-y,z
x,-y,1/2-z
1/2-x,y,-z
1/2+x,1/2+y,1/2+z
1/2-x,-y,1/2+z
1/2+x,1/2-y,-z
-x,1/2+y,1/2-z
loop_
_atom_site_type_symbol
_atom_site_label
_atom_site_fract_x
_atom_site_fract_y
_atom_site_fract_z
Si Si1 0.155624 0.422344 0.858981
Si Si2 0.627257 0.354291 0.818775
Si Si3 0.721424 0.568984 0.073813
Si Si4 0.500000 0.250000 0.256524
O O1 0.277033 0.379166 0.823687
O O2 0.134117 0.146574 0.896177
O O3 0.063295 0.505301 0.805497
O O4 0.168626 0.644035 0.913224
O O5 0.500000 0.250000 0.828740
O O6 0.631059 0.500000 0.750000
O O7 0.668453 0.535921 0.879493
O O8 0.750000 0.517268 0.000000
O O9 0.599124 0.500000 0.250000
#
# Coordination Sequence:
#
# PCOD9336010 Si02
#       4
#     8   8   8   4
#     4  10  24  41  66  96 133 179 224 277 338 402
#     4  10  25  40  70 103 138 176 227 286 347 409
#     4  10  23  45  67  96 138 178 226 280 335 415
#     4  12  24  40  68  98 136 172 224 282 338 400
#
# _framework density 23.222840999999999
#
# number of rings (size 3 to 8) (size 9 to 14) (size 15 to 20)
#    1.714    0.000    0.000    3.429    8.000    0.000 
#    2.571    2.857    0.000    0.000    0.000    0.000 
#    0.000    0.000    0.000    0.000    0.000    0.000 
#
# Total GULP energy -77956.675759 kJ/mol
# GULP energy per Si atom -5568.333983 kJ/mol
# Density = 2.316999 g / cm^3
# Si number density = 23.222841 Si / 1000 Ang^3
#
#
#
# Elastic Constant Matrix: (Units=GPa)
#
#
# Indices 1 2 3 4 5 6 
#
# 1 101.6798 10.1500 26.5091 0.0000 0.0000 0.0000
# 2 10.1500 151.1937 18.5454 0.0000 0.0000 0.0000
# 3 26.5091 18.5454 174.9700 0.0000 0.0000 0.0000
# 4 0.0000 0.0000 0.0000 25.9091 0.0000 0.0000
# 5 0.0000 0.0000 0.0000 0.0000 22.5719 0.0000
# 6 0.0000 0.0000 0.0000 0.0000 0.0000 -1.3345
#
#
#
# Elastic Compliance Matrix: (Units=1/GPa)
#
#
# Indices 1 2 3 4 5 6 
#
# 1 0.010277 -0.000506 -0.001503 0.000000 0.000000 0.000000
# 2 -0.000506 0.006726 -0.000636 0.000000 0.000000 0.000000
# 3 -0.001503 -0.000636 0.006010 0.000000 0.000000 0.000000
# 4 0.000000 0.000000 0.000000 0.038596 0.000000 0.000000
# 5 0.000000 0.000000 0.000000 0.000000 0.044303 0.000000
# 6 0.000000 0.000000 0.000000 0.000000 0.000000 -0.749336
#
#
# Mechanical properties :
#
#
# Convention : Reuss Voigt Hill
#
# Bulk Modulus (GPa) = 56.42351 59.80585 58.11468
# Shear Modulus (GPa) = -7.90858 34.27188 13.18165
#
# Velocity S-wave (km/s) = -1.84741 3.84576 2.38505
# Velocity P-wave (km/s) = 4.44958 6.74750 5.71522
#
# Compressibility (1/GPa) = 0.01772311
#
# Stress axis : x y z
#
# Youngs Moduli (GPa) = 97.30240 148.67635 166.37558
#
# Poissons Ratio (x) = 0.07516 0.25014
# Poissons Ratio (y) = 0.04919 0.10587
# Poissons Ratio (z) = 0.14629 0.09461
#
# Static dielectric constant tensor:
#      x y z
#    x 1.952320 0.000000 0.000000 
#    y 0.000000 3.054280 0.000000 
#    z 0.000000 0.000000 1.959390 
# 
# From -- ./inp_files/33098.got.cif
#   From: 2010.05.17/outbox.cif.g08.bks.cpg/sg24_17_cif.got.tgz:33098.got - 2010.06.04 00:33:39.
