data_PCOD9336611
_publ_section_title
;
Structure prediction by ZEFSAII (Michael W. Deem and Ramdas Pophale) SiO2 
 PCOD9336611
Probable space group: I 21 21 21
;
_chemical_formula_sum "Si O2"
_cell_formula_units_Z 56
_cell_length_a 15.841508
_cell_length_b 15.036390
_cell_length_c 11.142423
_cell_angle_alpha 90.000000
_cell_angle_beta 90.000000
_cell_angle_gamma 90.000000
_cell_volume 2654.115047
_symmetry_space_group_name_H-M "I 21 21 21"
_symmetry_group_IT_number 24
_symmetry_cell_setting 'orthorhombic'
loop_
_space_group_symop_operation_xyz
x,y,z
-x,1/2-y,z
x,-y,1/2-z
1/2-x,y,-z
1/2+x,1/2+y,1/2+z
1/2-x,-y,1/2+z
1/2+x,1/2-y,-z
-x,1/2+y,1/2-z
loop_
_atom_site_type_symbol
_atom_site_label
_atom_site_fract_x
_atom_site_fract_y
_atom_site_fract_z
Si Si1 0.631090 0.290117 0.734311
Si Si2 0.797747 0.279110 0.871964
Si Si3 0.419088 0.946955 0.369538
Si Si4 0.102196 0.618743 0.591525
Si Si5 0.879260 0.914626 0.164029
Si Si6 0.065861 0.047551 0.383451
Si Si7 0.750000 0.011258 0.500000
Si Si8 0.000000 0.250000 0.082510
O O1 0.723939 0.305700 0.782569
O O2 0.618018 0.185070 0.713591
O O3 0.611520 0.357364 0.627888
O O4 0.561090 0.309739 0.836222
O O5 0.867304 0.355539 0.878958
O O6 0.843896 0.188701 0.831276
O O7 0.750000 0.263807 0.000000
O O8 0.519342 0.926816 0.355158
O O9 0.391691 0.000000 0.250000
O O10 0.405386 0.995071 0.498141
O O11 0.172060 0.550420 0.542607
O O12 0.060201 0.683835 0.491254
O O13 0.966915 0.931241 0.095412
O O14 0.878256 0.000000 0.250000
O O15 0.791593 0.925338 0.096799
O O16 0.075865 0.000000 0.250000
#
# Coordination Sequence:
#
# PCOD9336611 Si02
#       8
#     8   8   8   8   8   8   4   4
#     4  12  24  41  72 107 139 187 243 316 362 421
#     4  12  23  41  71 106 138 184 251 307 351 423
#     4  12  28  47  68 103 155 200 234 289 374 452
#     4  12  21  41  71 106 139 190 239 303 365 435
#     4  11  23  42  67 104 143 179 238 304 370 428
#     4  11  23  46  76 103 137 192 255 303 350 422
#     4  12  24  40  68 104 142 182 234 302 368 436
#     4  12  18  38  74 106 136 176 248 296 362 420
#
# _framework density 21.099311
#
# number of rings (size 3 to 8) (size 9 to 14) (size 15 to 20)
#    0.000    0.286    6.429    3.429    0.000    3.429 
#    2.571    1.429    0.000    0.000    0.000    0.000 
#    0.000    0.000    0.000    0.000    0.000    0.000 
#
# Total GULP energy -156354.313875 kJ/mol
# GULP energy per Si atom -5584.082638 kJ/mol
# Density = 2.105129 g / cm^3
# Si number density = 21.099311 Si / 1000 Ang^3
#
#
#
# Elastic Constant Matrix: (Units=GPa)
#
#
# Indices 1 2 3 4 5 6 
#
# 1 97.0868 27.6701 17.2983 0.0000 0.0000 0.0000
# 2 27.6701 103.3317 39.7811 0.0000 0.0000 0.0000
# 3 17.2983 39.7811 62.4504 0.0000 0.0000 0.0000
# 4 0.0000 0.0000 0.0000 15.8100 0.0000 0.0000
# 5 0.0000 0.0000 0.0000 0.0000 -11.1247 0.0000
# 6 0.0000 0.0000 0.0000 0.0000 0.0000 39.9030
#
#
#
# Elastic Compliance Matrix: (Units=1/GPa)
#
#
# Indices 1 2 3 4 5 6 
#
# 1 0.011269 -0.002406 -0.001589 0.000000 0.000000 0.000000
# 2 -0.002406 0.013336 -0.007828 0.000000 0.000000 0.000000
# 3 -0.001589 -0.007828 0.021440 0.000000 0.000000 0.000000
# 4 0.000000 0.000000 0.000000 0.063251 0.000000 0.000000
# 5 0.000000 0.000000 0.000000 0.000000 -0.089890 0.000000
# 6 0.000000 0.000000 0.000000 0.000000 0.000000 0.025061
#
#
# Mechanical properties :
#
#
# Convention : Reuss Voigt Hill
#
# Bulk Modulus (GPa) = 44.64738 48.04086 46.34412
# Shear Modulus (GPa) = 66.15656 20.79228 43.47442
#
# Velocity S-wave (km/s) = 5.60561 3.14259 4.54416
# Velocity P-wave (km/s) = 7.94379 5.99885 7.03882
#
# Compressibility (1/GPa) = 0.02239773
#
# Stress axis : x y z
#
# Youngs Moduli (GPa) = 88.74031 74.98703 46.64280
#
# Poissons Ratio (x) = 0.18041 0.07411
# Poissons Ratio (y) = 0.21350 0.36514
# Poissons Ratio (z) = 0.14099 0.58703
#
# Static dielectric constant tensor:
#      x y z
#    x 1.801850 0.000000 0.000000 
#    y 0.000000 1.802850 0.000000 
#    z 0.000000 0.000000 1.796210 
# 
# From -- ./inp_files/20887.got.cif
#   From: 2010.05.17/outbox.cif.g08.bks.cpg/sg24_11_cif.got.tgz:20887.got - 2010.06.04 00:33:39.
