data_PCOD9336658
_publ_section_title
;
Structure prediction by ZEFSAII (Michael W. Deem and Ramdas Pophale) SiO2 
 PCOD9336658
Probable space group: I 21 21 21
;
_chemical_formula_sum "Si O2"
_cell_formula_units_Z 40
_cell_length_a 8.601357
_cell_length_b 17.094727
_cell_length_c 11.925492
_cell_angle_alpha 90.000000
_cell_angle_beta 90.000000
_cell_angle_gamma 90.000000
_cell_volume 1753.498701
_symmetry_space_group_name_H-M "I 21 21 21"
_symmetry_group_IT_number 24
_symmetry_cell_setting 'orthorhombic'
loop_
_space_group_symop_operation_xyz
x,y,z
-x,1/2-y,z
x,-y,1/2-z
1/2-x,y,-z
1/2+x,1/2+y,1/2+z
1/2-x,-y,1/2+z
1/2+x,1/2-y,-z
-x,1/2+y,1/2-z
loop_
_atom_site_type_symbol
_atom_site_label
_atom_site_fract_x
_atom_site_fract_y
_atom_site_fract_z
Si Si1 0.950479 0.087249 0.202906
Si Si2 0.407803 0.668542 0.937673
Si Si3 0.184339 0.890207 0.681170
Si Si4 0.750000 0.135654 0.000000
Si Si5 0.399325 0.954925 0.075071
Si Si6 0.500000 0.750000 0.400243
O O1 0.903335 0.142360 0.307534
O O2 0.128741 0.106842 0.165550
O O3 0.960991 0.000000 0.250000
O O4 0.819184 0.089645 0.106523
O O5 0.500000 0.750000 0.943758
O O6 0.250000 0.687087 0.000000
O O7 0.472166 0.593825 0.008782
O O8 0.138834 0.918153 0.804832
O O9 0.118227 0.804132 0.667424
O O10 0.095949 0.951897 0.598930
O O11 0.892659 0.192028 0.969617
O O12 0.250000 0.942719 0.000000
#
# Coordination Sequence:
#
# PCOD9336658 Si02
#       6
#     8   8   8   4   8   4
#     4  12  28  54  79 112 160 207 261 325 392 468
#     4  12  30  48  81 115 161 205 261 325 392 465
#     4  11  26  47  81 112 154 205 258 318 390 464
#     4  12  32  50  78 114 156 204 260 322 394 462
#     4  11  23  48  78 111 147 207 258 313 390 460
#     4  12  30  48  78 112 160 196 262 316 386 468
#
# _framework density 22.811537000000001
#
# number of rings (size 3 to 8) (size 9 to 14) (size 15 to 20)
#    0.000    0.400    4.000    1.800   16.800    0.000 
#    0.000    0.000    0.000    0.000    0.000    0.000 
#    0.000    0.000    0.000    0.000    0.000    0.000 
#
# Total GULP energy -111907.749084 kJ/mol
# GULP energy per Si atom -5595.387454 kJ/mol
# Density = 2.275962 g / cm^3
# Si number density = 22.811537 Si / 1000 Ang^3
#
#
#
# Elastic Constant Matrix: (Units=GPa)
#
#
# Indices 1 2 3 4 5 6 
#
# 1 113.3302 69.3537 62.4781 0.0000 0.0000 0.0000
# 2 69.3537 111.9046 44.8743 0.0000 0.0000 0.0000
# 3 62.4781 44.8743 121.1120 0.0000 0.0000 0.0000
# 4 0.0000 0.0000 0.0000 21.7928 0.0000 0.0000
# 5 0.0000 0.0000 0.0000 0.0000 31.1807 0.0000
# 6 0.0000 0.0000 0.0000 0.0000 0.0000 37.7461
#
#
#
# Elastic Compliance Matrix: (Units=1/GPa)
#
#
# Indices 1 2 3 4 5 6 
#
# 1 0.017038 -0.008262 -0.005728 0.000000 0.000000 0.000000
# 2 -0.008262 0.014502 -0.001111 0.000000 0.000000 0.000000
# 3 -0.005728 -0.001111 0.011623 0.000000 0.000000 0.000000
# 4 0.000000 0.000000 0.000000 0.045887 0.000000 0.000000
# 5 0.000000 0.000000 0.000000 0.000000 0.032071 0.000000
# 6 0.000000 0.000000 0.000000 0.000000 0.000000 0.026493
#
#
# Mechanical properties :
#
#
# Convention : Reuss Voigt Hill
#
# Bulk Modulus (GPa) = 77.15591 77.75099 77.45345
# Shear Modulus (GPa) = 27.45183 29.45331 28.45257
#
# Velocity S-wave (km/s) = 3.47280 3.59717 3.53553
# Velocity P-wave (km/s) = 7.06944 7.17014 7.11997
#
# Compressibility (1/GPa) = 0.01296077
#
# Stress axis : x y z
#
# Youngs Moduli (GPa) = 58.69301 68.95402 86.03354
#
# Poissons Ratio (x) = 0.56972 0.49279
# Poissons Ratio (y) = 0.48494 0.09559
# Poissons Ratio (z) = 0.33619 0.07661
#
# Static dielectric constant tensor:
#      x y z
#    x 1.829910 0.000000 0.000000 
#    y 0.000000 1.899200 0.000000 
#    z 0.000000 0.000000 1.888110 
# 
# From -- ./inp_files/18250.got.cif
#   From: 2010.05.17/outbox.cif.g08.bks.cpg/sg24_10_cif.got.tgz:18250.got - 2010.06.04 00:33:39.
