data_PCOD9337487
_publ_section_title
;
Structure prediction by ZEFSAII (Michael W. Deem and Ramdas Pophale) SiO2 
 PCOD9337487
Probable space group: P M M 2
;
_chemical_formula_sum "Si O2"
_cell_formula_units_Z 28
_cell_length_a 7.464371
_cell_length_b 9.407261
_cell_length_c 18.578011
_cell_angle_alpha 90.000000
_cell_angle_beta 90.000000
_cell_angle_gamma 90.000000
_cell_volume 1304.534671
_symmetry_space_group_name_H-M "P M M 2"
_symmetry_group_IT_number 25
_symmetry_cell_setting 'orthorhombic'
loop_
_space_group_symop_operation_xyz
x,y,z
-x,-y,z
-x,y,z
x,-y,z
loop_
_atom_site_type_symbol
_atom_site_label
_atom_site_fract_x
_atom_site_fract_y
_atom_site_fract_z
Si Si1 0.285845 0.838128 0.229680
Si Si2 0.710734 0.659513 0.927697
Si Si3 0.280814 0.663206 0.367052
Si Si4 0.787798 0.838637 0.067231
Si Si5 0.718792 0.163862 0.508295
Si Si6 0.280724 0.836590 0.791343
Si Si7 0.281298 0.663901 0.649735
O O1 0.500000 0.845763 0.237923
O O2 0.220117 0.736893 0.293074
O O3 0.251166 0.788576 0.148329
O O4 0.215906 0.000000 0.236175
O O5 0.500000 0.646462 0.912202
O O6 0.786476 0.500000 0.928269
O O7 0.782377 0.759154 0.864005
O O8 0.725153 0.735588 0.004501
O O9 0.500000 0.662441 0.366907
O O10 0.223351 0.500000 0.372711
O O11 0.225276 0.755995 0.435705
O O12 0.000000 0.847516 0.060012
O O13 0.714076 0.000000 0.059677
O O14 0.500000 0.162862 0.508469
O O15 0.775529 0.251102 0.578651
O O16 0.776600 0.000000 0.510062
O O17 0.500000 0.839111 0.791542
O O18 0.225948 0.746798 0.721565
O O19 0.222324 0.000000 0.787927
O O20 0.500000 0.662701 0.649415
O O21 0.223237 0.500000 0.649295
#
# Coordination Sequence:
#
# PCOD9337487 Si02
#       7
#     4   4   4   4   4   4   4
#     4   9  17  30  48  68  91 121 156 193 234 281
#     4  10  20  33  50  72  97 126 161 200 242 288
#     4   9  16  25  38  58  84 114 150 191 232 274
#     4  10  21  36  53  73  97 125 158 197 242 292
#     4   9  15  22  33  51  79 116 154 188 226 274
#     4   9  16  26  41  61  86 118 156 195 234 278
#     4   9  15  22  33  52  82 118 153 189 230 275
#
# _framework density 21.463592999999999
#
# number of rings (size 3 to 8) (size 9 to 14) (size 15 to 20)
#    0.000    2.714    0.000    2.571    0.000    9.143 
#    0.000    1.429    0.000    0.000    0.000    0.000 
#    0.000    1.143    0.000    6.857    0.000    9.571 
#
# Total GULP energy -156412.471810 kJ/mol
# GULP energy per Si atom -5586.159707 kJ/mol
# Density = 2.141474 g / cm^3
# Si number density = 21.463593 Si / 1000 Ang^3
#
#
#
# Elastic Constant Matrix: (Units=GPa)
#
#
# Indices 1 2 3 4 5 6 
#
# 1 61.7005 4.8697 -4.5382 0.0000 0.0000 0.0000
# 2 4.8697 224.7647 156.9352 0.0000 0.0000 0.0000
# 3 -4.5382 156.9352 217.4810 0.0000 0.0000 0.0000
# 4 0.0000 0.0000 0.0000 26.5232 0.0000 0.0000
# 5 0.0000 0.0000 0.0000 0.0000 -45.5435 0.0000
# 6 0.0000 0.0000 0.0000 0.0000 0.0000 -8.2462
#
#
#
# Elastic Compliance Matrix: (Units=1/GPa)
#
#
# Indices 1 2 3 4 5 6 
#
# 1 0.016390 -0.001197 0.001206 0.000000 0.000000 0.000000
# 2 -0.001197 0.009054 -0.006559 0.000000 0.000000 0.000000
# 3 0.001206 -0.006559 0.009356 0.000000 0.000000 0.000000
# 4 0.000000 0.000000 0.000000 0.037703 0.000000 0.000000
# 5 0.000000 0.000000 0.000000 0.000000 -0.021957 0.000000
# 6 0.000000 0.000000 0.000000 0.000000 0.000000 -0.121267
#
#
# Mechanical properties :
#
#
# Convention : Reuss Voigt Hill
#
# Bulk Modulus (GPa) = 46.08057 90.94219 68.51138
# Shear Modulus (GPa) = -99.23202 17.65865 -40.78668
#
# Velocity S-wave (km/s) = -6.80684 2.87143 -4.36394
# Velocity P-wave (km/s) = 6.34521 7.31136 2.56849
#
# Compressibility (1/GPa) = 0.02170112
#
# Stress axis : x y z
#
# Youngs Moduli (GPa) = 61.01101 110.44286 106.88261
#
# Poissons Ratio (x) = 0.13220 -0.12888
# Poissons Ratio (y) = 0.07303 0.70101
# Poissons Ratio (z) = -0.07357 0.72436
#
# Static dielectric constant tensor:
#      x y z
#    x 1.800460 0.000000 0.000000 
#    y 0.000000 1.741460 0.000000 
#    z 0.000000 0.000000 1.730680 
# 
# From -- ./inp_files/6394.got.cif
#   From: 2010.05.17/outbox.cif.g08.bks.cpg/sg25_4_cif.got.tgz:6394.got - 2010.06.04 01:04:00.
