data_PCOD9337573
_publ_section_title
;
Structure prediction by ZEFSAII (Michael W. Deem and Ramdas Pophale) SiO2 
 PCOD9337573
Probable space group: P M M 2
;
_chemical_formula_sum "Si O2"
_cell_formula_units_Z 24
_cell_length_a 9.400150
_cell_length_b 8.946539
_cell_length_c 15.887061
_cell_angle_alpha 90.000000
_cell_angle_beta 90.000000
_cell_angle_gamma 90.000000
_cell_volume 1336.082902
_symmetry_space_group_name_H-M "P M M 2"
_symmetry_group_IT_number 25
_symmetry_cell_setting 'orthorhombic'
loop_
_space_group_symop_operation_xyz
x,y,z
-x,-y,z
-x,y,z
x,-y,z
loop_
_atom_site_type_symbol
_atom_site_label
_atom_site_fract_x
_atom_site_fract_y
_atom_site_fract_z
Si Si1 0.332542 0.821404 0.182640
Si Si2 0.330524 0.676595 0.360696
Si Si3 0.167340 0.679634 0.693977
Si Si4 0.166445 0.319494 0.027185
Si Si5 0.663652 0.317837 0.860124
Si Si6 0.830330 0.823207 0.516447
O O1 0.500000 0.784053 0.169681
O O2 0.289414 0.755063 0.273097
O O3 0.240684 0.752118 0.107974
O O4 0.318894 0.000000 0.183906
O O5 0.500000 0.699086 0.371566
O O6 0.303296 0.500000 0.354745
O O7 0.249562 0.745245 0.439778
O O8 0.180555 0.500000 0.685389
O O9 0.259051 0.728901 0.774129
O O10 0.212056 0.755292 0.606720
O O11 0.000000 0.712478 0.708609
O O12 0.177094 0.500000 0.033146
O O13 0.000000 0.280888 0.022352
O O14 0.248464 0.271668 0.942459
O O15 0.500000 0.268648 0.864027
O O16 0.664130 0.500000 0.859766
O O17 0.000000 0.798450 0.507819
O O18 0.803604 0.000000 0.515193
#
# Coordination Sequence:
#
# PCOD9337573 Si02
#       6
#     4   4   4   4   4   4
#     4  10  21  37  56  78 106 140 176 216 265 318
#     4  10  21  37  58  82 106 136 176 220 265 314
#     4   9  17  31  51  74 102 137 177 221 267 314
#     4  10  20  34  54  80 108 140 179 220 262 311
#     4   9  17  30  51  78 105 135 175 223 269 311
#     4  10  21  36  54  78 109 144 179 216 262 315
#
# _framework density 17.962956999999999
#
# number of rings (size 3 to 8) (size 9 to 14) (size 15 to 20)
#    0.000    2.333    0.000    2.500    0.000    7.333 
#    0.000    2.500    0.000    3.000    0.000    0.000 
#    0.000    0.000    0.000    0.000    0.000    0.000 
#
# Total GULP energy -133988.428027 kJ/mol
# GULP energy per Si atom -5582.851168 kJ/mol
# Density = 1.792207 g / cm^3
# Si number density = 17.962957 Si / 1000 Ang^3
#
#
#
# Elastic Constant Matrix: (Units=GPa)
#
#
# Indices 1 2 3 4 5 6 
#
# 1 104.6188 51.4702 114.4549 0.0000 0.0000 0.0000
# 2 51.4702 37.4952 65.9999 0.0000 0.0000 0.0000
# 3 114.4549 65.9999 218.0542 0.0000 0.0000 0.0000
# 4 0.0000 0.0000 0.0000 -24.1029 0.0000 0.0000
# 5 0.0000 0.0000 0.0000 0.0000 42.7294 0.0000
# 6 0.0000 0.0000 0.0000 0.0000 0.0000 22.3640
#
#
#
# Elastic Compliance Matrix: (Units=1/GPa)
#
#
# Indices 1 2 3 4 5 6 
#
# 1 0.035237 -0.033847 -0.008251 0.000000 0.000000 0.000000
# 2 -0.033847 0.089594 -0.009352 0.000000 0.000000 0.000000
# 3 -0.008251 -0.009352 0.011748 0.000000 0.000000 0.000000
# 4 0.000000 0.000000 0.000000 -0.041489 0.000000 0.000000
# 5 0.000000 0.000000 0.000000 0.000000 0.023403 0.000000
# 6 0.000000 0.000000 0.000000 0.000000 0.000000 0.044715
#
#
# Mechanical properties :
#
#
# Convention : Reuss Voigt Hill
#
# Bulk Modulus (GPa) = 29.69239 91.55759 60.62499
# Shear Modulus (GPa) = 18.02874 16.74766 17.38820
#
# Velocity S-wave (km/s) = 3.17150 3.05674 3.11465
# Velocity P-wave (km/s) = 5.47512 7.97114 6.83798
#
# Compressibility (1/GPa) = 0.03367867
#
# Stress axis : x y z
#
# Youngs Moduli (GPa) = 28.37886 11.16144 85.12405
#
# Poissons Ratio (x) = 0.37778 0.70237
# Poissons Ratio (y) = 0.96055 0.79607
# Poissons Ratio (z) = 0.23416 0.10438
#
# Static dielectric constant tensor:
#      x y z
#    x 1.603670 0.000000 0.000000 
#    y 0.000000 1.596870 0.000000 
#    z 0.000000 0.000000 1.578800 
# 
# From -- ./inp_files/5220.got.cif
#   From: 2010.05.17/outbox.cif.g08.bks.cpg/sg25_3_cif.got.tgz:5220.got - 2010.06.04 01:04:00.
