data_PCOD9337117
_publ_section_title
;
Structure prediction by ZEFSAII (Michael W. Deem and Ramdas Pophale) SiO2 
 PCOD9337117
Probable space group: P M M 2
;
_chemical_formula_sum "Si O2"
_cell_formula_units_Z 32
_cell_length_a 18.459471
_cell_length_b 13.886696
_cell_length_c 7.736180
_cell_angle_alpha 90.000000
_cell_angle_beta 90.000000
_cell_angle_gamma 90.000000
_cell_volume 1983.100598
_symmetry_space_group_name_H-M "P M M 2"
_symmetry_group_IT_number 25
_symmetry_cell_setting 'orthorhombic'
loop_
_space_group_symop_operation_xyz
x,y,z
-x,-y,z
-x,y,z
x,-y,z
loop_
_atom_site_type_symbol
_atom_site_label
_atom_site_fract_x
_atom_site_fract_y
_atom_site_fract_z
Si Si1 0.768153 0.614096 0.391920
Si Si2 0.078756 0.615153 0.249857
Si Si3 0.585411 0.201568 0.081006
Si Si4 0.230941 0.702534 0.746930
Si Si5 0.682945 0.111950 0.786163
Si Si6 0.326827 0.611153 0.046275
Si Si7 0.082231 0.613743 0.834815
Si Si8 0.583769 0.886088 0.451242
O O1 0.772395 0.500000 0.434227
O O2 0.848544 0.650371 0.340120
O O3 0.741701 0.670961 0.558554
O O4 0.717477 0.622855 0.224858
O O5 0.077471 0.500000 0.279649
O O6 0.000000 0.653830 0.305345
O O7 0.084951 0.626557 0.042776
O O8 0.500000 0.186416 0.053595
O O9 0.608801 0.311649 0.047477
O O10 0.602287 0.172411 0.278577
O O11 0.632489 0.137704 0.949686
O O12 0.251076 0.812859 0.783653
O O13 0.146388 0.675970 0.756061
O O14 0.272447 0.639703 0.891572
O O15 0.635366 0.130715 0.613964
O O16 0.703658 0.000000 0.789621
O O17 0.349077 0.500000 0.030092
O O18 0.095075 0.500000 0.798914
O O19 0.000000 0.635922 0.778154
O O20 0.500000 0.864568 0.497976
O O21 0.587603 0.000000 0.408977
#
# Coordination Sequence:
#
# PCOD9337117 Si02
#       8
#     4   4   4   4   4   4   4   4
#     4  10  18  28  46  69  96 131 165 192 229 279
#     4   8  14  25  42  66  97 128 156 190 230 269
#     4  10  20  33  52  75  96 123 160 198 238 290
#     4  11  20  31  49  71  96 128 167 199 237 287
#     4  10  21  35  51  72  98 124 156 203 252 290
#     4  10  20  33  46  66 100 134 162 194 232 278
#     4   9  16  28  47  71 100 130 159 194 235 277
#     4   9  17  31  52  75  97 120 151 198 252 294
#
# _framework density 16.136348000000002
#
# number of rings (size 3 to 8) (size 9 to 14) (size 15 to 20)
#    0.000    2.375    1.250    3.375    0.000    2.000 
#    0.000    1.250    0.000    0.375    0.000    3.500 
#    0.000    0.000    0.000    0.000    0.000    0.000 
#
# Total GULP energy -178416.509246 kJ/mol
# GULP energy per Si atom -5575.515914 kJ/mol
# Density = 1.609962 g / cm^3
# Si number density = 16.136348 Si / 1000 Ang^3
#
#
#
# Elastic Constant Matrix: (Units=GPa)
#
#
# Indices 1 2 3 4 5 6 
#
# 1 50.5488 29.4423 13.6653 0.0000 0.0000 0.0000
# 2 29.4423 73.2043 24.5102 0.0000 0.0000 0.0000
# 3 13.6653 24.5102 62.3863 0.0000 0.0000 0.0000
# 4 0.0000 0.0000 0.0000 18.5172 0.0000 0.0000
# 5 0.0000 0.0000 0.0000 0.0000 3.3488 0.0000
# 6 0.0000 0.0000 0.0000 0.0000 0.0000 16.3806
#
#
#
# Elastic Compliance Matrix: (Units=1/GPa)
#
#
# Indices 1 2 3 4 5 6 
#
# 1 0.026015 -0.009851 -0.001828 0.000000 0.000000 0.000000
# 2 -0.009851 0.019460 -0.005488 0.000000 0.000000 0.000000
# 3 -0.001828 -0.005488 0.018586 0.000000 0.000000 0.000000
# 4 0.000000 0.000000 0.000000 0.054004 0.000000 0.000000
# 5 0.000000 0.000000 0.000000 0.000000 0.298611 0.000000
# 6 0.000000 0.000000 0.000000 0.000000 0.000000 0.061048
#
#
# Mechanical properties :
#
#
# Convention : Reuss Voigt Hill
#
# Bulk Modulus (GPa) = 33.63961 35.70834 34.67397
# Shear Modulus (GPa) = 9.57919 15.55077 12.56498
#
# Velocity S-wave (km/s) = 2.43912 3.10774 2.79350
# Velocity P-wave (km/s) = 5.36887 5.92069 5.65152
#
# Compressibility (1/GPa) = 0.02972686
#
# Stress axis : x y z
#
# Youngs Moduli (GPa) = 38.43978 51.38835 53.80530
#
# Poissons Ratio (x) = 0.50622 0.09837
# Poissons Ratio (y) = 0.37866 0.29526
# Poissons Ratio (z) = 0.07027 0.28199
#
# Static dielectric constant tensor:
#      x y z
#    x 1.550180 0.000000 0.000000 
#    y 0.000000 1.521580 0.000000 
#    z 0.000000 0.000000 1.555290 
# 
# From -- ./inp_files/3512.got.cif
#   From: 2010.05.17/outbox.cif.g08.bks.cpg/sg25_2_cif.got.tgz:3512.got - 2010.06.04 01:04:00.
