data_PCOD9337681
_publ_section_title
;
Structure prediction by ZEFSAII (Michael W. Deem and Ramdas Pophale) SiO2 
 PCOD9337681
Probable space group: P M M 2
;
_chemical_formula_sum "Si O2"
_cell_formula_units_Z 16
_cell_length_a 10.238258
_cell_length_b 8.122623
_cell_length_c 10.486071
_cell_angle_alpha 90.000000
_cell_angle_beta 90.000000
_cell_angle_gamma 90.000000
_cell_volume 872.037497
_symmetry_space_group_name_H-M "P M M 2"
_symmetry_group_IT_number 25
_symmetry_cell_setting 'orthorhombic'
loop_
_space_group_symop_operation_xyz
x,y,z
-x,-y,z
-x,y,z
x,-y,z
loop_
_atom_site_type_symbol
_atom_site_label
_atom_site_fract_x
_atom_site_fract_y
_atom_site_fract_z
Si Si1 0.351317 0.198553 0.162110
Si Si2 0.350519 0.201133 0.872459
Si Si3 0.148640 0.303646 0.376556
Si Si4 0.148783 0.198149 0.659768
O O1 0.500000 0.254015 0.190579
O O2 0.247594 0.253284 0.266229
O O3 0.352927 0.000000 0.161346
O O4 0.318508 0.252268 0.017446
O O5 0.500000 0.250535 0.844719
O O6 0.248210 0.259882 0.767151
O O7 0.348679 0.000000 0.871114
O O8 0.144095 0.500000 0.381740
O O9 0.190193 0.241034 0.516097
O O10 0.000000 0.241794 0.353326
O O11 0.000000 0.259623 0.677504
O O12 0.145268 0.000000 0.669625
#
# Coordination Sequence:
#
# PCOD9337681 Si02
#       4
#     4   4   4   4
#     4   9  18  33  53  76 100 127 161 201 245 292
#     4   8  15  29  49  73  98 121 151 196 245 290
#     4  10  21  35  49  69 100 135 168 202 241 286
#     4   9  17  30  49  72  96 124 160 200 241 286
#
# _framework density 18.347833999999999
#
# number of rings (size 3 to 8) (size 9 to 14) (size 15 to 20)
#    0.000    3.000    0.000    2.250    0.000    4.000 
#    0.000    6.250    0.000    4.500    0.000    0.000 
#    0.000    0.000    0.000    0.000    0.000    0.000 
#
# Total GULP energy -89192.151533 kJ/mol
# GULP energy per Si atom -5574.509471 kJ/mol
# Density = 1.830607 g / cm^3
# Si number density = 18.347834 Si / 1000 Ang^3
#
#
#
# Elastic Constant Matrix: (Units=GPa)
#
#
# Indices 1 2 3 4 5 6 
#
# 1 122.7804 10.4647 135.0105 0.0000 0.0000 0.0000
# 2 10.4647 9.3299 10.4151 0.0000 0.0000 0.0000
# 3 135.0105 10.4151 184.4344 0.0000 0.0000 0.0000
# 4 0.0000 0.0000 0.0000 -30.4039 0.0000 0.0000
# 5 0.0000 0.0000 0.0000 0.0000 43.3109 0.0000
# 6 0.0000 0.0000 0.0000 0.0000 0.0000 13.6877
#
#
#
# Elastic Compliance Matrix: (Units=1/GPa)
#
#
# Indices 1 2 3 4 5 6 
#
# 1 0.043428 -0.014112 -0.030994 0.000000 0.000000 0.000000
# 2 -0.014112 0.118979 0.003611 0.000000 0.000000 0.000000
# 3 -0.030994 0.003611 0.027906 0.000000 0.000000 0.000000
# 4 0.000000 0.000000 0.000000 -0.032891 0.000000 0.000000
# 5 0.000000 0.000000 0.000000 0.000000 0.023089 0.000000
# 6 0.000000 0.000000 0.000000 0.000000 0.000000 0.073058
#
#
# Mechanical properties :
#
#
# Convention : Reuss Voigt Hill
#
# Bulk Modulus (GPa) = 9.31749 69.81392 39.56570
# Shear Modulus (GPa) = 13.42883 16.02923 14.72903
#
# Velocity S-wave (km/s) = 2.70830 2.95893 2.83639
# Velocity P-wave (km/s) = 3.85605 7.05737 5.68664
#
# Compressibility (1/GPa) = 0.10732505
#
# Stress axis : x y z
#
# Youngs Moduli (GPa) = 23.02641 8.40487 35.83427
#
# Poissons Ratio (x) = 0.11861 1.11064
# Poissons Ratio (y) = 0.32494 -0.12941
# Poissons Ratio (z) = 0.71367 -0.03035
#
# Static dielectric constant tensor:
#      x y z
#    x 1.635840 0.000000 0.000000 
#    y 0.000000 1.638800 0.000000 
#    z 0.000000 0.000000 1.605750 
# 
# From -- ./inp_files/1460.got.cif
#   From: 2010.05.17/outbox.cif.g08.bks.cpg/sg25_1_cif.got.tgz:1460.got - 2010.06.04 01:04:00.
