data_PCOD9337946
_publ_section_title
;
Structure prediction by ZEFSAII (Michael W. Deem and Ramdas Pophale) SiO2 
 PCOD9337946
Probable space group: P M C 21
;
_chemical_formula_sum "Si O2"
_cell_formula_units_Z 24
_cell_length_a 8.695374
_cell_length_b 15.192000
_cell_length_c 7.375643
_cell_angle_alpha 90.000000
_cell_angle_beta 90.000000
_cell_angle_gamma 90.000000
_cell_volume 974.323339
_symmetry_space_group_name_H-M "P M C 21"
_symmetry_group_IT_number 26
_symmetry_cell_setting 'orthorhombic'
loop_
_space_group_symop_operation_xyz
x,y,z
-x,-y,1/2+z
-x,y,z
x,-y,1/2+z
loop_
_atom_site_type_symbol
_atom_site_label
_atom_site_fract_x
_atom_site_fract_y
_atom_site_fract_z
Si Si1 0.323453 0.944915 0.279750
Si Si2 0.676142 0.681296 0.305656
Si Si3 0.173129 0.623537 0.649940
Si Si4 0.678683 0.794956 0.981765
Si Si5 0.675584 0.509518 0.916645
Si Si6 0.179233 0.879293 0.643749
O O1 0.500000 0.975538 0.304999
O O2 0.318887 0.884158 0.101781
O O3 0.272717 0.889541 0.455963
O O4 0.213448 0.027140 0.243353
O O5 0.500000 0.713855 0.327285
O O6 0.669129 0.576336 0.282130
O O7 0.766005 0.689491 0.495076
O O8 0.743897 0.726334 0.128932
O O9 0.284136 0.599948 0.816535
O O10 0.000000 0.640980 0.703153
O O11 0.189148 0.529462 0.542372
O O12 0.500000 0.774115 0.942562
O O13 0.766308 0.809228 0.794708
O O14 0.500000 0.510196 0.986146
O O15 0.000000 0.868915 0.604358
#
# Coordination Sequence:
#
# PCOD9337946 Si02
#       6
#     4   4   4   4   4   4
#     4  11  22  38  62  87 115 155 202 245 289 354
#     4   8  18  35  56  80 109 149 191 231 286 344
#     4  10  18  30  51  80 109 139 180 229 277 329
#     4  10  21  40  64  86 116 157 201 248 295 351
#     4   9  17  32  53  76 105 142 183 224 270 334
#     4  12  24  37  58  89 122 154 195 247 299 352
#
# _framework density 24.632480999999999
#
# number of rings (size 3 to 8) (size 9 to 14) (size 15 to 20)
#    1.000    1.000    1.667    3.500    0.000    1.333 
#    0.000    1.667    0.000    4.000    0.000    0.000 
#    0.000    0.000    0.000    0.000    0.000    0.000 
#
# Total GULP energy -134002.741557 kJ/mol
# GULP energy per Si atom -5583.447565 kJ/mol
# Density = 2.457642 g / cm^3
# Si number density = 24.632481 Si / 1000 Ang^3
#
#
#
# Elastic Constant Matrix: (Units=GPa)
#
#
# Indices 1 2 3 4 5 6 
#
# 1 76.5303 9.2996 12.1831 0.0000 0.0000 0.0000
# 2 9.2996 56.3187 28.9696 0.0000 0.0000 0.0000
# 3 12.1831 28.9696 109.8493 0.0000 0.0000 0.0000
# 4 0.0000 0.0000 0.0000 52.7583 0.0000 0.0000
# 5 0.0000 0.0000 0.0000 0.0000 28.4235 0.0000
# 6 0.0000 0.0000 0.0000 0.0000 0.0000 22.4877
#
#
#
# Elastic Compliance Matrix: (Units=1/GPa)
#
#
# Indices 1 2 3 4 5 6 
#
# 1 0.013438 -0.001680 -0.001047 0.000000 0.000000 0.000000
# 2 -0.001680 0.020753 -0.005287 0.000000 0.000000 0.000000
# 3 -0.001047 -0.005287 0.010614 0.000000 0.000000 0.000000
# 4 0.000000 0.000000 0.000000 0.018954 0.000000 0.000000
# 5 0.000000 0.000000 0.000000 0.000000 0.035182 0.000000
# 6 0.000000 0.000000 0.000000 0.000000 0.000000 0.044469
#
#
# Mechanical properties :
#
#
# Convention : Reuss Voigt Hill
#
# Bulk Modulus (GPa) = 34.75104 38.17810 36.46457
# Shear Modulus (GPa) = 29.58060 33.55030 31.56545
#
# Velocity S-wave (km/s) = 3.46913 3.69458 3.58363
# Velocity P-wave (km/s) = 5.49408 5.80798 5.65321
#
# Compressibility (1/GPa) = 0.02877611
#
# Stress axis : x y z
#
# Youngs Moduli (GPa) = 74.41800 48.18602 94.21763
#
# Poissons Ratio (x) = 0.08096 0.09867
# Poissons Ratio (y) = 0.12504 0.49809
# Poissons Ratio (z) = 0.07793 0.25474
#
# Static dielectric constant tensor:
#      x y z
#    x 1.806230 0.000000 0.000000 
#    y 0.000000 2.081710 0.000000 
#    z 0.000000 0.000000 2.090850 
# 
# From -- ./inp_files/1504.got.cif
#   From: 2010.05.17/outbox.cif.g08.bks.cpg/sg26_1_cif.got.tgz:1504.got - 2010.06.04 01:07:29.
