data_PCOD9337475
_publ_section_title
;
Structure prediction by ZEFSAII (Michael W. Deem and Ramdas Pophale) SiO2 
 PCOD9337475
Probable space group: P M M 2
;
_chemical_formula_sum "Si O2"
_cell_formula_units_Z 32
_cell_length_a 8.978401
_cell_length_b 14.441155
_cell_length_c 15.847066
_cell_angle_alpha 90.000000
_cell_angle_beta 90.000000
_cell_angle_gamma 90.000000
_cell_volume 2054.706498
_symmetry_space_group_name_H-M "P M M 2"
_symmetry_group_IT_number 25
_symmetry_cell_setting 'orthorhombic'
loop_
_space_group_symop_operation_xyz
x,y,z
-x,-y,z
-x,y,z
x,-y,z
loop_
_atom_site_type_symbol
_atom_site_label
_atom_site_fract_x
_atom_site_fract_y
_atom_site_fract_z
Si Si1 0.322686 0.215692 0.585020
Si Si2 0.177248 0.606863 0.517058
Si Si3 0.320089 0.108790 0.101650
Si Si4 0.322869 0.606870 0.332361
Si Si5 0.328563 0.887664 0.912810
Si Si6 0.824224 0.889369 0.739928
Si Si7 0.822077 0.890781 0.428221
Si Si8 0.178081 0.218545 0.255479
O O1 0.500000 0.220355 0.583706
O O2 0.252513 0.317734 0.576595
O O3 0.264871 0.164429 0.668307
O O4 0.263962 0.158564 0.503957
O O5 0.203405 0.500000 0.542065
O O6 0.246862 0.619323 0.423884
O O7 0.000000 0.622459 0.512374
O O8 0.500000 0.115054 0.107451
O O9 0.243710 0.167978 0.174022
O O10 0.280718 0.000000 0.111332
O O11 0.278471 0.140293 0.006653
O O12 0.500000 0.621786 0.340146
O O13 0.297965 0.500000 0.306790
O O14 0.251393 0.681604 0.270557
O O15 0.500000 0.858058 0.899737
O O16 0.229149 0.860595 0.833352
O O17 0.329729 0.000000 0.915148
O O18 0.000000 0.873942 0.729570
O O19 0.796833 0.000000 0.731344
O O20 0.787137 0.842376 0.339123
O O21 0.000000 0.880284 0.442961
O O22 0.788690 0.000000 0.425107
O O23 0.000000 0.226226 0.249613
#
# Coordination Sequence:
#
# PCOD9337475 Si02
#       8
#     4   4   4   4   4   4   4   4
#     4  12  23  33  49  72  98 131 168 204 244 292
#     4  10  20  35  54  73  95 125 161 203 250 295
#     4   9  18  32  50  72 101 135 168 205 247 291
#     4  10  20  34  52  73  96 124 162 207 251 294
#     4   8  15  30  50  71  96 127 164 206 249 291
#     4  10  20  33  50  72 100 133 167 206 248 291
#     4  10  21  35  47  63  95 136 172 204 239 282
#     4  11  21  32  49  72  99 133 169 204 245 292
#
# _framework density 15.573999000000001
#
# number of rings (size 3 to 8) (size 9 to 14) (size 15 to 20)
#    0.000    2.000    1.250    4.125    0.000    5.750 
#    0.000    1.250    0.000    0.000    0.000    0.875 
#    0.000    1.000    0.000    0.000    0.000    0.000 
#
# Total GULP energy -178594.461389 kJ/mol
# GULP energy per Si atom -5581.076918 kJ/mol
# Density = 1.553855 g / cm^3
# Si number density = 15.573999 Si / 1000 Ang^3
#
#
#
# Elastic Constant Matrix: (Units=GPa)
#
#
# Indices 1 2 3 4 5 6 
#
# 1 79.9167 59.8490 64.6760 0.0000 0.0000 0.0000
# 2 59.8490 89.5161 58.1038 0.0000 0.0000 0.0000
# 3 64.6760 58.1038 118.2355 0.0000 0.0000 0.0000
# 4 0.0000 0.0000 0.0000 6.4243 0.0000 0.0000
# 5 0.0000 0.0000 0.0000 0.0000 34.9427 0.0000
# 6 0.0000 0.0000 0.0000 0.0000 0.0000 23.3995
#
#
#
# Elastic Compliance Matrix: (Units=1/GPa)
#
#
# Indices 1 2 3 4 5 6 
#
# 1 0.031628 -0.014561 -0.010145 0.000000 0.000000 0.000000
# 2 -0.014561 0.023107 -0.003390 0.000000 0.000000 0.000000
# 3 -0.010145 -0.003390 0.015673 0.000000 0.000000 0.000000
# 4 0.000000 0.000000 0.000000 0.155660 0.000000 0.000000
# 5 0.000000 0.000000 0.000000 0.000000 0.028618 0.000000
# 6 0.000000 0.000000 0.000000 0.000000 0.000000 0.042736
#
#
# Mechanical properties :
#
#
# Convention : Reuss Voigt Hill
#
# Bulk Modulus (GPa) = 70.34651 72.54734 71.44692
# Shear Modulus (GPa) = 13.95267 19.95591 16.95429
#
# Velocity S-wave (km/s) = 2.99640 3.58349 3.30302
# Velocity P-wave (km/s) = 7.56561 7.98783 7.77958
#
# Compressibility (1/GPa) = 0.01421535
#
# Stress axis : x y z
#
# Youngs Moduli (GPa) = 31.61750 43.27695 63.80219
#
# Poissons Ratio (x) = 0.63015 0.64729
# Poissons Ratio (y) = 0.46038 0.21632
# Poissons Ratio (z) = 0.32077 0.14673
#
# Static dielectric constant tensor:
#      x y z
#    x 1.517530 0.000000 0.000000 
#    y 0.000000 1.513690 0.000000 
#    z 0.000000 0.000000 1.502530 
# 
# From -- ./inp_files/5724.got.cif
#   From: 2010.05.17/outbox.cif.g08.bks.cpg/sg25_3_cif.got.tgz:5724.got - 2010.06.04 01:04:00.
