data_PCOD9337288
_publ_section_title
;
Structure prediction by ZEFSAII (Michael W. Deem and Ramdas Pophale) SiO2 
 PCOD9337288
Probable space group: P M M 2
;
_chemical_formula_sum "Si O2"
_cell_formula_units_Z 32
_cell_length_a 8.889926
_cell_length_b 14.847484
_cell_length_c 12.784082
_cell_angle_alpha 90.000000
_cell_angle_beta 90.000000
_cell_angle_gamma 90.000000
_cell_volume 1687.409771
_symmetry_space_group_name_H-M "P M M 2"
_symmetry_group_IT_number 25
_symmetry_cell_setting 'orthorhombic'
loop_
_space_group_symop_operation_xyz
x,y,z
-x,-y,z
-x,y,z
x,-y,z
loop_
_atom_site_type_symbol
_atom_site_label
_atom_site_fract_x
_atom_site_fract_y
_atom_site_fract_z
Si Si1 0.316620 0.104051 0.702640
Si Si2 0.179193 0.398428 0.418055
Si Si3 0.678833 0.224349 0.505384
Si Si4 0.681899 0.212973 0.909499
Si Si5 0.179964 0.599305 0.972134
Si Si6 0.671905 0.152837 0.136380
Si Si7 0.326851 0.636721 0.192999
Si Si8 0.827210 0.898254 0.337411
O O1 0.500000 0.101589 0.701179
O O2 0.269392 0.164545 0.603885
O O3 0.272536 0.155705 0.808619
O O4 0.265426 0.000000 0.697902
O O5 0.212612 0.500000 0.454435
O O6 0.244715 0.321135 0.492288
O O7 0.250351 0.386688 0.302564
O O8 0.000000 0.388038 0.409482
O O9 0.500000 0.236076 0.511320
O O10 0.721623 0.167255 0.402853
O O11 0.500000 0.221673 0.910848
O O12 0.749204 0.313511 0.916014
O O13 0.722260 0.160080 0.016257
O O14 0.219989 0.500000 0.928485
O O15 0.000000 0.607903 0.971508
O O16 0.238500 0.601584 0.091843
O O17 0.500000 0.118370 0.140702
O O18 0.670663 0.255768 0.177057
O O19 0.778552 0.102722 0.216720
O O20 0.500000 0.605964 0.191851
O O21 0.000000 0.868600 0.347684
O O22 0.813146 0.000000 0.377974
#
# Coordination Sequence:
#
# PCOD9337288 Si02
#       8
#     4   4   4   4   4   4   4   4
#     4   9  19  38  64  90 112 140 186 244 298 346
#     4  11  23  37  55  81 115 155 193 232 285 345
#     4  11  22  38  61  86 113 147 191 242 292 344
#     4   9  19  36  59  85 112 144 188 240 291 340
#     4  10  20  33  51  79 117 159 196 230 277 336
#     4   9  18  32  52  81 114 148 184 227 283 340
#     4  10  19  32  53  82 114 151 194 238 280 330
#     4  11  23  36  53  80 115 154 190 229 284 346
#
# _framework density 18.963977
#
# number of rings (size 3 to 8) (size 9 to 14) (size 15 to 20)
#    0.000    2.000    1.250    3.375    0.000    7.500 
#    0.000    3.125    0.000    5.625    0.000    0.000 
#    0.000    0.000    0.000    0.000    0.000    0.000 
#
# Total GULP energy -178617.700312 kJ/mol
# GULP energy per Si atom -5581.803135 kJ/mol
# Density = 1.892081 g / cm^3
# Si number density = 18.963977 Si / 1000 Ang^3
#
#
#
# Elastic Constant Matrix: (Units=GPa)
#
#
# Indices 1 2 3 4 5 6 
#
# 1 42.7984 35.0970 23.5654 0.0000 0.0000 0.0000
# 2 35.0970 135.1758 70.5676 0.0000 0.0000 0.0000
# 3 23.5654 70.5676 114.4777 0.0000 0.0000 0.0000
# 4 0.0000 0.0000 0.0000 10.6474 0.0000 0.0000
# 5 0.0000 0.0000 0.0000 0.0000 3.1983 0.0000
# 6 0.0000 0.0000 0.0000 0.0000 0.0000 25.9056
#
#
#
# Elastic Compliance Matrix: (Units=1/GPa)
#
#
# Indices 1 2 3 4 5 6 
#
# 1 0.030001 -0.006732 -0.002026 0.000000 0.000000 0.000000
# 2 -0.006732 0.012419 -0.006269 0.000000 0.000000 0.000000
# 3 -0.002026 -0.006269 0.013017 0.000000 0.000000 0.000000
# 4 0.000000 0.000000 0.000000 0.093920 0.000000 0.000000
# 5 0.000000 0.000000 0.000000 0.000000 0.312668 0.000000
# 6 0.000000 0.000000 0.000000 0.000000 0.000000 0.038602
#
#
# Mechanical properties :
#
#
# Convention : Reuss Voigt Hill
#
# Bulk Modulus (GPa) = 39.39756 61.21243 50.30499
# Shear Modulus (GPa) = 9.27400 18.83172 14.05286
#
# Velocity S-wave (km/s) = 2.21381 3.15465 2.72514
# Velocity P-wave (km/s) = 5.23017 6.75407 6.04037
#
# Compressibility (1/GPa) = 0.02538229
#
# Stress axis : x y z
#
# Youngs Moduli (GPa) = 33.33174 80.52478 76.82225
#
# Poissons Ratio (x) = 0.54208 0.15565
# Poissons Ratio (y) = 0.22438 0.48163
# Poissons Ratio (z) = 0.06753 0.50484
#
# Static dielectric constant tensor:
#      x y z
#    x 1.639750 0.000000 0.000000 
#    y 0.000000 1.683570 0.000000 
#    z 0.000000 0.000000 1.642980 
# 
# From -- ./inp_files/4291.got.cif
#   From: 2010.05.17/outbox.cif.g08.bks.cpg/sg25_3_cif.got.tgz:4291.got - 2010.06.04 01:04:00.
