data_PCOD9337854
_publ_section_title
;
Structure prediction by ZEFSAII (Michael W. Deem and Ramdas Pophale) SiO2 
 PCOD9337854
Probable space group: P M M 2
;
_chemical_formula_sum "Si O2"
_cell_formula_units_Z 20
_cell_length_a 15.828863
_cell_length_b 7.393729
_cell_length_c 7.464983
_cell_angle_alpha 90.000000
_cell_angle_beta 90.000000
_cell_angle_gamma 90.000000
_cell_volume 873.659235
_symmetry_space_group_name_H-M "P M M 2"
_symmetry_group_IT_number 25
_symmetry_cell_setting 'orthorhombic'
loop_
_space_group_symop_operation_xyz
x,y,z
-x,-y,z
-x,y,z
x,-y,z
loop_
_atom_site_type_symbol
_atom_site_label
_atom_site_fract_x
_atom_site_fract_y
_atom_site_fract_z
Si Si1 0.590545 0.216496 0.317840
Si Si2 0.775581 0.712644 0.338304
Si Si3 0.903390 0.278794 0.637358
Si Si4 0.409259 0.709091 0.893780
Si Si5 0.772142 0.278111 0.931311
O O1 0.500000 0.275931 0.396670
O O2 0.678855 0.270651 0.405367
O O3 0.592259 0.286058 0.112294
O O4 0.590309 0.000000 0.309730
O O5 0.792639 0.500000 0.322830
O O6 0.845748 0.784872 0.472169
O O7 0.778578 0.785505 0.136153
O O8 0.904225 0.500000 0.634571
O O9 0.000000 0.218988 0.631078
O O10 0.852359 0.226018 0.814910
O O11 0.500000 0.791347 0.840327
O O12 0.410529 0.500000 0.837073
O O13 0.317287 0.785427 0.847623
O O14 0.767757 0.500000 0.932591
#
# Coordination Sequence:
#
# PCOD9337854 Si02
#       5
#     4   4   4   4   4
#     4   9  16  26  43  67  93 121 151 182 219 264
#     4   9  17  29  46  68  92 119 151 184 221 266
#     4   9  17  28  43  66  93 117 147 190 232 267
#     4   8  13  23  41  64  90 119 149 182 220 263
#     4   8  14  25  41  62  88 115 143 179 222 263
#
# _framework density 22.892219000000001
#
# number of rings (size 3 to 8) (size 9 to 14) (size 15 to 20)
#    0.000    3.400    0.000    1.800    0.000    2.000 
#    0.000    5.000    0.000    9.000    0.000   11.200 
#    0.000    0.000    0.000    0.000    0.000    0.000 
#
# Total GULP energy -111543.080946 kJ/mol
# GULP energy per Si atom -5577.154047 kJ/mol
# Density = 2.284012 g / cm^3
# Si number density = 22.892219 Si / 1000 Ang^3
#
#
#
# Elastic Constant Matrix: (Units=GPa)
#
#
# Indices 1 2 3 4 5 6 
#
# 1 267.2930 -3.9164 85.1538 0.0000 0.0000 0.0000
# 2 -3.9164 82.3317 -0.6407 0.0000 0.0000 0.0000
# 3 85.1538 -0.6407 93.1941 0.0000 0.0000 0.0000
# 4 0.0000 0.0000 0.0000-1152.7282 0.0000 0.0000
# 5 0.0000 0.0000 0.0000 0.0000 3.3055 0.0000
# 6 0.0000 0.0000 0.0000 0.0000 0.0000 53.8299
#
#
#
# Elastic Compliance Matrix: (Units=1/GPa)
#
#
# Indices 1 2 3 4 5 6 
#
# 1 0.005281 0.000214 -0.004824 0.000000 0.000000 0.000000
# 2 0.000214 0.012155 -0.000112 0.000000 0.000000 0.000000
# 3 -0.004824 -0.000112 0.015137 0.000000 0.000000 0.000000
# 4 0.000000 0.000000 0.000000 -0.000868 0.000000 0.000000
# 5 0.000000 0.000000 0.000000 0.000000 0.302524 0.000000
# 6 0.000000 0.000000 0.000000 0.000000 0.000000 0.018577
#
#
# Mechanical properties :
#
#
# Convention : Reuss Voigt Hill
#
# Bulk Modulus (GPa) = 43.23444 67.11248 55.17346
# Shear Modulus (GPa) = 13.51492 -194.97043 -90.72776
#
# Velocity S-wave (km/s) = 2.43239 -9.23871 -6.30227
# Velocity P-wave (km/s) = 5.17840 9.18829 5.36698
#
# Compressibility (1/GPa) = 0.02312971
#
# Stress axis : x y z
#
# Youngs Moduli (GPa) = 189.35101 82.26875 66.06143
#
# Poissons Ratio (x) = -0.01758 0.31869
# Poissons Ratio (y) = -0.04046 0.00738
# Poissons Ratio (z) = 0.91345 0.00919
#
# Static dielectric constant tensor:
#      x y z
#    x 1.860570 0.000000 0.000000 
#    y 0.000000 4.177320 0.000000 
#    z 0.000000 0.000000 1.853920 
# 
# From -- ./inp_files/1759.got.cif
#   From: 2010.05.17/outbox.cif.g08.bks.cpg/sg25_1_cif.got.tgz:1759.got - 2010.06.04 01:04:00.
