data_PCOD9337866
_publ_section_title
;
Structure prediction by ZEFSAII (Michael W. Deem and Ramdas Pophale) SiO2 
 PCOD9337866
Probable space group: P M M 2
;
_chemical_formula_sum "Si O2"
_cell_formula_units_Z 28
_cell_length_a 9.000000
_cell_length_b 9.000000
_cell_length_c 18.000000
_cell_angle_alpha 90.000000
_cell_angle_beta 90.000000
_cell_angle_gamma 90.000000
_cell_volume 1458.000000
_symmetry_space_group_name_H-M "P M M 2"
_symmetry_group_IT_number 25
_symmetry_cell_setting 'orthorhombic'
loop_
_space_group_symop_operation_xyz
x,y,z
-x,-y,z
-x,y,z
x,-y,z
loop_
_atom_site_type_symbol
_atom_site_label
_atom_site_fract_x
_atom_site_fract_y
_atom_site_fract_z
Si Si1 0.322365 0.163081 0.422420
Si Si2 0.330236 0.823001 0.845930
Si Si3 0.824414 0.172060 0.696268
Si Si4 0.163697 0.322545 0.297360
Si Si5 0.318872 0.669668 0.993980
Si Si6 0.321261 0.332763 0.563648
Si Si7 0.671075 0.681936 0.154034
O O1 0.500000 0.158017 0.426052
O O2 0.275310 0.278345 0.361041
O O3 0.267007 0.218791 0.501550
O O4 0.265573 0.000000 0.403838
O O5 0.500000 0.769022 0.832764
O O6 0.224891 0.784413 0.778420
O O7 0.273205 0.760419 0.923044
O O8 0.336830 0.000000 0.850852
O O9 0.744459 0.281271 0.640529
O O10 0.000000 0.178022 0.687358
O O11 0.775701 0.000000 0.683582
O O12 0.157787 0.500000 0.292126
O O13 0.225491 0.265505 0.219650
O O14 0.000000 0.265644 0.314407
O O15 0.500000 0.668777 0.996199
O O16 0.269496 0.500000 0.986756
O O17 0.274109 0.731699 0.073637
O O18 0.500000 0.327403 0.566830
O O19 0.277617 0.500000 0.543735
O O20 0.500000 0.726443 0.166647
O O21 0.670822 0.500000 0.152001
#
# Coordination Sequence:
#
# PCOD9337866 Si02
#       7
#     4   4   4   4   4   4   4
#     4  10  21  37  57  79 102 131 168 208 251 300
#     4   9  17  30  49  72  98 129 166 209 254 297
#     4  10  21  36  53  74 103 139 174 207 248 299
#     4  10  20  33  51  76 105 137 172 209 251 300
#     4   8  14  26  46  71  96 125 165 210 253 297
#     4  10  21  37  58  82 104 128 163 208 255 301
#     4   8  14  27  48  71  96 129 168 210 254 297
#
# _framework density 19.20439
#
# number of rings (size 3 to 8) (size 9 to 14) (size 15 to 20)
#    0.000    2.714    0.000    2.571    0.000    4.571 
#    0.000    2.857    0.000    3.429    0.000    0.000 
#    0.000    0.000    0.000    0.000    0.000    0.000 
#
# Total GULP energy -155928.218313 kJ/mol
# GULP energy per Si atom -5568.864940 kJ/mol
# Density = 1.916068 g / cm^3
# Si number density = 19.204390 Si / 1000 Ang^3
#
#
#
# Elastic Constant Matrix: (Units=GPa)
#
#
# Indices 1 2 3 4 5 6 
#
# 1 -7.4994 27.7468 8.0506 0.0000 0.0000 0.0000
# 2 27.7468 1.2456 23.2633 0.0000 0.0000 0.0000
# 3 8.0506 23.2633 84.1695 0.0000 0.0000 0.0000
# 4 0.0000 0.0000 0.0000 23.2638 0.0000 0.0000
# 5 0.0000 0.0000 0.0000 0.0000 105.3868 0.0000
# 6 0.0000 0.0000 0.0000 0.0000 0.0000 17.7763
#
#
#
# Elastic Compliance Matrix: (Units=1/GPa)
#
#
# Indices 1 2 3 4 5 6 
#
# 1 0.008519 0.041943 -0.012407 0.000000 0.000000 0.000000
# 2 0.041943 0.013590 -0.007768 0.000000 0.000000 0.000000
# 3 -0.012407 -0.007768 0.015214 0.000000 0.000000 0.000000
# 4 0.000000 0.000000 0.000000 0.042985 0.000000 0.000000
# 5 0.000000 0.000000 0.000000 0.000000 0.009489 0.000000
# 6 0.000000 0.000000 0.000000 0.000000 0.000000 0.056255
#
#
# Mechanical properties :
#
#
# Convention : Reuss Voigt Hill
#
# Bulk Modulus (GPa) = 12.36718 21.78191 17.07454
# Shear Modulus (GPa) = 38.61877 30.54236 34.58057
#
# Velocity S-wave (km/s) = 4.48921 3.99229 4.24802
# Velocity P-wave (km/s) = 5.77273 5.71121 5.74205
#
# Compressibility (1/GPa) = 0.08085920
#
# Stress axis : x y z
#
# Youngs Moduli (GPa) = 117.37821 73.58313 65.72702
#
# Poissons Ratio (x) = -3.08627 0.81549
# Poissons Ratio (y) = -4.92316 0.51056
# Poissons Ratio (z) = 1.45634 0.57158
#
# Static dielectric constant tensor:
#      x y z
#    x 1.649640 0.000000 0.000000 
#    y 0.000000 1.661930 0.000000 
#    z 0.000000 0.000000 1.662790 
# 
# From -- ./inp_files/6060.got.cif
#   From: 2010.05.17/outbox.ucp.g08.bks.cvg/sg25_4_cif.got.tgz:6060.got - 2010.06.11 15:23:09.
