data_PCOD9337434
_publ_section_title
;
Structure prediction by ZEFSAII (Michael W. Deem and Ramdas Pophale) SiO2 
 PCOD9337434
Probable space group: P M M 2
;
_chemical_formula_sum "Si O2"
_cell_formula_units_Z 32
_cell_length_a 9.966554
_cell_length_b 7.476909
_cell_length_c 21.405667
_cell_angle_alpha 90.000000
_cell_angle_beta 90.000000
_cell_angle_gamma 90.000000
_cell_volume 1595.129270
_symmetry_space_group_name_H-M "P M M 2"
_symmetry_group_IT_number 25
_symmetry_cell_setting 'orthorhombic'
loop_
_space_group_symop_operation_xyz
x,y,z
-x,-y,z
-x,y,z
x,-y,z
loop_
_atom_site_type_symbol
_atom_site_label
_atom_site_fract_x
_atom_site_fract_y
_atom_site_fract_z
Si Si1 0.347810 0.215318 0.022110
Si Si2 0.836534 0.792428 0.411006
Si Si3 0.345767 0.281519 0.799747
Si Si4 0.653559 0.217967 0.163481
Si Si5 0.848372 0.213840 0.545763
Si Si6 0.349214 0.714348 0.658981
Si Si7 0.844826 0.780705 0.274617
Si Si8 0.848246 0.712165 0.908568
O O1 0.500000 0.277425 0.006479
O O2 0.314192 0.275377 0.092647
O O3 0.352807 0.000000 0.023424
O O4 0.237816 0.265263 0.971384
O O5 0.796929 0.715225 0.478451
O O6 0.797657 0.717468 0.343362
O O7 0.000000 0.789822 0.411493
O O8 0.793323 0.000000 0.410133
O O9 0.500000 0.228168 0.813276
O O10 0.344892 0.500000 0.800967
O O11 0.311818 0.224475 0.728944
O O12 0.241010 0.216283 0.851191
O O13 0.500000 0.269755 0.176522
O O14 0.753491 0.278845 0.217340
O O15 0.657637 0.000000 0.163449
O O16 0.753308 0.244087 0.604222
O O17 0.000000 0.280957 0.557009
O O18 0.857922 0.000000 0.537800
O O19 0.500000 0.780117 0.645145
O O20 0.355756 0.500000 0.662670
O O21 0.000000 0.729104 0.265942
O O22 0.842673 0.000000 0.276096
O O23 0.859586 0.500000 0.898093
O O24 0.000000 0.783983 0.912531
#
# Coordination Sequence:
#
# PCOD9337434 Si02
#       8
#     4   4   4   4   4   4   4   4
#     4   9  18  32  48  66  91 124 156 182 215 264
#     4   7  11  21  36  55  82 114 145 177 213 255
#     4   8  15  30  50  67  85 114 150 184 219 262
#     4   8  14  24  37  56  84 113 141 178 219 255
#     4   9  17  29  45  66  93 123 152 183 221 265
#     4   9  18  32  49  69  91 115 147 186 224 264
#     4   8  12  19  34  55  78 108 145 179 213 256
#     4  10  20  32  48  72  96 115 142 184 228 266
#
# _framework density 20.061070999999998
#
# number of rings (size 3 to 8) (size 9 to 14) (size 15 to 20)
#    0.000    3.500    0.000    3.375    0.000    2.500 
#    0.000    3.750    0.000    3.000    0.000    0.875 
#    0.000    1.000    0.000    0.000    0.000    0.000 
#
# Total GULP energy -178306.848889 kJ/mol
# GULP energy per Si atom -5572.089028 kJ/mol
# Density = 2.001541 g / cm^3
# Si number density = 20.061071 Si / 1000 Ang^3
#
#
#
# Elastic Constant Matrix: (Units=GPa)
#
#
# Indices 1 2 3 4 5 6 
#
# 1 133.4100 4.9082 143.5131 0.0000 0.0000 0.0000
# 2 4.9082 55.1156 4.7884 0.0000 0.0000 0.0000
# 3 143.5131 4.7884 219.5876 0.0000 0.0000 0.0000
# 4 0.0000 0.0000 0.0000 20.5685 0.0000 0.0000
# 5 0.0000 0.0000 0.0000 0.0000 41.6241 0.0000
# 6 0.0000 0.0000 0.0000 0.0000 0.0000 11.8614
#
#
#
# Elastic Compliance Matrix: (Units=1/GPa)
#
#
# Indices 1 2 3 4 5 6 
#
# 1 0.025279 -0.000817 -0.016503 0.000000 0.000000 0.000000
# 2 -0.000817 0.018205 0.000137 0.000000 0.000000 0.000000
# 3 -0.016503 0.000137 0.015337 0.000000 0.000000 0.000000
# 4 0.000000 0.000000 0.000000 0.048618 0.000000 0.000000
# 5 0.000000 0.000000 0.000000 0.000000 0.024025 0.000000
# 6 0.000000 0.000000 0.000000 0.000000 0.000000 0.084307
#
#
# Mechanical properties :
#
#
# Convention : Reuss Voigt Hill
#
# Bulk Modulus (GPa) = 40.89424 79.39251 60.14338
# Shear Modulus (GPa) = 19.35820 31.80438 25.58129
#
# Velocity S-wave (km/s) = 3.10976 3.98600 3.57483
# Velocity P-wave (km/s) = 5.77263 7.80036 6.86181
#
# Compressibility (1/GPa) = 0.02445332
#
# Stress axis : x y z
#
# Youngs Moduli (GPa) = 39.55853 54.93127 65.20204
#
# Poissons Ratio (x) = 0.04490 1.07606
# Poissons Ratio (y) = 0.03233 -0.00895
# Poissons Ratio (z) = 0.65285 -0.00754
#
# Static dielectric constant tensor:
#      x y z
#    x 1.682060 0.000000 0.000000 
#    y 0.000000 1.795550 0.000000 
#    z 0.000000 0.000000 1.723250 
# 
# From -- ./inp_files/6527.got.cif
#   From: 2010.05.17/outbox.cif.g08.bks.cpg/sg25_4_cif.got.tgz:6527.got - 2010.06.04 01:04:00.
