data_PCOD9337007
_publ_section_title
;
Structure prediction by ZEFSAII (Michael W. Deem and Ramdas Pophale) SiO2 
 PCOD9337007
Probable space group: I 21 21 21
;
_chemical_formula_sum "Si O2"
_cell_formula_units_Z 32
_cell_length_a 8.812558
_cell_length_b 5.401946
_cell_length_c 26.413860
_cell_angle_alpha 90.000000
_cell_angle_beta 90.000000
_cell_angle_gamma 90.000000
_cell_volume 1257.430813
_symmetry_space_group_name_H-M "I 21 21 21"
_symmetry_group_IT_number 24
_symmetry_cell_setting 'orthorhombic'
loop_
_space_group_symop_operation_xyz
x,y,z
-x,1/2-y,z
x,-y,1/2-z
1/2-x,y,-z
1/2+x,1/2+y,1/2+z
1/2-x,-y,1/2+z
1/2+x,1/2-y,-z
-x,1/2+y,1/2-z
loop_
_atom_site_type_symbol
_atom_site_label
_atom_site_fract_x
_atom_site_fract_y
_atom_site_fract_z
Si Si1 0.500000 0.750000 0.802174
Si Si2 0.734771 0.500000 0.250000
Si Si3 0.688623 0.081972 0.082871
Si Si4 0.000000 0.750000 0.988820
Si Si5 0.500000 0.750000 0.630984
Si Si6 0.250000 0.954677 0.500000
Si Si7 0.500000 0.750000 0.326722
O O1 0.652887 0.721439 0.768417
O O2 0.522299 0.496742 0.834335
O O3 0.621698 0.602511 0.293245
O O4 0.663485 0.306106 0.043706
O O5 0.593036 0.078480 0.134220
O O6 0.858590 0.147236 0.098842
O O7 0.630295 0.858496 0.048015
O O8 0.103981 0.915026 0.024269
#
# Coordination Sequence:
#
# PCOD9337007 Si02
#       7
#     4   4   8   4   4   4   4
#     4  12  29  57  78 127 161 230 286 365 439 512
#     4  12  30  50  88 120 180 228 300 364 432 522
#     4  12  29  53  77 126 167 229 289 361 447 536
#     4  12  28  48  86 115 178 223 287 365 442 536
#     4  12  31  51  88 117 176 225 287 360 439 526
#     4  12  28  52  78 122 166 220 294 364 448 536
#     4  12  28  52  80 123 169 230 288 364 438 522
#
# _framework density 25.448715
#
# number of rings (size 3 to 8) (size 9 to 14) (size 15 to 20)
#    0.000    0.000    5.000    1.500   17.500    0.000 
#    0.000    0.000    0.000    0.000    0.000    0.000 
#    0.000    0.000    0.000    0.000    0.000    0.000 
#
# Total GULP energy -89268.478580 kJ/mol
# GULP energy per Si atom -5579.279911 kJ/mol
# Density = 2.539079 g / cm^3
# Si number density = 25.448715 Si / 1000 Ang^3
#
#
#
# Elastic Constant Matrix: (Units=GPa)
#
#
# Indices 1 2 3 4 5 6 
#
# 1 213.3225 54.7829 78.6260 0.0000 0.0000 0.0000
# 2 54.7829 99.0071 16.1420 0.0000 0.0000 0.0000
# 3 78.6260 16.1420 53.1831 0.0000 0.0000 0.0000
# 4 0.0000 0.0000 0.0000 41.5263 0.0000 0.0000
# 5 0.0000 0.0000 0.0000 0.0000 90.8657 0.0000
# 6 0.0000 0.0000 0.0000 0.0000 0.0000 57.3633
#
#
#
# Elastic Compliance Matrix: (Units=1/GPa)
#
#
# Indices 1 2 3 4 5 6 
#
# 1 0.011504 -0.003780 -0.015861 0.000000 0.000000 0.000000
# 2 -0.003780 0.011868 0.001986 0.000000 0.000000 0.000000
# 3 -0.015861 0.001986 0.041649 0.000000 0.000000 0.000000
# 4 0.000000 0.000000 0.000000 0.024081 0.000000 0.000000
# 5 0.000000 0.000000 0.000000 0.000000 0.011005 0.000000
# 6 0.000000 0.000000 0.000000 0.000000 0.000000 0.017433
#
#
# Mechanical properties :
#
#
# Convention : Reuss Voigt Hill
#
# Bulk Modulus (GPa) = 33.65676 73.84603 53.75140
# Shear Modulus (GPa) = 30.72125 52.34850 41.53488
#
# Velocity S-wave (km/s) = 3.47822 4.54036 4.04431
# Velocity P-wave (km/s) = 5.42077 7.52111 6.55560
#
# Compressibility (1/GPa) = 0.02971172
#
# Stress axis : x y z
#
# Youngs Moduli (GPa) = 86.92360 84.26083 24.01021
#
# Poissons Ratio (x) = 0.31848 0.38082
# Poissons Ratio (y) = 0.32854 -0.04768
# Poissons Ratio (z) = 1.37868 -0.16732
#
# Static dielectric constant tensor:
#      x y z
#    x 2.019000 0.000000 0.000000 
#    y 0.000000 2.018580 0.000000 
#    z 0.000000 0.000000 1.993300 
# 
# From -- ./inp_files/1260.got.cif
#   From: 2010.05.17/outbox.cif.g08.bks.cpg/sg24_1_cif.got.tgz:1260.got - 2010.06.04 00:33:39.
