data_PCOD9337591
_publ_section_title
;
Structure prediction by ZEFSAII (Michael W. Deem and Ramdas Pophale) SiO2 
 PCOD9337591
Probable space group: P M M 2
;
_chemical_formula_sum "Si O2"
_cell_formula_units_Z 28
_cell_length_a 9.378036
_cell_length_b 8.129074
_cell_length_c 18.538390
_cell_angle_alpha 90.000000
_cell_angle_beta 90.000000
_cell_angle_gamma 90.000000
_cell_volume 1413.269501
_symmetry_space_group_name_H-M "P M M 2"
_symmetry_group_IT_number 25
_symmetry_cell_setting 'orthorhombic'
loop_
_space_group_symop_operation_xyz
x,y,z
-x,-y,z
-x,y,z
x,-y,z
loop_
_atom_site_type_symbol
_atom_site_label
_atom_site_fract_x
_atom_site_fract_y
_atom_site_fract_z
Si Si1 0.337301 0.198973 0.452740
Si Si2 0.164338 0.801360 0.753879
Si Si3 0.835428 0.200629 0.591567
Si Si4 0.836842 0.696845 0.312251
Si Si5 0.162606 0.301619 0.030919
Si Si6 0.663097 0.196625 0.171387
Si Si7 0.338102 0.302100 0.892491
O O1 0.500000 0.257246 0.444874
O O2 0.265938 0.257475 0.527346
O O3 0.241594 0.248827 0.385063
O O4 0.340322 0.000000 0.454953
O O5 0.204961 0.747496 0.672713
O O6 0.265620 0.740088 0.816768
O O7 0.000000 0.749355 0.766779
O O8 0.166227 0.000000 0.754422
O O9 0.000000 0.249271 0.578499
O O10 0.833154 0.000000 0.591358
O O11 0.841484 0.500000 0.310800
O O12 0.747278 0.754284 0.243301
O O13 0.000000 0.759221 0.309717
O O14 0.156396 0.500000 0.026654
O O15 0.252374 0.257880 0.101486
O O16 0.000000 0.240208 0.035356
O O17 0.242510 0.240323 0.959102
O O18 0.500000 0.259640 0.172455
O O19 0.657771 0.000000 0.168409
O O20 0.500000 0.239407 0.896852
O O21 0.343239 0.500000 0.898370
#
# Coordination Sequence:
#
# PCOD9337591 Si02
#       7
#     4   4   4   4   4   4   4
#     4  10  20  34  55  83 111 140 178 223 271 322
#     4   9  18  33  54  80 108 140 181 226 271 321
#     4   8  15  30  52  77 106 141 180 222 269 320
#     4  11  24  40  58  81 109 143 183 222 263 315
#     4  10  21  38  60  83 107 140 182 223 266 318
#     4  11  24  40  59  85 114 142 175 216 264 318
#     4  10  21  36  54  78 109 145 183 222 268 321
#
# _framework density 19.812217
#
# number of rings (size 3 to 8) (size 9 to 14) (size 15 to 20)
#    0.000    2.143    0.000    3.857    0.000    9.714 
#    0.000    2.143    0.000    0.857    0.000    0.000 
#    0.000    0.000    0.000    0.000    0.000    0.000 
#
# Total GULP energy -156400.889467 kJ/mol
# GULP energy per Si atom -5585.746052 kJ/mol
# Density = 1.976712 g / cm^3
# Si number density = 19.812217 Si / 1000 Ang^3
#
#
#
# Elastic Constant Matrix: (Units=GPa)
#
#
# Indices 1 2 3 4 5 6 
#
# 1 205.2723 16.7496 131.6257 0.0000 0.0000 0.0000
# 2 16.7496 12.3822 7.6357 0.0000 0.0000 0.0000
# 3 131.6257 7.6357 185.5588 0.0000 0.0000 0.0000
# 4 0.0000 0.0000 0.0000 36.2104 0.0000 0.0000
# 5 0.0000 0.0000 0.0000 0.0000 -47.0071 0.0000
# 6 0.0000 0.0000 0.0000 0.0000 0.0000 23.5835
#
#
#
# Elastic Compliance Matrix: (Units=1/GPa)
#
#
# Indices 1 2 3 4 5 6 
#
# 1 0.009875 -0.009274 -0.006624 0.000000 0.000000 0.000000
# 2 -0.009274 0.091573 0.002810 0.000000 0.000000 0.000000
# 3 -0.006624 0.002810 0.009972 0.000000 0.000000 0.000000
# 4 0.000000 0.000000 0.000000 0.027616 0.000000 0.000000
# 5 0.000000 0.000000 0.000000 0.000000 -0.021273 0.000000
# 6 0.000000 0.000000 0.000000 0.000000 0.000000 0.042402
#
#
# Mechanical properties :
#
#
# Convention : Reuss Voigt Hill
#
# Bulk Modulus (GPa) = 11.73074 79.47060 45.60067
# Shear Modulus (GPa) = 23.28220 19.03752 21.15986
#
# Velocity S-wave (km/s) = 3.43176 3.10320 3.27160
# Velocity P-wave (km/s) = 4.65150 7.28277 6.11045
#
# Compressibility (1/GPa) = 0.08524614
#
# Stress axis : x y z
#
# Youngs Moduli (GPa) = 101.26078 10.92019 100.28223
#
# Poissons Ratio (x) = 0.10128 0.66422
# Poissons Ratio (y) = 0.93911 -0.28183
# Poissons Ratio (z) = 0.67070 -0.03069
#
# Static dielectric constant tensor:
#      x y z
#    x 1.690530 0.000000 0.000000 
#    y 0.000000 1.709270 0.000000 
#    z 0.000000 0.000000 1.658940 
# 
# From -- ./inp_files/6066.got.cif
#   From: 2010.05.17/outbox.cif.g08.bks.cpg/sg25_4_cif.got.tgz:6066.got - 2010.06.04 01:04:00.
