data_PCOD9337758
_publ_section_title
;
Structure prediction by ZEFSAII (Michael W. Deem and Ramdas Pophale) SiO2 
 PCOD9337758
Probable space group: P M M 2
;
_chemical_formula_sum "Si O2"
_cell_formula_units_Z 32
_cell_length_a 8.998411
_cell_length_b 14.849120
_cell_length_c 12.651195
_cell_angle_alpha 90.000000
_cell_angle_beta 90.000000
_cell_angle_gamma 90.000000
_cell_volume 1690.433506
_symmetry_space_group_name_H-M "P M M 2"
_symmetry_group_IT_number 25
_symmetry_cell_setting 'orthorhombic'
loop_
_space_group_symop_operation_xyz
x,y,z
-x,-y,z
-x,y,z
x,-y,z
loop_
_atom_site_type_symbol
_atom_site_label
_atom_site_fract_x
_atom_site_fract_y
_atom_site_fract_z
Si Si1 0.821990 0.257911 0.998010
Si Si2 0.821930 0.393158 0.388306
Si Si3 0.829227 0.609659 0.624418
Si Si4 0.321782 0.257316 0.228034
Si Si5 0.326733 0.608139 0.839586
Si Si6 0.178405 0.103590 0.836893
Si Si7 0.681070 0.896941 0.388510
Si Si8 0.329367 0.109817 0.620136
O O1 0.767835 0.342124 0.928495
O O2 0.775574 0.169732 0.930702
O O3 0.000000 0.258553 0.007378
O O4 0.749036 0.258591 0.112704
O O5 0.795434 0.500000 0.379242
O O6 0.777472 0.363480 0.507295
O O7 0.736122 0.339683 0.298815
O O8 0.000000 0.379059 0.379519
O O9 0.831565 0.500000 0.622681
O O10 0.729847 0.636662 0.723360
O O11 0.000000 0.639275 0.640396
O O12 0.500000 0.259263 0.220305
O O13 0.275799 0.168527 0.294220
O O14 0.500000 0.629992 0.852237
O O15 0.309470 0.500000 0.847096
O O16 0.238960 0.135824 0.723615
O O17 0.000000 0.103907 0.832460
O O18 0.227837 0.000000 0.853512
O O19 0.500000 0.897716 0.393884
O O20 0.731081 0.863729 0.504728
O O21 0.729616 0.000000 0.372183
O O22 0.500000 0.139892 0.630994
O O23 0.330375 0.000000 0.616957
#
# Coordination Sequence:
#
# PCOD9337758 Si02
#       8
#     4   4   4   4   4   4   4   4
#     4  11  24  40  56  75 104 145 187 224 267 323
#     4   9  19  37  59  81 109 146 181 214 260 321
#     4   8  15  31  56  84 112 142 176 212 258 322
#     4  11  23  37  55  80 107 138 182 233 274 310
#     4  10  21  37  58  84 112 140 174 222 273 316
#     4   9  19  36  56  79 108 139 173 218 268 314
#     4   8  16  33  55  79 109 142 173 210 262 321
#     4   8  14  28  53  82 109 138 172 209 256 319
#
# _framework density 18.930056
#
# number of rings (size 3 to 8) (size 9 to 14) (size 15 to 20)
#    0.000    2.750    0.000    2.625    0.000    4.500 
#    0.000    5.000    0.000    2.625    0.000    0.000 
#    0.000    0.000    0.000    0.000    0.000    0.000 
#
# Total GULP energy -178564.298183 kJ/mol
# GULP energy per Si atom -5580.134318 kJ/mol
# Density = 1.888697 g / cm^3
# Si number density = 18.930056 Si / 1000 Ang^3
#
#
#
# Elastic Constant Matrix: (Units=GPa)
#
#
# Indices 1 2 3 4 5 6 
#
# 1 42.8856 36.2714 62.4261 0.0000 0.0000 0.0000
# 2 36.2714 65.5991 58.6802 0.0000 0.0000 0.0000
# 3 62.4261 58.6802 191.0510 0.0000 0.0000 0.0000
# 4 0.0000 0.0000 0.0000 31.9953 0.0000 0.0000
# 5 0.0000 0.0000 0.0000 0.0000 35.3544 0.0000
# 6 0.0000 0.0000 0.0000 0.0000 0.0000 13.6360
#
#
#
# Elastic Compliance Matrix: (Units=1/GPa)
#
#
# Indices 1 2 3 4 5 6 
#
# 1 0.061187 -0.021989 -0.013239 0.000000 0.000000 0.000000
# 2 -0.021989 0.028921 -0.001698 0.000000 0.000000 0.000000
# 3 -0.013239 -0.001698 0.010082 0.000000 0.000000 0.000000
# 4 0.000000 0.000000 0.000000 0.031255 0.000000 0.000000
# 5 0.000000 0.000000 0.000000 0.000000 0.028285 0.000000
# 6 0.000000 0.000000 0.000000 0.000000 0.000000 0.073335
#
#
# Mechanical properties :
#
#
# Convention : Reuss Voigt Hill
#
# Bulk Modulus (GPa) = 37.96863 68.25457 53.11160
# Shear Modulus (GPa) = 15.83800 25.67435 20.75617
#
# Velocity S-wave (km/s) = 2.89564 3.68676 3.31489
# Velocity P-wave (km/s) = 5.59290 7.36596 6.53980
#
# Compressibility (1/GPa) = 0.02633753
#
# Stress axis : x y z
#
# Youngs Moduli (GPa) = 16.34334 34.57649 99.19010
#
# Poissons Ratio (x) = 0.76030 1.31319
# Poissons Ratio (y) = 0.35937 0.16843
# Poissons Ratio (z) = 0.21637 0.05871
#
# Static dielectric constant tensor:
#      x y z
#    x 1.637300 0.000000 0.000000 
#    y 0.000000 1.685520 0.000000 
#    z 0.000000 0.000000 1.634660 
# 
# From -- ./inp_files/4296.got.cif
#   From: 2010.05.17/outbox.cif.g08.bks.cpg/sg25_3_cif.got.tgz:4296.got - 2010.06.04 01:04:00.
