data_PCOD9337831
_publ_section_title
;
Structure prediction by ZEFSAII (Michael W. Deem and Ramdas Pophale) SiO2 
 PCOD9337831
Probable space group: P M M 2
;
_chemical_formula_sum "Si O2"
_cell_formula_units_Z 32
_cell_length_a 9.521464
_cell_length_b 7.465881
_cell_length_c 21.922282
_cell_angle_alpha 90.000000
_cell_angle_beta 90.000000
_cell_angle_gamma 90.000000
_cell_volume 1558.369907
_symmetry_space_group_name_H-M "P M M 2"
_symmetry_group_IT_number 25
_symmetry_cell_setting 'orthorhombic'
loop_
_space_group_symop_operation_xyz
x,y,z
-x,-y,z
-x,y,z
x,-y,z
loop_
_atom_site_type_symbol
_atom_site_label
_atom_site_fract_x
_atom_site_fract_y
_atom_site_fract_z
Si Si1 0.338151 0.715558 0.258720
Si Si2 0.339282 0.212964 0.124934
Si Si3 0.838311 0.219189 0.009535
Si Si4 0.836604 0.218305 0.774251
Si Si5 0.661649 0.218930 0.891086
Si Si6 0.841151 0.785374 0.639216
Si Si7 0.658634 0.285757 0.520854
Si Si8 0.671509 0.710673 0.389508
O O1 0.500000 0.780216 0.255530
O O2 0.341804 0.500000 0.262782
O O3 0.276863 0.758867 0.192651
O O4 0.279564 0.782995 0.323704
O O5 0.500000 0.285015 0.122639
O O6 0.242257 0.280446 0.070388
O O7 0.350112 0.000000 0.116458
O O8 0.000000 0.276829 0.007454
O O9 0.839479 0.000000 0.009865
O O10 0.751398 0.274146 0.949864
O O11 0.738110 0.278560 0.829124
O O12 0.791489 0.276521 0.706201
O O13 0.000000 0.269907 0.783046
O O14 0.834336 0.000000 0.775318
O O15 0.500000 0.276205 0.894619
O O16 0.661294 0.000000 0.890793
O O17 0.748299 0.745113 0.580823
O O18 0.000000 0.718559 0.630348
O O19 0.847654 0.000000 0.643289
O O20 0.500000 0.217360 0.529465
O O21 0.649570 0.500000 0.513438
O O22 0.715731 0.215578 0.455545
O O23 0.500000 0.722019 0.389232
O O24 0.708426 0.500000 0.389172
#
# Coordination Sequence:
#
# PCOD9337831 Si02
#       8
#     4   4   4   4   4   4   4   4
#     4   8  13  23  41  62  82 107 138 170 208 254
#     4   9  16  25  38  59  85 107 131 170 212 244
#     4   9  16  25  37  53  77 111 143 167 199 247
#     4   8  14  25  39  55  79 111 143 174 210 253
#     4   9  15  22  35  57  82 106 136 175 212 244
#     4   9  18  31  45  63  90 122 152 182 219 265
#     4   9  17  29  46  68  91 115 147 187 226 264
#     4   7  11  22  40  61  84 108 136 173 214 253
#
# _framework density 20.534278
#
# number of rings (size 3 to 8) (size 9 to 14) (size 15 to 20)
#    0.000    3.500    0.000    3.000    0.000    4.000 
#    0.000    1.875    0.000    3.375    0.000    4.375 
#    0.000    5.000    0.000    0.000    0.000    0.000 
#
# Total GULP energy -178252.089171 kJ/mol
# GULP energy per Si atom -5570.377787 kJ/mol
# Density = 2.048754 g / cm^3
# Si number density = 20.534278 Si / 1000 Ang^3
#
#
#
# Elastic Constant Matrix: (Units=GPa)
#
#
# Indices 1 2 3 4 5 6 
#
# 1 95.0919 3.9936 114.8345 0.0000 0.0000 0.0000
# 2 3.9936 57.7384 5.9753 0.0000 0.0000 0.0000
# 3 114.8345 5.9753 274.2062 0.0000 0.0000 0.0000
# 4 0.0000 0.0000 0.0000 20.1950 0.0000 0.0000
# 5 0.0000 0.0000 0.0000 0.0000 -38.1565 0.0000
# 6 0.0000 0.0000 0.0000 0.0000 0.0000 2.7704
#
#
#
# Elastic Compliance Matrix: (Units=1/GPa)
#
#
# Indices 1 2 3 4 5 6 
#
# 1 0.021294 -0.000551 -0.008906 0.000000 0.000000 0.000000
# 2 -0.000551 0.017373 -0.000148 0.000000 0.000000 0.000000
# 3 -0.008906 -0.000148 0.007380 0.000000 0.000000 0.000000
# 4 0.000000 0.000000 0.000000 0.049517 0.000000 0.000000
# 5 0.000000 0.000000 0.000000 0.000000 -0.026208 0.000000
# 6 0.000000 0.000000 0.000000 0.000000 0.000000 0.360964
#
#
# Mechanical properties :
#
#
# Convention : Reuss Voigt Hill
#
# Bulk Modulus (GPa) = 37.26150 75.18258 56.22204
# Shear Modulus (GPa) = 10.90573 17.11062 14.00818
#
# Velocity S-wave (km/s) = 2.30706 2.88978 2.61470
# Velocity P-wave (km/s) = 5.02813 6.91571 6.04604
#
# Compressibility (1/GPa) = 0.02683735
#
# Stress axis : x y z
#
# Youngs Moduli (GPa) = 46.96184 57.56083 135.50703
#
# Poissons Ratio (x) = 0.03173 1.20678
# Poissons Ratio (y) = 0.02589 0.02002
# Poissons Ratio (z) = 0.41822 0.00850
#
# Static dielectric constant tensor:
#      x y z
#    x 1.694750 0.000000 0.000000 
#    y 0.000000 1.804000 0.000000 
#    z 0.000000 0.000000 1.770340 
# 
# From -- ./inp_files/6508.got.cif
#   From: 2010.05.17/outbox.cif.g08.bks.cpg/sg25_4_cif.got.tgz:6508.got - 2010.06.04 01:04:00.
