data_PCOD9337481
_publ_section_title
;
Structure prediction by ZEFSAII (Michael W. Deem and Ramdas Pophale) SiO2 
 PCOD9337481
Probable space group: P M M 2
;
_chemical_formula_sum "Si O2"
_cell_formula_units_Z 28
_cell_length_a 7.521804
_cell_length_b 9.613654
_cell_length_c 18.896851
_cell_angle_alpha 90.000000
_cell_angle_beta 90.000000
_cell_angle_gamma 90.000000
_cell_volume 1366.469488
_symmetry_space_group_name_H-M "P M M 2"
_symmetry_group_IT_number 25
_symmetry_cell_setting 'orthorhombic'
loop_
_space_group_symop_operation_xyz
x,y,z
-x,-y,z
-x,y,z
x,-y,z
loop_
_atom_site_type_symbol
_atom_site_label
_atom_site_fract_x
_atom_site_fract_y
_atom_site_fract_z
Si Si1 0.291011 0.342990 0.296610
Si Si2 0.214317 0.159453 0.432216
Si Si3 0.217929 0.661286 0.723595
Si Si4 0.781626 0.338724 0.032166
Si Si5 0.790627 0.843897 0.162515
Si Si6 0.207556 0.330813 0.877258
Si Si7 0.783421 0.839283 0.590430
O O1 0.500000 0.354043 0.284701
O O2 0.215838 0.500000 0.296008
O O3 0.264417 0.265575 0.371046
O O4 0.223107 0.245630 0.233711
O O5 0.274019 0.202020 0.511179
O O6 0.000000 0.154453 0.433529
O O7 0.275058 0.000000 0.418288
O O8 0.268031 0.500000 0.716058
O O9 0.280564 0.713661 0.800897
O O10 0.278409 0.747492 0.655914
O O11 0.000000 0.665301 0.725207
O O12 0.730217 0.500000 0.043232
O O13 0.718057 0.242422 0.095919
O O14 0.000000 0.338408 0.030831
O O15 0.719629 0.290769 0.954092
O O16 0.000000 0.857669 0.148276
O O17 0.717126 0.000000 0.170535
O O18 0.213309 0.500000 0.876393
O O19 0.000000 0.289933 0.877606
O O20 0.000000 0.833183 0.590601
O O21 0.733771 0.000000 0.600355
#
# Coordination Sequence:
#
# PCOD9337481 Si02
#       7
#     4   4   4   4   4   4   4
#     4  11  24  38  51  70  94 118 149 190 233 278
#     4   9  18  33  52  72  94 122 156 191 228 274
#     4   8  12  18  30  50  78 113 151 185 216 255
#     4   8  13  23  40  60  84 117 154 189 225 264
#     4  10  20  33  50  72  96 122 154 190 228 274
#     4   7  10  17  30  50  78 113 150 184 218 257
#     4   8  14  24  37  56  84 115 146 181 220 262
#
# _framework density 20.490760999999999
#
# number of rings (size 3 to 8) (size 9 to 14) (size 15 to 20)
#    0.000    3.286    0.000    3.857    0.000    4.571 
#    0.000    2.143    0.000    4.286    0.000    0.000 
#    0.000    1.143    0.000   10.286    0.000   15.143 
#
# Total GULP energy -156060.411890 kJ/mol
# GULP energy per Si atom -5573.586139 kJ/mol
# Density = 2.044412 g / cm^3
# Si number density = 20.490761 Si / 1000 Ang^3
#
#
#
# Elastic Constant Matrix: (Units=GPa)
#
#
# Indices 1 2 3 4 5 6 
#
# 1 49.8670 2.9957 -2.0839 0.0000 0.0000 0.0000
# 2 2.9957 120.7734 117.8280 0.0000 0.0000 0.0000
# 3 -2.0839 117.8280 217.7185 0.0000 0.0000 0.0000
# 4 0.0000 0.0000 0.0000 66.9355 0.0000 0.0000
# 5 0.0000 0.0000 0.0000 0.0000 -45.2030 0.0000
# 6 0.0000 0.0000 0.0000 0.0000 0.0000 -17.5716
#
#
#
# Elastic Compliance Matrix: (Units=1/GPa)
#
#
# Indices 1 2 3 4 5 6 
#
# 1 0.020182 -0.001460 0.000983 0.000000 0.000000 0.000000
# 2 -0.001460 0.017648 -0.009565 0.000000 0.000000 0.000000
# 3 0.000983 -0.009565 0.009779 0.000000 0.000000 0.000000
# 4 0.000000 0.000000 0.000000 0.014940 0.000000 0.000000
# 5 0.000000 0.000000 0.000000 0.000000 -0.022122 0.000000
# 6 0.000000 0.000000 0.000000 0.000000 0.000000 -0.056910
#
#
# Mechanical properties :
#
#
# Convention : Reuss Voigt Hill
#
# Bulk Modulus (GPa) = 36.32945 69.53762 52.93354
# Shear Modulus (GPa) = 391.41456 18.80680 205.11068
#
# Velocity S-wave (km/s) = 13.83599 3.03284 10.01581
# Velocity P-wave (km/s) = 16.52315 6.80249 12.63504
#
# Compressibility (1/GPa) = 0.02752587
#
# Stress axis : x y z
#
# Youngs Moduli (GPa) = 49.54881 56.66451 102.26072
#
# Poissons Ratio (x) = 0.08272 -0.10055
# Poissons Ratio (y) = 0.07234 0.97811
# Poissons Ratio (z) = -0.04872 0.54199
#
# Static dielectric constant tensor:
#      x y z
#    x 1.774790 0.000000 0.000000 
#    y 0.000000 1.705470 0.000000 
#    z 0.000000 0.000000 1.741630 
# 
# From -- ./inp_files/6418.got.cif
#   From: 2010.05.17/outbox.cif.g08.bks.cpg/sg25_4_cif.got.tgz:6418.got - 2010.06.04 01:04:00.
