data_PCOD9337621
_publ_section_title
;
Structure prediction by ZEFSAII (Michael W. Deem and Ramdas Pophale) SiO2 
 PCOD9337621
Probable space group: P M M 2
;
_chemical_formula_sum "Si O2"
_cell_formula_units_Z 24
_cell_length_a 9.114737
_cell_length_b 9.114624
_cell_length_c 15.985959
_cell_angle_alpha 90.000000
_cell_angle_beta 90.000000
_cell_angle_gamma 90.000000
_cell_volume 1328.071920
_symmetry_space_group_name_H-M "P M M 2"
_symmetry_group_IT_number 25
_symmetry_cell_setting 'orthorhombic'
loop_
_space_group_symop_operation_xyz
x,y,z
-x,-y,z
-x,y,z
x,-y,z
loop_
_atom_site_type_symbol
_atom_site_label
_atom_site_fract_x
_atom_site_fract_y
_atom_site_fract_z
Si Si1 0.326601 0.823702 0.802610
Si Si2 0.678614 0.668744 0.314839
Si Si3 0.168742 0.821384 0.973820
Si Si4 0.674964 0.825033 0.144328
Si Si5 0.323704 0.826598 0.486050
Si Si6 0.825697 0.674307 0.644330
O O1 0.500000 0.794549 0.801440
O O2 0.257502 0.776989 0.891276
O O3 0.247611 0.744460 0.726140
O O4 0.306307 0.000000 0.794296
O O5 0.500000 0.671133 0.313854
O O6 0.725738 0.500000 0.319867
O O7 0.725420 0.743514 0.228201
O O8 0.723008 0.757504 0.397383
O O9 0.000000 0.774260 0.968791
O O10 0.171132 0.000000 0.974804
O O11 0.243513 0.774577 0.060457
O O12 0.500000 0.802285 0.134023
O O13 0.697706 0.000000 0.154633
O O14 0.500000 0.806301 0.494364
O O15 0.244460 0.747607 0.562518
O O16 0.294555 0.000000 0.487222
O O17 0.799692 0.500000 0.642685
O O18 0.000000 0.700329 0.645976
#
# Coordination Sequence:
#
# PCOD9337621 Si02
#       6
#     4   4   4   4   4   4
#     4  10  20  35  57  83 107 135 176 222 265 312
#     4   9  17  30  50  76 105 137 173 215 263 312
#     4   9  17  30  50  76 105 137 173 215 263 312
#     4   9  16  28  48  73 100 132 174 221 262 304
#     4  10  20  35  57  83 107 135 176 222 265 312
#     4  11  24  39  54  76 108 143 176 213 262 318
#
# _framework density 18.071311000000001
#
# number of rings (size 3 to 8) (size 9 to 14) (size 15 to 20)
#    0.000    2.333    0.000    3.000    0.000    9.333 
#    0.000    1.667    0.000    6.500    0.000    0.000 
#    0.000    0.000    0.000    0.000    0.000    0.000 
#
# Total GULP energy -133967.554087 kJ/mol
# GULP energy per Si atom -5581.981420 kJ/mol
# Density = 1.803018 g / cm^3
# Si number density = 18.071311 Si / 1000 Ang^3
#
#
#
# Elastic Constant Matrix: (Units=GPa)
#
#
# Indices 1 2 3 4 5 6 
#
# 1 78.8962 70.9115 93.4210 0.0000 0.0000 0.0000
# 2 70.9115 78.8609 93.3988 0.0000 0.0000 0.0000
# 3 93.4210 93.3988 232.1990 0.0000 0.0000 0.0000
# 4 0.0000 0.0000 0.0000 -17.9914 0.0000 0.0000
# 5 0.0000 0.0000 0.0000 0.0000 -17.9813 0.0000
# 6 0.0000 0.0000 0.0000 0.0000 0.0000 19.6481
#
#
#
# Elastic Compliance Matrix: (Units=1/GPa)
#
#
# Indices 1 2 3 4 5 6 
#
# 1 0.069443 -0.056059 -0.005390 0.000000 0.000000 0.000000
# 2 -0.056059 0.069472 -0.005390 0.000000 0.000000 0.000000
# 3 -0.005390 -0.005390 0.008643 0.000000 0.000000 0.000000
# 4 0.000000 0.000000 0.000000 -0.055582 0.000000 0.000000
# 5 0.000000 0.000000 0.000000 0.000000 -0.055613 0.000000
# 6 0.000000 0.000000 0.000000 0.000000 0.000000 0.050895
#
#
# Mechanical properties :
#
#
# Convention : Reuss Voigt Hill
#
# Bulk Modulus (GPa) = 72.04484 100.60208 86.32346
# Shear Modulus (GPa) = 22.16671 5.55006 13.85839
#
# Velocity S-wave (km/s) = 3.50612 1.75439 2.77225
# Velocity P-wave (km/s) = 7.50627 7.73913 7.62359
#
# Compressibility (1/GPa) = 0.01388024
#
# Stress axis : x y z
#
# Youngs Moduli (GPa) = 14.40032 14.39424 115.69707
#
# Poissons Ratio (x) = 0.80693 0.62362
# Poissons Ratio (y) = 0.80727 0.62359
# Poissons Ratio (z) = 0.07762 0.07758
#
# Static dielectric constant tensor:
#      x y z
#    x 1.602620 0.000000 0.000000 
#    y 0.000000 1.602620 0.000000 
#    z 0.000000 0.000000 1.591770 
# 
# From -- ./inp_files/5284.got.cif
#   From: 2010.05.17/outbox.cif.g08.bks.cpg/sg25_3_cif.got.tgz:5284.got - 2010.06.04 01:04:00.
