data_PCOD9337937
_publ_section_title
;
Structure prediction by ZEFSAII (Michael W. Deem and Ramdas Pophale) SiO2 
 PCOD9337937
Probable space group: P M C 21
;
_chemical_formula_sum "Si O2"
_cell_formula_units_Z 32
_cell_length_a 8.521870
_cell_length_b 7.916394
_cell_length_c 19.117650
_cell_angle_alpha 90.000000
_cell_angle_beta 90.000000
_cell_angle_gamma 90.000000
_cell_volume 1289.724091
_symmetry_space_group_name_H-M "P M C 21"
_symmetry_group_IT_number 26
_symmetry_cell_setting 'orthorhombic'
loop_
_space_group_symop_operation_xyz
x,y,z
-x,-y,1/2+z
-x,y,z
x,-y,1/2+z
loop_
_atom_site_type_symbol
_atom_site_label
_atom_site_fract_x
_atom_site_fract_y
_atom_site_fract_z
Si Si1 0.814962 0.221184 0.705590
Si Si2 0.179432 0.308265 0.173596
Si Si3 0.689206 0.610165 0.332833
Si Si4 0.690962 0.283110 0.422127
Si Si5 0.314748 0.093054 0.289421
Si Si6 0.181232 0.031694 0.576958
Si Si7 0.683501 0.519308 0.052936
Si Si8 0.318770 0.177231 0.957441
O O1 0.780346 0.054925 0.752398
O O2 0.745194 0.170458 0.629692
O O3 0.000000 0.242105 0.697388
O O4 0.748161 0.366845 0.754624
O O5 0.288057 0.255091 0.238633
O O6 0.185337 0.142044 0.123004
O O7 0.000000 0.327794 0.197468
O O8 0.226722 0.462940 0.122875
O O9 0.500000 0.615767 0.331975
O O10 0.735986 0.442638 0.373506
O O11 0.748577 0.761094 0.383610
O O12 0.500000 0.280986 0.427433
O O13 0.733992 0.132910 0.369073
O O14 0.746915 0.335737 0.499865
O O15 0.500000 0.051365 0.288660
O O16 0.254181 0.975053 0.503890
O O17 0.000000 0.073563 0.565158
O O18 0.500000 0.549796 0.069011
O O19 0.687194 0.348056 0.004922
O O20 0.500000 0.136851 0.945735
#
# Coordination Sequence:
#
# PCOD9337937 Si02
#       8
#     4   4   4   4   4   4   4   4
#     4  10  20  32  45  68  98 125 154 190 228 274
#     4   9  16  26  40  64  94 119 148 190 229 270
#     4   9  17  31  49  70  94 120 150 188 230 275
#     4   8  16  30  49  72  95 117 152 196 231 269
#     4  10  18  30  49  70  92 124 158 191 232 274
#     4   8  15  26  40  59  87 117 146 182 223 262
#     4   8  13  25  44  65  88 115 146 186 231 272
#     4   8  14  24  42  66  88 109 142 185 226 266
#
# _framework density 24.811508
#
# number of rings (size 3 to 8) (size 9 to 14) (size 15 to 20)
#    0.000    3.250    0.000    3.375    0.000    4.000 
#    0.000    4.375    0.000    1.500    0.000    3.500 
#    0.000    0.000    0.000    0.000    0.000    0.000 
#
# Total GULP energy -178793.961010 kJ/mol
# GULP energy per Si atom -5587.311282 kJ/mol
# Density = 2.475504 g / cm^3
# Si number density = 24.811508 Si / 1000 Ang^3
#
#
#
# Elastic Constant Matrix: (Units=GPa)
#
#
# Indices 1 2 3 4 5 6 
#
# 1 20.7435 -9.0178 15.4262 0.0000 0.0000 0.0000
# 2 -9.0178 84.8167 14.1936 0.0000 0.0000 0.0000
# 3 15.4262 14.1936 185.9191 0.0000 0.0000 0.0000
# 4 0.0000 0.0000 0.0000 58.8041 0.0000 0.0000
# 5 0.0000 0.0000 0.0000 0.0000 -59.7171 0.0000
# 6 0.0000 0.0000 0.0000 0.0000 0.0000 12.3231
#
#
#
# Elastic Compliance Matrix: (Units=1/GPa)
#
#
# Indices 1 2 3 4 5 6 
#
# 1 0.054878 0.006682 -0.005064 0.000000 0.000000 0.000000
# 2 0.006682 0.012756 -0.001528 0.000000 0.000000 0.000000
# 3 -0.005064 -0.001528 0.005915 0.000000 0.000000 0.000000
# 4 0.000000 0.000000 0.000000 0.017006 0.000000 0.000000
# 5 0.000000 0.000000 0.000000 0.000000 -0.016746 0.000000
# 6 0.000000 0.000000 0.000000 0.000000 0.000000 0.081148
#
#
# Mechanical properties :
#
#
# Convention : Reuss Voigt Hill
#
# Bulk Modulus (GPa) = 13.56288 36.96483 25.26385
# Shear Modulus (GPa) = 27.87772 20.34053 24.10912
#
# Velocity S-wave (km/s) = 3.35562 2.86633 3.12058
# Velocity P-wave (km/s) = 4.52679 5.08773 4.81544
#
# Compressibility (1/GPa) = 0.07373068
#
# Stress axis : x y z
#
# Youngs Moduli (GPa) = 18.22211 78.39255 169.04767
#
# Poissons Ratio (x) = -0.52382 0.85598
# Poissons Ratio (y) = -0.12176 0.25835
# Poissons Ratio (z) = 0.09227 0.11981
#
# Static dielectric constant tensor:
#      x y z
#    x 1.862120 0.000000 0.000000 
#    y 0.000000 2.145710 0.000000 
#    z 0.000000 0.000000 1.981350 
# 
# From -- ./inp_files/5007.got.cif
#   From: 2010.05.17/outbox.cif.g08.bks.cpg/sg26_3_cif.got.tgz:5007.got - 2010.06.04 01:07:29.
