data_PCOD9337036
_publ_section_title
;
Structure prediction by ZEFSAII (Michael W. Deem and Ramdas Pophale) SiO2 
 PCOD9337036
Probable space group: I 21 21 21
;
_chemical_formula_sum "Si O2"
_cell_formula_units_Z 28
_cell_length_a 12.000000
_cell_length_b 21.000000
_cell_length_c 12.000000
_cell_angle_alpha 90.000000
_cell_angle_beta 90.000000
_cell_angle_gamma 90.000000
_cell_volume 3024.000000
_symmetry_space_group_name_H-M "I 21 21 21"
_symmetry_group_IT_number 24
_symmetry_cell_setting 'orthorhombic'
loop_
_space_group_symop_operation_xyz
x,y,z
-x,1/2-y,z
x,-y,1/2-z
1/2-x,y,-z
1/2+x,1/2+y,1/2+z
1/2-x,-y,1/2+z
1/2+x,1/2-y,-z
-x,1/2+y,1/2-z
loop_
_atom_site_type_symbol
_atom_site_label
_atom_site_fract_x
_atom_site_fract_y
_atom_site_fract_z
Si Si1 0.384437 0.725069 0.911567
Si Si2 0.843330 0.246398 0.670593
Si Si3 0.250000 0.935750 0.500000
Si Si4 0.222520 0.500000 0.250000
Si Si5 0.355289 0.958398 0.855921
Si Si6 0.595625 0.097779 0.298712
Si Si7 0.848310 0.385093 0.767865
Si Si8 0.911836 0.078179 0.436967
O O1 0.500000 0.750000 0.867412
O O2 0.288952 0.749990 0.833035
O O3 0.367025 0.649215 0.913980
O O4 0.375818 0.750544 0.039120
O O5 0.881917 0.174846 0.704555
O O6 0.871518 0.310476 0.738159
O O7 0.302836 0.897509 0.394385
O O8 0.334732 0.986562 0.553352
O O9 0.308203 0.440627 0.232612
O O10 0.148236 0.474325 0.356245
O O11 0.245611 0.917911 0.815072
O O12 0.457926 0.918227 0.902607
O O13 0.391070 0.000000 0.750000
O O14 0.470736 0.084707 0.253123
O O15 0.600512 0.073118 0.428485
#
# Coordination Sequence:
#
# PCOD9337036 Si02
#       8
#     8   8   4   4   8   8   8   8
#     4  10  19  33  59  92 122 159 206 273 326 383
#     4  10  20  38  59  92 122 160 216 262 330 384
#     4  10  24  40  60  96 126 160 214 258 314 386
#     4  12  24  38  60  90 130 178 208 264 326 378
#     4  10  21  37  61  91 120 159 204 261 326 388
#     4  11  24  39  65  92 127 168 217 266 324 393
#     4  11  23  41  66  93 125 168 210 269 329 389
#     4  11  21  40  60  91 131 163 212 270 324 387
#
# _framework density 9.2592590000000001
#
# number of rings (size 3 to 8) (size 9 to 14) (size 15 to 20)
#    0.000    1.429    2.143    4.286    5.000    2.286 
#    0.000    0.000    3.143    8.571    0.000    0.000 
#    0.000    0.000    0.000    0.000    0.000    0.000 
#
# Total GULP energy -155968.087982 kJ/mol
# GULP energy per Si atom -5570.288856 kJ/mol
# Density = 0.923818 g / cm^3
# Si number density = 9.259259 Si / 1000 Ang^3
#
#
#
# Elastic Constant Matrix: (Units=GPa)
#
#
# Indices 1 2 3 4 5 6 
#
# 1 134.4740 25.3423 31.0976 -0.0001 0.0000 0.0000
# 2 25.3423 96.7586 45.6237 -0.0009 0.0001 0.0001
# 3 31.0976 45.6237 84.4203 -0.0012 0.0001 0.0001
# 4 -0.0001 -0.0009 -0.0012 36.2253 0.0001 0.0001
# 5 0.0000 0.0001 0.0001 0.0001 15.6380 0.0000
# 6 0.0000 0.0001 0.0001 0.0001 0.0000 35.7177
#
#
#
# Elastic Compliance Matrix: (Units=1/GPa)
#
#
# Indices 1 2 3 4 5 6 
#
# 1 0.008196 -0.000970 -0.002495 0.000000 0.000000 0.000000
# 2 -0.000970 0.013984 -0.007200 0.000000 0.000000 0.000000
# 3 -0.002495 -0.007200 0.016656 0.000000 0.000000 0.000000
# 4 0.000000 0.000000 0.000000 0.027605 0.000000 0.000000
# 5 0.000000 0.000000 0.000000 0.000000 0.063947 0.000000
# 6 0.000000 0.000000 0.000000 0.000000 0.000000 0.027997
#
#
# Mechanical properties :
#
#
# Convention : Reuss Voigt Hill
#
# Bulk Modulus (GPa) = 57.12471 57.75335 57.43903
# Shear Modulus (GPa) = 26.94682 31.75548 29.35115
#
# Velocity S-wave (km/s) = 3.81875 4.14550 3.98548
# Velocity P-wave (km/s) = 7.09635 7.35990 7.22932
#
# Compressibility (1/GPa) = 0.01750556
#
# Stress axis : x y z
#
# Youngs Moduli (GPa) = 122.00806 71.50964 60.03961
#
# Poissons Ratio (x) = 0.06939 0.14979
# Poissons Ratio (y) = 0.11839 0.43229
# Poissons Ratio (z) = 0.30439 0.51487
#
# Static dielectric constant tensor:
#      x y z
#    x 1.748030 0.000000 0.000000 
#    y 0.000000 1.646480 0.000000 
#    z 0.000000 0.000000 1.755730 
# 
# From -- ./inp_files/19968.got.cif
#   From: 2010.05.17/outbox.ucp.g08.bks.cvg/sg24_10_cif.got.tgz:19968.got - 2010.06.11 15:20:44.
