data_PCOD9337658
_publ_section_title
;
Structure prediction by ZEFSAII (Michael W. Deem and Ramdas Pophale) SiO2 
 PCOD9337658
Probable space group: P M M 2
;
_chemical_formula_sum "Si O2"
_cell_formula_units_Z 32
_cell_length_a 15.661935
_cell_length_b 8.905688
_cell_length_c 12.114154
_cell_angle_alpha 90.000000
_cell_angle_beta 90.000000
_cell_angle_gamma 90.000000
_cell_volume 1689.685914
_symmetry_space_group_name_H-M "P M M 2"
_symmetry_group_IT_number 25
_symmetry_cell_setting 'orthorhombic'
loop_
_space_group_symop_operation_xyz
x,y,z
-x,-y,z
-x,y,z
x,-y,z
loop_
_atom_site_type_symbol
_atom_site_label
_atom_site_fract_x
_atom_site_fract_y
_atom_site_fract_z
Si Si1 0.903464 0.679734 0.933440
Si Si2 0.750094 0.821024 0.532137
Si Si3 0.402012 0.819808 0.918266
Si Si4 0.852909 0.824042 0.164844
Si Si5 0.902747 0.321333 0.393211
Si Si6 0.252497 0.320093 0.774183
Si Si7 0.402804 0.321682 0.393870
Si Si8 0.352488 0.176237 0.167474
O O1 0.896632 0.500000 0.951450
O O2 0.831559 0.722024 0.844902
O O3 0.000000 0.712257 0.895862
O O4 0.885912 0.761413 0.048889
O O5 0.832954 0.760953 0.467473
O O6 0.749170 0.755584 0.655023
O O7 0.667062 0.763226 0.466490
O O8 0.750580 0.000000 0.533491
O O9 0.500000 0.787266 0.888711
O O10 0.334501 0.735284 0.842451
O O11 0.388331 0.000000 0.908857
O O12 0.386356 0.780662 0.046763
O O13 0.890470 0.733704 0.267740
O O14 0.750095 0.809005 0.167386
O O15 0.873811 0.000000 0.175942
O O16 0.888774 0.500000 0.398882
O O17 0.000000 0.289455 0.428147
O O18 0.254043 0.500000 0.762306
O O19 0.500000 0.286895 0.427535
O O20 0.389331 0.500000 0.403653
O O21 0.389917 0.271863 0.267191
O O22 0.373325 0.000000 0.185495
#
# Coordination Sequence:
#
# PCOD9337658 Si02
#       8
#     4   4   4   4   4   4   4   4
#     4  10  22  40  62  89 122 162 204 246 300 363
#     4  12  26  44  66  90 120 160 207 258 307 364
#     4  10  21  39  63  90 123 162 202 246 300 363
#     4  11  21  35  61  95 128 162 201 248 302 360
#     4  11  24  42  65  92 125 164 204 250 306 366
#     4  11  24  42  64  88 119 159 204 257 306 358
#     4  11  24  41  64  94 126 161 204 253 305 365
#     4  10  20  36  61  92 127 165 202 246 304 365
#
# _framework density 18.938431999999999
#
# number of rings (size 3 to 8) (size 9 to 14) (size 15 to 20)
#    0.000    1.250    2.500    3.375    0.000    7.000 
#    0.000    1.250    0.000    0.000    0.000    0.000 
#    0.000    0.000    0.000    0.000    0.000    0.000 
#
# Total GULP energy -178978.709914 kJ/mol
# GULP energy per Si atom -5593.084685 kJ/mol
# Density = 1.889533 g / cm^3
# Si number density = 18.938432 Si / 1000 Ang^3
#
#
#
# Elastic Constant Matrix: (Units=GPa)
#
#
# Indices 1 2 3 4 5 6 
#
# 1 154.1465 87.0738 87.3610 0.0000 0.0000 0.0000
# 2 87.0738 92.5291 73.3568 0.0000 0.0000 0.0000
# 3 87.3610 73.3568 146.4680 0.0000 0.0000 0.0000
# 4 0.0000 0.0000 0.0000 38.4159 0.0000 0.0000
# 5 0.0000 0.0000 0.0000 0.0000 -7.2951 0.0000
# 6 0.0000 0.0000 0.0000 0.0000 0.0000 7.9356
#
#
#
# Elastic Compliance Matrix: (Units=1/GPa)
#
#
# Indices 1 2 3 4 5 6 
#
# 1 0.014619 -0.011352 -0.003034 0.000000 0.000000 0.000000
# 2 -0.011352 0.026739 -0.006621 0.000000 0.000000 0.000000
# 3 -0.003034 -0.006621 0.011953 0.000000 0.000000 0.000000
# 4 0.000000 0.000000 0.000000 0.026031 0.000000 0.000000
# 5 0.000000 0.000000 0.000000 0.000000 -0.137079 0.000000
# 6 0.000000 0.000000 0.000000 0.000000 0.000000 0.126015
#
#
# Mechanical properties :
#
#
# Convention : Reuss Voigt Hill
#
# Bulk Modulus (GPa) = 88.51684 98.74744 93.63214
# Shear Modulus (GPa) = 43.83673 17.50142 30.66907
#
# Velocity S-wave (km/s) = 4.81635 3.04324 4.02855
# Velocity P-wave (km/s) = 8.81875 8.03759 8.43722
#
# Compressibility (1/GPa) = 0.01129729
#
# Stress axis : x y z
#
# Youngs Moduli (GPa) = 68.40205 37.39812 83.65825
#
# Poissons Ratio (x) = 0.42454 0.25384
# Poissons Ratio (y) = 0.77649 0.55392
# Poissons Ratio (z) = 0.20755 0.24762
#
# Static dielectric constant tensor:
#      x y z
#    x 1.657170 0.000000 0.000000 
#    y 0.000000 1.635590 0.000000 
#    z 0.000000 0.000000 1.614140 
# 
# From -- ./inp_files/4229.got.cif
#   From: 2010.05.17/outbox.cif.g08.bks.cpg/sg25_3_cif.got.tgz:4229.got - 2010.06.04 01:04:00.
