data_PCOD9337582
_publ_section_title
;
Structure prediction by ZEFSAII (Michael W. Deem and Ramdas Pophale) SiO2 
 PCOD9337582
Probable space group: P M M 2
;
_chemical_formula_sum "Si O2"
_cell_formula_units_Z 32
_cell_length_a 14.920653
_cell_length_b 8.822347
_cell_length_c 12.543603
_cell_angle_alpha 90.000000
_cell_angle_beta 90.000000
_cell_angle_gamma 90.000000
_cell_volume 1651.179417
_symmetry_space_group_name_H-M "P M M 2"
_symmetry_group_IT_number 25
_symmetry_cell_setting 'orthorhombic'
loop_
_space_group_symop_operation_xyz
x,y,z
-x,-y,z
-x,y,z
x,-y,z
loop_
_atom_site_type_symbol
_atom_site_label
_atom_site_fract_x
_atom_site_fract_y
_atom_site_fract_z
Si Si1 0.598560 0.320068 0.894900
Si Si2 0.343090 0.321965 0.133230
Si Si3 0.780800 0.822061 0.450354
Si Si4 0.210417 0.181387 0.840376
Si Si5 0.400446 0.318775 0.373727
Si Si6 0.899374 0.326165 0.278610
Si Si7 0.159289 0.823340 0.078159
Si Si8 0.895490 0.681807 0.641571
O O1 0.500000 0.267069 0.857875
O O2 0.605688 0.500000 0.872766
O O3 0.686899 0.240240 0.848226
O O4 0.602191 0.303548 0.023869
O O5 0.313661 0.500000 0.134831
O O6 0.389802 0.293020 0.246070
O O7 0.259518 0.210831 0.119737
O O8 0.837870 0.740482 0.541888
O O9 0.680508 0.759871 0.435430
O O10 0.845846 0.744228 0.746174
O O11 0.779453 0.000000 0.470041
O O12 0.211799 0.000000 0.828722
O O13 0.163140 0.217313 0.953742
O O14 0.500000 0.269473 0.406555
O O15 0.393388 0.500000 0.389168
O O16 0.869559 0.500000 0.291742
O O17 0.899277 0.279949 0.155150
O O18 0.833092 0.217613 0.341579
O O19 0.000000 0.312916 0.321866
O O20 0.135932 0.000000 0.089226
O O21 0.894376 0.500000 0.642081
O O22 0.000000 0.731033 0.636278
#
# Coordination Sequence:
#
# PCOD9337582 Si02
#       8
#     4   4   4   4   4   4   4   4
#     4   9  17  31  54  86 123 164 209 250 291 346
#     4   9  16  29  52  81 118 162 205 246 288 342
#     4  12  25  41  63  90 123 157 194 247 307 362
#     4  10  22  39  60  89 125 159 196 246 304 361
#     4  10  20  35  58  88 123 164 206 246 292 349
#     4  11  23  38  58  85 118 158 202 247 297 357
#     4  10  20  34  54  84 123 162 196 239 299 357
#     4  11  25  46  71  93 113 147 200 255 304 361
#
# _framework density 19.380085999999999
#
# number of rings (size 3 to 8) (size 9 to 14) (size 15 to 20)
#    0.000    1.750    1.250    3.375    0.000    7.500 
#    0.000    3.125    0.000    6.000    0.000    0.000 
#    0.000    0.000    0.000    0.000    0.000    0.000 
#
# Total GULP energy -178658.402332 kJ/mol
# GULP energy per Si atom -5583.075073 kJ/mol
# Density = 1.933598 g / cm^3
# Si number density = 19.380086 Si / 1000 Ang^3
#
#
#
# Elastic Constant Matrix: (Units=GPa)
#
#
# Indices 1 2 3 4 5 6 
#
# 1 140.4747 42.0564 60.2161 0.0000 0.0000 0.0000
# 2 42.0564 52.8436 37.2584 0.0000 0.0000 0.0000
# 3 60.2161 37.2584 95.7881 0.0000 0.0000 0.0000
# 4 0.0000 0.0000 0.0000 27.6997 0.0000 0.0000
# 5 0.0000 0.0000 0.0000 0.0000 14.4464 0.0000
# 6 0.0000 0.0000 0.0000 0.0000 0.0000 50.8634
#
#
#
# Elastic Compliance Matrix: (Units=1/GPa)
#
#
# Indices 1 2 3 4 5 6 
#
# 1 0.010688 -0.005193 -0.004699 0.000000 0.000000 0.000000
# 2 -0.005193 0.028598 -0.007859 0.000000 0.000000 0.000000
# 3 -0.004699 -0.007859 0.016450 0.000000 0.000000 0.000000
# 4 0.000000 0.000000 0.000000 0.036101 0.000000 0.000000
# 5 0.000000 0.000000 0.000000 0.000000 0.069222 0.000000
# 6 0.000000 0.000000 0.000000 0.000000 0.000000 0.019661
#
#
# Mechanical properties :
#
#
# Convention : Reuss Voigt Hill
#
# Bulk Modulus (GPa) = 49.42108 63.12979 56.27544
# Shear Modulus (GPa) = 22.42495 28.57359 25.49927
#
# Velocity S-wave (km/s) = 3.40533 3.84393 3.63126
# Velocity P-wave (km/s) = 6.40453 7.23508 6.83243
#
# Compressibility (1/GPa) = 0.02023428
#
# Stress axis : x y z
#
# Youngs Moduli (GPa) = 93.56636 34.96759 60.78845
#
# Poissons Ratio (x) = 0.18158 0.28563
# Poissons Ratio (y) = 0.48588 0.47775
# Poissons Ratio (z) = 0.43965 0.27482
#
# Static dielectric constant tensor:
#      x y z
#    x 1.692060 0.000000 0.000000 
#    y 0.000000 1.644350 0.000000 
#    z 0.000000 0.000000 1.685780 
# 
# From -- ./inp_files/4948.got.cif
#   From: 2010.05.17/outbox.cif.g08.bks.cpg/sg25_3_cif.got.tgz:4948.got - 2010.06.04 01:04:00.
