data_PCOD9337005
_publ_section_title
;
Structure prediction by ZEFSAII (Michael W. Deem and Ramdas Pophale) SiO2 
 PCOD9337005
Probable space group: I 21 21 21
;
_chemical_formula_sum "Si O2"
_cell_formula_units_Z 28
_cell_length_a 21.952050
_cell_length_b 7.323250
_cell_length_c 6.416312
_cell_angle_alpha 90.000000
_cell_angle_beta 90.000000
_cell_angle_gamma 90.000000
_cell_volume 1031.488564
_symmetry_space_group_name_H-M "I 21 21 21"
_symmetry_group_IT_number 24
_symmetry_cell_setting 'orthorhombic'
loop_
_space_group_symop_operation_xyz
x,y,z
-x,1/2-y,z
x,-y,1/2-z
1/2-x,y,-z
1/2+x,1/2+y,1/2+z
1/2-x,-y,1/2+z
1/2+x,1/2-y,-z
-x,1/2+y,1/2-z
loop_
_atom_site_type_symbol
_atom_site_label
_atom_site_fract_x
_atom_site_fract_y
_atom_site_fract_z
Si Si1 0.442282 0.500000 0.750000
Si Si2 0.000000 0.250000 0.601699
Si Si3 0.163348 0.000000 0.250000
Si Si4 0.738870 0.211808 0.265728
Si Si5 0.390554 0.793814 0.429789
O O1 0.480046 0.407505 0.562015
O O2 0.404429 0.654458 0.623306
O O3 0.054935 0.214173 0.764571
O O4 0.209490 0.158561 0.174335
O O5 0.120148 0.988583 0.452872
O O6 0.750000 0.267856 0.500000
O O7 0.755260 0.000000 0.250000
O O8 0.830204 0.236262 0.802293
#
# Coordination Sequence:
#
# PCOD9337005 Si02
#       5
#     4   4   4   8   8
#     4  12  30  57  90 132 180 257 304 386 482 548
#     4  12  30  60  90 134 184 252 312 392 466 568
#     4  12  30  55  88 138 180 245 314 384 466 564
#     4  12  27  53  86 129 183 240 303 385 470 547
#     4  12  30  58  88 133 187 242 317 389 470 563
#
# _framework density 27.145233000000001
#
# number of rings (size 3 to 8) (size 9 to 14) (size 15 to 20)
#    0.000    0.000    0.000    7.714   10.000    6.857 
#   15.429    0.000    0.000    0.000    0.000    0.000 
#    0.000    0.000    0.000    0.000    0.000    0.000 
#
# Total GULP energy -78339.428690 kJ/mol
# GULP energy per Si atom -5595.673478 kJ/mol
# Density = 2.708345 g / cm^3
# Si number density = 27.145233 Si / 1000 Ang^3
#
#
#
# Elastic Constant Matrix: (Units=GPa)
#
#
# Indices 1 2 3 4 5 6 
#
# 1 239.8018 94.0983 133.2411 0.0000 0.0000 0.0000
# 2 94.0983 139.3808 53.3898 0.0000 0.0000 0.0000
# 3 133.2411 53.3898 224.8340 0.0000 0.0000 0.0000
# 4 0.0000 0.0000 0.0000 71.4344 0.0000 0.0000
# 5 0.0000 0.0000 0.0000 0.0000 57.9477 0.0000
# 6 0.0000 0.0000 0.0000 0.0000 0.0000 45.3842
#
#
#
# Elastic Compliance Matrix: (Units=1/GPa)
#
#
# Indices 1 2 3 4 5 6 
#
# 1 0.007689 -0.003790 -0.003657 0.000000 0.000000 0.000000
# 2 -0.003790 0.009761 -0.000072 0.000000 0.000000 0.000000
# 3 -0.003657 -0.000072 0.006632 0.000000 0.000000 0.000000
# 4 0.000000 0.000000 0.000000 0.013999 0.000000 0.000000
# 5 0.000000 0.000000 0.000000 0.000000 0.017257 0.000000
# 6 0.000000 0.000000 0.000000 0.000000 0.000000 0.022034
#
#
# Mechanical properties :
#
#
# Convention : Reuss Voigt Hill
#
# Bulk Modulus (GPa) = 110.56400 129.49723 120.03061
# Shear Modulus (GPa) = 52.39755 56.50574 54.45165
#
# Velocity S-wave (km/s) = 4.39825 4.56741 4.48363
# Velocity P-wave (km/s) = 8.16160 8.69620 8.43314
#
# Compressibility (1/GPa) = 0.00904454
#
# Stress axis : x y z
#
# Youngs Moduli (GPa) = 130.05133 102.44843 150.78922
#
# Poissons Ratio (x) = 0.38833 0.55139
# Poissons Ratio (y) = 0.49295 0.01079
# Poissons Ratio (z) = 0.47556 0.00733
#
# Static dielectric constant tensor:
#      x y z
#    x 2.160400 0.000000 0.000000 
#    y 0.000000 2.319930 0.000000 
#    z 0.000000 0.000000 2.397030 
# 
# From -- ./inp_files/6792.got.cif
#   From: 2010.05.17/outbox.cif.g08.bks.cpg/sg24_4_cif.got.tgz:6792.got - 2010.06.04 00:33:39.
