data_PCOD9337569
_publ_section_title
;
Structure prediction by ZEFSAII (Michael W. Deem and Ramdas Pophale) SiO2 
 PCOD9337569
Probable space group: P M M 2
;
_chemical_formula_sum "Si O2"
_cell_formula_units_Z 32
_cell_length_a 7.869931
_cell_length_b 13.082506
_cell_length_c 12.827894
_cell_angle_alpha 90.000000
_cell_angle_beta 90.000000
_cell_angle_gamma 90.000000
_cell_volume 1320.739692
_symmetry_space_group_name_H-M "P M M 2"
_symmetry_group_IT_number 25
_symmetry_cell_setting 'orthorhombic'
loop_
_space_group_symop_operation_xyz
x,y,z
-x,-y,z
-x,y,z
x,-y,z
loop_
_atom_site_type_symbol
_atom_site_label
_atom_site_fract_x
_atom_site_fract_y
_atom_site_fract_z
Si Si1 0.700229 0.607653 0.071220
Si Si2 0.707146 0.169055 0.124885
Si Si3 0.798723 0.891946 0.897186
Si Si4 0.796469 0.668018 0.844820
Si Si5 0.306221 0.662123 0.617973
Si Si6 0.303132 0.837274 0.351369
Si Si7 0.803959 0.112827 0.576502
Si Si8 0.196335 0.387561 0.393043
O O1 0.500000 0.607399 0.095459
O O2 0.775820 0.500000 0.107508
O O3 0.769964 0.713553 0.114965
O O4 0.720706 0.614382 0.946149
O O5 0.500000 0.167769 0.121320
O O6 0.771918 0.114703 0.021589
O O7 0.757045 0.128081 0.237818
O O8 0.000000 0.892395 0.876099
O O9 0.726516 0.000000 0.859516
O O10 0.732077 0.785725 0.852037
O O11 0.751010 0.626609 0.731571
O O12 0.000000 0.666683 0.856546
O O13 0.500000 0.633292 0.599595
O O14 0.289335 0.785876 0.615279
O O15 0.202774 0.621910 0.519124
O O16 0.500000 0.866456 0.365280
O O17 0.203425 0.877690 0.450847
O O18 0.292267 0.713112 0.353476
O O19 0.000000 0.120685 0.611171
O O20 0.739521 0.000000 0.605303
O O21 0.263704 0.500000 0.363951
O O22 0.000000 0.380027 0.360434
#
# Coordination Sequence:
#
# PCOD9337569 Si02
#       8
#     4   4   4   4   4   4   4   4
#     4   9  18  34  54  75 102 136 174 215 257 304
#     4   9  19  34  52  77 106 137 172 211 258 306
#     4   9  19  35  54  76 102 135 174 213 254 302
#     4  10  20  35  54  76 105 137 170 212 259 309
#     4  11  22  36  56  80 106 136 172 215 260 310
#     4  10  20  34  54  79 108 140 174 215 260 309
#     4  10  21  37  56  77 104 139 176 215 260 309
#     4  10  21  37  56  78 105 137 174 216 260 308
#
# _framework density 24.228847999999999
#
# number of rings (size 3 to 8) (size 9 to 14) (size 15 to 20)
#    0.000    2.250    0.000    4.125    0.000    6.000 
#    0.000    5.000    0.000    0.000    0.000    0.000 
#    0.000    0.000    0.000    0.000    0.000    0.000 
#
# Total GULP energy -178901.111082 kJ/mol
# GULP energy per Si atom -5590.659721 kJ/mol
# Density = 2.417370 g / cm^3
# Si number density = 24.228848 Si / 1000 Ang^3
#
#
#
# Elastic Constant Matrix: (Units=GPa)
#
#
# Indices 1 2 3 4 5 6 
#
# 1 50.5879 0.8829 -10.5018 0.0000 0.0000 0.0000
# 2 0.8829 129.9459 -6.2097 0.0000 0.0000 0.0000
# 3 -10.5018 -6.2097 119.6522 0.0000 0.0000 0.0000
# 4 0.0000 0.0000 0.0000 -15.7511 0.0000 0.0000
# 5 0.0000 0.0000 0.0000 0.0000 19.6031 0.0000
# 6 0.0000 0.0000 0.0000 0.0000 0.0000 13.2947
#
#
#
# Elastic Compliance Matrix: (Units=1/GPa)
#
#
# Indices 1 2 3 4 5 6 
#
# 1 0.020135 -0.000052 0.001764 0.000000 0.000000 0.000000
# 2 -0.000052 0.007715 0.000396 0.000000 0.000000 0.000000
# 3 0.001764 0.000396 0.008533 0.000000 0.000000 0.000000
# 4 0.000000 0.000000 0.000000 -0.063488 0.000000 0.000000
# 5 0.000000 0.000000 0.000000 0.000000 0.051012 0.000000
# 6 0.000000 0.000000 0.000000 0.000000 0.000000 0.075218
#
#
# Mechanical properties :
#
#
# Convention : Reuss Voigt Hill
#
# Bulk Modulus (GPa) = 24.63170 29.83653 27.23412
# Shear Modulus (GPa) = 46.10732 24.49696 35.30214
#
# Velocity S-wave (km/s) = 4.36706 3.18318 3.82125
# Velocity P-wave (km/s) = 5.96797 5.08442 5.54383
#
# Compressibility (1/GPa) = 0.04059809
#
# Stress axis : x y z
#
# Youngs Moduli (GPa) = 49.66532 129.62131 117.19252
#
# Poissons Ratio (x) = 0.00680 -0.20679
# Poissons Ratio (y) = 0.00261 -0.04638
# Poissons Ratio (z) = -0.08763 -0.05130
#
# Static dielectric constant tensor:
#      x y z
#    x 1.837650 0.000000 0.000000 
#    y 0.000000 1.974460 0.000000 
#    z 0.000000 0.000000 1.914710 
# 
# From -- ./inp_files/5704.got.cif
#   From: 2010.05.17/outbox.cif.g08.bks.cpg/sg25_3_cif.got.tgz:5704.got - 2010.06.04 01:04:00.
