data_PCOD9337491
_publ_section_title
;
Structure prediction by ZEFSAII (Michael W. Deem and Ramdas Pophale) SiO2 
 PCOD9337491
Probable space group: P M M 2
;
_chemical_formula_sum "Si O2"
_cell_formula_units_Z 28
_cell_length_a 9.434799
_cell_length_b 7.447939
_cell_length_c 18.535884
_cell_angle_alpha 90.000000
_cell_angle_beta 90.000000
_cell_angle_gamma 90.000000
_cell_volume 1302.512999
_symmetry_space_group_name_H-M "P M M 2"
_symmetry_group_IT_number 25
_symmetry_cell_setting 'orthorhombic'
loop_
_space_group_symop_operation_xyz
x,y,z
-x,-y,z
-x,y,z
x,-y,z
loop_
_atom_site_type_symbol
_atom_site_label
_atom_site_fract_x
_atom_site_fract_y
_atom_site_fract_z
Si Si1 0.836525 0.218700 0.572310
Si Si2 0.340593 0.287419 0.874880
Si Si3 0.161246 0.783968 0.734267
Si Si4 0.163107 0.280045 0.011842
Si Si5 0.839051 0.214962 0.294940
Si Si6 0.337162 0.219751 0.433594
Si Si7 0.661112 0.285225 0.150985
O O1 0.798245 0.276816 0.653533
O O2 0.734288 0.278121 0.508479
O O3 0.000000 0.270798 0.558594
O O4 0.834010 0.000000 0.572108
O O5 0.500000 0.213189 0.876456
O O6 0.351727 0.500000 0.887864
O O7 0.267090 0.265417 0.797630
O O8 0.240505 0.218312 0.938886
O O9 0.000000 0.721537 0.749400
O O10 0.156738 0.000000 0.732009
O O11 0.161408 0.500000 0.012051
O O12 0.252318 0.220152 0.081368
O O13 0.000000 0.222285 0.015077
O O14 0.756164 0.280520 0.365661
O O15 0.748445 0.250316 0.223512
O O16 0.000000 0.284068 0.289453
O O17 0.848286 0.000000 0.302378
O O18 0.500000 0.276273 0.427235
O O19 0.336550 0.000000 0.433347
O O20 0.500000 0.215688 0.154706
O O21 0.651722 0.500000 0.143243
#
# Coordination Sequence:
#
# PCOD9337491 Si02
#       7
#     4   4   4   4   4   4   4
#     4   8  14  26  44  66  93 124 158 197 240 286
#     4  10  20  33  50  73 100 129 162 200 242 288
#     4   9  18  32  50  73 100 129 162 201 244 289
#     4   9  17  31  52  74  95 124 163 202 238 282
#     4  10  20  33  50  73 101 132 165 201 241 285
#     4   9  16  26  43  68  96 126 161 200 241 285
#     4  10  20  34  53  76 101 128 159 198 244 291
#
# _framework density 21.496905999999999
#
# number of rings (size 3 to 8) (size 9 to 14) (size 15 to 20)
#    0.000    2.714    0.000    3.000    0.000    6.857 
#    0.000    2.143    0.000    5.143    0.000    4.000 
#    0.000    0.000    0.000    0.000    0.000    0.000 
#
# Total GULP energy -156408.565063 kJ/mol
# GULP energy per Si atom -5586.020181 kJ/mol
# Density = 2.144798 g / cm^3
# Si number density = 21.496906 Si / 1000 Ang^3
#
#
#
# Elastic Constant Matrix: (Units=GPa)
#
#
# Indices 1 2 3 4 5 6 
#
# 1 236.2691 7.5383 153.6615 0.0000 0.0000 0.0000
# 2 7.5383 64.3140 -0.3912 0.0000 0.0000 0.0000
# 3 153.6615 -0.3912 203.0179 0.0000 0.0000 0.0000
# 4 0.0000 0.0000 0.0000 21.7543 0.0000 0.0000
# 5 0.0000 0.0000 0.0000 0.0000 55.5440 0.0000
# 6 0.0000 0.0000 0.0000 0.0000 0.0000 9.0470
#
#
#
# Elastic Compliance Matrix: (Units=1/GPa)
#
#
# Indices 1 2 3 4 5 6 
#
# 1 0.008403 -0.001024 -0.006362 0.000000 0.000000 0.000000
# 2 -0.001024 0.015674 0.000805 0.000000 0.000000 0.000000
# 3 -0.006362 0.000805 0.009742 0.000000 0.000000 0.000000
# 4 0.000000 0.000000 0.000000 0.045968 0.000000 0.000000
# 5 0.000000 0.000000 0.000000 0.000000 0.018004 0.000000
# 6 0.000000 0.000000 0.000000 0.000000 0.000000 0.110534
#
#
# Mechanical properties :
#
#
# Convention : Reuss Voigt Hill
#
# Bulk Modulus (GPa) = 48.40809 91.69092 70.04950
# Shear Modulus (GPa) = 21.89421 40.12189 31.00805
#
# Velocity S-wave (km/s) = 3.19483 4.32488 3.80207
# Velocity P-wave (km/s) = 6.01471 8.22709 7.20631
#
# Compressibility (1/GPa) = 0.02065770
#
# Stress axis : x y z
#
# Youngs Moduli (GPa) = 119.01034 63.80158 102.64416
#
# Poissons Ratio (x) = 0.06531 0.65300
# Poissons Ratio (y) = 0.12182 -0.08262
# Poissons Ratio (z) = 0.75712 -0.05136
#
# Static dielectric constant tensor:
#      x y z
#    x 1.742120 0.000000 0.000000 
#    y 0.000000 1.854150 0.000000 
#    z 0.000000 0.000000 1.731850 
# 
# From -- ./inp_files/6034.got.cif
#   From: 2010.05.17/outbox.cif.g08.bks.cpg/sg25_4_cif.got.tgz:6034.got - 2010.06.04 01:04:00.
