data_PCOD9337790
_publ_section_title
;
Structure prediction by ZEFSAII (Michael W. Deem and Ramdas Pophale) SiO2 
 PCOD9337790
Probable space group: P M M 2
;
_chemical_formula_sum "Si O2"
_cell_formula_units_Z 21
_cell_length_a 10.258960
_cell_length_b 7.531030
_cell_length_c 12.705078
_cell_angle_alpha 90.000000
_cell_angle_beta 90.000000
_cell_angle_gamma 90.000000
_cell_volume 981.601130
_symmetry_space_group_name_H-M "P M M 2"
_symmetry_group_IT_number 25
_symmetry_cell_setting 'orthorhombic'
loop_
_space_group_symop_operation_xyz
x,y,z
-x,-y,z
-x,y,z
x,-y,z
loop_
_atom_site_type_symbol
_atom_site_label
_atom_site_fract_x
_atom_site_fract_y
_atom_site_fract_z
Si Si1 0.648370 0.210296 0.132790
Si Si2 0.852182 0.208903 0.301758
Si Si3 0.352212 0.713537 0.894500
Si Si4 0.359164 0.289484 0.469742
Si Si5 0.777551 0.712080 0.678340
Si Si6 0.000000 0.000000 0.636618
O O1 0.500000 0.282832 0.144699
O O2 0.757520 0.285422 0.211084
O O3 0.639254 0.000000 0.154087
O O4 0.689576 0.232381 0.011408
O O5 0.766411 0.221792 0.407262
O O6 0.000000 0.281352 0.309759
O O7 0.866662 0.000000 0.279121
O O8 0.500000 0.779888 0.880142
O O9 0.356402 0.500000 0.893031
O O10 0.264217 0.765001 0.796208
O O11 0.500000 0.216041 0.435021
O O12 0.361000 0.500000 0.449908
O O13 0.338622 0.265822 0.594063
O O14 0.811584 0.500000 0.677377
O O15 0.888514 0.843350 0.641004
#
# Coordination Sequence:
#
# PCOD9337790 Si02
#       6
#     4   4   4   4   4   1
#     4   9  18  34  56  83 117 157 203 255 304 356
#     4  10  22  38  57  84 121 160 199 250 307 365
#     4   9  18  36  62  88 118 155 196 253 314 362
#     4  10  22  40  63  88 118 157 200 253 310 364
#     4  10  23  42  62  91 128 162 205 256 304 364
#     4  12  26  40  62  90 122 180 212 236 308 372
#
# _framework density 21.393619999999999
#
# number of rings (size 3 to 8) (size 9 to 14) (size 15 to 20)
#    0.000    2.286    0.000    1.429    4.000    4.571 
#    1.714    2.857    0.000    0.000    0.000    0.000 
#    0.000    0.000    0.000    0.000    0.000    0.000 
#
# Total GULP energy -116901.763512 kJ/mol
# GULP energy per Si atom -5566.750643 kJ/mol
# Density = 2.134493 g / cm^3
# Si number density = 21.393620 Si / 1000 Ang^3
#
#
#
# Elastic Constant Matrix: (Units=GPa)
#
#
# Indices 1 2 3 4 5 6 
#
# 1 153.0849 28.7996 69.7002 0.0000 0.0000 0.0000
# 2 28.7996 67.1724 6.9587 0.0000 0.0000 0.0000
# 3 69.7002 6.9587 112.1623 0.0000 0.0000 0.0000
# 4 0.0000 0.0000 0.0000 22.7040 0.0000 0.0000
# 5 0.0000 0.0000 0.0000 0.0000 99.7191 0.0000
# 6 0.0000 0.0000 0.0000 0.0000 0.0000 270.8696
#
#
#
# Elastic Compliance Matrix: (Units=1/GPa)
#
#
# Indices 1 2 3 4 5 6 
#
# 1 0.009921 -0.003638 -0.005939 0.000000 0.000000 0.000000
# 2 -0.003638 0.016318 0.001249 0.000000 0.000000 0.000000
# 3 -0.005939 0.001249 0.012529 0.000000 0.000000 0.000000
# 4 0.000000 0.000000 0.000000 0.044045 0.000000 0.000000
# 5 0.000000 0.000000 0.000000 0.000000 0.010028 0.000000
# 6 0.000000 0.000000 0.000000 0.000000 0.000000 0.003692
#
#
# Mechanical properties :
#
#
# Convention : Reuss Voigt Hill
#
# Bulk Modulus (GPa) = 45.22964 60.37072 52.80018
# Shear Modulus (GPa) = 41.47282 93.78929 67.63106
#
# Velocity S-wave (km/s) = 4.40769 6.62835 5.62862
# Velocity P-wave (km/s) = 6.86230 9.31989 8.18387
#
# Compressibility (1/GPa) = 0.02210940
#
# Stress axis : x y z
#
# Youngs Moduli (GPa) = 100.79594 61.28357 79.81425
#
# Poissons Ratio (x) = 0.22297 0.47405
# Poissons Ratio (y) = 0.36672 -0.09965
# Poissons Ratio (z) = 0.59867 -0.07651
#
# Static dielectric constant tensor:
#      x y z
#    x 1.756540 0.000000 0.000000 
#    y 0.000000 1.795530 0.000000 
#    z 0.000000 0.000000 1.781310 
# 
# From -- ./inp_files/5145.got.cif
#   From: 2010.05.17/outbox.cif.g08.bks.cpg/sg25_3_cif.got.tgz:5145.got - 2010.06.04 01:04:00.
