data_PCOD9337310
_publ_section_title
;
Structure prediction by ZEFSAII (Michael W. Deem and Ramdas Pophale) SiO2 
 PCOD9337310
Probable space group: P M M 2
;
_chemical_formula_sum "Si O2"
_cell_formula_units_Z 24
_cell_length_a 7.777347
_cell_length_b 27.322936
_cell_length_c 5.219327
_cell_angle_alpha 90.000000
_cell_angle_beta 90.000000
_cell_angle_gamma 90.000000
_cell_volume 1109.106749
_symmetry_space_group_name_H-M "P M M 2"
_symmetry_group_IT_number 25
_symmetry_cell_setting 'orthorhombic'
loop_
_space_group_symop_operation_xyz
x,y,z
-x,-y,z
-x,y,z
x,-y,z
loop_
_atom_site_type_symbol
_atom_site_label
_atom_site_fract_x
_atom_site_fract_y
_atom_site_fract_z
Si Si1 0.804737 0.275020 0.344960
Si Si2 0.710452 0.443869 0.727510
Si Si3 0.710024 0.055818 0.177415
Si Si4 0.292196 0.613867 0.225919
Si Si5 0.289724 0.113479 0.674082
Si Si6 0.302513 0.779912 0.836418
O O1 0.761410 0.330553 0.271412
O O2 0.700837 0.255500 0.589715
O O3 0.000000 0.272207 0.432123
O O4 0.781806 0.243007 0.088282
O O5 0.500000 0.444223 0.729460
O O6 0.765725 0.500000 0.756633
O O7 0.765095 0.420174 0.460454
O O8 0.767973 0.409613 0.960388
O O9 0.500000 0.055385 0.182934
O O10 0.768118 0.091714 0.403755
O O11 0.766693 0.000000 0.215931
O O12 0.759905 0.077157 0.902793
O O13 0.500000 0.613288 0.222173
O O14 0.500000 0.115176 0.664281
O O15 0.230002 0.168030 0.742489
O O16 0.500000 0.788264 0.914059
#
# Coordination Sequence:
#
# PCOD9337310 Si02
#       6
#     4   4   4   4   4   4
#     4  12  25  40  58  84 118 151 190 240 292 340
#     4   9  17  30  52  82 110 137 178 230 272 315
#     4   9  15  24  40  67 106 143 170 208 273 339
#     4  10  19  33  55  80 108 145 186 224 271 331
#     4   9  17  28  45  71 102 139 180 222 269 326
#     4  11  22  39  61  83 112 151 196 239 283 339
#
# _framework density 21.639036000000001
#
# number of rings (size 3 to 8) (size 9 to 14) (size 15 to 20)
#    0.000    2.000    0.000    5.000    0.000    8.000 
#    0.000    0.000    0.000    3.000    0.000    0.000 
#    0.000   46.667    0.000    0.000    0.000    0.000 
#
# Total GULP energy -134160.801503 kJ/mol
# GULP energy per Si atom -5590.033396 kJ/mol
# Density = 2.158978 g / cm^3
# Si number density = 21.639036 Si / 1000 Ang^3
#
#
#
# Elastic Constant Matrix: (Units=GPa)
#
#
# Indices 1 2 3 4 5 6 
#
# 1 33.5439 -4.4687 -5.6732 0.0000 0.0000 0.0000
# 2 -4.4687 56.8441 -33.3171 0.0000 0.0000 0.0000
# 3 -5.6732 -33.3171 57.9156 0.0000 0.0000 0.0000
# 4 0.0000 0.0000 0.0000 40.2232 0.0000 0.0000
# 5 0.0000 0.0000 0.0000 0.0000 7.8716 0.0000
# 6 0.0000 0.0000 0.0000 0.0000 0.0000 -31.5593
#
#
#
# Elastic Compliance Matrix: (Units=1/GPa)
#
#
# Indices 1 2 3 4 5 6 
#
# 1 0.031846 0.006535 0.006879 0.000000 0.000000 0.000000
# 2 0.006535 0.027882 0.016680 0.000000 0.000000 0.000000
# 3 0.006879 0.016680 0.027536 0.000000 0.000000 0.000000
# 4 0.000000 0.000000 0.000000 0.024861 0.000000 0.000000
# 5 0.000000 0.000000 0.000000 0.000000 0.127040 0.000000
# 6 0.000000 0.000000 0.000000 0.000000 0.000000 -0.031686
#
#
# Mechanical properties :
#
#
# Convention : Reuss Voigt Hill
#
# Bulk Modulus (GPa) = 6.78183 6.82061 6.80122
# Shear Modulus (GPa) = 25.45306 16.09126 20.77216
#
# Velocity S-wave (km/s) = 3.43338 2.72990 3.10165
# Velocity P-wave (km/s) = 4.34262 3.61875 3.99710
#
# Compressibility (1/GPa) = 0.14745292
#
# Stress axis : x y z
#
# Youngs Moduli (GPa) = 31.40128 35.86530 36.31632
#
# Poissons Ratio (x) = -0.23440 -0.24983
# Poissons Ratio (y) = -0.20522 -0.60575
# Poissons Ratio (z) = -0.21601 -0.59823
#
# Static dielectric constant tensor:
#      x y z
#    x 1.791740 0.000000 0.000000 
#    y 0.000000 1.751160 0.000000 
#    z 0.000000 0.000000 1.732700 
# 
# From -- ./inp_files/307.got.cif
#   From: 2010.05.17/outbox.cif.g08.bks.cpg/sg25_1_cif.got.tgz:307.got - 2010.06.04 01:04:00.
