data_PCOD9337593
_publ_section_title
;
Structure prediction by ZEFSAII (Michael W. Deem and Ramdas Pophale) SiO2 
 PCOD9337593
Probable space group: P M M 2
;
_chemical_formula_sum "Si O2"
_cell_formula_units_Z 32
_cell_length_a 8.494165
_cell_length_b 15.190650
_cell_length_c 12.692994
_cell_angle_alpha 90.000000
_cell_angle_beta 90.000000
_cell_angle_gamma 90.000000
_cell_volume 1637.800975
_symmetry_space_group_name_H-M "P M M 2"
_symmetry_group_IT_number 25
_symmetry_cell_setting 'orthorhombic'
loop_
_space_group_symop_operation_xyz
x,y,z
-x,-y,z
-x,y,z
x,-y,z
loop_
_atom_site_type_symbol
_atom_site_label
_atom_site_fract_x
_atom_site_fract_y
_atom_site_fract_z
Si Si1 0.811852 0.597266 0.164930
Si Si2 0.310418 0.898192 0.889298
Si Si3 0.816023 0.181306 0.454440
Si Si4 0.309752 0.777103 0.083862
Si Si5 0.687486 0.095611 0.267568
Si Si6 0.811328 0.788685 0.692914
Si Si7 0.810407 0.404484 0.627284
Si Si8 0.316509 0.635492 0.397374
O O1 0.761618 0.500000 0.128165
O O2 0.746850 0.677330 0.095425
O O3 0.756958 0.607315 0.286471
O O4 0.000000 0.601703 0.163536
O O5 0.500000 0.902106 0.896539
O O6 0.264592 0.847718 0.782656
O O7 0.253385 0.000000 0.893484
O O8 0.255040 0.835218 0.984836
O O9 0.776733 0.102054 0.377719
O O10 0.781227 0.170389 0.577332
O O11 0.710377 0.260328 0.409778
O O12 0.000000 0.206680 0.446428
O O13 0.500000 0.776798 0.083162
O O14 0.257625 0.828952 0.188622
O O15 0.500000 0.105094 0.285105
O O16 0.711708 0.000000 0.217189
O O17 0.755855 0.686137 0.683237
O O18 0.000000 0.787332 0.709354
O O19 0.757218 0.500000 0.669786
O O20 0.761793 0.400421 0.504312
O O21 0.000000 0.402166 0.631462
O O22 0.500000 0.613421 0.396972
#
# Coordination Sequence:
#
# PCOD9337593 Si02
#       8
#     4   4   4   4   4   4   4   4
#     4  11  23  37  55  82 117 155 192 232 280 337
#     4  10  22  41  64  87 111 145 190 239 292 347
#     4  10  20  35  54  79 116 156 192 235 286 338
#     4  10  21  39  61  84 113 148 189 240 289 338
#     4  10  20  34  55  84 115 148 185 229 289 354
#     4   9  20  37  57  83 114 149 191 238 285 334
#     4   9  18  34  55  80 114 155 194 233 282 339
#     4  11  20  31  51  81 116 154 194 235 280 333
#
# _framework density 19.538392999999999
#
# number of rings (size 3 to 8) (size 9 to 14) (size 15 to 20)
#    0.000    2.000    1.250    3.375    0.000    8.250 
#    0.000    3.125    0.000    4.500    0.000    0.000 
#    0.000    0.000    0.000    0.000    0.000    0.000 
#
# Total GULP energy -178511.945202 kJ/mol
# GULP energy per Si atom -5578.498288 kJ/mol
# Density = 1.949392 g / cm^3
# Si number density = 19.538393 Si / 1000 Ang^3
#
#
#
# Elastic Constant Matrix: (Units=GPa)
#
#
# Indices 1 2 3 4 5 6 
#
# 1 14.8119 22.4911 19.6075 0.0000 0.0000 0.0000
# 2 22.4911 163.5475 74.2263 0.0000 0.0000 0.0000
# 3 19.6075 74.2263 99.7171 0.0000 0.0000 0.0000
# 4 0.0000 0.0000 0.0000 9.3484 0.0000 0.0000
# 5 0.0000 0.0000 0.0000 0.0000 48.8605 0.0000
# 6 0.0000 0.0000 0.0000 0.0000 0.0000 25.1683
#
#
#
# Elastic Compliance Matrix: (Units=1/GPa)
#
#
# Indices 1 2 3 4 5 6 
#
# 1 0.096332 -0.007024 -0.013714 0.000000 0.000000 0.000000
# 2 -0.007024 0.009746 -0.005874 0.000000 0.000000 0.000000
# 3 -0.013714 -0.005874 0.017097 0.000000 0.000000 0.000000
# 4 0.000000 0.000000 0.000000 0.106971 0.000000 0.000000
# 5 0.000000 0.000000 0.000000 0.000000 0.020466 0.000000
# 6 0.000000 0.000000 0.000000 0.000000 0.000000 0.039733
#
#
# Mechanical properties :
#
#
# Convention : Reuss Voigt Hill
#
# Bulk Modulus (GPa) = 14.29523 56.74736 35.52130
# Shear Modulus (GPa) = 13.62827 27.45888 20.54357
#
# Velocity S-wave (km/s) = 2.64391 3.75291 3.24612
# Velocity P-wave (km/s) = 4.08077 6.91998 5.68062
#
# Compressibility (1/GPa) = 0.06995339
#
# Stress axis : x y z
#
# Youngs Moduli (GPa) = 10.38074 102.60545 58.48970
#
# Poissons Ratio (x) = 0.72067 0.80211
# Poissons Ratio (y) = 0.07291 0.34355
# Poissons Ratio (z) = 0.14236 0.60266
#
# Static dielectric constant tensor:
#      x y z
#    x 1.635750 0.000000 0.000000 
#    y 0.000000 1.755680 0.000000 
#    z 0.000000 0.000000 1.663590 
# 
# From -- ./inp_files/4247.got.cif
#   From: 2010.05.17/outbox.cif.g08.bks.cpg/sg25_3_cif.got.tgz:4247.got - 2010.06.04 01:04:00.
