data_PCOD9337968
_publ_section_title
;
Structure prediction by ZEFSAII (Michael W. Deem and Ramdas Pophale) SiO2 
 PCOD9337968
Probable space group: P M C 21
;
_chemical_formula_sum "Si O2"
_cell_formula_units_Z 24
_cell_length_a 14.082263
_cell_length_b 16.497176
_cell_length_c 5.244330
_cell_angle_alpha 90.000000
_cell_angle_beta 90.000000
_cell_angle_gamma 90.000000
_cell_volume 1218.350008
_symmetry_space_group_name_H-M "P M C 21"
_symmetry_group_IT_number 26
_symmetry_cell_setting 'orthorhombic'
loop_
_space_group_symop_operation_xyz
x,y,z
-x,-y,1/2+z
-x,y,z
x,-y,1/2+z
loop_
_atom_site_type_symbol
_atom_site_label
_atom_site_fract_x
_atom_site_fract_y
_atom_site_fract_z
Si Si1 0.500000 0.315341 0.446190
Si Si2 0.295672 0.716108 0.788292
Si Si3 0.000000 0.808924 0.374874
Si Si4 0.196130 0.027778 0.834554
Si Si5 0.500000 0.572812 0.450845
Si Si6 0.000000 0.076499 0.373456
Si Si7 0.201757 0.781211 0.292046
Si Si8 0.290761 0.535575 0.557157
O O1 0.599416 0.269596 0.406540
O O2 0.500000 0.367506 0.707005
O O3 0.500000 0.372843 0.201268
O O4 0.272349 0.762351 0.525506
O O5 0.284874 0.622471 0.696449
O O6 0.228564 0.741797 0.022644
O O7 0.000000 0.867840 0.621333
O O8 0.904400 0.756943 0.375917
O O9 0.000000 0.863992 0.116756
O O10 0.094505 0.979879 0.872005
O O11 0.245263 0.981608 0.605189
O O12 0.193259 0.121656 0.767433
O O13 0.402324 0.523645 0.479150
O O14 0.250341 0.526265 0.270018
#
# Coordination Sequence:
#
# PCOD9337968 Si02
#       8
#     2   4   2   4   2   2   4   4
#     4  10  20  39  58  78 118 163 185 240 281 343
#     4  11  24  39  57  86 120 155 208 235 290 352
#     4  12  23  36  60  86 130 151 184 235 318 360
#     4  12  20  33  53  83 118 156 184 226 293 379
#     4  10  18  31  56  90 116 139 179 228 303 373
#     4  12  19  36  54  88 122 149 180 229 312 416
#     4  12  23  37  55  88 122 159 190 244 289 374
#     4  11  20  34  56  84 115 151 183 238 295 352
#
# _framework density 19.698771000000001
#
# number of rings (size 3 to 8) (size 9 to 14) (size 15 to 20)
#    0.000    0.667    3.333    8.500    0.000    0.000 
#    0.000    0.000    0.000    0.000    0.000   23.333 
#    0.000    0.000    0.000    0.000    0.000    0.000 
#
# Total GULP energy -133758.690159 kJ/mol
# GULP energy per Si atom -5573.278757 kJ/mol
# Density = 1.965394 g / cm^3
# Si number density = 19.698771 Si / 1000 Ang^3
#
#
#
# Elastic Constant Matrix: (Units=GPa)
#
#
# Indices 1 2 3 4 5 6 
#
# 1 36.1705 21.8640 15.4027 0.0000 0.0000 0.0000
# 2 21.8640 60.4523 36.5535 0.0000 0.0000 0.0000
# 3 15.4027 36.5535 184.2803 0.0000 0.0000 0.0000
# 4 0.0000 0.0000 0.0000 53.0213 0.0000 0.0000
# 5 0.0000 0.0000 0.0000 0.0000 18.1010 0.0000
# 6 0.0000 0.0000 0.0000 0.0000 0.0000 26.9710
#
#
#
# Elastic Compliance Matrix: (Units=1/GPa)
#
#
# Indices 1 2 3 4 5 6 
#
# 1 0.035419 -0.012522 -0.000477 0.000000 0.000000 0.000000
# 2 -0.012522 0.023223 -0.003560 0.000000 0.000000 0.000000
# 3 -0.000477 -0.003560 0.006172 0.000000 0.000000 0.000000
# 4 0.000000 0.000000 0.000000 0.018860 0.000000 0.000000
# 5 0.000000 0.000000 0.000000 0.000000 0.055245 0.000000
# 6 0.000000 0.000000 0.000000 0.000000 0.000000 0.037077
#
#
# Mechanical properties :
#
#
# Convention : Reuss Voigt Hill
#
# Bulk Modulus (GPa) = 31.54778 47.61593 39.58185
# Shear Modulus (GPa) = 22.76034 33.42419 28.09226
#
# Velocity S-wave (km/s) = 3.40283 4.12365 3.78046
# Velocity P-wave (km/s) = 5.61150 6.84815 6.26043
#
# Compressibility (1/GPa) = 0.03169795
#
# Stress axis : x y z
#
# Youngs Moduli (GPa) = 28.23347 43.06008 162.00914
#
# Poissons Ratio (x) = 0.53919 0.07721
# Poissons Ratio (y) = 0.35354 0.57674
# Poissons Ratio (z) = 0.01346 0.15329
#
# Static dielectric constant tensor:
#      x y z
#    x 1.766020 0.000000 0.000000 
#    y 0.000000 1.726590 0.000000 
#    z 0.000000 0.000000 1.802620 
# 
# From -- ./inp_files/591.got.cif
#   From: 2010.05.17/outbox.cif.g08.bks.cpg/sg26_1_cif.got.tgz:591.got - 2010.06.04 01:07:29.
