data_PCOD9337439
_publ_section_title
;
Structure prediction by ZEFSAII (Michael W. Deem and Ramdas Pophale) SiO2 
 PCOD9337439
Probable space group: P M M 2
;
_chemical_formula_sum "Si O2"
_cell_formula_units_Z 32
_cell_length_a 16.070781
_cell_length_b 9.987422
_cell_length_c 11.778914
_cell_angle_alpha 90.000000
_cell_angle_beta 90.000000
_cell_angle_gamma 90.000000
_cell_volume 1890.582504
_symmetry_space_group_name_H-M "P M M 2"
_symmetry_group_IT_number 25
_symmetry_cell_setting 'orthorhombic'
loop_
_space_group_symop_operation_xyz
x,y,z
-x,-y,z
-x,y,z
x,-y,z
loop_
_atom_site_type_symbol
_atom_site_label
_atom_site_fract_x
_atom_site_fract_y
_atom_site_fract_z
Si Si1 0.742496 0.341716 0.816930
Si Si2 0.132948 0.654046 0.223340
Si Si3 0.315450 0.352478 0.330053
Si Si4 0.599030 0.852383 0.177793
Si Si5 0.401029 0.838503 0.918921
Si Si6 0.905400 0.846745 0.427440
Si Si7 0.094470 0.338370 0.960837
Si Si8 0.784615 0.346969 0.552741
O O1 0.727955 0.500000 0.845486
O O2 0.663489 0.250114 0.848050
O O3 0.827063 0.296523 0.882989
O O4 0.758217 0.334082 0.682275
O O5 0.103067 0.500000 0.241955
O O6 0.230555 0.652065 0.255640
O O7 0.097078 0.762008 0.310673
O O8 0.114530 0.689986 0.093159
O O9 0.352268 0.500000 0.318201
O O10 0.373224 0.242225 0.277532
O O11 0.288914 0.332029 0.460322
O O12 0.500000 0.862023 0.177464
O O13 0.635690 0.000000 0.193978
O O14 0.620326 0.806348 0.050599
O O15 0.500000 0.810524 0.899634
O O16 0.390603 0.000000 0.903872
O O17 0.850772 0.763502 0.515879
O O18 0.000000 0.850957 0.467181
O O19 0.876097 0.000000 0.411079
O O20 0.091879 0.500000 0.950315
O O21 0.000000 0.289940 0.933337
O O22 0.816958 0.500000 0.535262
#
# Coordination Sequence:
#
# PCOD9337439 Si02
#       8
#     4   4   4   4   4   4   4   4
#     4  10  20  35  55  77 101 133 176 220 254 291
#     4   9  17  30  49  72  99 130 162 200 252 310
#     4   9  17  30  48  71  96 124 163 206 248 295
#     4   9  18  32  50  74 102 129 158 193 240 304
#     4   9  19  36  56  78 105 135 165 201 252 312
#     4  10  20  32  48  72  99 127 165 212 253 292
#     4   9  17  29  48  76 106 134 167 209 256 306
#     4   9  20  36  51  69  96 132 171 207 247 298
#
# _framework density 16.925999000000001
#
# number of rings (size 3 to 8) (size 9 to 14) (size 15 to 20)
#    0.000    2.750    0.000    3.000    0.000    6.500 
#    0.000    3.750    0.000    4.875    0.000    0.000 
#    0.000    0.000    0.000    0.000    0.000    0.000 
#
# Total GULP energy -178163.553664 kJ/mol
# GULP energy per Si atom -5567.611052 kJ/mol
# Density = 1.688747 g / cm^3
# Si number density = 16.925999 Si / 1000 Ang^3
#
#
#
# Elastic Constant Matrix: (Units=GPa)
#
#
# Indices 1 2 3 4 5 6 
#
# 1 48.3300 32.5232 47.5650 0.0000 0.0000 0.0000
# 2 32.5232 82.2727 56.7563 0.0000 0.0000 0.0000
# 3 47.5650 56.7563 93.0664 0.0000 0.0000 0.0000
# 4 0.0000 0.0000 0.0000 2.3730 0.0000 0.0000
# 5 0.0000 0.0000 0.0000 0.0000 4.1695 0.0000
# 6 0.0000 0.0000 0.0000 0.0000 0.0000 29.9654
#
#
#
# Elastic Compliance Matrix: (Units=1/GPa)
#
#
# Indices 1 2 3 4 5 6 
#
# 1 0.042086 -0.003105 -0.019616 0.000000 0.000000 0.000000
# 2 -0.003105 0.021211 -0.011349 0.000000 0.000000 0.000000
# 3 -0.019616 -0.011349 0.027692 0.000000 0.000000 0.000000
# 4 0.000000 0.000000 0.000000 0.421408 0.000000 0.000000
# 5 0.000000 0.000000 0.000000 0.000000 0.239836 0.000000
# 6 0.000000 0.000000 0.000000 0.000000 0.000000 0.033372
#
#
# Mechanical properties :
#
#
# Convention : Reuss Voigt Hill
#
# Bulk Modulus (GPa) = 43.76476 55.26200 49.51338
# Shear Modulus (GPa) = 5.80478 13.08989 9.44733
#
# Velocity S-wave (km/s) = 1.85390 2.78395 2.36509
# Velocity P-wave (km/s) = 5.52225 6.56155 6.06421
#
# Compressibility (1/GPa) = 0.02284944
#
# Stress axis : x y z
#
# Youngs Moduli (GPa) = 23.76080 47.14543 36.11198
#
# Poissons Ratio (x) = 0.14637 0.70838
# Poissons Ratio (y) = 0.07377 0.40983
# Poissons Ratio (z) = 0.46610 0.53504
#
# Static dielectric constant tensor:
#      x y z
#    x 1.586570 0.000000 0.000000 
#    y 0.000000 1.584180 0.000000 
#    z 0.000000 0.000000 1.556920 
# 
# From -- ./inp_files/5034.got.cif
#   From: 2010.05.17/outbox.cif.g08.bks.cpg/sg25_3_cif.got.tgz:5034.got - 2010.06.04 01:04:00.
