data_PCOD9337688
_publ_section_title
;
Structure prediction by ZEFSAII (Michael W. Deem and Ramdas Pophale) SiO2 
 PCOD9337688
Probable space group: P M M 2
;
_chemical_formula_sum "Si O2"
_cell_formula_units_Z 24
_cell_length_a 7.486981
_cell_length_b 9.866644
_cell_length_c 15.669757
_cell_angle_alpha 90.000000
_cell_angle_beta 90.000000
_cell_angle_gamma 90.000000
_cell_volume 1157.546514
_symmetry_space_group_name_H-M "P M M 2"
_symmetry_group_IT_number 25
_symmetry_cell_setting 'orthorhombic'
loop_
_space_group_symop_operation_xyz
x,y,z
-x,-y,z
-x,y,z
x,-y,z
loop_
_atom_site_type_symbol
_atom_site_label
_atom_site_fract_x
_atom_site_fract_y
_atom_site_fract_z
Si Si1 0.784933 0.152623 0.623380
Si Si2 0.713842 0.153535 0.319722
Si Si3 0.711850 0.347608 0.467624
Si Si4 0.218776 0.655709 0.971484
Si Si5 0.213972 0.846007 0.124642
Si Si6 0.217646 0.845685 0.817543
O O1 0.733644 0.263568 0.554470
O O2 0.724999 0.181986 0.720262
O O3 0.000000 0.148827 0.625343
O O4 0.723383 0.000000 0.599936
O O5 0.500000 0.146646 0.330261
O O6 0.785299 0.257864 0.389560
O O7 0.748205 0.194403 0.222054
O O8 0.783659 0.000000 0.331635
O O9 0.500000 0.359310 0.452947
O O10 0.784907 0.500000 0.472583
O O11 0.276632 0.500000 0.972405
O O12 0.276091 0.737215 0.887143
O O13 0.000000 0.654954 0.971625
O O14 0.278506 0.740389 0.054225
O O15 0.000000 0.852359 0.115330
O O16 0.282370 0.000000 0.111983
O O17 0.000000 0.844393 0.817726
O O18 0.270660 0.000000 0.839866
#
# Coordination Sequence:
#
# PCOD9337688 Si02
#       6
#     4   4   4   4   4   4
#     4   9  18  32  51  75  99 124 159 202 243 282
#     4   9  18  33  51  68  88 119 158 196 234 279
#     4  10  21  35  50  70  97 129 162 195 237 291
#     4   9  16  25  40  65  95 124 152 183 223 273
#     4   9  17  29  46  68  92 118 150 190 233 273
#     4   8  14  26  44  66  93 123 153 187 228 273
#
# _framework density 20.733506999999999
#
# number of rings (size 3 to 8) (size 9 to 14) (size 15 to 20)
#    0.000    3.000    0.000    2.000    0.000    5.333 
#    0.000    3.333    0.000    1.000    0.000    2.333 
#    0.000    0.000    0.000    0.000    0.000    0.000 
#
# Total GULP energy -133950.320097 kJ/mol
# GULP energy per Si atom -5581.263337 kJ/mol
# Density = 2.068632 g / cm^3
# Si number density = 20.733507 Si / 1000 Ang^3
#
#
#
# Elastic Constant Matrix: (Units=GPa)
#
#
# Indices 1 2 3 4 5 6 
#
# 1 56.9542 6.5180 -0.7090 0.0000 0.0000 0.0000
# 2 6.5180 196.7848 159.2680 0.0000 0.0000 0.0000
# 3 -0.7090 159.2680 177.7112 0.0000 0.0000 0.0000
# 4 0.0000 0.0000 0.0000 -107.8238 0.0000 0.0000
# 5 0.0000 0.0000 0.0000 0.0000 29.4066 0.0000
# 6 0.0000 0.0000 0.0000 0.0000 0.0000 4.6719
#
#
#
# Elastic Compliance Matrix: (Units=1/GPa)
#
#
# Indices 1 2 3 4 5 6 
#
# 1 0.017856 -0.002363 0.002189 0.000000 0.000000 0.000000
# 2 -0.002363 0.018816 -0.016872 0.000000 0.000000 0.000000
# 3 0.002189 -0.016872 0.020757 0.000000 0.000000 0.000000
# 4 0.000000 0.000000 0.000000 -0.009274 0.000000 0.000000
# 5 0.000000 0.000000 0.000000 0.000000 0.034006 0.000000
# 6 0.000000 0.000000 0.000000 0.000000 0.000000 0.214048
#
#
# Mechanical properties :
#
#
# Convention : Reuss Voigt Hill
#
# Bulk Modulus (GPa) = 42.85276 84.62269 63.73772
# Shear Modulus (GPa) = 14.78945 3.00914 8.89929
#
# Velocity S-wave (km/s) = 2.67369 1.20602 2.07402
# Velocity P-wave (km/s) = 5.49952 6.54541 6.04513
#
# Compressibility (1/GPa) = 0.02333572
#
# Stress axis : x y z
#
# Youngs Moduli (GPa) = 56.00454 53.14740 48.17625
#
# Poissons Ratio (x) = 0.12561 -0.10547
# Poissons Ratio (y) = 0.13236 0.81284
# Poissons Ratio (z) = -0.12261 0.89672
#
# Static dielectric constant tensor:
#      x y z
#    x 1.788930 0.000000 0.000000 
#    y 0.000000 1.723560 0.000000 
#    z 0.000000 0.000000 1.707750 
# 
# From -- ./inp_files/3914.got.cif
#   From: 2010.05.17/outbox.cif.g08.bks.cpg/sg25_2_cif.got.tgz:3914.got - 2010.06.04 01:04:00.
