data_PCOD9337368
_publ_section_title
;
Structure prediction by ZEFSAII (Michael W. Deem and Ramdas Pophale) SiO2 
 PCOD9337368
Probable space group: P M M 2
;
_chemical_formula_sum "Si O2"
_cell_formula_units_Z 28
_cell_length_a 7.483256
_cell_length_b 9.688651
_cell_length_c 18.810021
_cell_angle_alpha 90.000000
_cell_angle_beta 90.000000
_cell_angle_gamma 90.000000
_cell_volume 1363.776477
_symmetry_space_group_name_H-M "P M M 2"
_symmetry_group_IT_number 25
_symmetry_cell_setting 'orthorhombic'
loop_
_space_group_symop_operation_xyz
x,y,z
-x,-y,z
-x,y,z
x,-y,z
loop_
_atom_site_type_symbol
_atom_site_label
_atom_site_fract_x
_atom_site_fract_y
_atom_site_fract_z
Si Si1 0.780931 0.841464 0.265610
Si Si2 0.715195 0.658998 0.707239
Si Si3 0.788915 0.342639 0.396349
Si Si4 0.212483 0.844756 0.843435
Si Si5 0.218166 0.341656 0.972325
Si Si6 0.217635 0.658356 0.133148
Si Si7 0.714505 0.339418 0.552139
O O1 0.719197 0.755142 0.334267
O O2 0.723901 0.762145 0.194267
O O3 0.000000 0.841914 0.265925
O O4 0.723656 0.000000 0.267309
O O5 0.500000 0.652953 0.704837
O O6 0.777541 0.500000 0.717284
O O7 0.763033 0.756464 0.772155
O O8 0.775978 0.712766 0.629343
O O9 0.714817 0.500000 0.394633
O O10 0.768643 0.281609 0.475761
O O11 0.000000 0.355145 0.383687
O O12 0.283191 0.760396 0.911258
O O13 0.000000 0.855471 0.854329
O O14 0.284358 0.000000 0.837359
O O15 0.271674 0.500000 0.957725
O O16 0.000000 0.340453 0.971723
O O17 0.273259 0.305640 0.052762
O O18 0.271823 0.500000 0.147990
O O19 0.000000 0.658944 0.133431
O O20 0.500000 0.336394 0.552639
O O21 0.772286 0.500000 0.550752
#
# Coordination Sequence:
#
# PCOD9337368 Si02
#       7
#     4   4   4   4   4   4   4
#     4   9  16  24  35  55  85 118 147 176 214 258
#     4   9  18  33  52  71  90 116 153 194 233 275
#     4   9  16  26  42  64  88 113 142 176 215 260
#     4  10  20  31  44  67  98 127 154 186 227 275
#     4   8  14  25  41  61  86 117 151 186 224 264
#     4   8  13  22  37  57  82 113 148 183 218 257
#     4   8  15  29  48  68  87 108 141 185 225 261
#
# _framework density 20.531223000000001
#
# number of rings (size 3 to 8) (size 9 to 14) (size 15 to 20)
#    0.000    3.286    0.000    2.571    0.000    4.000 
#    0.000    5.000    0.000    3.000    0.000    1.000 
#    0.000    3.429    0.000    0.000    0.000    0.000 
#
# Total GULP energy -156097.334169 kJ/mol
# GULP energy per Si atom -5574.904792 kJ/mol
# Density = 2.048449 g / cm^3
# Si number density = 20.531223 Si / 1000 Ang^3
#
#
#
# Elastic Constant Matrix: (Units=GPa)
#
#
# Indices 1 2 3 4 5 6 
#
# 1 54.5972 6.1509 2.4319 0.0000 0.0000 0.0000
# 2 6.1509 135.0043 136.8856 0.0000 0.0000 0.0000
# 3 2.4319 136.8856 226.4893 0.0000 0.0000 0.0000
# 4 0.0000 0.0000 0.0000 -7.0827 0.0000 0.0000
# 5 0.0000 0.0000 0.0000 0.0000 49.1916 0.0000
# 6 0.0000 0.0000 0.0000 0.0000 0.0000 0.1788
#
#
#
# Elastic Compliance Matrix: (Units=1/GPa)
#
#
# Indices 1 2 3 4 5 6 
#
# 1 0.018467 -0.001654 0.000801 0.000000 0.000000 0.000000
# 2 -0.001654 0.019278 -0.011634 0.000000 0.000000 0.000000
# 3 0.000801 -0.011634 0.011438 0.000000 0.000000 0.000000
# 4 0.000000 0.000000 0.000000 -0.141188 0.000000 0.000000
# 5 0.000000 0.000000 0.000000 0.000000 0.020329 0.000000
# 6 0.000000 0.000000 0.000000 0.000000 0.000000 5.593828
#
#
# Mechanical properties :
#
#
# Convention : Reuss Voigt Hill
#
# Bulk Modulus (GPa) = 41.30475 78.55863 59.93169
# Shear Modulus (GPa) = 0.90006 26.49902 13.69954
#
# Velocity S-wave (km/s) = 0.66283 3.59649 2.58593
# Velocity P-wave (km/s) = 4.55494 7.45603 6.17818
#
# Compressibility (1/GPa) = 0.02421029
#
# Stress axis : x y z
#
# Youngs Moduli (GPa) = 54.15188 51.87184 87.42966
#
# Poissons Ratio (x) = 0.08578 -0.07005
# Poissons Ratio (y) = 0.08955 1.01713
# Poissons Ratio (z) = -0.04339 0.60346
#
# Static dielectric constant tensor:
#      x y z
#    x 1.788430 0.000000 0.000000 
#    y 0.000000 1.695500 0.000000 
#    z 0.000000 0.000000 1.737340 
# 
# From -- ./inp_files/6334.got.cif
#   From: 2010.05.17/outbox.cif.g08.bks.cpg/sg25_4_cif.got.tgz:6334.got - 2010.06.04 01:04:00.
