data_PCOD9337365
_publ_section_title
;
Structure prediction by ZEFSAII (Michael W. Deem and Ramdas Pophale) SiO2 
 PCOD9337365
Probable space group: P M M 2
;
_chemical_formula_sum "Si O2"
_cell_formula_units_Z 32
_cell_length_a 7.442165
_cell_length_b 9.671281
_cell_length_c 21.700189
_cell_angle_alpha 90.000000
_cell_angle_beta 90.000000
_cell_angle_gamma 90.000000
_cell_volume 1561.876940
_symmetry_space_group_name_H-M "P M M 2"
_symmetry_group_IT_number 25
_symmetry_cell_setting 'orthorhombic'
loop_
_space_group_symop_operation_xyz
x,y,z
-x,-y,z
-x,y,z
x,-y,z
loop_
_atom_site_type_symbol
_atom_site_label
_atom_site_fract_x
_atom_site_fract_y
_atom_site_fract_z
Si Si1 0.711585 0.331813 0.911620
Si Si2 0.786515 0.657996 0.178864
Si Si3 0.779871 0.841138 0.293065
Si Si4 0.279652 0.660229 0.776673
Si Si5 0.218872 0.658764 0.408057
Si Si6 0.713064 0.844717 0.663575
Si Si7 0.783923 0.343514 0.547006
Si Si8 0.283842 0.340730 0.043564
O O1 0.500000 0.296950 0.910643
O O2 0.724123 0.500000 0.913073
O O3 0.782927 0.291046 0.844558
O O4 0.783013 0.281954 0.978007
O O5 0.713889 0.500000 0.181105
O O6 0.718696 0.754334 0.233608
O O7 0.759035 0.719423 0.110382
O O8 0.000000 0.647113 0.187671
O O9 0.722062 0.762728 0.355124
O O10 0.000000 0.841056 0.292834
O O11 0.722673 0.000000 0.291293
O O12 0.500000 0.660700 0.777678
O O13 0.227217 0.500000 0.767738
O O14 0.216334 0.754603 0.720676
O O15 0.271718 0.500000 0.394803
O O16 0.277017 0.693156 0.477759
O O17 0.000000 0.660566 0.407901
O O18 0.500000 0.855201 0.674054
O O19 0.735521 0.763000 0.599931
O O20 0.786422 0.000000 0.660707
O O21 0.720895 0.500000 0.561346
O O22 0.000000 0.348393 0.544911
O O23 0.500000 0.344607 0.039219
O O24 0.218570 0.500000 0.046837
#
# Coordination Sequence:
#
# PCOD9337365 Si02
#       8
#     4   4   4   4   4   4   4   4
#     4   7  10  18  35  59  81 101 133 177 217 249
#     4   9  16  25  39  60  84 108 134 168 209 247
#     4   9  16  25  39  60  84 110 140 171 203 244
#     4   8  13  23  41  62  82 108 144 183 219 254
#     4   8  14  26  44  65  87 108 134 174 218 253
#     4  10  20  31  44  66  95 124 152 182 218 262
#     4   9  18  32  50  71  92 115 146 184 225 268
#     4   8  13  22  38  60  83 106 135 172 211 251
#
# _framework density 20.488171000000001
#
# number of rings (size 3 to 8) (size 9 to 14) (size 15 to 20)
#    0.000    3.500    0.000    3.000    0.000    3.000 
#    0.000    1.250    0.000    2.625    0.000    7.000 
#    0.000    0.000    0.000    0.000    0.000    0.000 
#
# Total GULP energy -178294.662071 kJ/mol
# GULP energy per Si atom -5571.708190 kJ/mol
# Density = 2.044154 g / cm^3
# Si number density = 20.488171 Si / 1000 Ang^3
#
#
#
# Elastic Constant Matrix: (Units=GPa)
#
#
# Indices 1 2 3 4 5 6 
#
# 1 61.2515 5.3177 3.3281 0.0000 0.0000 0.0000
# 2 5.3177 110.4949 124.9321 0.0000 0.0000 0.0000
# 3 3.3281 124.9321 232.4303 0.0000 0.0000 0.0000
# 4 0.0000 0.0000 0.0000 -5.5290 0.0000 0.0000
# 5 0.0000 0.0000 0.0000 0.0000 16.7900 0.0000
# 6 0.0000 0.0000 0.0000 0.0000 0.0000 1.7334
#
#
#
# Elastic Compliance Matrix: (Units=1/GPa)
#
#
# Indices 1 2 3 4 5 6 
#
# 1 0.016416 -0.001337 0.000483 0.000000 0.000000 0.000000
# 2 -0.001337 0.023180 -0.012440 0.000000 0.000000 0.000000
# 3 0.000483 -0.012440 0.010982 0.000000 0.000000 0.000000
# 4 0.000000 0.000000 0.000000 -0.180865 0.000000 0.000000
# 5 0.000000 0.000000 0.000000 0.000000 0.059559 0.000000
# 6 0.000000 0.000000 0.000000 0.000000 0.000000 0.576887
#
#
# Mechanical properties :
#
#
# Convention : Reuss Voigt Hill
#
# Bulk Modulus (GPa) = 41.68180 74.59251 58.13715
# Shear Modulus (GPa) = 9.24653 20.63882 14.94267
#
# Velocity S-wave (km/s) = 2.12671 3.17733 2.70354
# Velocity P-wave (km/s) = 5.13994 7.06733 6.17925
#
# Compressibility (1/GPa) = 0.02399129
#
# Stress axis : x y z
#
# Youngs Moduli (GPa) = 60.91658 43.13994 91.05639
#
# Poissons Ratio (x) = 0.05766 -0.04401
# Poissons Ratio (y) = 0.08142 1.13278
# Poissons Ratio (z) = -0.02944 0.53668
#
# Static dielectric constant tensor:
#      x y z
#    x 1.811320 0.000000 0.000000 
#    y 0.000000 1.684490 0.000000 
#    z 0.000000 0.000000 1.756650 
# 
# From -- ./inp_files/6372.got.cif
#   From: 2010.05.17/outbox.cif.g08.bks.cpg/sg25_4_cif.got.tgz:6372.got - 2010.06.04 01:04:00.
