data_PCOD9338898
_publ_section_title
;
Structure prediction by ZEFSAII (Michael W. Deem and Ramdas Pophale) SiO2 
 PCOD9338898
Probable space group: P C C 2
;
_chemical_formula_sum "Si O2"
_cell_formula_units_Z 24
_cell_length_a 7.114300
_cell_length_b 12.028895
_cell_length_c 11.750185
_cell_angle_alpha 90.000000
_cell_angle_beta 90.000000
_cell_angle_gamma 90.000000
_cell_volume 1005.547552
_symmetry_space_group_name_H-M "P C C 2"
_symmetry_group_IT_number 27
_symmetry_cell_setting 'orthorhombic'
loop_
_space_group_symop_operation_xyz
x,y,z
-x,-y,z
-x,y,1/2+z
x,-y,1/2+z
loop_
_atom_site_type_symbol
_atom_site_label
_atom_site_fract_x
_atom_site_fract_y
_atom_site_fract_z
Si Si1 0.715117 0.148218 0.353830
Si Si2 0.352035 0.227829 0.094878
Si Si3 0.736445 0.721179 0.484255
Si Si4 0.268052 0.101895 0.315358
Si Si5 0.148902 0.353909 0.714730
Si Si6 0.724950 0.415011 0.768810
O O1 0.747560 0.203983 0.476059
O O2 0.490534 0.125776 0.339237
O O3 0.786978 0.236937 0.264169
O O4 0.789371 0.024137 0.334945
O O5 0.260610 0.142749 0.185456
O O6 0.345037 0.345066 0.160277
O O7 0.570441 0.220563 0.057523
O O8 0.829057 0.816362 0.406038
O O9 0.859190 0.657595 0.577941
O O10 0.656865 0.634512 0.389475
O O11 0.289096 0.453486 0.750865
O O12 0.947628 0.386021 0.764986
#
# Coordination Sequence:
#
# PCOD9338898 Si02
#       6
#     4   4   4   4   4   4
#     4  10  21  35  67  91 125 172 215 267 336 390
#     4  10  21  42  62  94 130 165 219 282 326 390
#     4  10  22  43  64  93 130 170 222 274 338 398
#     4   9  20  39  62  97 126 163 221 276 324 389
#     4  11  24  42  67  93 130 183 218 271 351 401
#     4  10  26  43  64  96 135 173 226 277 338 415
#
# _framework density 23.867592999999999
#
# number of rings (size 3 to 8) (size 9 to 14) (size 15 to 20)
#    0.000    2.000    1.667    0.000    7.000    3.333 
#    3.000    3.333    0.000    0.000    0.000    0.000 
#    0.000    0.000    0.000    0.000    0.000    0.000 
#
# Total GULP energy -134051.096632 kJ/mol
# GULP energy per Si atom -5585.462360 kJ/mol
# Density = 2.381327 g / cm^3
# Si number density = 23.867593 Si / 1000 Ang^3
#
#
#
# Elastic Constant Matrix: (Units=GPa)
#
#
# Indices 1 2 3 4 5 6 
#
# 1 46.2720 12.7933 20.5838 0.0000 0.0000 0.0000
# 2 12.7933 164.4998 54.3174 0.0000 0.0000 0.0000
# 3 20.5838 54.3174 162.5157 0.0000 0.0000 0.0000
# 4 0.0000 0.0000 0.0000 15.4434 0.0000 0.0000
# 5 0.0000 0.0000 0.0000 0.0000 19.8856 0.0000
# 6 0.0000 0.0000 0.0000 0.0000 0.0000 22.6904
#
#
#
# Elastic Compliance Matrix: (Units=1/GPa)
#
#
# Indices 1 2 3 4 5 6 
#
# 1 0.023028 -0.000931 -0.002606 0.000000 0.000000 0.000000
# 2 -0.000931 0.006871 -0.002179 0.000000 0.000000 0.000000
# 3 -0.002606 -0.002179 0.007211 0.000000 0.000000 0.000000
# 4 0.000000 0.000000 0.000000 0.064753 0.000000 0.000000
# 5 0.000000 0.000000 0.000000 0.000000 0.050288 0.000000
# 6 0.000000 0.000000 0.000000 0.000000 0.000000 0.044071
#
#
# Mechanical properties :
#
#
# Convention : Reuss Voigt Hill
#
# Bulk Modulus (GPa) = 38.94008 60.96406 49.95207
# Shear Modulus (GPa) = 23.12551 30.64340 26.88445
#
# Velocity S-wave (km/s) = 3.11611 3.58703 3.35983
# Velocity P-wave (km/s) = 5.41270 6.53864 6.00213
#
# Compressibility (1/GPa) = 0.02568048
#
# Stress axis : x y z
#
# Youngs Moduli (GPa) = 43.42595 145.54455 138.66920
#
# Poissons Ratio (x) = 0.13543 0.36132
# Poissons Ratio (y) = 0.04041 0.30210
# Poissons Ratio (z) = 0.11315 0.31708
#
# Static dielectric constant tensor:
#      x y z
#    x 2.066770 0.000000 0.000000 
#    y 0.000000 1.919250 0.000000 
#    z 0.000000 0.000000 1.880860 
# 
# From -- ./inp_files/2341.got.cif
#   From: 2010.05.17/outbox.cif.g08.bks.cpg/sg27_2_cif.got.tgz:2341.got - 2010.06.04 01:11:05.
