data_PCOD9338745
_publ_section_title
;
Structure prediction by ZEFSAII (Michael W. Deem and Ramdas Pophale) SiO2 
 PCOD9338745
Probable space group: P C C 2
;
_chemical_formula_sum "Si O2"
_cell_formula_units_Z 26
_cell_length_a 15.920308
_cell_length_b 5.195276
_cell_length_c 16.276738
_cell_angle_alpha 90.000000
_cell_angle_beta 90.000000
_cell_angle_gamma 90.000000
_cell_volume 1346.255414
_symmetry_space_group_name_H-M "P C C 2"
_symmetry_group_IT_number 27
_symmetry_cell_setting 'orthorhombic'
loop_
_space_group_symop_operation_xyz
x,y,z
-x,-y,z
-x,y,1/2+z
x,-y,1/2+z
loop_
_atom_site_type_symbol
_atom_site_label
_atom_site_fract_x
_atom_site_fract_y
_atom_site_fract_z
Si Si1 0.584006 0.100127 0.792470
Si Si2 0.238172 0.084278 0.359094
Si Si3 0.500000 0.500000 0.166878
Si Si4 0.801645 0.991422 0.546654
Si Si5 0.901733 0.499491 0.604146
Si Si6 0.661095 0.737916 0.654628
Si Si7 0.805946 0.569127 0.760315
O O1 0.662873 0.153885 0.849761
O O2 0.550549 0.314630 0.729478
O O3 0.500000 0.000000 0.836749
O O4 0.620851 0.885359 0.731493
O O5 0.219889 0.996770 0.451025
O O6 0.194223 0.344246 0.327108
O O7 0.208629 0.848207 0.300749
O O8 0.423210 0.620366 0.114711
O O9 0.859245 0.741334 0.559835
O O10 0.717251 0.925963 0.598802
O O11 0.852575 0.240163 0.577829
O O12 0.885571 0.547230 0.701144
O O13 0.000000 0.500000 0.585848
O O14 0.727311 0.539495 0.695972
#
# Coordination Sequence:
#
# PCOD9338745 Si02
#       7
#     4   4   2   4   4   4   4
#     4   9  18  32  54  82 115 162 213 255 288 339
#     4  11  21  39  58  91 123 162 193 247 309 366
#     4  10  16  32  56  86 114 162 220 260 278 340
#     4  11  24  39  64  92 130 161 193 248 325 372
#     4  11  23  44  67  91 117 157 206 253 302 376
#     4   9  19  33  57  84 116 163 210 248 293 357
#     4  10  20  38  65  85 115 157 209 243 293 362
#
# _framework density 19.312829000000001
#
# number of rings (size 3 to 8) (size 9 to 14) (size 15 to 20)
#    0.000    1.846    1.538    4.154    2.154    0.000 
#    0.000    7.692    0.000    0.000    0.000    0.000 
#    0.000    0.000    0.000    0.000    0.000    0.000 
#
# Total GULP energy -144847.884065 kJ/mol
# GULP energy per Si atom -5571.072464 kJ/mol
# Density = 1.926887 g / cm^3
# Si number density = 19.312829 Si / 1000 Ang^3
#
#
#
# Elastic Constant Matrix: (Units=GPa)
#
#
# Indices 1 2 3 4 5 6 
#
# 1 111.0364 36.0672 22.8845 0.0000 0.0000 0.0000
# 2 36.0672 94.5915 4.9603 0.0000 0.0000 0.0000
# 3 22.8845 4.9603 59.7392 0.0000 0.0000 0.0000
# 4 0.0000 0.0000 0.0000 17.1551 0.0000 0.0000
# 5 0.0000 0.0000 0.0000 0.0000 15.0531 0.0000
# 6 0.0000 0.0000 0.0000 0.0000 0.0000 22.7770
#
#
#
# Elastic Compliance Matrix: (Units=1/GPa)
#
#
# Indices 1 2 3 4 5 6 
#
# 1 0.011127 -0.004037 -0.003927 0.000000 0.000000 0.000000
# 2 -0.004037 0.012082 0.000543 0.000000 0.000000 0.000000
# 3 -0.003927 0.000543 0.018199 0.000000 0.000000 0.000000
# 4 0.000000 0.000000 0.000000 0.058292 0.000000 0.000000
# 5 0.000000 0.000000 0.000000 0.000000 0.066431 0.000000
# 6 0.000000 0.000000 0.000000 0.000000 0.000000 0.043904
#
#
# Mechanical properties :
#
#
# Convention : Reuss Voigt Hill
#
# Bulk Modulus (GPa) = 37.64145 43.68788 40.66467
# Shear Modulus (GPa) = 21.39207 24.42738 22.90973
#
# Velocity S-wave (km/s) = 3.33176 3.56030 3.44793
# Velocity P-wave (km/s) = 5.85949 6.29057 6.07885
#
# Compressibility (1/GPa) = 0.02656646
#
# Stress axis : x y z
#
# Youngs Moduli (GPa) = 89.87469 82.76488 54.94892
#
# Poissons Ratio (x) = 0.33409 0.21579
# Poissons Ratio (y) = 0.36279 -0.02984
# Poissons Ratio (z) = 0.35295 -0.04495
#
# Static dielectric constant tensor:
#      x y z
#    x 1.769490 0.000000 0.000000 
#    y 0.000000 1.770680 0.000000 
#    z 0.000000 0.000000 1.668820 
# 
# From -- ./inp_files/3715.got.cif
#   From: 2010.05.17/outbox.cif.g08.bks.cpg/sg27_2_cif.got.tgz:3715.got - 2010.06.04 01:11:05.
