data_PCOD9338527
_publ_section_title
;
Structure prediction by ZEFSAII (Michael W. Deem and Ramdas Pophale) SiO2 
 PCOD9338527
Probable space group: P M C 21
;
_chemical_formula_sum "Si O2"
_cell_formula_units_Z 24
_cell_length_a 8.729165
_cell_length_b 10.231922
_cell_length_c 14.177855
_cell_angle_alpha 90.000000
_cell_angle_beta 90.000000
_cell_angle_gamma 90.000000
_cell_volume 1266.311217
_symmetry_space_group_name_H-M "P M C 21"
_symmetry_group_IT_number 26
_symmetry_cell_setting 'orthorhombic'
loop_
_space_group_symop_operation_xyz
x,y,z
-x,-y,1/2+z
-x,y,z
x,-y,1/2+z
loop_
_atom_site_type_symbol
_atom_site_label
_atom_site_fract_x
_atom_site_fract_y
_atom_site_fract_z
Si Si1 0.320143 0.115737 0.143410
Si Si2 0.682643 0.367625 0.651260
Si Si3 0.182377 0.374081 0.058224
Si Si4 0.319806 0.025246 0.358181
Si Si5 0.315087 0.282531 0.861936
Si Si6 0.178932 0.127760 0.539494
O O1 0.500000 0.105141 0.118009
O O2 0.260395 0.258481 0.118227
O O3 0.304032 0.078268 0.252613
O O4 0.224445 0.010730 0.084706
O O5 0.500000 0.387928 0.648688
O O6 0.765352 0.489265 0.602692
O O7 0.727344 0.343356 0.760550
O O8 0.725252 0.238112 0.593028
O O9 0.000000 0.361875 0.061103
O O10 0.239892 0.353796 0.950857
O O11 0.500000 0.031888 0.384035
O O12 0.224827 0.111949 0.430732
O O13 0.274345 0.872090 0.362311
O O14 0.500000 0.289840 0.870624
O O15 0.000000 0.154683 0.550828
#
# Coordination Sequence:
#
# PCOD9338527 Si02
#       6
#     4   4   4   4   4   4
#     4  11  22  41  66  92 123 167 217 260 303 370
#     4  11  24  45  69  92 124 171 218 262 311 377
#     4  12  26  42  63  97 134 168 205 262 327 380
#     4  10  21  39  66  95 125 167 218 263 306 370
#     4  10  21  41  68  93 121 168 219 259 310 377
#     4  12  24  38  62  97 131 163 203 262 321 372
#
# _framework density 18.952687000000001
#
# number of rings (size 3 to 8) (size 9 to 14) (size 15 to 20)
#    0.000    1.000    3.333    4.000    0.000    4.000 
#    0.000    1.667    0.000    0.000    0.000    0.000 
#    0.000    0.000    0.000    0.000    0.000    0.000 
#
# Total GULP energy -134222.914039 kJ/mol
# GULP energy per Si atom -5592.621418 kJ/mol
# Density = 1.890955 g / cm^3
# Si number density = 18.952687 Si / 1000 Ang^3
#
#
#
# Elastic Constant Matrix: (Units=GPa)
#
#
# Indices 1 2 3 4 5 6 
#
# 1 45.8235 -0.2100 40.2394 0.0000 0.0000 0.0000
# 2 -0.2100 66.1444 28.2638 0.0000 0.0000 0.0000
# 3 40.2394 28.2638 107.8025 0.0000 0.0000 0.0000
# 4 0.0000 0.0000 0.0000 29.4891 0.0000 0.0000
# 5 0.0000 0.0000 0.0000 0.0000 18.6307 0.0000
# 6 0.0000 0.0000 0.0000 0.0000 0.0000 26.3283
#
#
#
# Elastic Compliance Matrix: (Units=1/GPa)
#
#
# Indices 1 2 3 4 5 6 
#
# 1 0.034683 0.006354 -0.014612 0.000000 0.000000 0.000000
# 2 0.006354 0.018190 -0.007141 0.000000 0.000000 0.000000
# 3 -0.014612 -0.007141 0.016603 0.000000 0.000000 0.000000
# 4 0.000000 0.000000 0.000000 0.033911 0.000000 0.000000
# 5 0.000000 0.000000 0.000000 0.000000 0.053675 0.000000
# 6 0.000000 0.000000 0.000000 0.000000 0.000000 0.037982
#
#
# Mechanical properties :
#
#
# Convention : Reuss Voigt Hill
#
# Bulk Modulus (GPa) = 25.85447 39.59522 32.72484
# Shear Modulus (GPa) = 20.94377 24.98810 22.96594
#
# Velocity S-wave (km/s) = 3.32784 3.63498 3.48480
# Velocity P-wave (km/s) = 5.33266 6.20922 5.78756
#
# Compressibility (1/GPa) = 0.03867803
#
# Stress axis : x y z
#
# Youngs Moduli (GPa) = 28.83218 54.97559 60.23122
#
# Poissons Ratio (x) = -0.34931 0.88011
# Poissons Ratio (y) = -0.18320 0.43010
# Poissons Ratio (z) = 0.42130 0.39257
#
# Static dielectric constant tensor:
#      x y z
#    x 1.632690 0.000000 0.000000 
#    y 0.000000 1.614460 0.000000 
#    z 0.000000 0.000000 1.651590 
# 
# From -- ./inp_files/2819.got.cif
#   From: 2010.05.17/outbox.cif.g08.bks.cpg/sg26_2_cif.got.tgz:2819.got - 2010.06.04 01:07:29.
