data_PCOD9338001
_publ_section_title
;
Structure prediction by ZEFSAII (Michael W. Deem and Ramdas Pophale) SiO2 
 PCOD9338001
Probable space group: P M C 21
;
_chemical_formula_sum "Si O2"
_cell_formula_units_Z 32
_cell_length_a 8.931164
_cell_length_b 11.830607
_cell_length_c 16.485084
_cell_angle_alpha 90.000000
_cell_angle_beta 90.000000
_cell_angle_gamma 90.000000
_cell_volume 1741.831966
_symmetry_space_group_name_H-M "P M C 21"
_symmetry_group_IT_number 26
_symmetry_cell_setting 'orthorhombic'
loop_
_space_group_symop_operation_xyz
x,y,z
-x,-y,1/2+z
-x,y,z
x,-y,1/2+z
loop_
_atom_site_type_symbol
_atom_site_label
_atom_site_fract_x
_atom_site_fract_y
_atom_site_fract_z
Si Si1 0.821901 0.282107 0.964770
Si Si2 0.820107 0.059029 0.592573
Si Si3 0.821607 0.120964 0.409297
Si Si4 0.330921 0.763411 0.207649
Si Si5 0.817813 0.195166 0.137025
Si Si6 0.667846 0.089792 0.870004
Si Si7 0.319743 0.429959 0.823166
Si Si8 0.179952 0.674488 0.801424
O O1 0.778124 0.160056 0.927758
O O2 0.743195 0.372740 0.905764
O O3 0.000000 0.298916 0.960657
O O4 0.775373 0.271696 0.058911
O O5 0.776496 0.087198 0.500137
O O6 0.764434 0.164292 0.645382
O O7 0.000000 0.055437 0.595354
O O8 0.766036 0.935040 0.622969
O O9 0.789249 0.246527 0.379285
O O10 0.000000 0.104012 0.400692
O O11 0.734506 0.032491 0.353828
O O12 0.500000 0.745968 0.176111
O O13 0.339799 0.841362 0.287332
O O14 0.271101 0.646466 0.245541
O O15 0.773816 0.255047 0.220993
O O16 0.000000 0.190149 0.137281
O O17 0.500000 0.084720 0.904711
O O18 0.500000 0.424269 0.826263
O O19 0.261415 0.555782 0.810857
O O20 0.000000 0.656635 0.796643
#
# Coordination Sequence:
#
# PCOD9338001 Si02
#       8
#     4   4   4   4   4   4   4   4
#     4  10  18  34  60  84 111 146 187 237 283 328
#     4  10  19  34  56  86 116 143 180 228 281 337
#     4  10  20  35  56  82 115 149 186 230 280 338
#     4   9  20  36  53  77 108 143 184 229 273 330
#     4   9  18  34  57  86 116 142 182 234 282 337
#     4  10  19  32  53  82 115 147 183 224 278 341
#     4  10  22  41  58  78 112 148 193 238 281 344
#     4  10  21  38  59  83 111 150 195 238 284 335
#
# _framework density 18.371462000000001
#
# number of rings (size 3 to 8) (size 9 to 14) (size 15 to 20)
#    0.000    2.250    1.250    2.625    0.000    5.000 
#    2.250    1.875    0.000    0.000    0.000    0.000 
#    0.000    0.000    0.000    0.000    0.000    0.000 
#
# Total GULP energy -178362.101754 kJ/mol
# GULP energy per Si atom -5573.815680 kJ/mol
# Density = 1.832965 g / cm^3
# Si number density = 18.371462 Si / 1000 Ang^3
#
#
#
# Elastic Constant Matrix: (Units=GPa)
#
#
# Indices 1 2 3 4 5 6 
#
# 1 20.3081 38.5441 23.0603 0.0000 0.0000 0.0000
# 2 38.5441 152.2570 55.5175 0.0000 0.0000 0.0000
# 3 23.0603 55.5175 74.7360 0.0000 0.0000 0.0000
# 4 0.0000 0.0000 0.0000 22.6168 0.0000 0.0000
# 5 0.0000 0.0000 0.0000 0.0000 3.9351 0.0000
# 6 0.0000 0.0000 0.0000 0.0000 0.0000 4.7380
#
#
#
# Elastic Compliance Matrix: (Units=1/GPa)
#
#
# Indices 1 2 3 4 5 6 
#
# 1 0.110349 -0.021285 -0.018237 0.000000 0.000000 0.000000
# 2 -0.021285 0.013113 -0.003174 0.000000 0.000000 0.000000
# 3 -0.018237 -0.003174 0.021365 0.000000 0.000000 0.000000
# 4 0.000000 0.000000 0.000000 0.044215 0.000000 0.000000
# 5 0.000000 0.000000 0.000000 0.000000 0.254120 0.000000
# 6 0.000000 0.000000 0.000000 0.000000 0.000000 0.211058
#
#
# Mechanical properties :
#
#
# Convention : Reuss Voigt Hill
#
# Bulk Modulus (GPa) = 16.82497 53.50498 35.16497
# Shear Modulus (GPa) = 6.58393 14.93662 10.76027
#
# Velocity S-wave (km/s) = 1.89514 2.85447 2.42276
# Velocity P-wave (km/s) = 3.73722 6.32860 5.19702
#
# Compressibility (1/GPa) = 0.05943546
#
# Stress axis : x y z
#
# Youngs Moduli (GPa) = 9.06218 76.25795 46.80524
#
# Poissons Ratio (x) = 1.62316 0.85360
# Poissons Ratio (y) = 0.19289 0.14854
# Poissons Ratio (z) = 0.16527 0.24201
#
# Static dielectric constant tensor:
#      x y z
#    x 1.632300 0.000000 0.000000 
#    y 0.000000 1.636630 0.000000 
#    z 0.000000 0.000000 1.661510 
# 
# From -- ./inp_files/5048.got.cif
#   From: 2010.05.17/outbox.cif.g08.bks.cpg/sg26_3_cif.got.tgz:5048.got - 2010.06.04 01:07:29.
