data_PCOD9338138
_publ_section_title
;
Structure prediction by ZEFSAII (Michael W. Deem and Ramdas Pophale) SiO2 
 PCOD9338138
Probable space group: P M C 21
;
_chemical_formula_sum "Si O2"
_cell_formula_units_Z 28
_cell_length_a 18.899910
_cell_length_b 8.614149
_cell_length_c 7.780750
_cell_angle_alpha 90.000000
_cell_angle_beta 90.000000
_cell_angle_gamma 90.000000
_cell_volume 1266.757771
_symmetry_space_group_name_H-M "P M C 21"
_symmetry_group_IT_number 26
_symmetry_cell_setting 'orthorhombic'
loop_
_space_group_symop_operation_xyz
x,y,z
-x,-y,1/2+z
-x,y,z
x,-y,1/2+z
loop_
_atom_site_type_symbol
_atom_site_label
_atom_site_fract_x
_atom_site_fract_y
_atom_site_fract_z
Si Si1 0.210373 0.246045 0.208950
Si Si2 0.654683 0.747075 0.194081
Si Si3 0.500000 0.742489 0.180423
Si Si4 0.500000 0.590887 0.559464
Si Si5 0.211493 0.071709 0.572749
Si Si6 0.345172 0.591167 0.571186
Si Si7 0.079456 0.430316 0.328018
Si Si8 0.920880 0.748983 0.191944
O O1 0.212004 0.151684 0.387254
O O2 0.141989 0.354117 0.219712
O O3 0.208398 0.113021 0.065717
O O4 0.280655 0.344602 0.180914
O O5 0.576568 0.821290 0.166583
O O6 0.717151 0.867192 0.162719
O O7 0.658931 0.669636 0.383425
O O8 0.661178 0.595737 0.071076
O O9 0.500000 0.663627 0.369925
O O10 0.500000 0.596105 0.051733
O O11 0.424080 0.630472 0.641493
O O12 0.141762 0.129734 0.673578
O O13 0.080588 0.349458 0.513737
O O14 0.090666 0.615260 0.332666
O O15 0.000000 0.405952 0.256618
O O16 0.000000 0.816380 0.212119
#
# Coordination Sequence:
#
# PCOD9338138 Si02
#       8
#     4   4   2   2   4   4   4   4
#     4  11  23  37  53  76 107 142 179 218 263 313
#     4  10  19  34  56  81 108 138 175 217 262 311
#     4   8  16  30  51  78 105 134 170 214 260 308
#     4   8  16  30  51  78 105 134 170 214 260 308
#     4  11  23  37  53  76 107 142 179 218 263 313
#     4  10  19  34  56  81 108 138 175 217 262 311
#     4   9  19  36  57  80 105 134 171 214 259 309
#     4   9  19  36  57  80 105 134 171 214 259 309
#
# _framework density 22.103674000000002
#
# number of rings (size 3 to 8) (size 9 to 14) (size 15 to 20)
#    0.000    2.286    0.000    2.571    0.000    6.286 
#    0.000    0.714    0.000    0.000    0.000    0.000 
#    0.000    0.000    0.000    0.000    0.000    0.000 
#
# Total GULP energy -156380.205298 kJ/mol
# GULP energy per Si atom -5585.007332 kJ/mol
# Density = 2.205336 g / cm^3
# Si number density = 22.103674 Si / 1000 Ang^3
#
#
#
# Elastic Constant Matrix: (Units=GPa)
#
#
# Indices 1 2 3 4 5 6 
#
# 1 142.1221 35.9496 28.0580 0.0000 0.0000 0.0000
# 2 35.9496 29.6508 -8.9400 0.0000 0.0000 0.0000
# 3 28.0580 -8.9400 51.3175 0.0000 0.0000 0.0000
# 4 0.0000 0.0000 0.0000 26.7328 0.0000 0.0000
# 5 0.0000 0.0000 0.0000 0.0000 25.9468 0.0000
# 6 0.0000 0.0000 0.0000 0.0000 0.0000 0.3164
#
#
#
# Elastic Compliance Matrix: (Units=1/GPa)
#
#
# Indices 1 2 3 4 5 6 
#
# 1 0.014833 -0.021562 -0.011866 0.000000 0.000000 0.000000
# 2 -0.021562 0.066938 0.023450 0.000000 0.000000 0.000000
# 3 -0.011866 0.023450 0.030060 0.000000 0.000000 0.000000
# 4 0.000000 0.000000 0.000000 0.037407 0.000000 0.000000
# 5 0.000000 0.000000 0.000000 0.000000 0.038540 0.000000
# 6 0.000000 0.000000 0.000000 0.000000 0.000000 3.160374
#
#
# Mechanical properties :
#
#
# Convention : Reuss Voigt Hill
#
# Bulk Modulus (GPa) = 10.88428 37.02508 23.95468
# Shear Modulus (GPa) = 1.47114 21.80072 11.63593
#
# Velocity S-wave (km/s) = 0.81670 3.14394 2.29688
# Velocity P-wave (km/s) = 2.41334 5.47413 4.23027
#
# Compressibility (1/GPa) = 0.09187562
#
# Stress axis : x y z
#
# Youngs Moduli (GPa) = 67.41819 14.93914 33.26727
#
# Poissons Ratio (x) = 0.32211 0.39475
# Poissons Ratio (y) = 1.45364 -0.78012
# Poissons Ratio (z) = 0.79999 -0.35032
#
# Static dielectric constant tensor:
#      x y z
#    x 1.819300 0.000000 0.000000 
#    y 0.000000 1.752620 0.000000 
#    z 0.000000 0.000000 1.874000 
# 
# From -- ./inp_files/2414.got.cif
#   From: 2010.05.17/outbox.cif.g08.bks.cpg/sg26_2_cif.got.tgz:2414.got - 2010.06.04 01:07:29.
