data_PCOD9338838
_publ_section_title
;
Structure prediction by ZEFSAII (Michael W. Deem and Ramdas Pophale) SiO2 
 PCOD9338838
Probable space group: P C C 2
;
_chemical_formula_sum "Si O2"
_cell_formula_units_Z 22
_cell_length_a 7.576605
_cell_length_b 15.698022
_cell_length_c 8.844751
_cell_angle_alpha 90.000000
_cell_angle_beta 90.000000
_cell_angle_gamma 90.000000
_cell_volume 1051.974447
_symmetry_space_group_name_H-M "P C C 2"
_symmetry_group_IT_number 27
_symmetry_cell_setting 'orthorhombic'
loop_
_space_group_symop_operation_xyz
x,y,z
-x,-y,z
-x,y,1/2+z
x,-y,1/2+z
loop_
_atom_site_type_symbol
_atom_site_label
_atom_site_fract_x
_atom_site_fract_y
_atom_site_fract_z
Si Si1 0.361749 0.256546 0.897340
Si Si2 0.000000 0.500000 0.020825
Si Si3 0.775709 0.073964 0.416327
Si Si4 0.913723 0.377966 0.273388
Si Si5 0.162721 0.906956 0.773223
Si Si6 0.720556 0.716728 0.250854
O O1 0.351600 0.153682 0.881707
O O2 0.209584 0.296982 0.792670
O O3 0.543042 0.298653 0.843678
O O4 0.320656 0.277371 0.071986
O O5 0.108132 0.564661 0.125721
O O6 0.116970 0.441030 0.913370
O O7 0.817075 0.075020 0.594826
O O8 0.959736 0.089114 0.327207
O O9 0.727601 0.978958 0.363181
O O10 0.117031 0.346836 0.276279
O O11 0.221763 0.811086 0.801596
#
# Coordination Sequence:
#
# PCOD9338838 Si02
#       6
#     4   2   4   4   4   4
#     4  11  25  41  66  97 132 173 213 262 318 377
#     4  10  24  42  78  90 126 168 204 262 330 394
#     4  10  20  36  59  92 127 172 216 260 310 364
#     4  11  22  48  67  98 126 166 211 260 326 387
#     4  10  20  36  59  92 127 172 216 260 310 364
#     4  11  25  41  66  97 132 173 213 262 318 377
#
# _framework density 20.913056000000001
#
# number of rings (size 3 to 8) (size 9 to 14) (size 15 to 20)
#    0.000    1.455    3.636    2.182    2.545    3.636 
#    0.000    9.091    0.000    0.000    0.000    0.000 
#    0.000    0.000    0.000    0.000    0.000    0.000 
#
# Total GULP energy -122871.480977 kJ/mol
# GULP energy per Si atom -5585.067317 kJ/mol
# Density = 2.086546 g / cm^3
# Si number density = 20.913056 Si / 1000 Ang^3
#
#
#
# Elastic Constant Matrix: (Units=GPa)
#
#
# Indices 1 2 3 4 5 6 
#
# 1 85.9028 19.6258 8.4204 0.0000 0.0000 0.0000
# 2 19.6258 94.4602 27.9459 0.0000 0.0000 0.0000
# 3 8.4204 27.9459 65.2591 0.0000 0.0000 0.0000
# 4 0.0000 0.0000 0.0000 29.6557 0.0000 0.0000
# 5 0.0000 0.0000 0.0000 0.0000 13.8952 0.0000
# 6 0.0000 0.0000 0.0000 0.0000 0.0000 8.2783
#
#
#
# Elastic Compliance Matrix: (Units=1/GPa)
#
#
# Indices 1 2 3 4 5 6 
#
# 1 0.012239 -0.002377 -0.000561 0.000000 0.000000 0.000000
# 2 -0.002377 0.012584 -0.005082 0.000000 0.000000 0.000000
# 3 -0.000561 -0.005082 0.017572 0.000000 0.000000 0.000000
# 4 0.000000 0.000000 0.000000 0.033720 0.000000 0.000000
# 5 0.000000 0.000000 0.000000 0.000000 0.071967 0.000000
# 6 0.000000 0.000000 0.000000 0.000000 0.000000 0.120798
#
#
# Mechanical properties :
#
#
# Convention : Reuss Voigt Hill
#
# Bulk Modulus (GPa) = 37.94401 39.73404 38.83902
# Shear Modulus (GPa) = 17.02383 23.00785 20.01584
#
# Velocity S-wave (km/s) = 2.85621 3.32047 3.09706
# Velocity P-wave (km/s) = 5.39077 5.80875 5.60366
#
# Compressibility (1/GPa) = 0.02635462
#
# Stress axis : x y z
#
# Youngs Moduli (GPa) = 81.70525 79.46719 56.90781
#
# Poissons Ratio (x) = 0.18888 0.03195
# Poissons Ratio (y) = 0.19420 0.28921
# Poissons Ratio (z) = 0.04587 0.40386
#
# Static dielectric constant tensor:
#      x y z
#    x 1.750820 0.000000 0.000000 
#    y 0.000000 1.776340 0.000000 
#    z 0.000000 0.000000 1.743170 
# 
# From -- ./inp_files/1141.got.cif
#   From: 2010.05.17/outbox.cif.g08.bks.cpg/sg27_1_cif.got.tgz:1141.got - 2010.06.04 01:11:05.
