data_PCOD9338458
_publ_section_title
;
Structure prediction by ZEFSAII (Michael W. Deem and Ramdas Pophale) SiO2 
 PCOD9338458
Probable space group: P M C 21
;
_chemical_formula_sum "Si O2"
_cell_formula_units_Z 24
_cell_length_a 8.531125
_cell_length_b 15.799433
_cell_length_c 9.512559
_cell_angle_alpha 90.000000
_cell_angle_beta 90.000000
_cell_angle_gamma 90.000000
_cell_volume 1282.168699
_symmetry_space_group_name_H-M "P M C 21"
_symmetry_group_IT_number 26
_symmetry_cell_setting 'orthorhombic'
loop_
_space_group_symop_operation_xyz
x,y,z
-x,-y,1/2+z
-x,y,z
x,-y,1/2+z
loop_
_atom_site_type_symbol
_atom_site_label
_atom_site_fract_x
_atom_site_fract_y
_atom_site_fract_z
Si Si1 0.188159 0.237699 0.920050
Si Si2 0.315413 0.580411 0.414870
Si Si3 0.811378 0.758451 0.093614
Si Si4 0.309932 0.921234 0.594338
Si Si5 0.688900 0.914702 0.918271
Si Si6 0.186238 0.433075 0.604704
O O1 0.259468 0.327457 0.966731
O O2 0.235684 0.224818 0.756156
O O3 0.000000 0.243253 0.924469
O O4 0.247049 0.160925 0.014395
O O5 0.500000 0.582820 0.386450
O O6 0.274473 0.506651 0.523196
O O7 0.223863 0.563200 0.269947
O O8 0.765443 0.661854 0.058156
O O9 0.000000 0.762143 0.088705
O O10 0.743473 0.828364 0.990625
O O11 0.500000 0.919099 0.591937
O O12 0.258373 0.922569 0.756777
O O13 0.257934 0.005349 0.511369
O O14 0.500000 0.915859 0.917706
O O15 0.000000 0.442036 0.582904
#
# Coordination Sequence:
#
# PCOD9338458 Si02
#       6
#     4   4   4   4   4   4
#     4  10  21  38  58  81 110 148 187 229 282 338
#     4  11  22  37  59  87 115 148 191 239 284 335
#     4   9  20  37  57  80 108 143 185 226 272 330
#     4  10  21  37  56  82 111 144 185 229 277 333
#     4  10  21  36  57  82 111 145 183 228 280 332
#     4  10  21  39  59  82 115 154 191 233 285 342
#
# _framework density 18.718285000000002
#
# number of rings (size 3 to 8) (size 9 to 14) (size 15 to 20)
#    0.000    2.000    0.000    4.500    0.000    8.000 
#    0.000    3.333    0.000    0.000    0.000    0.000 
#    0.000    0.000    0.000    0.000    0.000    0.000 
#
# Total GULP energy -134060.371915 kJ/mol
# GULP energy per Si atom -5585.848830 kJ/mol
# Density = 1.867568 g / cm^3
# Si number density = 18.718285 Si / 1000 Ang^3
#
#
#
# Elastic Constant Matrix: (Units=GPa)
#
#
# Indices 1 2 3 4 5 6 
#
# 1 24.9491 21.4623 17.6590 0.0000 0.0000 0.0000
# 2 21.4623 231.7115 154.6217 0.0000 0.0000 0.0000
# 3 17.6590 154.6217 157.3003 0.0000 0.0000 0.0000
# 4 0.0000 0.0000 0.0000 40.7213 0.0000 0.0000
# 5 0.0000 0.0000 0.0000 0.0000 71.5370 0.0000
# 6 0.0000 0.0000 0.0000 0.0000 0.0000 34.5327
#
#
#
# Elastic Compliance Matrix: (Units=1/GPa)
#
#
# Indices 1 2 3 4 5 6 
#
# 1 0.043946 -0.002262 -0.002710 0.000000 0.000000 0.000000
# 2 -0.002262 0.012660 -0.012190 0.000000 0.000000 0.000000
# 3 -0.002710 -0.012190 0.018644 0.000000 0.000000 0.000000
# 4 0.000000 0.000000 0.000000 0.024557 0.000000 0.000000
# 5 0.000000 0.000000 0.000000 0.000000 0.013979 0.000000
# 6 0.000000 0.000000 0.000000 0.000000 0.000000 0.028958
#
#
# Mechanical properties :
#
#
# Convention : Reuss Voigt Hill
#
# Bulk Modulus (GPa) = 24.43489 89.04965 56.74227
# Shear Modulus (GPa) = 26.21777 44.03938 35.12857
#
# Velocity S-wave (km/s) = 3.74659 4.85577 4.33679
# Velocity P-wave (km/s) = 5.63899 8.89466 7.44692
#
# Compressibility (1/GPa) = 0.04092510
#
# Stress axis : x y z
#
# Youngs Moduli (GPa) = 22.75538 78.98936 53.63577
#
# Poissons Ratio (x) = 0.17869 0.14534
# Poissons Ratio (y) = 0.05148 0.65384
# Poissons Ratio (z) = 0.06166 0.96291
#
# Static dielectric constant tensor:
#      x y z
#    x 1.586430 0.000000 0.000000 
#    y 0.000000 1.624050 0.000000 
#    z 0.000000 0.000000 1.626600 
# 
# From -- ./inp_files/1409.got.cif
#   From: 2010.05.17/outbox.cif.g08.bks.cpg/sg26_1_cif.got.tgz:1409.got - 2010.06.04 01:07:29.
