data_PCOD9338510
_publ_section_title
;
Structure prediction by ZEFSAII (Michael W. Deem and Ramdas Pophale) SiO2 
 PCOD9338510
Probable space group: P M C 21
;
_chemical_formula_sum "Si O2"
_cell_formula_units_Z 28
_cell_length_a 20.864208
_cell_length_b 4.722491
_cell_length_c 11.198007
_cell_angle_alpha 90.000000
_cell_angle_beta 90.000000
_cell_angle_gamma 90.000000
_cell_volume 1103.351214
_symmetry_space_group_name_H-M "P M C 21"
_symmetry_group_IT_number 26
_symmetry_cell_setting 'orthorhombic'
loop_
_space_group_symop_operation_xyz
x,y,z
-x,-y,1/2+z
-x,y,z
x,-y,1/2+z
loop_
_atom_site_type_symbol
_atom_site_label
_atom_site_fract_x
_atom_site_fract_y
_atom_site_fract_z
Si Si1 0.637095 0.534207 0.030320
Si Si2 0.071711 0.038367 0.692584
Si Si3 0.928289 0.461633 0.032840
Si Si4 0.500000 0.108192 0.696918
Si Si5 0.740189 0.250000 0.862712
Si Si6 0.500000 0.608193 0.528507
Si Si7 0.362905 0.965792 0.695104
Si Si8 0.826913 0.250000 0.362712
O O1 0.567784 0.470683 0.971547
O O2 0.639524 0.857743 0.070695
O O3 0.639524 0.357743 0.154729
O O4 0.695083 0.421931 0.952808
O O5 0.075992 0.865771 0.567834
O O6 0.127748 0.922456 0.773423
O O7 0.000000 0.986073 0.741631
O O8 0.075992 0.365771 0.657589
O O9 0.000000 0.513927 0.983793
O O10 0.872252 0.577543 0.952001
O O11 0.500000 0.430054 0.653397
O O12 0.432216 0.029315 0.753878
O O13 0.500000 0.930055 0.572027
O O14 0.695084 0.078068 0.772615
O O15 0.783394 0.500399 0.805803
O O16 0.783394 0.999602 0.919621
#
# Coordination Sequence:
#
# PCOD9338510 Si02
#       8
#     4   4   4   2   4   2   4   4
#     4  10  21  39  59  82 115 149 192 244 284 334
#     4  10  22  41  65  89 113 148 192 237 285 331
#     4  10  22  41  65  89 113 148 192 237 285 331
#     4   8  16  33  58  81 104 144 190 239 292 325
#     4  12  26  37  57  88 116 160 194 218 288 352
#     4   8  16  33  58  81 104 144 190 239 292 325
#     4  10  21  39  59  82 115 149 192 244 284 334
#     4  12  25  40  58  87 122 152 190 232 278 343
#
# _framework density 25.377231999999999
#
# number of rings (size 3 to 8) (size 9 to 14) (size 15 to 20)
#    0.000    1.714    0.000    3.857    0.000    7.429 
#    0.000    5.714    0.000   12.000    0.000    0.000 
#    0.000    0.000    0.000    0.000    0.000    0.000 
#
# Total GULP energy -156729.624901 kJ/mol
# GULP energy per Si atom -5597.486604 kJ/mol
# Density = 2.531947 g / cm^3
# Si number density = 25.377232 Si / 1000 Ang^3
#
#
#
# Elastic Constant Matrix: (Units=GPa)
#
#
# Indices 1 2 3 4 5 6 
#
# 1 154.5265 22.4515 24.8739 0.0000 0.0000 0.0000
# 2 22.4515 98.8441 -3.8880 0.0000 0.0000 0.0000
# 3 24.8739 -3.8880 27.7013 0.0000 0.0000 0.0000
# 4 0.0000 0.0000 0.0000 30.3894 0.0000 0.0000
# 5 0.0000 0.0000 0.0000 0.0000 -765.0456 0.0000
# 6 0.0000 0.0000 0.0000 0.0000 0.0000 183.8475
#
#
#
# Elastic Compliance Matrix: (Units=1/GPa)
#
#
# Indices 1 2 3 4 5 6 
#
# 1 0.007978 -0.002106 -0.007459 0.000000 0.000000 0.000000
# 2 -0.002106 0.010729 0.003396 0.000000 0.000000 0.000000
# 3 -0.007459 0.003396 0.043274 0.000000 0.000000 0.000000
# 4 0.000000 0.000000 0.000000 0.032906 0.000000 0.000000
# 5 0.000000 0.000000 0.000000 0.000000 -0.001307 0.000000
# 6 0.000000 0.000000 0.000000 0.000000 0.000000 0.005439
#
#
# Mechanical properties :
#
#
# Convention : Reuss Voigt Hill
#
# Bulk Modulus (GPa) = 20.14340 40.88297 30.51318
# Shear Modulus (GPa) = 39.09193 -94.31944 -27.61376
#
# Velocity S-wave (km/s) = 3.92909 -6.10308 -3.30226
# Velocity P-wave (km/s) = 5.34215 5.78951 1.57796
#
# Compressibility (1/GPa) = 0.04964406
#
# Stress axis : x y z
#
# Youngs Moduli (GPa) = 125.34487 93.20721 23.10864
#
# Poissons Ratio (x) = 0.19625 0.17237
# Poissons Ratio (y) = 0.26392 -0.07849
# Poissons Ratio (z) = 0.93497 -0.31657
#
# Static dielectric constant tensor:
#      x y z
#    x 2.029820 0.000000 0.000000 
#    y 0.000000 1.912160 0.000000 
#    z 0.000000 0.000000 1.992840 
# 
# From -- ./inp_files/3708.got.cif
#   From: 2010.05.17/outbox.cif.g08.bks.cpg/sg26_2_cif.got.tgz:3708.got - 2010.06.04 01:07:29.
