data_PCOD9338283
_publ_section_title
;
Structure prediction by ZEFSAII (Michael W. Deem and Ramdas Pophale) SiO2 
 PCOD9338283
Probable space group: P M C 21
;
_chemical_formula_sum "Si O2"
_cell_formula_units_Z 32
_cell_length_a 10.501005
_cell_length_b 11.151060
_cell_length_c 15.554371
_cell_angle_alpha 90.000000
_cell_angle_beta 90.000000
_cell_angle_gamma 90.000000
_cell_volume 1821.375420
_symmetry_space_group_name_H-M "P M C 21"
_symmetry_group_IT_number 26
_symmetry_cell_setting 'orthorhombic'
loop_
_space_group_symop_operation_xyz
x,y,z
-x,-y,1/2+z
-x,y,z
x,-y,1/2+z
loop_
_atom_site_type_symbol
_atom_site_label
_atom_site_fract_x
_atom_site_fract_y
_atom_site_fract_z
Si Si1 0.358317 0.281375 0.708070
Si Si2 0.647290 0.233122 0.418667
Si Si3 0.144641 0.426878 0.800402
Si Si4 0.145644 0.146347 0.099672
Si Si5 0.638269 0.455199 0.544332
Si Si6 0.850438 0.707352 0.777118
Si Si7 0.139993 0.621096 0.502893
Si Si8 0.648553 0.061201 0.583139
O O1 0.500000 0.280207 0.748772
O O2 0.246357 0.331456 0.766514
O O3 0.363529 0.373972 0.628680
O O4 0.335260 0.153858 0.662510
O O5 0.500000 0.219711 0.388381
O O6 0.656193 0.362318 0.465906
O O7 0.752605 0.233134 0.344473
O O8 0.668496 0.135535 0.494308
O O9 0.176718 0.564192 0.774644
O O10 0.000000 0.402284 0.769705
O O11 0.143940 0.414861 0.903439
O O12 0.162665 0.227578 0.185283
O O13 0.156178 0.238367 0.020091
O O14 0.000000 0.098883 0.101658
O O15 0.251098 0.044678 0.092601
O O16 0.500000 0.514099 0.534288
O O17 0.750197 0.548731 0.548886
O O18 0.000000 0.718440 0.803646
O O19 0.000000 0.588876 0.537960
O O20 0.500000 0.022377 0.583528
#
# Coordination Sequence:
#
# PCOD9338283 Si02
#       8
#     4   4   4   4   4   4   4   4
#     4   9  19  35  55  79 106 138 178 225 269 317
#     4   9  18  34  57  82 107 138 179 227 270 319
#     4  10  20  34  54  83 114 143 177 218 272 332
#     4  10  22  38  55  79 111 147 186 229 271 321
#     4   9  17  31  53  80 107 136 173 217 269 323
#     4  10  20  35  55  83 114 142 180 226 275 330
#     4  10  20  35  54  77 111 147 178 218 269 325
#     4   9  20  40  59  77 106 143 187 228 269 325
#
# _framework density 17.569140000000001
#
# number of rings (size 3 to 8) (size 9 to 14) (size 15 to 20)
#    0.000    2.500    1.250    2.250    0.000    4.500 
#    2.250    2.500    0.000    0.000    0.000    0.000 
#    0.000    0.000    0.000    0.000    0.000    0.000 
#
# Total GULP energy -178352.905860 kJ/mol
# GULP energy per Si atom -5573.528308 kJ/mol
# Density = 1.752915 g / cm^3
# Si number density = 17.569140 Si / 1000 Ang^3
#
#
#
# Elastic Constant Matrix: (Units=GPa)
#
#
# Indices 1 2 3 4 5 6 
#
# 1 133.5235 89.1602 33.7114 0.0000 0.0000 0.0000
# 2 89.1602 92.5200 19.4179 0.0000 0.0000 0.0000
# 3 33.7114 19.4179 32.4394 0.0000 0.0000 0.0000
# 4 0.0000 0.0000 0.0000 16.7654 0.0000 0.0000
# 5 0.0000 0.0000 0.0000 0.0000 20.6156 0.0000
# 6 0.0000 0.0000 0.0000 0.0000 0.0000 43.4193
#
#
#
# Elastic Compliance Matrix: (Units=1/GPa)
#
#
# Indices 1 2 3 4 5 6 
#
# 1 0.025208 -0.021495 -0.013330 0.000000 0.000000 0.000000
# 2 -0.021495 0.030690 0.003967 0.000000 0.000000 0.000000
# 3 -0.013330 0.003967 0.042305 0.000000 0.000000 0.000000
# 4 0.000000 0.000000 0.000000 0.059647 0.000000 0.000000
# 5 0.000000 0.000000 0.000000 0.000000 0.048507 0.000000
# 6 0.000000 0.000000 0.000000 0.000000 0.000000 0.023031
#
#
# Mechanical properties :
#
#
# Convention : Reuss Voigt Hill
#
# Bulk Modulus (GPa) = 27.40684 60.34022 43.87353
# Shear Modulus (GPa) = 16.48717 23.90628 20.19672
#
# Velocity S-wave (km/s) = 3.06668 3.69276 3.39419
# Velocity P-wave (km/s) = 5.30779 7.25265 6.35506
#
# Compressibility (1/GPa) = 0.03648725
#
# Stress axis : x y z
#
# Youngs Moduli (GPa) = 39.66992 32.58355 23.63807
#
# Poissons Ratio (x) = 0.70038 0.31509
# Poissons Ratio (y) = 0.85270 -0.09377
# Poissons Ratio (z) = 0.52879 -0.12925
#
# Static dielectric constant tensor:
#      x y z
#    x 1.614080 0.000000 0.000000 
#    y 0.000000 1.576380 0.000000 
#    z 0.000000 0.000000 1.603480 
# 
# From -- ./inp_files/4130.got.cif
#   From: 2010.05.17/outbox.cif.g08.bks.cpg/sg26_3_cif.got.tgz:4130.got - 2010.06.04 01:07:29.
