data_PCOD9338486
_publ_section_title
;
Structure prediction by ZEFSAII (Michael W. Deem and Ramdas Pophale) SiO2 
 PCOD9338486
Probable space group: P M C 21
;
_chemical_formula_sum "Si O2"
_cell_formula_units_Z 32
_cell_length_a 24.267601
_cell_length_b 5.645206
_cell_length_c 10.060982
_cell_angle_alpha 90.000000
_cell_angle_beta 90.000000
_cell_angle_gamma 90.000000
_cell_volume 1378.310334
_symmetry_space_group_name_H-M "P M C 21"
_symmetry_group_IT_number 26
_symmetry_cell_setting 'orthorhombic'
loop_
_space_group_symop_operation_xyz
x,y,z
-x,-y,1/2+z
-x,y,z
x,-y,1/2+z
loop_
_atom_site_type_symbol
_atom_site_label
_atom_site_fract_x
_atom_site_fract_y
_atom_site_fract_z
Si Si1 0.403997 0.460115 0.084470
Si Si2 0.940742 0.294718 0.981839
Si Si3 0.298865 0.752626 0.015424
Si Si4 0.193330 0.237215 0.382150
Si Si5 0.559213 0.244988 0.825268
Si Si6 0.653006 0.927005 0.743991
Si Si7 0.907877 0.794350 0.053725
Si Si8 0.831617 0.263536 0.800102
O O1 0.435923 0.634751 0.181871
O O2 0.393511 0.223194 0.167433
O O3 0.341933 0.552373 0.058429
O O4 0.435013 0.426603 0.946837
O O5 0.938330 0.541970 0.062542
O O6 0.000000 0.300278 0.906773
O O7 0.939843 0.042110 0.057066
O O8 0.882667 0.289727 0.904095
O O9 0.234142 0.706917 0.005106
O O10 0.313132 0.795397 0.858723
O O11 0.311632 0.953377 0.126175
O O12 0.128748 0.216016 0.419553
O O13 0.197022 0.477580 0.294994
O O14 0.205421 0.965463 0.337275
O O15 0.500000 0.120723 0.837918
O O16 0.615910 0.102253 0.832717
O O17 0.862729 0.802307 0.167187
#
# Coordination Sequence:
#
# PCOD9338486 Si02
#       8
#     4   4   4   4   4   4   4   4
#     4  11  23  45  64  96 131 166 220 275 324 403
#     4  10  21  37  59  88 122 163 212 264 321 385
#     4  11  25  42  68  95 130 174 219 279 333 403
#     4  10  24  39  65  94 123 172 212 267 333 388
#     4  11  24  42  67  95 127 172 215 269 337 399
#     4  11  24  44  64  94 133 165 221 275 329 400
#     4  10  21  40  59  89 127 162 213 269 317 398
#     4  10  22  41  60  91 129 160 218 264 322 396
#
# _framework density 23.216832
#
# number of rings (size 3 to 8) (size 9 to 14) (size 15 to 20)
#    0.000    1.500    2.500    1.500    3.500    3.000 
#    0.000    0.000    0.000    0.000    0.000    0.000 
#    0.000    0.000    0.000    0.000    0.000    0.000 
#
# Total GULP energy -178250.104690 kJ/mol
# GULP energy per Si atom -5570.315772 kJ/mol
# Density = 2.316399 g / cm^3
# Si number density = 23.216832 Si / 1000 Ang^3
#
#
#
# Elastic Constant Matrix: (Units=GPa)
#
#
# Indices 1 2 3 4 5 6 
#
# 1 81.1895 0.3132 1.0092 0.0000 0.0000 0.0000
# 2 0.3132 88.6979 3.3704 0.0000 0.0000 0.0000
# 3 1.0092 3.3704 54.5155 0.0000 0.0000 0.0000
# 4 0.0000 0.0000 0.0000 19.4683 0.0000 0.0000
# 5 0.0000 0.0000 0.0000 0.0000 -12.8412 0.0000
# 6 0.0000 0.0000 0.0000 0.0000 0.0000 -11.4160
#
#
#
# Elastic Compliance Matrix: (Units=1/GPa)
#
#
# Indices 1 2 3 4 5 6 
#
# 1 0.012320 -0.000035 -0.000226 0.000000 0.000000 0.000000
# 2 -0.000035 0.011301 -0.000698 0.000000 0.000000 0.000000
# 3 -0.000226 -0.000698 0.018391 0.000000 0.000000 0.000000
# 4 0.000000 0.000000 0.000000 0.051366 0.000000 0.000000
# 5 0.000000 0.000000 0.000000 0.000000 -0.077874 0.000000
# 6 0.000000 0.000000 0.000000 0.000000 0.000000 -0.087597
#
#
# Mechanical properties :
#
#
# Convention : Reuss Voigt Hill
#
# Bulk Modulus (GPa) = 24.94156 25.97650 25.45903
# Shear Modulus (GPa) = -88.01048 13.68955 -37.16046
#
# Velocity S-wave (km/s) = -6.16363 2.43088 -4.00507
# Velocity P-wave (km/s) = 6.31566 4.36942 3.22457
#
# Compressibility (1/GPa) = 0.04009373
#
# Stress axis : x y z
#
# Youngs Moduli (GPa) = 81.17009 88.48879 54.37516
#
# Poissons Ratio (x) = 0.00309 0.01228
# Poissons Ratio (y) = 0.00283 0.03796
# Poissons Ratio (z) = 0.01834 0.06177
#
# Static dielectric constant tensor:
#      x y z
#    x 1.969100 0.000000 0.000000 
#    y 0.000000 1.925910 0.000000 
#    z 0.000000 0.000000 1.875090 
# 
# From -- ./inp_files/3730.got.cif
#   From: 2010.05.17/outbox.cif.g08.bks.cpg/sg26_2_cif.got.tgz:3730.got - 2010.06.04 01:07:29.
