data_PCOD9338475
_publ_section_title
;
Structure prediction by ZEFSAII (Michael W. Deem and Ramdas Pophale) SiO2 
 PCOD9338475
Probable space group: P M C 21
;
_chemical_formula_sum "Si O2"
_cell_formula_units_Z 32
_cell_length_a 13.887012
_cell_length_b 13.683073
_cell_length_c 10.039748
_cell_angle_alpha 90.000000
_cell_angle_beta 90.000000
_cell_angle_gamma 90.000000
_cell_volume 1907.722785
_symmetry_space_group_name_H-M "P M C 21"
_symmetry_group_IT_number 26
_symmetry_cell_setting 'orthorhombic'
loop_
_space_group_symop_operation_xyz
x,y,z
-x,-y,1/2+z
-x,y,z
x,-y,1/2+z
loop_
_atom_site_type_symbol
_atom_site_label
_atom_site_fract_x
_atom_site_fract_y
_atom_site_fract_z
Si Si1 0.113596 0.918693 0.193020
Si Si2 0.206578 0.213356 0.463141
Si Si3 0.790198 0.793594 0.414376
Si Si4 0.887840 0.402889 0.830601
Si Si5 0.112460 0.416775 0.522963
Si Si6 0.884604 0.149542 0.184778
Si Si7 0.614052 0.096652 0.528337
Si Si8 0.386133 0.091357 0.843876
O O1 0.158852 0.879281 0.329096
O O2 0.000000 0.903032 0.199544
O O3 0.131204 0.033090 0.172525
O O4 0.155195 0.854311 0.073717
O O5 0.179709 0.325071 0.491013
O O6 0.162527 0.184645 0.321481
O O7 0.318260 0.184559 0.479362
O O8 0.821161 0.690814 0.352005
O O9 0.831661 0.799020 0.562244
O O10 0.678438 0.819960 0.397916
O O11 0.879355 0.439565 0.679348
O O12 0.000000 0.372587 0.850729
O O13 0.866281 0.489508 0.932987
O O14 0.000000 0.388706 0.497777
O O15 0.000000 0.167477 0.183126
O O16 0.500000 0.116652 0.516186
O O17 0.633903 0.075921 0.685635
O O18 0.636586 0.003431 0.434509
O O19 0.500000 0.109810 0.856623
#
# Coordination Sequence:
#
# PCOD9338475 Si02
#       8
#     4   4   4   4   4   4   4   4
#     4  11  20  34  52  76 112 149 184 218 270 341
#     4  12  22  36  56  80 111 153 188 230 284 334
#     4  12  22  36  56  80 111 153 188 230 284 334
#     4  10  21  37  57  80 108 144 189 237 284 337
#     4  10  21  37  57  80 108 144 189 237 284 337
#     4  11  24  34  50  82 118 151 186 224 270 341
#     4  10  21  37  58  84 113 148 191 236 282 335
#     4  10  21  37  58  84 113 148 191 236 282 335
#
# _framework density 16.773925999999999
#
# number of rings (size 3 to 8) (size 9 to 14) (size 15 to 20)
#    0.000    1.250    2.500    4.500    3.500    2.000 
#    0.000    0.000    0.000    0.750    0.000    0.000 
#    0.000    0.000    0.000    0.000    0.000    0.000 
#
# Total GULP energy -178755.268454 kJ/mol
# GULP energy per Si atom -5586.102139 kJ/mol
# Density = 1.673575 g / cm^3
# Si number density = 16.773926 Si / 1000 Ang^3
#
#
#
# Elastic Constant Matrix: (Units=GPa)
#
#
# Indices 1 2 3 4 5 6 
#
# 1 77.5853 48.7907 35.9217 0.0000 0.0000 0.0000
# 2 48.7907 70.6236 27.9466 0.0000 0.0000 0.0000
# 3 35.9217 27.9466 79.4231 0.0000 0.0000 0.0000
# 4 0.0000 0.0000 0.0000 27.0275 0.0000 0.0000
# 5 0.0000 0.0000 0.0000 0.0000 24.4900 0.0000
# 6 0.0000 0.0000 0.0000 0.0000 0.0000 25.4321
#
#
#
# Elastic Compliance Matrix: (Units=1/GPa)
#
#
# Indices 1 2 3 4 5 6 
#
# 1 0.025100 -0.014927 -0.006100 0.000000 0.000000 0.000000
# 2 -0.014927 0.025327 -0.002161 0.000000 0.000000 0.000000
# 3 -0.006100 -0.002161 0.016110 0.000000 0.000000 0.000000
# 4 0.000000 0.000000 0.000000 0.036999 0.000000 0.000000
# 5 0.000000 0.000000 0.000000 0.000000 0.040833 0.000000
# 6 0.000000 0.000000 0.000000 0.000000 0.000000 0.039320
#
#
# Mechanical properties :
#
#
# Convention : Reuss Voigt Hill
#
# Bulk Modulus (GPa) = 49.59810 50.32777 49.96294
# Shear Modulus (GPa) = 21.11614 23.05479 22.08547
#
# Velocity S-wave (km/s) = 3.55190 3.71137 3.63251
# Velocity P-wave (km/s) = 6.81572 6.95948 6.88798
#
# Compressibility (1/GPa) = 0.02016206
#
# Stress axis : x y z
#
# Youngs Moduli (GPa) = 39.84013 39.48386 62.07307
#
# Poissons Ratio (x) = 0.58937 0.37866
# Poissons Ratio (y) = 0.59469 0.13412
# Poissons Ratio (z) = 0.24303 0.08531
#
# Static dielectric constant tensor:
#      x y z
#    x 1.589040 0.000000 0.000000 
#    y 0.000000 1.531430 0.000000 
#    z 0.000000 0.000000 1.577710 
# 
# From -- ./inp_files/2260.got.cif
#   From: 2010.05.17/outbox.cif.g08.bks.cpg/sg26_2_cif.got.tgz:2260.got - 2010.06.04 01:07:29.
