data_PCOD9338864
_publ_section_title
;
Structure prediction by ZEFSAII (Michael W. Deem and Ramdas Pophale) SiO2 
 PCOD9338864
Probable space group: P C C 2
;
_chemical_formula_sum "Si O2"
_cell_formula_units_Z 24
_cell_length_a 14.024201
_cell_length_b 8.874307
_cell_length_c 8.516596
_cell_angle_alpha 90.000000
_cell_angle_beta 90.000000
_cell_angle_gamma 90.000000
_cell_volume 1059.933510
_symmetry_space_group_name_H-M "P C C 2"
_symmetry_group_IT_number 27
_symmetry_cell_setting 'orthorhombic'
loop_
_space_group_symop_operation_xyz
x,y,z
-x,-y,z
-x,y,1/2+z
x,-y,1/2+z
loop_
_atom_site_type_symbol
_atom_site_label
_atom_site_fract_x
_atom_site_fract_y
_atom_site_fract_z
Si Si1 0.745112 0.668371 0.693080
Si Si2 0.126840 0.146932 0.863504
Si Si3 0.697738 0.940995 0.466937
Si Si4 0.500000 0.000000 0.125371
Si Si5 0.000000 0.000000 0.604442
Si Si6 0.361940 0.530767 0.475355
Si Si7 0.582929 0.730945 0.267038
O O1 0.840229 0.693035 0.794704
O O2 0.728418 0.825377 0.603281
O O3 0.731623 0.543360 0.558571
O O4 0.666299 0.624974 0.822649
O O5 0.082797 0.058555 0.716409
O O6 0.221325 0.061902 0.928741
O O7 0.045517 0.129841 0.995170
O O8 0.672613 0.837004 0.315402
O O9 0.596040 0.005577 0.523362
O O10 0.499585 0.150231 0.230664
O O11 0.422438 0.387535 0.410512
O O12 0.403782 0.633397 0.611567
#
# Coordination Sequence:
#
# PCOD9338864 Si02
#       7
#     4   4   4   2   2   4   4
#     4  10  20  39  64  91 131 174 223 272 338 421
#     4  11  21  42  65 106 134 179 223 297 365 428
#     4  11  23  39  65  98 138 178 223 301 351 413
#     4  12  24  40  64 106 136 184 242 304 352 412
#     4  10  24  38  68 106 138 174 224 290 386 426
#     4   9  21  41  65  94 127 196 225 277 350 432
#     4  10  22  41  64  94 133 180 237 285 345 422
#
# _framework density 22.642931000000001
#
# number of rings (size 3 to 8) (size 9 to 14) (size 15 to 20)
#    0.000    1.667    1.667    2.500    2.333    1.333 
#    0.000   14.167    0.000    6.000    0.000    0.000 
#    0.000    0.000    0.000    0.000    0.000    0.000 
#
# Total GULP energy -134045.576063 kJ/mol
# GULP energy per Si atom -5585.232336 kJ/mol
# Density = 2.259139 g / cm^3
# Si number density = 22.642931 Si / 1000 Ang^3
#
#
#
# Elastic Constant Matrix: (Units=GPa)
#
#
# Indices 1 2 3 4 5 6 
#
# 1 94.5283 26.1871 33.4702 0.0000 0.0000 0.0000
# 2 26.1871 82.9186 36.1592 0.0000 0.0000 0.0000
# 3 33.4702 36.1592 127.2846 0.0000 0.0000 0.0000
# 4 0.0000 0.0000 0.0000 44.9168 0.0000 0.0000
# 5 0.0000 0.0000 0.0000 0.0000 34.4262 0.0000
# 6 0.0000 0.0000 0.0000 0.0000 0.0000 34.5124
#
#
#
# Elastic Compliance Matrix: (Units=1/GPa)
#
#
# Indices 1 2 3 4 5 6 
#
# 1 0.012210 -0.002803 -0.002414 0.000000 0.000000 0.000000
# 2 -0.002803 0.014409 -0.003356 0.000000 0.000000 0.000000
# 3 -0.002414 -0.003356 0.009445 0.000000 0.000000 0.000000
# 4 0.000000 0.000000 0.000000 0.022263 0.000000 0.000000
# 5 0.000000 0.000000 0.000000 0.000000 0.029048 0.000000
# 6 0.000000 0.000000 0.000000 0.000000 0.000000 0.028975
#
#
# Mechanical properties :
#
#
# Convention : Reuss Voigt Hill
#
# Bulk Modulus (GPa) = 52.86487 55.15161 54.00824
# Shear Modulus (GPa) = 35.76455 36.69876 36.23166
#
# Velocity S-wave (km/s) = 3.97861 4.03023 4.00450
# Velocity P-wave (km/s) = 6.67110 6.78727 6.72944
#
# Compressibility (1/GPa) = 0.01891615
#
# Stress axis : x y z
#
# Youngs Moduli (GPa) = 81.89784 69.40145 105.87942
#
# Poissons Ratio (x) = 0.19456 0.25563
# Poissons Ratio (y) = 0.22959 0.35535
# Poissons Ratio (z) = 0.19773 0.23292
#
# Static dielectric constant tensor:
#      x y z
#    x 1.877720 0.000000 0.000000 
#    y 0.000000 1.867800 0.000000 
#    z 0.000000 0.000000 1.894310 
# 
# From -- ./inp_files/1577.got.cif
#   From: 2010.05.17/outbox.cif.g08.bks.cpg/sg27_1_cif.got.tgz:1577.got - 2010.06.04 01:11:05.
