data_PCOD9338396
_publ_section_title
;
Structure prediction by ZEFSAII (Michael W. Deem and Ramdas Pophale) SiO2 
 PCOD9338396
Probable space group: P M C 21
;
_chemical_formula_sum "Si O2"
_cell_formula_units_Z 24
_cell_length_a 13.009604
_cell_length_b 5.181784
_cell_length_c 14.995047
_cell_angle_alpha 90.000000
_cell_angle_beta 90.000000
_cell_angle_gamma 90.000000
_cell_volume 1010.860471
_symmetry_space_group_name_H-M "P M C 21"
_symmetry_group_IT_number 26
_symmetry_cell_setting 'orthorhombic'
loop_
_space_group_symop_operation_xyz
x,y,z
-x,-y,1/2+z
-x,y,z
x,-y,1/2+z
loop_
_atom_site_type_symbol
_atom_site_label
_atom_site_fract_x
_atom_site_fract_y
_atom_site_fract_z
Si Si1 0.120654 0.857573 0.540080
Si Si2 0.294347 0.524134 0.112992
Si Si3 0.212178 0.511311 0.793929
Si Si4 0.500000 0.173944 0.430802
Si Si5 0.278913 0.818497 0.942010
Si Si6 0.500000 0.685647 0.546248
Si Si7 0.111548 0.972324 0.234416
O O1 0.182370 0.991743 0.458497
O O2 0.117769 0.048037 0.626932
O O3 0.000000 0.794192 0.520668
O O4 0.191048 0.625452 0.579614
O O5 0.287455 0.591121 0.216877
O O6 0.308264 0.755817 0.043920
O O7 0.395665 0.356130 0.099576
O O8 0.246414 0.551443 0.894498
O O9 0.123352 0.303497 0.780515
O O10 0.188846 0.808124 0.767428
O O11 0.614098 0.114891 0.390995
O O12 0.500000 0.470561 0.465683
O O13 0.500000 0.969788 0.509754
O O14 0.000000 0.083342 0.255132
#
# Coordination Sequence:
#
# PCOD9338396 Si02
#       7
#     4   4   4   2   4   2   4
#     4  10  21  38  64  90 125 170 214 263 320 384
#     4  10  22  42  62  93 130 167 220 263 326 383
#     4  11  24  38  65  92 128 167 214 269 318 382
#     4  10  22  39  66  93 125 167 206 267 316 373
#     4  11  23  41  64  94 130 167 220 263 324 382
#     4  10  20  37  70  87 121 173 208 259 320 381
#     4  10  22  42  61  88 129 171 213 265 318 379
#
# _framework density 23.742149000000001
#
# number of rings (size 3 to 8) (size 9 to 14) (size 15 to 20)
#    0.000    1.667    3.333    0.500    2.333    3.333 
#    0.000    0.000    0.000    4.000    0.000    0.000 
#    0.000    0.000    0.000    0.000    0.000    0.000 
#
# Total GULP energy -133689.184254 kJ/mol
# GULP energy per Si atom -5570.382677 kJ/mol
# Density = 2.368811 g / cm^3
# Si number density = 23.742149 Si / 1000 Ang^3
#
#
#
# Elastic Constant Matrix: (Units=GPa)
#
#
# Indices 1 2 3 4 5 6 
#
# 1 154.3145 27.7423 5.6888 0.0000 0.0000 0.0000
# 2 27.7423 66.0908 12.4603 0.0000 0.0000 0.0000
# 3 5.6888 12.4603 63.7902 0.0000 0.0000 0.0000
# 4 0.0000 0.0000 0.0000 38.5953 0.0000 0.0000
# 5 0.0000 0.0000 0.0000 0.0000 14.9416 0.0000
# 6 0.0000 0.0000 0.0000 0.0000 0.0000 29.0913
#
#
#
# Elastic Compliance Matrix: (Units=1/GPa)
#
#
# Indices 1 2 3 4 5 6 
#
# 1 0.007009 -0.002932 -0.000052 0.000000 0.000000 0.000000
# 2 -0.002932 0.016936 -0.003047 0.000000 0.000000 0.000000
# 3 -0.000052 -0.003047 0.016276 0.000000 0.000000 0.000000
# 4 0.000000 0.000000 0.000000 0.025910 0.000000 0.000000
# 5 0.000000 0.000000 0.000000 0.000000 0.066927 0.000000
# 6 0.000000 0.000000 0.000000 0.000000 0.000000 0.034375
#
#
# Mechanical properties :
#
#
# Convention : Reuss Voigt Hill
#
# Bulk Modulus (GPa) = 35.51280 41.77536 38.64408
# Shear Modulus (GPa) = 26.47151 32.41257 29.44204
#
# Velocity S-wave (km/s) = 3.34272 3.69886 3.52529
# Velocity P-wave (km/s) = 5.46704 5.98963 5.73429
#
# Compressibility (1/GPa) = 0.02815886
#
# Stress axis : x y z
#
# Youngs Moduli (GPa) = 142.66600 59.04583 61.43957
#
# Poissons Ratio (x) = 0.17315 0.00321
# Poissons Ratio (y) = 0.41835 0.18718
# Poissons Ratio (z) = 0.00746 0.17989
#
# Static dielectric constant tensor:
#      x y z
#    x 2.045860 0.000000 0.000000 
#    y 0.000000 1.947460 0.000000 
#    z 0.000000 0.000000 1.975820 
# 
# From -- ./inp_files/5128.got.cif
#   From: 2010.05.17/outbox.cif.g08.bks.cpg/sg26_3_cif.got.tgz:5128.got - 2010.06.04 01:07:29.
