data_PCOD9338041
_publ_section_title
;
Structure prediction by ZEFSAII (Michael W. Deem and Ramdas Pophale) SiO2 
 PCOD9338041
Probable space group: P M C 21
;
_chemical_formula_sum "Si O2"
_cell_formula_units_Z 32
_cell_length_a 7.502403
_cell_length_b 11.748390
_cell_length_c 17.046746
_cell_angle_alpha 90.000000
_cell_angle_beta 90.000000
_cell_angle_gamma 90.000000
_cell_volume 1502.519905
_symmetry_space_group_name_H-M "P M C 21"
_symmetry_group_IT_number 26
_symmetry_cell_setting 'orthorhombic'
loop_
_space_group_symop_operation_xyz
x,y,z
-x,-y,1/2+z
-x,y,z
x,-y,1/2+z
loop_
_atom_site_type_symbol
_atom_site_label
_atom_site_fract_x
_atom_site_fract_y
_atom_site_fract_z
Si Si1 0.787847 0.564972 0.787820
Si Si2 0.288195 0.224798 0.183109
Si Si3 0.286661 0.919019 0.833066
Si Si4 0.703997 0.451082 0.571626
Si Si5 0.700797 0.338500 0.724855
Si Si6 0.788556 0.289836 0.436103
Si Si7 0.280835 0.822960 0.355947
Si Si8 0.717943 0.300991 0.016327
O O1 0.745295 0.647720 0.715294
O O2 0.694825 0.444754 0.783769
O O3 0.726886 0.633751 0.863305
O O4 0.000000 0.548786 0.791737
O O5 0.500000 0.206010 0.179849
O O6 0.217587 0.140432 0.251929
O O7 0.224941 0.227442 0.093003
O O8 0.500000 0.924034 0.824469
O O9 0.248323 0.837110 0.906770
O O10 0.224131 0.045955 0.851227
O O11 0.500000 0.480625 0.593771
O O12 0.790446 0.397347 0.649590
O O13 0.704046 0.346481 0.511490
O O14 0.775833 0.567387 0.532208
O O15 0.500000 0.302800 0.701743
O O16 0.781188 0.238166 0.775984
O O17 0.000000 0.302216 0.445174
O O18 0.500000 0.819362 0.355645
O O19 0.223824 0.755428 0.434389
O O20 0.500000 0.301191 0.014392
#
# Coordination Sequence:
#
# PCOD9338041 Si02
#       8
#     4   4   4   4   4   4   4   4
#     4  10  19  31  50  76 104 135 170 209 262 315
#     4   9  16  30  52  75 100 133 173 215 254 303
#     4   9  18  34  54  76 101 135 178 215 258 307
#     4  10  19  32  52  80 106 135 172 211 263 319
#     4  10  19  33  53  77 109 139 169 212 263 318
#     4  10  21  35  52  75 103 137 175 218 260 305
#     4   9  18  32  51  79 108 135 170 217 263 305
#     4   9  16  29  50  78 107 133 167 211 263 312
#
# _framework density 21.297557000000001
#
# number of rings (size 3 to 8) (size 9 to 14) (size 15 to 20)
#    0.000    2.500    1.250    1.500    0.000    3.000 
#    2.250    0.625    0.000    1.500    0.000    0.000 
#    0.000    0.000    0.000    0.000    0.000    0.000 
#
# Total GULP energy -178410.713370 kJ/mol
# GULP energy per Si atom -5575.334793 kJ/mol
# Density = 2.124908 g / cm^3
# Si number density = 21.297557 Si / 1000 Ang^3
#
#
#
# Elastic Constant Matrix: (Units=GPa)
#
#
# Indices 1 2 3 4 5 6 
#
# 1 60.4058 2.6976 7.1182 0.0000 0.0000 0.0000
# 2 2.6976 150.8397 75.0565 0.0000 0.0000 0.0000
# 3 7.1182 75.0565 103.1064 0.0000 0.0000 0.0000
# 4 0.0000 0.0000 0.0000 26.4454 0.0000 0.0000
# 5 0.0000 0.0000 0.0000 0.0000 23.2298 0.0000
# 6 0.0000 0.0000 0.0000 0.0000 0.0000 -271.2073
#
#
#
# Elastic Compliance Matrix: (Units=1/GPa)
#
#
# Indices 1 2 3 4 5 6 
#
# 1 0.016708 0.000431 -0.001468 0.000000 0.000000 0.000000
# 2 0.000431 0.010406 -0.007605 0.000000 0.000000 0.000000
# 3 -0.001468 -0.007605 0.015336 0.000000 0.000000 0.000000
# 4 0.000000 0.000000 0.000000 0.037814 0.000000 0.000000
# 5 0.000000 0.000000 0.000000 0.000000 0.043048 0.000000
# 6 0.000000 0.000000 0.000000 0.000000 0.000000 -0.003687
#
#
# Mechanical properties :
#
#
# Convention : Reuss Voigt Hill
#
# Bulk Modulus (GPa) = 39.73237 53.78852 46.76044
# Shear Modulus (GPa) = 34.41241 -29.00781 2.70230
#
# Velocity S-wave (km/s) = 4.02405 -3.69457 1.12765
# Velocity P-wave (km/s) = 6.34720 2.66661 4.86815
#
# Compressibility (1/GPa) = 0.02516840
#
# Stress axis : x y z
#
# Youngs Moduli (GPa) = 59.85019 96.09916 65.20621
#
# Poissons Ratio (x) = -0.04146 0.09570
# Poissons Ratio (y) = -0.02582 0.49588
# Poissons Ratio (z) = 0.08783 0.73081
#
# Static dielectric constant tensor:
#      x y z
#    x 1.809060 0.000000 0.000000 
#    y 0.000000 1.755690 0.000000 
#    z 0.000000 0.000000 1.827920 
# 
# From -- ./inp_files/4298.got.cif
#   From: 2010.05.17/outbox.cif.g08.bks.cpg/sg26_3_cif.got.tgz:4298.got - 2010.06.04 01:07:29.
