data_PCOD9338051
_publ_section_title
;
Structure prediction by ZEFSAII (Michael W. Deem and Ramdas Pophale) SiO2 
 PCOD9338051
Probable space group: P M C 21
;
_chemical_formula_sum "Si O2"
_cell_formula_units_Z 24
_cell_length_a 8.382906
_cell_length_b 9.525137
_cell_length_c 17.003534
_cell_angle_alpha 90.000000
_cell_angle_beta 90.000000
_cell_angle_gamma 90.000000
_cell_volume 1357.703762
_symmetry_space_group_name_H-M "P M C 21"
_symmetry_group_IT_number 26
_symmetry_cell_setting 'orthorhombic'
loop_
_space_group_symop_operation_xyz
x,y,z
-x,-y,1/2+z
-x,y,z
x,-y,1/2+z
loop_
_atom_site_type_symbol
_atom_site_label
_atom_site_fract_x
_atom_site_fract_y
_atom_site_fract_z
Si Si1 0.309554 0.337518 0.757650
Si Si2 0.808689 0.183929 0.428239
Si Si3 0.810532 0.818454 0.102416
Si Si4 0.692609 0.657581 0.773222
Si Si5 0.313405 0.083061 0.179517
Si Si6 0.189026 0.074269 0.830752
O O1 0.500000 0.334594 0.766538
O O2 0.265875 0.270744 0.672996
O O3 0.253155 0.497861 0.763536
O O4 0.233772 0.236737 0.824116
O O5 0.749924 0.219333 0.515433
O O6 0.743363 0.277366 0.356887
O O7 0.000000 0.199846 0.428300
O O8 0.776356 0.020289 0.406712
O O9 0.000000 0.796960 0.106207
O O10 0.775802 0.983354 0.118299
O O11 0.500000 0.659883 0.770335
O O12 0.747538 0.762237 0.703113
O O13 0.500000 0.088819 0.159131
O O14 0.289556 0.999196 0.261496
O O15 0.000000 0.059429 0.813046
#
# Coordination Sequence:
#
# PCOD9338051 Si02
#       6
#     4   4   4   4   4   4
#     4  10  19  32  49  72  99 128 159 195 235 283
#     4   9  19  33  50  71  96 123 158 200 241 281
#     4  10  19  32  49  72  97 124 158 198 239 283
#     4   9  19  33  50  71  97 126 160 196 235 282
#     4   9  16  29  48  69  90 119 156 192 228 275
#     4   9  16  29  48  69  91 120 155 193 232 276
#
# _framework density 17.676907
#
# number of rings (size 3 to 8) (size 9 to 14) (size 15 to 20)
#    0.000    2.667    0.000    4.000    0.000    4.000 
#    0.000    1.667    0.000    8.000    0.000    0.000 
#    0.000    0.000    0.000    0.000    0.000    0.000 
#
# Total GULP energy -133613.161960 kJ/mol
# GULP energy per Si atom -5567.215082 kJ/mol
# Density = 1.763667 g / cm^3
# Si number density = 17.676907 Si / 1000 Ang^3
#
#
#
# Elastic Constant Matrix: (Units=GPa)
#
#
# Indices 1 2 3 4 5 6 
#
# 1 15.8804 6.9680 4.5805 0.0000 0.0000 0.0000
# 2 6.9680 139.2780 34.7316 0.0000 0.0000 0.0000
# 3 4.5805 34.7316 72.0577 0.0000 0.0000 0.0000
# 4 0.0000 0.0000 0.0000 15.2985 0.0000 0.0000
# 5 0.0000 0.0000 0.0000 0.0000 19.7442 0.0000
# 6 0.0000 0.0000 0.0000 0.0000 0.0000 14.3817
#
#
#
# Elastic Compliance Matrix: (Units=1/GPa)
#
#
# Indices 1 2 3 4 5 6 
#
# 1 0.064917 -0.002522 -0.002911 0.000000 0.000000 0.000000
# 2 -0.002522 0.008259 -0.003820 0.000000 0.000000 0.000000
# 3 -0.002911 -0.003820 0.015904 0.000000 0.000000 0.000000
# 4 0.000000 0.000000 0.000000 0.065366 0.000000 0.000000
# 5 0.000000 0.000000 0.000000 0.000000 0.050648 0.000000
# 6 0.000000 0.000000 0.000000 0.000000 0.000000 0.069533
#
#
# Mechanical properties :
#
#
# Convention : Reuss Voigt Hill
#
# Bulk Modulus (GPa) = 14.16963 35.53072 24.85018
# Shear Modulus (GPa) = 15.78993 21.94728 18.86860
#
# Velocity S-wave (km/s) = 2.99197 3.52743 3.27068
# Velocity P-wave (km/s) = 4.46869 6.06086 5.32462
#
# Compressibility (1/GPa) = 0.07057345
#
# Stress axis : x y z
#
# Youngs Moduli (GPa) = 15.40426 121.08387 62.87638
#
# Poissons Ratio (x) = 0.30536 0.18304
# Poissons Ratio (y) = 0.03885 0.24021
# Poissons Ratio (z) = 0.04484 0.46259
#
# Static dielectric constant tensor:
#      x y z
#    x 1.603100 0.000000 0.000000 
#    y 0.000000 1.644370 0.000000 
#    z 0.000000 0.000000 1.607460 
# 
# From -- ./inp_files/4870.got.cif
#   From: 2010.05.17/outbox.cif.g08.bks.cpg/sg26_3_cif.got.tgz:4870.got - 2010.06.04 01:07:29.
