data_PCOD9338234
_publ_section_title
;
Structure prediction by ZEFSAII (Michael W. Deem and Ramdas Pophale) SiO2 
 PCOD9338234
Probable space group: P M C 21
;
_chemical_formula_sum "Si O2"
_cell_formula_units_Z 16
_cell_length_a 5.477734
_cell_length_b 9.941058
_cell_length_c 11.770102
_cell_angle_alpha 90.000000
_cell_angle_beta 90.000000
_cell_angle_gamma 90.000000
_cell_volume 640.934683
_symmetry_space_group_name_H-M "P M C 21"
_symmetry_group_IT_number 26
_symmetry_cell_setting 'orthorhombic'
loop_
_space_group_symop_operation_xyz
x,y,z
-x,-y,1/2+z
-x,y,z
x,-y,1/2+z
loop_
_atom_site_type_symbol
_atom_site_label
_atom_site_fract_x
_atom_site_fract_y
_atom_site_fract_z
Si Si1 0.500000 0.782734 0.162341
Si Si2 0.000000 0.164892 0.039145
Si Si3 0.500000 0.442499 0.331966
Si Si4 0.000000 0.604382 0.694497
Si Si5 0.000000 0.345291 0.585112
Si Si6 0.500000 0.253687 0.915845
Si Si7 0.000000 0.103421 0.423235
Si Si8 0.500000 0.853496 0.915628
O O1 0.247922 0.699998 0.147428
O O2 0.500000 0.819458 0.293615
O O3 0.500000 0.881040 0.052263
O O4 0.250961 0.213554 0.979382
O O5 0.000000 0.004225 0.025840
O O6 0.000000 0.240924 0.158515
O O7 0.249439 0.429399 0.260366
O O8 0.500000 0.585133 0.394989
O O9 0.500000 0.308476 0.408491
O O10 0.000000 0.506123 0.583616
O O11 0.000000 0.255174 0.472304
O O12 0.744546 0.089636 0.362078
#
# Coordination Sequence:
#
# PCOD9338234 Si02
#       8
#     2   2   2   2   2   2   2   2
#     4  10  20  39  61  98 122 171 226 274 321 399
#     4  12  28  43  68 102 141 184 215 296 344 404
#     4  12  25  42  71 107 135 173 235 289 340 411
#     4  12  24  44  68 106 141 172 229 287 349 402
#     4  10  19  38  67  90 128 179 216 275 324 410
#     4  12  24  41  68 103 138 172 230 284 342 406
#     4  10  23  45  65  96 140 181 240 262 347 422
#     4  10  23  42  72  92 133 188 225 283 335 408
#
# _framework density 24.963543999999999
#
# number of rings (size 3 to 8) (size 9 to 14) (size 15 to 20)
#    0.000    1.000    2.500    3.750    7.000    0.000 
#    0.000   15.000    0.000    0.000    0.000    0.000 
#    0.000    0.000    0.000    0.000    0.000    0.000 
#
# Total GULP energy -89416.768651 kJ/mol
# GULP energy per Si atom -5588.548041 kJ/mol
# Density = 2.490673 g / cm^3
# Si number density = 24.963544 Si / 1000 Ang^3
#
#
#
# Elastic Constant Matrix: (Units=GPa)
#
#
# Indices 1 2 3 4 5 6 
#
# 1 277.5378 43.7695 51.4106 0.0000 0.0000 0.0000
# 2 43.7695 103.0759 -4.5533 0.0000 0.0000 0.0000
# 3 51.4106 -4.5533 27.9669 0.0000 0.0000 0.0000
# 4 0.0000 0.0000 0.0000 25.3625 0.0000 0.0000
# 5 0.0000 0.0000 0.0000 0.0000 -54.6499 0.0000
# 6 0.0000 0.0000 0.0000 0.0000 0.0000 37.7605
#
#
#
# Elastic Compliance Matrix: (Units=1/GPa)
#
#
# Indices 1 2 3 4 5 6 
#
# 1 0.006391 -0.003256 -0.012279 0.000000 0.000000 0.000000
# 2 -0.003256 0.011431 0.007847 0.000000 0.000000 0.000000
# 3 -0.012279 0.007847 0.059606 0.000000 0.000000 0.000000
# 4 0.000000 0.000000 0.000000 0.039428 0.000000 0.000000
# 5 0.000000 0.000000 0.000000 0.000000 -0.018298 0.000000
# 6 0.000000 0.000000 0.000000 0.000000 0.000000 0.026483
#
#
# Mechanical properties :
#
#
# Convention : Reuss Voigt Hill
#
# Bulk Modulus (GPa) = 16.11556 65.53714 40.82635
# Shear Modulus (GPa) = 31.03649 22.89156 26.96402
#
# Velocity S-wave (km/s) = 3.52983 3.03149 3.29011
# Velocity P-wave (km/s) = 4.80444 6.20994 5.55184
#
# Compressibility (1/GPa) = 0.06205184
#
# Stress axis : x y z
#
# Youngs Moduli (GPa) = 156.46618 87.48166 16.77687
#
# Poissons Ratio (x) = 0.28487 0.20600
# Poissons Ratio (y) = 0.50950 -0.13165
# Poissons Ratio (z) = 1.92122 -0.68647
#
# Static dielectric constant tensor:
#      x y z
#    x 2.011600 0.000000 0.000000 
#    y 0.000000 1.968820 0.000000 
#    z 0.000000 0.000000 2.008530 
# 
# From -- ./inp_files/3753.got.cif
#   From: 2010.05.17/outbox.cif.g08.bks.cpg/sg26_2_cif.got.tgz:3753.got - 2010.06.04 01:07:29.
