data_PCOD9338211
_publ_section_title
;
Structure prediction by ZEFSAII (Michael W. Deem and Ramdas Pophale) SiO2 
 PCOD9338211
Probable space group: P M C 21
;
_chemical_formula_sum "Si O2"
_cell_formula_units_Z 32
_cell_length_a 8.093904
_cell_length_b 11.946975
_cell_length_c 16.588609
_cell_angle_alpha 90.000000
_cell_angle_beta 90.000000
_cell_angle_gamma 90.000000
_cell_volume 1604.079818
_symmetry_space_group_name_H-M "P M C 21"
_symmetry_group_IT_number 26
_symmetry_cell_setting 'orthorhombic'
loop_
_space_group_symop_operation_xyz
x,y,z
-x,-y,1/2+z
-x,y,z
x,-y,1/2+z
loop_
_atom_site_type_symbol
_atom_site_label
_atom_site_fract_x
_atom_site_fract_y
_atom_site_fract_z
Si Si1 0.700497 0.555512 0.367680
Si Si2 0.697016 0.230398 0.243958
Si Si3 0.313395 0.255862 0.984117
Si Si4 0.195804 0.303804 0.414133
Si Si5 0.702290 0.932246 0.599264
Si Si6 0.300396 0.383766 0.686610
Si Si7 0.301119 0.185628 0.580099
Si Si8 0.813896 0.602632 0.619655
O O1 0.500000 0.557241 0.371908
O O2 0.764386 0.663146 0.417686
O O3 0.750996 0.433714 0.400888
O O4 0.749780 0.579284 0.275798
O O5 0.500000 0.244839 0.236608
O O6 0.738915 0.230944 0.338096
O O7 0.746169 0.127854 0.184397
O O8 0.786028 0.338265 0.205502
O O9 0.500000 0.228128 0.957425
O O10 0.238697 0.144410 0.024017
O O11 0.314164 0.337818 0.061189
O O12 0.253664 0.248979 0.497885
O O13 0.000000 0.301608 0.412332
O O14 0.500000 0.930250 0.596717
O O15 0.760518 0.058834 0.588958
O O16 0.500000 0.392858 0.682452
O O17 0.251166 0.261610 0.656310
O O18 0.222182 0.472939 0.626159
O O19 0.500000 0.179527 0.580861
O O20 0.000000 0.624019 0.591733
#
# Coordination Sequence:
#
# PCOD9338211 Si02
#       8
#     4   4   4   4   4   4   4   4
#     4  10  20  35  56  83 112 147 188 234 286 338
#     4  10  19  36  61  86 111 144 186 237 284 332
#     4   9  18  34  56  81 109 144 186 231 278 332
#     4  12  24  37  56  86 118 151 190 233 286 347
#     4   8  17  36  60  85 110 141 190 236 277 331
#     4  10  20  34  54  79 113 149 185 228 280 336
#     4  10  21  39  59  84 115 152 193 237 284 335
#     4  11  20  31  52  82 112 144 180 222 279 337
#
# _framework density 19.949133
#
# number of rings (size 3 to 8) (size 9 to 14) (size 15 to 20)
#    0.000    2.000    1.250    4.125    0.000    4.000 
#    2.250    3.125    0.000    0.000    0.000    0.000 
#    0.000    0.000    0.000    0.000    0.000    0.000 
#
# Total GULP energy -178421.294918 kJ/mol
# GULP energy per Si atom -5575.665466 kJ/mol
# Density = 1.990373 g / cm^3
# Si number density = 19.949133 Si / 1000 Ang^3
#
#
#
# Elastic Constant Matrix: (Units=GPa)
#
#
# Indices 1 2 3 4 5 6 
#
# 1 31.4938 19.3677 2.5193 0.0000 0.0000 0.0000
# 2 19.3677 176.5794 59.6493 0.0000 0.0000 0.0000
# 3 2.5193 59.6493 79.2057 0.0000 0.0000 0.0000
# 4 0.0000 0.0000 0.0000 27.1087 0.0000 0.0000
# 5 0.0000 0.0000 0.0000 0.0000 5.2477 0.0000
# 6 0.0000 0.0000 0.0000 0.0000 0.0000 -30.4990
#
#
#
# Elastic Compliance Matrix: (Units=1/GPa)
#
#
# Indices 1 2 3 4 5 6 
#
# 1 0.034370 -0.004561 0.002341 0.000000 0.000000 0.000000
# 2 -0.004561 0.008201 -0.006031 0.000000 0.000000 0.000000
# 3 0.002341 -0.006031 0.017093 0.000000 0.000000 0.000000
# 4 0.000000 0.000000 0.000000 0.036889 0.000000 0.000000
# 5 0.000000 0.000000 0.000000 0.000000 0.190558 0.000000
# 6 0.000000 0.000000 0.000000 0.000000 0.000000 -0.032788
#
#
# Mechanical properties :
#
#
# Convention : Reuss Voigt Hill
#
# Bulk Modulus (GPa) = 23.16805 50.03904 36.60354
# Shear Modulus (GPa) = 17.53099 14.08767 15.80933
#
# Velocity S-wave (km/s) = 2.96765 2.66029 2.81816
# Velocity P-wave (km/s) = 4.83543 5.87996 5.38309
#
# Compressibility (1/GPa) = 0.04316289
#
# Stress axis : x y z
#
# Youngs Moduli (GPa) = 29.09539 121.94191 58.50480
#
# Poissons Ratio (x) = 0.55614 -0.13699
# Poissons Ratio (y) = 0.13270 0.35283
# Poissons Ratio (z) = -0.06813 0.73540
#
# Static dielectric constant tensor:
#      x y z
#    x 1.709890 0.000000 0.000000 
#    y 0.000000 1.710860 0.000000 
#    z 0.000000 0.000000 1.760450 
# 
# From -- ./inp_files/5061.got.cif
#   From: 2010.05.17/outbox.cif.g08.bks.cpg/sg26_3_cif.got.tgz:5061.got - 2010.06.04 01:07:29.
