data_PCOD9338522
_publ_section_title
;
Structure prediction by ZEFSAII (Michael W. Deem and Ramdas Pophale) SiO2 
 PCOD9338522
Probable space group: P M C 21
;
_chemical_formula_sum "Si O2"
_cell_formula_units_Z 18
_cell_length_a 19.909214
_cell_length_b 7.754711
_cell_length_c 5.349632
_cell_angle_alpha 90.000000
_cell_angle_beta 90.000000
_cell_angle_gamma 90.000000
_cell_volume 825.930759
_symmetry_space_group_name_H-M "P M C 21"
_symmetry_group_IT_number 26
_symmetry_cell_setting 'orthorhombic'
loop_
_space_group_symop_operation_xyz
x,y,z
-x,-y,1/2+z
-x,y,z
x,-y,1/2+z
loop_
_atom_site_type_symbol
_atom_site_label
_atom_site_fract_x
_atom_site_fract_y
_atom_site_fract_z
Si Si1 0.303324 0.611812 0.746590
Si Si2 0.755203 0.053433 0.350253
Si Si3 0.423720 0.885637 0.712861
Si Si4 0.000000 0.606886 0.272283
Si Si5 0.904395 0.911085 0.382206
O O1 0.301747 0.515423 0.482291
O O2 0.241407 0.745810 0.784739
O O3 0.368685 0.735596 0.747076
O O4 0.720070 0.036378 0.616896
O O5 0.824327 0.946500 0.382453
O O6 0.500000 0.814406 0.727095
O O7 0.418019 0.979208 0.443131
O O8 0.934374 0.726803 0.314496
O O9 0.000000 0.467581 0.493806
O O10 0.927531 0.965170 0.656937
#
# Coordination Sequence:
#
# PCOD9338522 Si02
#       5
#     4   4   4   2   4
#     4  12  24  38  60  92 124 155 198 258 311 346
#     4  10  21  41  63  84 116 164 206 238 287 365
#     4  10  21  39  63  88 118 162 208 244 293 370
#     4  12  24  40  64  98 126 148 194 256 306 348
#     4  10  21  41  65  87 117 164 201 232 291 366
#
# _framework density 21.793593999999999
#
# number of rings (size 3 to 8) (size 9 to 14) (size 15 to 20)
#    0.000    1.333    0.000    6.000    0.000    0.889 
#    0.000   26.667    0.000    0.000    0.000    0.000 
#    0.000    0.000    0.000    0.000    0.000    0.000 
#
# Total GULP energy -100449.078883 kJ/mol
# GULP energy per Si atom -5580.504382 kJ/mol
# Density = 2.174399 g / cm^3
# Si number density = 21.793594 Si / 1000 Ang^3
#
#
#
# Elastic Constant Matrix: (Units=GPa)
#
#
# Indices 1 2 3 4 5 6 
#
# 1 108.1722 26.8937 1.7851 0.0000 0.0000 0.0000
# 2 26.8937 84.8740 20.2268 0.0000 0.0000 0.0000
# 3 1.7851 20.2268 151.8668 0.0000 0.0000 0.0000
# 4 0.0000 0.0000 0.0000 59.7326 0.0000 0.0000
# 5 0.0000 0.0000 0.0000 0.0000 72.5890 0.0000
# 6 0.0000 0.0000 0.0000 0.0000 0.0000 534.6808
#
#
#
# Elastic Compliance Matrix: (Units=1/GPa)
#
#
# Indices 1 2 3 4 5 6 
#
# 1 0.010050 -0.003260 0.000316 0.000000 0.000000 0.000000
# 2 -0.003260 0.013226 -0.001723 0.000000 0.000000 0.000000
# 3 0.000316 -0.001723 0.006811 0.000000 0.000000 0.000000
# 4 0.000000 0.000000 0.000000 0.016741 0.000000 0.000000
# 5 0.000000 0.000000 0.000000 0.000000 0.013776 0.000000
# 6 0.000000 0.000000 0.000000 0.000000 0.000000 0.001870
#
#
# Mechanical properties :
#
#
# Convention : Reuss Voigt Hill
#
# Bulk Modulus (GPa) = 48.18771 49.19159 48.68965
# Shear Modulus (GPa) = 63.51231 153.13432 108.32331
#
# Velocity S-wave (km/s) = 5.40425 8.39156 7.05777
# Velocity P-wave (km/s) = 7.81666 10.79406 9.42369
#
# Compressibility (1/GPa) = 0.02075218
#
# Stress axis : x y z
#
# Youngs Moduli (GPa) = 99.50515 75.61020 146.83186
#
# Poissons Ratio (x) = 0.24647 -0.04640
# Poissons Ratio (y) = 0.32436 0.25302
# Poissons Ratio (z) = -0.03145 0.13029
#
# Static dielectric constant tensor:
#      x y z
#    x 1.934630 0.000000 0.000000 
#    y 0.000000 1.778910 0.000000 
#    z 0.000000 0.000000 1.861490 
# 
# From -- ./inp_files/930.got.cif
#   From: 2010.05.17/outbox.cif.g08.bks.cpg/sg26_1_cif.got.tgz:930.got - 2010.06.04 01:07:29.
