data_PCOD9339634
_publ_section_title
;
Structure prediction by ZEFSAII (Michael W. Deem and Ramdas Pophale) SiO2 
 PCOD9339634
Probable space group: P M A 2
;
_chemical_formula_sum "Si O2"
_cell_formula_units_Z 30
_cell_length_a 19.142673
_cell_length_b 5.157459
_cell_length_c 15.927027
_cell_angle_alpha 90.000000
_cell_angle_beta 90.000000
_cell_angle_gamma 90.000000
_cell_volume 1572.436373
_symmetry_space_group_name_H-M "P M A 2"
_symmetry_group_IT_number 28
_symmetry_cell_setting 'orthorhombic'
loop_
_space_group_symop_operation_xyz
x,y,z
-x,-y,z
1/2-x,y,z
1/2+x,-y,z
loop_
_atom_site_type_symbol
_atom_site_label
_atom_site_fract_x
_atom_site_fract_y
_atom_site_fract_z
Si Si1 0.548081 0.247113 0.400100
Si Si2 0.330943 0.273089 0.958135
Si Si3 0.048459 0.755176 0.207753
Si Si4 0.925654 0.857521 0.800800
Si Si5 0.171951 0.100035 0.653508
Si Si6 0.169323 0.770234 0.072232
Si Si7 0.000000 0.500000 0.676151
Si Si8 0.881266 0.374557 0.566301
O O1 0.500000 0.500000 0.397947
O O2 0.572518 0.204731 0.304386
O O3 0.605772 0.319626 0.468756
O O4 0.500000 0.000000 0.424266
O O5 0.250000 0.263981 0.927630
O O6 0.386151 0.220184 0.884839
O O7 0.342584 0.549366 0.002024
O O8 0.338333 0.048497 0.027725
O O9 0.113866 0.737443 0.145989
O O10 0.000000 0.500000 0.202639
O O11 0.000000 0.000000 0.184991
O O12 0.870013 0.986133 0.737602
O O13 0.945734 0.619348 0.741048
O O14 0.000000 0.000000 0.815178
O O15 0.250000 0.181277 0.677020
O O16 0.139344 0.335693 0.597044
O O17 0.171131 0.840789 0.598869
O O18 0.250000 0.743247 0.100732
O O19 0.044124 0.680091 0.613481
#
# Coordination Sequence:
#
# PCOD9339634 Si02
#       8
#     4   4   4   4   4   4   2   4
#     4  10  20  34  60  91 121 152 189 241 301 352
#     4  10  23  40  61  83 116 158 198 237 294 357
#     4  10  21  38  61  94 121 148 195 246 299 347
#     4  11  23  38  57  88 117 150 201 251 294 346
#     4  11  24  40  58  82 120 162 198 246 296 352
#     4  10  22  42  62  85 116 162 197 233 298 367
#     4  10  22  36  56  90 116 146 198 244 294 340
#     4  11  21  37  62  84 119 156 201 237 294 355
#
# _framework density 19.078672000000001
#
# number of rings (size 3 to 8) (size 9 to 14) (size 15 to 20)
#    0.000    1.600    2.000    2.400    3.733    1.600 
#    0.000    4.000    0.000    1.600    0.000    0.000 
#    0.000    0.000    0.000    0.000    0.000    0.000 
#
# Total GULP energy -167232.259133 kJ/mol
# GULP energy per Si atom -5574.408638 kJ/mol
# Density = 1.903525 g / cm^3
# Si number density = 19.078672 Si / 1000 Ang^3
#
#
#
# Elastic Constant Matrix: (Units=GPa)
#
#
# Indices 1 2 3 4 5 6 
#
# 1 97.6319 1.5274 58.5724 0.0000 0.0000 0.0000
# 2 1.5274 68.1918 -7.4499 0.0000 0.0000 0.0000
# 3 58.5724 -7.4499 75.2934 0.0000 0.0000 0.0000
# 4 0.0000 0.0000 0.0000 19.3234 0.0000 0.0000
# 5 0.0000 0.0000 0.0000 0.0000 35.6688 0.0000
# 6 0.0000 0.0000 0.0000 0.0000 0.0000 19.4436
#
#
#
# Elastic Compliance Matrix: (Units=1/GPa)
#
#
# Indices 1 2 3 4 5 6 
#
# 1 0.019504 -0.002117 -0.015382 0.000000 0.000000 0.000000
# 2 -0.002117 0.015055 0.003137 0.000000 0.000000 0.000000
# 3 -0.015382 0.003137 0.025558 0.000000 0.000000 0.000000
# 4 0.000000 0.000000 0.000000 0.051751 0.000000 0.000000
# 5 0.000000 0.000000 0.000000 0.000000 0.028036 0.000000
# 6 0.000000 0.000000 0.000000 0.000000 0.000000 0.051431
#
#
# Mechanical properties :
#
#
# Convention : Reuss Voigt Hill
#
# Bulk Modulus (GPa) = 31.85629 38.49076 35.17352
# Shear Modulus (GPa) = 21.68990 27.45163 24.57077
#
# Velocity S-wave (km/s) = 3.37540 3.79735 3.59258
# Velocity P-wave (km/s) = 5.65019 6.28053 5.97368
#
# Compressibility (1/GPa) = 0.03139098
#
# Stress axis : x y z
#
# Youngs Moduli (GPa) = 51.27221 66.42475 39.12727
#
# Poissons Ratio (x) = 0.14064 0.60185
# Poissons Ratio (y) = 0.10856 -0.12273
# Poissons Ratio (z) = 0.78866 -0.20835
#
# Static dielectric constant tensor:
#      x y z
#    x 1.694130 0.000000 0.000000 
#    y 0.000000 1.694780 0.000000 
#    z 0.000000 0.000000 1.650810 
# 
# From -- ./inp_files/6583.got.cif
#   From: 2010.05.17/outbox.cif.g08.bks.cpg/sg28_4_cif.got.tgz:6583.got - 2010.06.04 01:15:21.
