data_PCOD9339125
_publ_section_title
;
Structure prediction by ZEFSAII (Michael W. Deem and Ramdas Pophale) SiO2 
 PCOD9339125
Probable space group: P C C 2
;
_chemical_formula_sum "Si O2"
_cell_formula_units_Z 18
_cell_length_a 7.837131
_cell_length_b 8.907851
_cell_length_c 9.255386
_cell_angle_alpha 90.000000
_cell_angle_beta 90.000000
_cell_angle_gamma 90.000000
_cell_volume 646.136963
_symmetry_space_group_name_H-M "P C C 2"
_symmetry_group_IT_number 27
_symmetry_cell_setting 'orthorhombic'
loop_
_space_group_symop_operation_xyz
x,y,z
-x,-y,z
-x,y,1/2+z
x,-y,1/2+z
loop_
_atom_site_type_symbol
_atom_site_label
_atom_site_fract_x
_atom_site_fract_y
_atom_site_fract_z
Si Si1 0.764034 0.532941 0.974380
Si Si2 0.500000 0.000000 0.832891
Si Si3 0.000000 0.000000 0.415789
Si Si4 0.000000 0.500000 0.206008
Si Si5 0.226317 0.108967 0.178108
Si Si6 0.532883 0.731967 0.540725
O O1 0.599001 0.630764 0.950720
O O2 0.698188 0.375834 0.047068
O O3 0.851575 0.524411 0.821114
O O4 0.901210 0.603165 0.087794
O O5 0.565279 0.125332 0.942983
O O6 0.334204 0.037892 0.735499
O O7 0.914902 0.878865 0.304871
O O8 0.136160 0.926741 0.526539
O O9 0.392263 0.218473 0.163192
#
# Coordination Sequence:
#
# PCOD9339125 Si02
#       6
#     4   2   2   2   4   4
#     4  10  26  50  81 108 149 204 264 320 390 459
#     4  12  26  48  72 118 160 208 250 322 380 480
#     4  10  24  48  70 110 164 204 250 316 384 452
#     4  10  24  54  76 114 146 200 264 336 384 450
#     4  11  24  47  71 109 157 204 252 308 386 451
#     4  11  26  48  78 114 153 207 258 316 385 477
#
# _framework density 27.857870999999999
#
# number of rings (size 3 to 8) (size 9 to 14) (size 15 to 20)
#    0.000    1.333    2.222    0.667    6.222    3.556 
#    4.000    0.000    0.000    0.000    0.000    0.000 
#    0.000    0.000    0.000    0.000    0.000    0.000 
#
# Total GULP energy -100347.396555 kJ/mol
# GULP energy per Si atom -5574.855364 kJ/mol
# Density = 2.779447 g / cm^3
# Si number density = 27.857871 Si / 1000 Ang^3
#
#
#
# Elastic Constant Matrix: (Units=GPa)
#
#
# Indices 1 2 3 4 5 6 
#
# 1 153.1949 40.1478 76.3330 0.0000 0.0000 0.0000
# 2 40.1478 82.8573 36.5911 0.0000 0.0000 0.0000
# 3 76.3330 36.5911 246.3410 0.0000 0.0000 0.0000
# 4 0.0000 0.0000 0.0000 7.7431 0.0000 0.0000
# 5 0.0000 0.0000 0.0000 0.0000 68.1628 0.0000
# 6 0.0000 0.0000 0.0000 0.0000 0.0000 36.4364
#
#
#
# Elastic Compliance Matrix: (Units=1/GPa)
#
#
# Indices 1 2 3 4 5 6 
#
# 1 0.008416 -0.003132 -0.002143 0.000000 0.000000 0.000000
# 2 -0.003132 0.014082 -0.001121 0.000000 0.000000 0.000000
# 3 -0.002143 -0.001121 0.004890 0.000000 0.000000 0.000000
# 4 0.000000 0.000000 0.000000 0.129147 0.000000 0.000000
# 5 0.000000 0.000000 0.000000 0.000000 0.014671 0.000000
# 6 0.000000 0.000000 0.000000 0.000000 0.000000 0.027445
#
#
# Mechanical properties :
#
#
# Convention : Reuss Voigt Hill
#
# Bulk Modulus (GPa) = 68.51067 87.61521 78.06294
# Shear Modulus (GPa) = 23.11535 44.42322 33.76928
#
# Velocity S-wave (km/s) = 2.88368 3.99762 3.48544
# Velocity P-wave (km/s) = 5.97778 7.26822 6.65435
#
# Compressibility (1/GPa) = 0.01459627
#
# Stress axis : x y z
#
# Youngs Moduli (GPa) = 118.82155 71.01500 204.50299
#
# Poissons Ratio (x) = 0.22239 0.43818
# Poissons Ratio (y) = 0.37211 0.22930
# Poissons Ratio (z) = 0.25459 0.07963
#
# Static dielectric constant tensor:
#      x y z
#    x 2.261720 0.000000 0.000000 
#    y 0.000000 2.615650 0.000000 
#    z 0.000000 0.000000 2.156640 
# 
# From -- ./inp_files/1020.got.cif
#   From: 2010.05.17/outbox.cif.g08.bks.cpg/sg27_1_cif.got.tgz:1020.got - 2010.06.04 01:11:05.
