data_PCOD9339681
_publ_section_title
;
Structure prediction by ZEFSAII (Michael W. Deem and Ramdas Pophale) SiO2 
 PCOD9339681
Probable space group: P M A 2
;
_chemical_formula_sum "Si O2"
_cell_formula_units_Z 28
_cell_length_a 8.652001
_cell_length_b 9.952264
_cell_length_c 17.963964
_cell_angle_alpha 90.000000
_cell_angle_beta 90.000000
_cell_angle_gamma 90.000000
_cell_volume 1546.823014
_symmetry_space_group_name_H-M "P M A 2"
_symmetry_group_IT_number 28
_symmetry_cell_setting 'orthorhombic'
loop_
_space_group_symop_operation_xyz
x,y,z
-x,-y,z
1/2-x,y,z
1/2+x,-y,z
loop_
_atom_site_type_symbol
_atom_site_label
_atom_site_fract_x
_atom_site_fract_y
_atom_site_fract_z
Si Si1 0.564736 0.147889 0.620440
Si Si2 0.936015 0.852970 0.873774
Si Si3 0.934605 0.350538 0.165065
Si Si4 0.436266 0.348761 0.743655
Si Si5 0.564860 0.853208 0.044596
Si Si6 0.934781 0.854343 0.455327
Si Si7 0.564386 0.349662 0.334706
O O1 0.750000 0.144065 0.622239
O O2 0.500844 0.262079 0.674893
O O3 0.506195 0.174660 0.536596
O O4 0.500000 0.000000 0.641795
O O5 0.750000 0.861261 0.871968
O O6 0.983228 0.736118 0.817121
O O7 0.983755 0.824160 0.959049
O O8 0.000000 0.000000 0.852608
O O9 0.750000 0.354023 0.159023
O O10 0.973523 0.307017 0.249748
O O11 0.000000 0.500000 0.155181
O O12 0.002697 0.253456 0.103067
O O13 0.500000 0.500000 0.744407
O O14 0.250000 0.352640 0.740042
O O15 0.750000 0.855466 0.046722
O O16 0.500000 0.000000 0.063269
O O17 0.750000 0.859307 0.461354
O O18 0.988352 0.746417 0.395176
O O19 0.000000 0.000000 0.432960
O O20 0.500000 0.500000 0.343983
O O21 0.750000 0.349599 0.342877
#
# Coordination Sequence:
#
# PCOD9339681 Si02
#       7
#     4   4   4   4   4   4   4
#     4  11  22  39  61  85 113 147 185 226 275 330
#     4   9  20  37  58  82 110 145 185 228 276 331
#     4  10  21  37  57  81 111 148 187 229 278 332
#     4  11  23  39  57  83 115 147 186 230 277 327
#     4  10  20  36  57  83 113 146 186 231 278 328
#     4  11  22  38  60  86 114 146 185 229 276 326
#     4  10  21  38  58  82 112 147 187 229 277 332
#
# _framework density 18.101617999999998
#
# number of rings (size 3 to 8) (size 9 to 14) (size 15 to 20)
#    0.000    1.714    0.000    5.571    0.000    6.286 
#    0.000    4.286    0.000    0.000    0.000    0.000 
#    0.000    0.000    0.000    0.000    0.000    0.000 
#
# Total GULP energy -156445.733149 kJ/mol
# GULP energy per Si atom -5587.347612 kJ/mol
# Density = 1.806042 g / cm^3
# Si number density = 18.101618 Si / 1000 Ang^3
#
#
#
# Elastic Constant Matrix: (Units=GPa)
#
#
# Indices 1 2 3 4 5 6 
#
# 1 103.1958 61.7792 58.2614 0.0000 0.0000 0.0000
# 2 61.7792 152.8486 118.0065 0.0000 0.0000 0.0000
# 3 58.2614 118.0065 124.3685 0.0000 0.0000 0.0000
# 4 0.0000 0.0000 0.0000 58.6040 0.0000 0.0000
# 5 0.0000 0.0000 0.0000 0.0000 31.8404 0.0000
# 6 0.0000 0.0000 0.0000 0.0000 0.0000 38.2309
#
#
#
# Elastic Compliance Matrix: (Units=1/GPa)
#
#
# Indices 1 2 3 4 5 6 
#
# 1 0.013357 -0.002123 -0.004242 0.000000 0.000000 0.000000
# 2 -0.002123 0.024800 -0.022537 0.000000 0.000000 0.000000
# 3 -0.004242 -0.022537 0.031412 0.000000 0.000000 0.000000
# 4 0.000000 0.000000 0.000000 0.017064 0.000000 0.000000
# 5 0.000000 0.000000 0.000000 0.000000 0.031407 0.000000
# 6 0.000000 0.000000 0.000000 0.000000 0.000000 0.026157
#
#
# Mechanical properties :
#
#
# Convention : Reuss Voigt Hill
#
# Bulk Modulus (GPa) = 85.00679 95.16744 90.08711
# Shear Modulus (GPa) = 24.28102 35.22610 29.75356
#
# Velocity S-wave (km/s) = 3.66645 4.41616 4.05865
# Velocity P-wave (km/s) = 8.06143 8.87082 8.47579
#
# Compressibility (1/GPa) = 0.01176377
#
# Stress axis : x y z
#
# Youngs Moduli (GPa) = 74.86982 40.32233 31.83491
#
# Poissons Ratio (x) = 0.08561 0.13506
# Poissons Ratio (y) = 0.15896 0.71746
# Poissons Ratio (z) = 0.31763 0.90874
#
# Static dielectric constant tensor:
#      x y z
#    x 1.605590 0.000000 0.000000 
#    y 0.000000 1.580910 0.000000 
#    z 0.000000 0.000000 1.619300 
# 
# From -- ./inp_files/6763.got.cif
#   From: 2010.05.17/outbox.cif.g08.bks.cpg/sg28_4_cif.got.tgz:6763.got - 2010.06.04 01:15:21.
