data_PCOD9339308
_publ_section_title
;
Structure prediction by ZEFSAII (Michael W. Deem and Ramdas Pophale) SiO2 
 PCOD9339308
Probable space group: P M A 2
;
_chemical_formula_sum "Si O2"
_cell_formula_units_Z 32
_cell_length_a 8.498241
_cell_length_b 14.751871
_cell_length_c 16.201985
_cell_angle_alpha 90.000000
_cell_angle_beta 90.000000
_cell_angle_gamma 90.000000
_cell_volume 2031.161120
_symmetry_space_group_name_H-M "P M A 2"
_symmetry_group_IT_number 28
_symmetry_cell_setting 'orthorhombic'
loop_
_space_group_symop_operation_xyz
x,y,z
-x,-y,z
1/2-x,y,z
1/2+x,-y,z
loop_
_atom_site_type_symbol
_atom_site_label
_atom_site_fract_x
_atom_site_fract_y
_atom_site_fract_z
Si Si1 0.561455 0.711347 0.583940
Si Si2 0.061262 0.902572 0.329778
Si Si3 0.061048 0.603379 0.740589
Si Si4 0.059245 0.603349 0.102057
Si Si5 0.560395 0.396936 0.921564
Si Si6 0.061377 0.097324 0.516916
Si Si7 0.441796 0.712353 0.262124
Si Si8 0.938995 0.397657 0.425375
O O1 0.750000 0.708048 0.584213
O O2 0.499507 0.665596 0.666997
O O3 0.512143 0.815870 0.570457
O O4 0.500860 0.654904 0.505362
O O5 0.250000 0.904568 0.331798
O O6 0.008791 0.816102 0.276548
O O7 0.001977 0.889850 0.423706
O O8 0.000000 0.000000 0.300531
O O9 0.250000 0.600325 0.737906
O O10 0.010188 0.639038 0.831740
O O11 0.000000 0.500000 0.730818
O O12 0.250000 0.600765 0.103985
O O13 0.004178 0.664955 0.177998
O O14 0.000000 0.500000 0.111372
O O15 0.010078 0.639839 0.011212
O O16 0.500000 0.500000 0.921977
O O17 0.750000 0.396459 0.921415
O O18 0.250000 0.094429 0.513120
O O19 0.000000 0.000000 0.546803
O O20 0.250000 0.711970 0.260953
O O21 0.490311 0.654083 0.342060
O O22 0.750000 0.397822 0.427589
O O23 0.000000 0.500000 0.425071
#
# Coordination Sequence:
#
# PCOD9339308 Si02
#       8
#     4   4   4   4   4   4   4   4
#     4  11  22  34  47  67  91 121 155 188 226 271
#     4  10  18  31  48  67  89 117 152 189 231 270
#     4  10  19  31  47  68  93 123 155 191 230 272
#     4   9  16  29  46  67  93 121 152 187 223 267
#     4   8  15  27  45  66  89 116 150 188 228 267
#     4  10  20  33  50  69  89 114 149 190 233 273
#     4   9  18  30  46  66  91 122 153 184 225 269
#     4  11  21  33  45  62  91 127 159 188 219 262
#
# _framework density 15.754536
#
# number of rings (size 3 to 8) (size 9 to 14) (size 15 to 20)
#    0.000    2.250    1.250    3.375    0.000    2.000 
#    0.000    1.875    0.000    0.000    0.000    0.875 
#    0.000    4.000    0.000    0.000    0.000    0.000 
#
# Total GULP energy -178365.182328 kJ/mol
# GULP energy per Si atom -5573.911948 kJ/mol
# Density = 1.571868 g / cm^3
# Si number density = 15.754536 Si / 1000 Ang^3
#
#
#
# Elastic Constant Matrix: (Units=GPa)
#
#
# Indices 1 2 3 4 5 6 
#
# 1 30.5807 26.5764 25.7750 0.0000 0.0000 0.0000
# 2 26.5764 131.1886 84.9175 0.0000 0.0000 0.0000
# 3 25.7750 84.9175 160.5690 0.0000 0.0000 0.0000
# 4 0.0000 0.0000 0.0000 5.0887 0.0000 0.0000
# 5 0.0000 0.0000 0.0000 0.0000 1.2459 0.0000
# 6 0.0000 0.0000 0.0000 0.0000 0.0000 20.0586
#
#
#
# Elastic Compliance Matrix: (Units=1/GPa)
#
#
# Indices 1 2 3 4 5 6 
#
# 1 0.040815 -0.006124 -0.003313 0.000000 0.000000 0.000000
# 2 -0.006124 0.012509 -0.005632 0.000000 0.000000 0.000000
# 3 -0.003313 -0.005632 0.009738 0.000000 0.000000 0.000000
# 4 0.000000 0.000000 0.000000 0.196514 0.000000 0.000000
# 5 0.000000 0.000000 0.000000 0.000000 0.802664 0.000000
# 6 0.000000 0.000000 0.000000 0.000000 0.000000 0.049854
#
#
# Mechanical properties :
#
#
# Convention : Reuss Voigt Hill
#
# Bulk Modulus (GPa) = 30.37341 66.31957 48.34649
# Shear Modulus (GPa) = 4.33574 17.61660 10.97617
#
# Velocity S-wave (km/s) = 1.66073 3.34757 2.64237
# Velocity P-wave (km/s) = 4.79566 7.55834 6.32957
#
# Compressibility (1/GPa) = 0.03292353
#
# Stress axis : x y z
#
# Youngs Moduli (GPa) = 24.50097 79.94237 102.68604
#
# Poissons Ratio (x) = 0.48955 0.34021
# Poissons Ratio (y) = 0.15004 0.57837
# Poissons Ratio (z) = 0.08118 0.45027
#
# Static dielectric constant tensor:
#      x y z
#    x 1.534360 0.000000 0.000000 
#    y 0.000000 1.511060 0.000000 
#    z 0.000000 0.000000 1.543850 
# 
# From -- ./inp_files/6422.got.cif
#   From: 2010.05.17/outbox.cif.g08.bks.cpg/sg28_4_cif.got.tgz:6422.got - 2010.06.04 01:15:21.
