data_PCOD9339059
_publ_section_title
;
Structure prediction by ZEFSAII (Michael W. Deem and Ramdas Pophale) SiO2 
 PCOD9339059
Probable space group: P C C 2
;
_chemical_formula_sum "Si O2"
_cell_formula_units_Z 32
_cell_length_a 14.313240
_cell_length_b 11.801935
_cell_length_c 9.162323
_cell_angle_alpha 90.000000
_cell_angle_beta 90.000000
_cell_angle_gamma 90.000000
_cell_volume 1547.735592
_symmetry_space_group_name_H-M "P C C 2"
_symmetry_group_IT_number 27
_symmetry_cell_setting 'orthorhombic'
loop_
_space_group_symop_operation_xyz
x,y,z
-x,-y,z
-x,y,1/2+z
x,-y,1/2+z
loop_
_atom_site_type_symbol
_atom_site_label
_atom_site_fract_x
_atom_site_fract_y
_atom_site_fract_z
Si Si1 0.398055 0.779682 0.866770
Si Si2 0.749766 0.122503 0.256564
Si Si3 0.249766 0.377497 0.875390
Si Si4 0.898055 0.720318 0.265184
Si Si5 0.796854 0.091818 0.929033
Si Si6 0.703145 0.591818 0.202921
Si Si7 0.957948 0.614985 0.987455
Si Si8 0.457949 0.114985 0.644499
O O1 0.301535 0.849142 0.884535
O O2 0.373571 0.659601 0.795836
O O3 0.467981 0.844839 0.761714
O O4 0.442744 0.786391 0.026393
O O5 0.750000 0.250000 0.315977
O O6 0.642507 0.091567 0.217006
O O7 0.789199 0.037320 0.377784
O O8 0.804568 0.108748 0.103006
O O9 0.289200 0.462679 0.754170
O O10 0.304568 0.391252 0.028948
O O11 0.142507 0.408434 0.914948
O O12 0.873571 0.840399 0.336117
O O13 0.801535 0.650857 0.247420
O O14 0.942744 0.713609 0.105560
O O15 0.967981 0.655161 0.370240
O O16 0.000000 0.500000 0.057102
O O17 0.500000 0.000000 0.574852
#
# Coordination Sequence:
#
# PCOD9339059 Si02
#       8
#     4   4   4   4   4   4   4   4
#     4  10  23  39  66  96 135 166 221 281 331 396
#     4  11  26  42  71  97 137 183 226 281 347 411
#     4  11  26  42  71  97 137 183 226 281 347 411
#     4  10  23  39  66  96 135 166 221 281 331 396
#     4  10  24  43  65  98 136 176 227 273 349 405
#     4  10  24  43  65  98 136 176 227 273 349 405
#     4  11  22  39  68 104 130 173 228 282 334 395
#     4  11  22  39  68 104 130 173 228 282 334 395
#
# _framework density 20.675367000000001
#
# number of rings (size 3 to 8) (size 9 to 14) (size 15 to 20)
#    0.000    1.500    2.500    0.750   17.500    0.000 
#    0.000    1.250    0.000    0.000    0.000    0.000 
#    0.000    0.000    0.000    0.000    0.000    0.000 
#
# Total GULP energy -178774.213993 kJ/mol
# GULP energy per Si atom -5586.694187 kJ/mol
# Density = 2.062831 g / cm^3
# Si number density = 20.675367 Si / 1000 Ang^3
#
#
#
# Elastic Constant Matrix: (Units=GPa)
#
#
# Indices 1 2 3 4 5 6 
#
# 1 21.8242 -15.6939 3.4052 0.0000 0.0000 0.0000
# 2 -15.6939 122.6607 43.9013 0.0000 0.0000 0.0000
# 3 3.4052 43.9013 117.8503 0.0000 0.0000 0.0000
# 4 0.0000 0.0000 0.0000 34.3600 0.0000 0.0000
# 5 0.0000 0.0000 0.0000 0.0000 16.9011 0.0000
# 6 0.0000 0.0000 0.0000 0.0000 0.0000 22.5744
#
#
#
# Elastic Compliance Matrix: (Units=1/GPa)
#
#
# Indices 1 2 3 4 5 6 
#
# 1 0.052578 0.008389 -0.004644 0.000000 0.000000 0.000000
# 2 0.008389 0.010745 -0.004245 0.000000 0.000000 0.000000
# 3 -0.004644 -0.004245 0.010201 0.000000 0.000000 0.000000
# 4 0.000000 0.000000 0.000000 0.029104 0.000000 0.000000
# 5 0.000000 0.000000 0.000000 0.000000 0.059168 0.000000
# 6 0.000000 0.000000 0.000000 0.000000 0.000000 0.044298
#
#
# Mechanical properties :
#
#
# Convention : Reuss Voigt Hill
#
# Bulk Modulus (GPa) = 13.78853 36.17338 24.98096
# Shear Modulus (GPa) = 21.61985 30.14861 25.88423
#
# Velocity S-wave (km/s) = 3.23721 3.82277 3.54211
# Velocity P-wave (km/s) = 4.54491 6.08429 5.37005
#
# Compressibility (1/GPa) = 0.07252403
#
# Stress axis : x y z
#
# Youngs Moduli (GPa) = 19.01930 93.06327 98.02986
#
# Poissons Ratio (x) = -0.78075 0.45529
# Poissons Ratio (y) = -0.15956 0.41616
# Poissons Ratio (z) = 0.08833 0.39508
#
# Static dielectric constant tensor:
#      x y z
#    x 1.735160 0.000000 0.000000 
#    y 0.000000 1.731660 0.000000 
#    z 0.000000 0.000000 1.738990 
# 
# From -- ./inp_files/1497.got.cif
#   From: 2010.05.17/outbox.cif.g08.bks.cpg/sg27_1_cif.got.tgz:1497.got - 2010.06.04 01:11:05.
