data_PCOD9339179
_publ_section_title
;
Structure prediction by ZEFSAII (Michael W. Deem and Ramdas Pophale) SiO2 
 PCOD9339179
Probable space group: P C C 2
;
_chemical_formula_sum "Si O2"
_cell_formula_units_Z 24
_cell_length_a 8.881859
_cell_length_b 8.299700
_cell_length_c 14.227975
_cell_angle_alpha 90.000000
_cell_angle_beta 90.000000
_cell_angle_gamma 90.000000
_cell_volume 1048.840292
_symmetry_space_group_name_H-M "P C C 2"
_symmetry_group_IT_number 27
_symmetry_cell_setting 'orthorhombic'
loop_
_space_group_symop_operation_xyz
x,y,z
-x,-y,z
-x,y,1/2+z
x,-y,1/2+z
loop_
_atom_site_type_symbol
_atom_site_label
_atom_site_fract_x
_atom_site_fract_y
_atom_site_fract_z
Si Si1 0.097007 0.340840 0.968050
Si Si2 0.000000 0.000000 0.035244
Si Si3 0.700846 0.548749 0.826374
Si Si4 0.677997 0.509949 0.108013
Si Si5 0.700865 0.848961 0.585527
Si Si6 0.412692 0.235956 0.388650
Si Si7 0.500000 0.000000 0.740078
O O1 0.022948 0.167058 0.980068
O O2 0.153885 0.356151 0.860485
O O3 0.000000 0.500000 0.986753
O O4 0.235419 0.360346 0.044054
O O5 0.843038 0.033178 0.088278
O O6 0.685140 0.480671 0.721313
O O7 0.701478 0.385066 0.887311
O O8 0.565544 0.667667 0.859337
O O9 0.500000 0.500000 0.081583
O O10 0.751252 0.335182 0.093311
O O11 0.607298 0.851488 0.488094
O O12 0.592166 0.883945 0.672157
O O13 0.393809 0.103401 0.308200
#
# Coordination Sequence:
#
# PCOD9339179 Si02
#       7
#     4   2   4   4   4   4   2
#     4  12  27  51  73 106 156 201 250 304 374 458
#     4  12  30  48  74 106 152 218 244 288 388 456
#     4  11  23  43  75 108 140 189 250 314 377 444
#     4  12  23  46  78 113 144 191 251 321 382 436
#     4  12  26  47  70 109 151 199 245 313 380 444
#     4  11  23  44  72 110 142 187 248 314 387 436
#     4  12  26  42  72 112 148 186 254 320 374 458
#
# _framework density 22.882415000000002
#
# number of rings (size 3 to 8) (size 9 to 14) (size 15 to 20)
#    0.000    0.333    6.667    1.500    9.333    0.667 
#    0.000    3.333    0.000    0.000    0.000    0.000 
#    0.000    0.000    0.000    0.000    0.000    0.000 
#
# Total GULP energy -133985.968303 kJ/mol
# GULP energy per Si atom -5582.748679 kJ/mol
# Density = 2.283033 g / cm^3
# Si number density = 22.882415 Si / 1000 Ang^3
#
#
#
# Elastic Constant Matrix: (Units=GPa)
#
#
# Indices 1 2 3 4 5 6 
#
# 1 51.4386 16.7727 18.2539 0.0000 0.0000 0.0000
# 2 16.7727 101.4734 14.9363 0.0000 0.0000 0.0000
# 3 18.2539 14.9363 129.7268 0.0000 0.0000 0.0000
# 4 0.0000 0.0000 0.0000 31.7025 0.0000 0.0000
# 5 0.0000 0.0000 0.0000 0.0000 3.4207 0.0000
# 6 0.0000 0.0000 0.0000 0.0000 0.0000 42.5919
#
#
#
# Elastic Compliance Matrix: (Units=1/GPa)
#
#
# Indices 1 2 3 4 5 6 
#
# 1 0.021408 -0.003148 -0.002650 0.000000 0.000000 0.000000
# 2 -0.003148 0.010488 -0.000765 0.000000 0.000000 0.000000
# 3 -0.002650 -0.000765 0.008169 0.000000 0.000000 0.000000
# 4 0.000000 0.000000 0.000000 0.031543 0.000000 0.000000
# 5 0.000000 0.000000 0.000000 0.000000 0.292341 0.000000
# 6 0.000000 0.000000 0.000000 0.000000 0.000000 0.023479
#
#
# Mechanical properties :
#
#
# Convention : Reuss Voigt Hill
#
# Bulk Modulus (GPa) = 37.12057 42.50720 39.81389
# Shear Modulus (GPa) = 12.20903 31.05474 21.63189
#
# Velocity S-wave (km/s) = 2.31239 3.68794 3.07799
# Velocity P-wave (km/s) = 4.83602 6.06228 5.48353
#
# Compressibility (1/GPa) = 0.02693924
#
# Stress axis : x y z
#
# Youngs Moduli (GPa) = 46.71237 95.34937 122.40832
#
# Poissons Ratio (x) = 0.30020 0.32435
# Poissons Ratio (y) = 0.14707 0.09358
# Poissons Ratio (z) = 0.12378 0.07289
#
# Static dielectric constant tensor:
#      x y z
#    x 1.989040 0.000000 0.000000 
#    y 0.000000 1.863850 0.000000 
#    z 0.000000 0.000000 1.881300 
# 
# From -- ./inp_files/3332.got.cif
#   From: 2010.05.17/outbox.cif.g08.bks.cpg/sg27_2_cif.got.tgz:3332.got - 2010.06.04 01:11:05.
