data_PCOD9339837
_publ_section_title
;
Structure prediction by ZEFSAII (Michael W. Deem and Ramdas Pophale) SiO2 
 PCOD9339837
Probable space group: P M A 2
;
_chemical_formula_sum "Si O2"
_cell_formula_units_Z 26
_cell_length_a 24.361317
_cell_length_b 9.417433
_cell_length_c 5.280916
_cell_angle_alpha 90.000000
_cell_angle_beta 90.000000
_cell_angle_gamma 90.000000
_cell_volume 1211.553403
_symmetry_space_group_name_H-M "P M A 2"
_symmetry_group_IT_number 28
_symmetry_cell_setting 'orthorhombic'
loop_
_space_group_symop_operation_xyz
x,y,z
-x,-y,z
1/2-x,y,z
1/2+x,-y,z
loop_
_atom_site_type_symbol
_atom_site_label
_atom_site_fract_x
_atom_site_fract_y
_atom_site_fract_z
Si Si1 0.141413 0.721014 0.876180
Si Si2 0.030608 0.242694 0.508285
Si Si3 0.120745 0.127985 0.129679
Si Si4 0.186047 0.867267 0.362988
Si Si5 0.894526 0.589358 0.901047
Si Si6 0.000000 0.500000 0.226607
Si Si7 0.952677 0.078438 0.883681
O O1 0.157533 0.798535 0.611871
O O2 0.138696 0.552244 0.837599
O O3 0.081611 0.783068 0.958434
O O4 0.178485 0.767136 0.114879
O O5 0.070292 0.164606 0.313754
O O6 0.073001 0.335477 0.674180
O O7 0.990533 0.359813 0.389782
O O8 0.990988 0.138435 0.660830
O O9 0.160037 0.018383 0.275019
O O10 0.139528 0.282794 0.033645
O O11 0.095308 0.040133 0.890582
O O12 0.250000 0.884883 0.420817
O O13 0.945358 0.538237 0.074533
O O14 0.000000 0.000000 0.045857
#
# Coordination Sequence:
#
# PCOD9339837 Si02
#       7
#     4   4   4   4   4   2   4
#     4  11  26  42  74 100 135 179 228 288 348 413
#     4  11  22  39  63  92 144 188 218 269 324 404
#     4  10  25  42  66  97 136 182 231 285 340 412
#     4  11  26  51  73  97 127 174 235 300 361 414
#     4  11  23  42  60 101 139 178 231 277 339 408
#     4  10  22  36  60  92 138 190 222 254 328 402
#     4  11  21  38  57 100 138 179 226 257 322 408
#
# _framework density 21.460052000000001
#
# number of rings (size 3 to 8) (size 9 to 14) (size 15 to 20)
#    0.000    1.231    1.538    3.692   10.769    1.846 
#    0.000    1.538    0.000    0.000    0.000    0.000 
#    0.000    0.000    0.000    0.000    0.000    0.000 
#
# Total GULP energy -144908.527508 kJ/mol
# GULP energy per Si atom -5573.404904 kJ/mol
# Density = 2.141121 g / cm^3
# Si number density = 21.460052 Si / 1000 Ang^3
#
#
#
# Elastic Constant Matrix: (Units=GPa)
#
#
# Indices 1 2 3 4 5 6 
#
# 1 62.5636 63.9506 30.0743 0.0000 0.0000 0.0000
# 2 63.9506 202.1680 64.9003 0.0000 0.0000 0.0000
# 3 30.0743 64.9003 97.4010 0.0000 0.0000 0.0000
# 4 0.0000 0.0000 0.0000 35.6115 0.0000 0.0000
# 5 0.0000 0.0000 0.0000 0.0000 17.6149 0.0000
# 6 0.0000 0.0000 0.0000 0.0000 0.0000 16.1554
#
#
#
# Elastic Compliance Matrix: (Units=1/GPa)
#
#
# Indices 1 2 3 4 5 6 
#
# 1 0.024304 -0.006715 -0.003030 0.000000 0.000000 0.000000
# 2 -0.006715 0.008148 -0.003356 0.000000 0.000000 0.000000
# 3 -0.003030 -0.003356 0.013438 0.000000 0.000000 0.000000
# 4 0.000000 0.000000 0.000000 0.028081 0.000000 0.000000
# 5 0.000000 0.000000 0.000000 0.000000 0.056770 0.000000
# 6 0.000000 0.000000 0.000000 0.000000 0.000000 0.061899
#
#
# Mechanical properties :
#
#
# Convention : Reuss Voigt Hill
#
# Bulk Modulus (GPa) = 50.78999 75.55366 63.17183
# Shear Modulus (GPa) = 22.18233 27.42354 24.80293
#
# Velocity S-wave (km/s) = 3.21854 3.57863 3.40335
# Velocity P-wave (km/s) = 6.12622 7.23592 6.70407
#
# Compressibility (1/GPa) = 0.01968892
#
# Stress axis : x y z
#
# Youngs Moduli (GPa) = 41.14468 122.73176 74.41461
#
# Poissons Ratio (x) = 0.82420 0.22546
# Poissons Ratio (y) = 0.27631 0.24970
# Poissons Ratio (z) = 0.12466 0.41183
#
# Static dielectric constant tensor:
#      x y z
#    x 1.754000 0.000000 0.000000 
#    y 0.000000 1.942720 0.000000 
#    z 0.000000 0.000000 1.891910 
# 
# From -- ./inp_files/1759.got.cif
#   From: 2010.05.17/outbox.cif.g08.bks.cpg/sg28_1_cif.got.tgz:1759.got - 2010.06.04 01:15:21.
