data_PCOD9339018
_publ_section_title
;
Structure prediction by ZEFSAII (Michael W. Deem and Ramdas Pophale) SiO2 
 PCOD9339018
Probable space group: P C C 2
;
_chemical_formula_sum "Si O2"
_cell_formula_units_Z 32
_cell_length_a 6.301765
_cell_length_b 18.220816
_cell_length_c 12.911587
_cell_angle_alpha 90.000000
_cell_angle_beta 90.000000
_cell_angle_gamma 90.000000
_cell_volume 1482.551035
_symmetry_space_group_name_H-M "P C C 2"
_symmetry_group_IT_number 27
_symmetry_cell_setting 'orthorhombic'
loop_
_space_group_symop_operation_xyz
x,y,z
-x,-y,z
-x,y,1/2+z
x,-y,1/2+z
loop_
_atom_site_type_symbol
_atom_site_label
_atom_site_fract_x
_atom_site_fract_y
_atom_site_fract_z
Si Si1 0.044994 0.077420 0.330300
Si Si2 0.722277 0.168195 0.208940
Si Si3 0.970881 0.166423 0.511240
Si Si4 0.044994 0.422580 0.330300
Si Si5 0.649138 0.571885 0.132392
Si Si6 0.350862 0.071885 0.132393
Si Si7 0.277723 0.331805 0.708940
Si Si8 0.029119 0.333577 0.011239
O O1 0.196069 0.060715 0.232017
O O2 0.827747 0.112942 0.289151
O O3 0.113132 0.135997 0.416485
O O4 0.000000 0.000000 0.382307
O O5 0.504188 0.136949 0.168114
O O6 0.701780 0.250000 0.251205
O O7 0.884345 0.169640 0.112983
O O8 0.789288 0.106499 0.539594
O O9 0.894781 0.250000 0.491652
O O10 0.196069 0.439284 0.232016
O O11 0.000000 0.500000 0.382306
O O12 0.827747 0.387058 0.289151
O O13 0.113131 0.364003 0.416484
O O14 0.500000 0.500000 0.111809
O O15 0.495811 0.636949 0.168113
O O16 0.789288 0.606499 0.039593
O O17 0.500000 0.000000 0.111809
O O18 0.115655 0.330360 0.612982
#
# Coordination Sequence:
#
# PCOD9339018 Si02
#       8
#     4   4   4   4   4   4   4   4
#     4  11  23  40  65  95 129 168 215 265 324 383
#     4  10  22  42  65  92 129 168 212 266 325 387
#     4  10  24  42  65  95 130 172 214 264 328 389
#     4  11  23  40  65  95 129 168 215 265 324 383
#     4  11  23  42  66  95 127 170 218 269 324 385
#     4  11  23  42  66  95 127 170 218 269 324 385
#     4  10  22  42  65  92 129 168 212 266 325 387
#     4  10  24  42  65  95 130 172 214 264 328 389
#
# _framework density 21.584416999999998
#
# number of rings (size 3 to 8) (size 9 to 14) (size 15 to 20)
#    0.000    1.500    2.500    1.500    3.500    5.000 
#    0.000    2.500    0.000    0.000    0.000    0.000 
#    0.000    0.000    0.000    0.000    0.000    0.000 
#
# Total GULP energy -178499.409504 kJ/mol
# GULP energy per Si atom -5578.106547 kJ/mol
# Density = 2.153529 g / cm^3
# Si number density = 21.584417 Si / 1000 Ang^3
#
#
#
# Elastic Constant Matrix: (Units=GPa)
#
#
# Indices 1 2 3 4 5 6 
#
# 1 59.9565 39.3046 -5.7563 0.0000 0.0000 0.0000
# 2 39.3046 165.7122 42.2756 0.0000 0.0000 0.0000
# 3 -5.7563 42.2756 61.3765 0.0000 0.0000 0.0000
# 4 0.0000 0.0000 0.0000 18.3254 0.0000 0.0000
# 5 0.0000 0.0000 0.0000 0.0000 14.0628 0.0000
# 6 0.0000 0.0000 0.0000 0.0000 0.0000 33.1389
#
#
#
# Elastic Compliance Matrix: (Units=1/GPa)
#
#
# Indices 1 2 3 4 5 6 
#
# 1 0.021877 -0.006930 0.006825 0.000000 0.000000 0.000000
# 2 -0.006930 0.009516 -0.007205 0.000000 0.000000 0.000000
# 3 0.006825 -0.007205 0.021896 0.000000 0.000000 0.000000
# 4 0.000000 0.000000 0.000000 0.054569 0.000000 0.000000
# 5 0.000000 0.000000 0.000000 0.000000 0.071109 0.000000
# 6 0.000000 0.000000 0.000000 0.000000 0.000000 0.030176
#
#
# Mechanical properties :
#
#
# Convention : Reuss Voigt Hill
#
# Bulk Modulus (GPa) = 25.86007 48.74367 37.30187
# Shear Modulus (GPa) = 21.12801 27.18684 24.15742
#
# Velocity S-wave (km/s) = 3.13206 3.55288 3.34908
# Velocity P-wave (km/s) = 5.00866 6.28191 5.68107
#
# Compressibility (1/GPa) = 0.03866966
#
# Stress axis : x y z
#
# Youngs Moduli (GPa) = 45.70988 105.08264 45.67138
#
# Poissons Ratio (x) = 0.72824 -0.31172
# Poissons Ratio (y) = 0.31678 0.32905
# Poissons Ratio (z) = -0.31198 0.75709
#
# Static dielectric constant tensor:
#      x y z
#    x 1.761910 0.000000 0.000000 
#    y 0.000000 1.784090 0.000000 
#    z 0.000000 0.000000 1.858800 
# 
# From -- ./inp_files/3157.got.cif
#   From: 2010.05.17/outbox.cif.g08.bks.cpg/sg27_2_cif.got.tgz:3157.got - 2010.06.04 01:11:05.
