data_PCOD9339096
_publ_section_title
;
Structure prediction by ZEFSAII (Michael W. Deem and Ramdas Pophale) SiO2 
 PCOD9339096
Probable space group: P C C 2
;
_chemical_formula_sum "Si O2"
_cell_formula_units_Z 30
_cell_length_a 13.460048
_cell_length_b 5.848759
_cell_length_c 17.556973
_cell_angle_alpha 90.000000
_cell_angle_beta 90.000000
_cell_angle_gamma 90.000000
_cell_volume 1382.165271
_symmetry_space_group_name_H-M "P C C 2"
_symmetry_group_IT_number 27
_symmetry_cell_setting 'orthorhombic'
loop_
_space_group_symop_operation_xyz
x,y,z
-x,-y,z
-x,y,1/2+z
x,-y,1/2+z
loop_
_atom_site_type_symbol
_atom_site_label
_atom_site_fract_x
_atom_site_fract_y
_atom_site_fract_z
Si Si1 0.115650 0.499248 0.500000
Si Si2 0.237637 0.773454 0.201681
Si Si3 0.120462 0.998587 0.071598
Si Si4 0.790906 0.483770 0.840729
Si Si5 0.616769 0.438439 0.618187
Si Si6 0.500000 0.000000 0.367038
Si Si7 0.346319 0.148273 0.263376
Si Si8 0.395034 0.634028 0.443000
O O1 0.149394 0.241141 0.527240
O O2 0.130930 0.494802 0.408793
O O3 0.000000 0.500000 0.519819
O O4 0.149688 0.750983 0.534996
O O5 0.171726 0.951680 0.153837
O O6 0.179777 0.629978 0.265985
O O7 0.301777 0.623269 0.143515
O O8 0.324230 0.884812 0.252591
O O9 0.000000 0.000000 0.077274
O O10 0.751238 0.249720 0.803344
O O11 0.691056 0.555309 0.886969
O O12 0.500000 0.500000 0.625252
O O13 0.635696 0.242216 0.679523
O O14 0.634449 0.384572 0.530457
O O15 0.555505 0.821385 0.312873
O O16 0.418124 0.892826 0.420847
O O17 0.500000 0.500000 0.435933
#
# Coordination Sequence:
#
# PCOD9339096 Si02
#       8
#     4   4   4   4   4   2   4   4
#     4  10  24  48  74 103 141 181 228 288 352 418
#     4  11  24  42  65  98 131 181 224 290 347 419
#     4  10  24  47  74 103 137 182 230 285 352 420
#     4  11  24  41  64  99 132 177 224 286 349 414
#     4  10  24  41  62  90 130 176 234 281 331 409
#     4  12  22  38  62  88 136 182 218 280 342 396
#     4  11  24  39  63  91 129 176 226 274 348 407
#     4  11  23  40  58  89 127 173 226 279 324 403
#
# _framework density 21.705074
#
# number of rings (size 3 to 8) (size 9 to 14) (size 15 to 20)
#    0.000    1.333    2.667    1.600    9.333    2.667 
#    2.400    0.000    0.000    0.000    0.000    0.000 
#    0.000    0.000    0.000    0.000    0.000    0.000 
#
# Total GULP energy -167036.628904 kJ/mol
# GULP energy per Si atom -5567.887630 kJ/mol
# Density = 2.165567 g / cm^3
# Si number density = 21.705074 Si / 1000 Ang^3
#
#
#
# Elastic Constant Matrix: (Units=GPa)
#
#
# Indices 1 2 3 4 5 6 
#
# 1 26.6571 16.7663 15.7332 0.0000 0.0000 0.0000
# 2 16.7663 84.2381 62.3393 0.0000 0.0000 0.0000
# 3 15.7332 62.3393 151.2707 0.0000 0.0000 0.0000
# 4 0.0000 0.0000 0.0000 43.8975 0.0000 0.0000
# 5 0.0000 0.0000 0.0000 0.0000 33.7252 0.0000
# 6 0.0000 0.0000 0.0000 0.0000 0.0000 -153.3283
#
#
#
# Elastic Compliance Matrix: (Units=1/GPa)
#
#
# Indices 1 2 3 4 5 6 
#
# 1 0.043076 -0.007565 -0.001363 0.000000 0.000000 0.000000
# 2 -0.007565 0.018409 -0.006799 0.000000 0.000000 0.000000
# 3 -0.001363 -0.006799 0.009554 0.000000 0.000000 0.000000
# 4 0.000000 0.000000 0.000000 0.022780 0.000000 0.000000
# 5 0.000000 0.000000 0.000000 0.000000 0.029651 0.000000
# 6 0.000000 0.000000 0.000000 0.000000 0.000000 -0.006522
#
#
# Mechanical properties :
#
#
# Convention : Reuss Voigt Hill
#
# Bulk Modulus (GPa) = 25.26240 50.20484 37.73362
# Shear Modulus (GPa) = 30.94096 -3.98598 13.47749
#
# Velocity S-wave (km/s) = 3.77970 -1.35662 2.49456
# Velocity P-wave (km/s) = 5.54187 4.55267 5.07145
#
# Compressibility (1/GPa) = 0.03958452
#
# Stress axis : x y z
#
# Youngs Moduli (GPa) = 23.21490 54.32207 104.66307
#
# Poissons Ratio (x) = 0.41096 0.14260
# Poissons Ratio (y) = 0.17563 0.71165
# Poissons Ratio (z) = 0.03163 0.36936
#
# Static dielectric constant tensor:
#      x y z
#    x 1.929650 0.000000 0.000000 
#    y 0.000000 1.883510 0.000000 
#    z 0.000000 0.000000 1.779800 
# 
# From -- ./inp_files/4064.got.cif
#   From: 2010.05.17/outbox.cif.g08.bks.cpg/sg27_3_cif.got.tgz:4064.got - 2010.06.04 01:11:05.
