data_PCOD9339924
_publ_section_title
;
Structure prediction by ZEFSAII (Michael W. Deem and Ramdas Pophale) SiO2 
 PCOD9339924
Probable space group: P M A 2
;
_chemical_formula_sum "Si O2"
_cell_formula_units_Z 32
_cell_length_a 18.302829
_cell_length_b 13.404717
_cell_length_c 5.561820
_cell_angle_alpha 90.000000
_cell_angle_beta 90.000000
_cell_angle_gamma 90.000000
_cell_volume 1364.560518
_symmetry_space_group_name_H-M "P M A 2"
_symmetry_group_IT_number 28
_symmetry_cell_setting 'orthorhombic'
loop_
_space_group_symop_operation_xyz
x,y,z
-x,-y,z
1/2-x,y,z
1/2+x,-y,z
loop_
_atom_site_type_symbol
_atom_site_label
_atom_site_fract_x
_atom_site_fract_y
_atom_site_fract_z
Si Si1 0.088253 0.012522 0.330880
Si Si2 0.583815 0.157200 0.669320
Si Si3 0.556568 0.853507 0.949230
Si Si4 0.830160 0.288801 0.999614
Si Si5 0.888168 0.593983 0.319177
Si Si6 0.832512 0.506083 0.808962
Si Si7 0.972150 0.296143 0.303509
Si Si8 0.663273 0.794575 0.570148
O O1 0.113228 0.909360 0.450155
O O2 0.127865 0.101943 0.474094
O O3 0.000000 0.000000 0.344521
O O4 0.099028 0.051718 0.059630
O O5 0.512970 0.110580 0.796377
O O6 0.645872 0.191884 0.850008
O O7 0.545155 0.256825 0.567012
O O8 0.613894 0.783075 0.810208
O O9 0.516294 0.790386 0.158948
O O10 0.750000 0.277665 0.108897
O O11 0.829371 0.386934 0.834596
O O12 0.894473 0.309829 0.184103
O O13 0.873467 0.532163 0.562550
O O14 0.852649 0.702358 0.390487
O O15 0.974236 0.612201 0.295497
O O16 0.859940 0.549684 0.066276
O O17 0.750000 0.545496 0.777444
O O18 0.750000 0.803006 0.610104
#
# Coordination Sequence:
#
# PCOD9339924 Si02
#       8
#     4   4   4   4   4   4   4   4
#     4  12  23  41  71 100 135 194 240 305 367 453
#     4  11  24  44  74 103 138 194 255 304 387 450
#     4  11  21  42  67 101 144 188 244 303 371 463
#     4  10  27  50  73 106 150 197 250 324 389 463
#     4  12  24  47  74 112 154 198 257 313 383 474
#     4  11  26  48  76 109 154 208 253 307 396 467
#     4  11  23  43  73 107 136 189 250 310 374 451
#     4  12  26  42  67 106 150 189 239 309 379 455
#
# _framework density 23.450773999999999
#
# number of rings (size 3 to 8) (size 9 to 14) (size 15 to 20)
#    0.000    0.750    5.000    1.875    5.250    2.000 
#    0.000    0.000    0.000    0.000    0.000    0.000 
#    0.000    0.000    0.000    0.000    0.000    0.000 
#
# Total GULP energy -178756.494817 kJ/mol
# GULP energy per Si atom -5586.140463 kJ/mol
# Density = 2.339740 g / cm^3
# Si number density = 23.450774 Si / 1000 Ang^3
#
#
#
# Elastic Constant Matrix: (Units=GPa)
#
#
# Indices 1 2 3 4 5 6 
#
# 1 161.0031 31.9568 44.2825 0.0000 0.0000 0.0000
# 2 31.9568 78.3340 17.7761 0.0000 0.0000 0.0000
# 3 44.2825 17.7761 98.3496 0.0000 0.0000 0.0000
# 4 0.0000 0.0000 0.0000 40.8150 0.0000 0.0000
# 5 0.0000 0.0000 0.0000 0.0000 27.8042 0.0000
# 6 0.0000 0.0000 0.0000 0.0000 0.0000 39.3853
#
#
#
# Elastic Compliance Matrix: (Units=1/GPa)
#
#
# Indices 1 2 3 4 5 6 
#
# 1 0.007495 -0.002390 -0.002943 0.000000 0.000000 0.000000
# 2 -0.002390 0.014074 -0.001468 0.000000 0.000000 0.000000
# 3 -0.002943 -0.001468 0.011758 0.000000 0.000000 0.000000
# 4 0.000000 0.000000 0.000000 0.024501 0.000000 0.000000
# 5 0.000000 0.000000 0.000000 0.000000 0.035966 0.000000
# 6 0.000000 0.000000 0.000000 0.000000 0.000000 0.025390
#
#
# Mechanical properties :
#
#
# Convention : Reuss Voigt Hill
#
# Bulk Modulus (GPa) = 50.69364 58.41305 54.55334
# Shear Modulus (GPa) = 35.87854 37.84565 36.86209
#
# Velocity S-wave (km/s) = 3.91570 4.02161 3.96901
# Velocity P-wave (km/s) = 6.48904 6.82110 6.65714
#
# Compressibility (1/GPa) = 0.01972634
#
# Stress axis : x y z
#
# Youngs Moduli (GPa) = 133.42694 71.05381 85.04824
#
# Poissons Ratio (x) = 0.16980 0.25026
# Poissons Ratio (y) = 0.31886 0.12483
# Poissons Ratio (z) = 0.39262 0.10429
#
# Static dielectric constant tensor:
#      x y z
#    x 1.851580 0.000000 0.000000 
#    y 0.000000 1.979360 0.000000 
#    z 0.000000 0.000000 1.981280 
# 
# From -- ./inp_files/1233.got.cif
#   From: 2010.05.17/outbox.cif.g08.bks.cpg/sg28_1_cif.got.tgz:1233.got - 2010.06.04 01:15:21.
