data_PCOD9339207
_publ_section_title
;
Structure prediction by ZEFSAII (Michael W. Deem and Ramdas Pophale) SiO2 
 PCOD9339207
Probable space group: P C C 2
;
_chemical_formula_sum "Si O2"
_cell_formula_units_Z 18
_cell_length_a 5.486110
_cell_length_b 5.446504
_cell_length_c 24.304409
_cell_angle_alpha 90.000000
_cell_angle_beta 90.000000
_cell_angle_gamma 90.000000
_cell_volume 726.218659
_symmetry_space_group_name_H-M "P C C 2"
_symmetry_group_IT_number 27
_symmetry_cell_setting 'orthorhombic'
loop_
_space_group_symop_operation_xyz
x,y,z
-x,-y,z
-x,y,1/2+z
x,-y,1/2+z
loop_
_atom_site_type_symbol
_atom_site_label
_atom_site_fract_x
_atom_site_fract_y
_atom_site_fract_z
Si Si1 0.637166 0.250173 0.382120
Si Si2 0.745577 0.655373 0.639201
Si Si3 0.500000 0.000000 0.558826
Si Si4 0.845860 0.249174 0.262994
Si Si5 0.129970 0.253002 0.990144
O O1 0.500000 0.500000 0.395764
O O2 0.681767 0.247639 0.317145
O O3 0.861819 0.257711 0.423763
O O4 0.500000 0.000000 0.396313
O O5 0.500000 0.500000 0.629440
O O6 0.729531 0.742689 0.702704
O O7 0.000000 0.500000 0.633758
O O8 0.706156 0.885449 0.598853
O O9 0.609317 0.210897 0.519137
O O10 0.000000 0.500000 0.267354
O O11 0.000000 0.000000 0.265967
O O12 0.000000 0.500000 0.009270
O O13 0.000000 0.000000 0.003918
#
# Coordination Sequence:
#
# PCOD9339207 Si02
#       5
#     4   4   2   4   4
#     4  12  24  45  78 115 159 204 262 336 415 495
#     4  11  30  52  82 119 166 217 279 341 417 492
#     4  12  32  50  80 116 164 222 286 350 402 506
#     4  11  25  47  77 116 159 204 263 334 414 495
#     4  12  29  51  79 114 161 214 272 340 416 489
#
# _framework density 24.785921999999999
#
# number of rings (size 3 to 8) (size 9 to 14) (size 15 to 20)
#    0.000    0.444    1.111    4.667   14.000    0.000 
#    0.000    0.000    0.000    0.000    0.000    0.000 
#    0.000    0.000    0.000    0.000    0.000    0.000 
#
# Total GULP energy -100792.196964 kJ/mol
# GULP energy per Si atom -5599.566498 kJ/mol
# Density = 2.472951 g / cm^3
# Si number density = 24.785922 Si / 1000 Ang^3
#
#
#
# Elastic Constant Matrix: (Units=GPa)
#
#
# Indices 1 2 3 4 5 6 
#
# 1 85.6850 57.1714 30.0861 0.0000 0.0000 0.0000
# 2 57.1714 203.9742 39.3025 0.0000 0.0000 0.0000
# 3 30.0861 39.3025 152.5453 0.0000 0.0000 0.0000
# 4 0.0000 0.0000 0.0000 20.0907 0.0000 0.0000
# 5 0.0000 0.0000 0.0000 0.0000 18.0184 0.0000
# 6 0.0000 0.0000 0.0000 0.0000 0.0000 54.7313
#
#
#
# Elastic Compliance Matrix: (Units=1/GPa)
#
#
# Indices 1 2 3 4 5 6 
#
# 1 0.014892 -0.003796 -0.001959 0.000000 0.000000 0.000000
# 2 -0.003796 0.006127 -0.000830 0.000000 0.000000 0.000000
# 3 -0.001959 -0.000830 0.007156 0.000000 0.000000 0.000000
# 4 0.000000 0.000000 0.000000 0.049774 0.000000 0.000000
# 5 0.000000 0.000000 0.000000 0.000000 0.055499 0.000000
# 6 0.000000 0.000000 0.000000 0.000000 0.000000 0.018271
#
#
# Mechanical properties :
#
#
# Convention : Reuss Voigt Hill
#
# Bulk Modulus (GPa) = 66.65094 77.25829 71.95462
# Shear Modulus (GPa) = 29.43100 39.61107 34.52104
#
# Velocity S-wave (km/s) = 3.44962 4.00200 3.73603
# Velocity P-wave (km/s) = 6.54335 7.25207 6.90681
#
# Compressibility (1/GPa) = 0.01500354
#
# Stress axis : x y z
#
# Youngs Moduli (GPa) = 67.15210 163.22395 139.75177
#
# Poissons Ratio (x) = 0.61967 0.27376
# Poissons Ratio (y) = 0.25494 0.11595
# Poissons Ratio (z) = 0.13154 0.13543
#
# Static dielectric constant tensor:
#      x y z
#    x 2.165160 0.000000 0.000000 
#    y 0.000000 2.035340 0.000000 
#    z 0.000000 0.000000 1.961990 
# 
# From -- ./inp_files/4912.got.cif
#   From: 2010.05.17/outbox.cif.g08.bks.cpg/sg27_3_cif.got.tgz:4912.got - 2010.06.04 01:11:05.
