data_PCOD9339989
_publ_section_title
;
Structure prediction by ZEFSAII (Michael W. Deem and Ramdas Pophale) SiO2 
 PCOD9339989
Probable space group: P C A 21
;
_chemical_formula_sum "Si O2"
_cell_formula_units_Z 32
_cell_length_a 5.507236
_cell_length_b 9.256584
_cell_length_c 29.998546
_cell_angle_alpha 90.000000
_cell_angle_beta 90.000000
_cell_angle_gamma 90.000000
_cell_volume 1529.271657
_symmetry_space_group_name_H-M "P C A 21"
_symmetry_group_IT_number 29
_symmetry_cell_setting 'orthorhombic'
loop_
_space_group_symop_operation_xyz
x,y,z
-x,-y,1/2+z
1/2-x,y,1/2+z
1/2+x,-y,z
loop_
_atom_site_type_symbol
_atom_site_label
_atom_site_fract_x
_atom_site_fract_y
_atom_site_fract_z
Si Si1 0.038125 0.161171 0.380650
Si Si2 0.559848 0.156091 0.054743
Si Si3 0.559951 0.827892 0.020889
Si Si4 0.038184 0.829145 0.416653
Si Si5 0.134907 0.502469 0.625147
Si Si6 0.522859 0.909841 0.276983
Si Si7 0.894775 0.820354 0.154646
Si Si8 0.395933 0.779318 0.189264
O O1 0.295757 0.230385 0.393259
O O2 0.795751 0.232117 0.400501
O O3 0.012928 0.143537 0.327827
O O4 0.048769 0.999321 0.402387
O O5 0.827699 0.224125 0.049637
O O6 0.483414 0.134654 0.105775
O O7 0.326718 0.232613 0.032456
O O8 0.587197 0.998758 0.032207
O O9 0.494465 0.814713 0.969317
O O10 0.384856 0.502044 0.598770
O O11 0.133844 0.353300 0.652239
O O12 0.128824 0.632145 0.660876
O O13 0.482436 0.784526 0.240277
O O14 0.788747 0.983645 0.271217
O O15 0.618090 0.865148 0.165194
O O16 0.123952 0.843886 0.186877
#
# Coordination Sequence:
#
# PCOD9339989 Si02
#       8
#     4   4   4   4   4   4   4   4
#     4  10  16  27  44  62  84 122 169 194 224 266
#     4  10  18  30  43  64  94 123 162 204 230 278
#     4  10  19  30  43  65  96 132 164 191 233 286
#     4  10  16  28  46  60  84 129 172 184 226 279
#     4   8  16  32  54  68  84 113 161 211 250 281
#     4  12  21  35  44  69 103 132 168 205 233 292
#     4  10  19  35  51  69  89 128 168 207 252 291
#     4  10  21  35  49  69  92 131 166 208 248 289
#
# _framework density 20.924994000000002
#
# number of rings (size 3 to 8) (size 9 to 14) (size 15 to 20)
#    0.000    2.000    2.500    5.250    0.000    0.000 
#   13.500    0.000    0.000    0.000    0.000    0.000 
#    0.000    0.000    0.000  344.250    4.500    0.000 
#
# Total GULP energy -178266.306351 kJ/mol
# GULP energy per Si atom -5570.822073 kJ/mol
# Density = 2.087737 g / cm^3
# Si number density = 20.924994 Si / 1000 Ang^3
#
#
#
# Elastic Constant Matrix: (Units=GPa)
#
#
# Indices 1 2 3 4 5 6 
#
# 1 200.2017 -2.0333 -5.4390 0.0000 0.0000 0.0000
# 2 -2.0333 42.5162 -10.4654 0.0000 0.0000 0.0000
# 3 -5.4390 -10.4654 63.9058 0.0000 0.0000 0.0000
# 4 0.0000 0.0000 0.0000 2.4785 0.0000 0.0000
# 5 0.0000 0.0000 0.0000 0.0000 38.9199 0.0000
# 6 0.0000 0.0000 0.0000 0.0000 0.0000 -110.9223
#
#
#
# Elastic Compliance Matrix: (Units=1/GPa)
#
#
# Indices 1 2 3 4 5 6 
#
# 1 0.005012 0.000359 0.000485 0.000000 0.000000 0.000000
# 2 0.000359 0.024534 0.004048 0.000000 0.000000 0.000000
# 3 0.000485 0.004048 0.016352 0.000000 0.000000 0.000000
# 4 0.000000 0.000000 0.000000 0.403473 0.000000 0.000000
# 5 0.000000 0.000000 0.000000 0.000000 0.025694 0.000000
# 6 0.000000 0.000000 0.000000 0.000000 0.000000 -0.009015
#
#
# Mechanical properties :
#
#
# Convention : Reuss Voigt Hill
#
# Bulk Modulus (GPa) = 17.95849 30.08313 24.02081
# Shear Modulus (GPa) = 10.53019 7.73265 9.13142
#
# Velocity S-wave (km/s) = 2.24572 1.92443 2.09126
# Velocity P-wave (km/s) = 3.91476 4.39838 4.16360
#
# Compressibility (1/GPa) = 0.05568398
#
# Stress axis : x y z
#
# Youngs Moduli (GPa) = 199.52925 40.75956 61.15343
#
# Poissons Ratio (x) = -0.01464 -0.02968
# Poissons Ratio (y) = -0.07166 -0.24757
# Poissons Ratio (z) = -0.09685 -0.16501
#
# Static dielectric constant tensor:
#      x y z
#    x 1.914060 0.000000 0.000000 
#    y 0.000000 1.778500 0.000000 
#    z 0.000000 0.000000 1.723260 
# 
# From -- ./inp_files/5643.got.cif
#   From: 2010.05.17/outbox.cif.g08.bks.cpg/sg29_3_cif.got.tgz:5643.got - 2010.06.04 01:19:37.
