data_PCOD9339250
_publ_section_title
;
Structure prediction by ZEFSAII (Michael W. Deem and Ramdas Pophale) SiO2 
 PCOD9339250
Probable space group: P M A 2
;
_chemical_formula_sum "Si O2"
_cell_formula_units_Z 24
_cell_length_a 8.583294
_cell_length_b 9.124125
_cell_length_c 16.481130
_cell_angle_alpha 90.000000
_cell_angle_beta 90.000000
_cell_angle_gamma 90.000000
_cell_volume 1290.720477
_symmetry_space_group_name_H-M "P M A 2"
_symmetry_group_IT_number 28
_symmetry_cell_setting 'orthorhombic'
loop_
_space_group_symop_operation_xyz
x,y,z
-x,-y,z
1/2-x,y,z
1/2+x,-y,z
loop_
_atom_site_type_symbol
_atom_site_label
_atom_site_fract_x
_atom_site_fract_y
_atom_site_fract_z
Si Si1 0.937903 0.333424 0.473520
Si Si2 0.064045 0.163833 0.629079
Si Si3 0.435967 0.665852 0.784613
Si Si4 0.435688 0.332602 0.953593
Si Si5 0.062638 0.667849 0.120694
Si Si6 0.062503 0.666350 0.296092
O O1 0.750000 0.334332 0.479584
O O2 0.983361 0.271377 0.384035
O O3 0.000000 0.500000 0.478054
O O4 0.008823 0.244070 0.547374
O O5 0.250000 0.165064 0.633533
O O6 0.995238 0.246146 0.707211
O O7 0.000000 0.000000 0.628175
O O8 0.500000 0.500000 0.777980
O O9 0.250000 0.661523 0.786868
O O10 0.498881 0.731112 0.869687
O O11 0.500000 0.500000 0.954143
O O12 0.250000 0.336239 0.951673
O O13 0.493616 0.264561 0.038434
O O14 0.250000 0.664913 0.114194
O O15 0.016178 0.733237 0.208773
O O16 0.000000 0.500000 0.123000
O O17 0.250000 0.660416 0.295457
O O18 0.000000 0.500000 0.296397
#
# Coordination Sequence:
#
# PCOD9339250 Si02
#       6
#     4   4   4   4   4   4
#     4  10  19  34  54  79 107 139 175 215 257 304
#     4  12  25  41  57  77 102 133 170 213 261 313
#     4  11  21  36  56  79 105 137 173 214 257 305
#     4  10  17  26  41  66  98 133 168 207 250 299
#     4   9  14  22  36  60  94 132 166 202 246 295
#     4   8  15  25  41  65  97 132 168 205 247 294
#
# _framework density 18.594266000000001
#
# number of rings (size 3 to 8) (size 9 to 14) (size 15 to 20)
#    0.000    2.000    0.000    8.000    0.000    1.333 
#    0.000    0.000    0.000    0.000    0.000    1.167 
#    0.000    2.667    0.000    0.000    0.000    0.000 
#
# Total GULP energy -133798.781219 kJ/mol
# GULP energy per Si atom -5574.949217 kJ/mol
# Density = 1.855194 g / cm^3
# Si number density = 18.594266 Si / 1000 Ang^3
#
#
#
# Elastic Constant Matrix: (Units=GPa)
#
#
# Indices 1 2 3 4 5 6 
#
# 1 143.4999 22.5996 80.0081 0.0000 0.0000 0.0000
# 2 22.5996 37.1443 52.5309 0.0000 0.0000 0.0000
# 3 80.0081 52.5309 250.0419 0.0000 0.0000 0.0000
# 4 0.0000 0.0000 0.0000 -6.8032 0.0000 0.0000
# 5 0.0000 0.0000 0.0000 0.0000 26.1867 0.0000
# 6 0.0000 0.0000 0.0000 0.0000 0.0000 17.6358
#
#
#
# Elastic Compliance Matrix: (Units=1/GPa)
#
#
# Indices 1 2 3 4 5 6 
#
# 1 0.008575 -0.001902 -0.002344 0.000000 0.000000 0.000000
# 2 -0.001902 0.038724 -0.007527 0.000000 0.000000 0.000000
# 3 -0.002344 -0.007527 0.006331 0.000000 0.000000 0.000000
# 4 0.000000 0.000000 0.000000 -0.146991 0.000000 0.000000
# 5 0.000000 0.000000 0.000000 0.000000 0.038187 0.000000
# 6 0.000000 0.000000 0.000000 0.000000 0.000000 0.056703
#
#
# Mechanical properties :
#
#
# Convention : Reuss Voigt Hill
#
# Bulk Modulus (GPa) = 33.24057 82.32924 57.78491
# Shear Modulus (GPa) = 142.43392 25.77369 84.10381
#
# Velocity S-wave (km/s) = 8.76169 3.72709 6.73270
# Velocity P-wave (km/s) = 10.96686 7.93060 9.56991
#
# Compressibility (1/GPa) = 0.03008372
#
# Stress axis : x y z
#
# Youngs Moduli (GPa) = 116.61456 25.82373 157.95875
#
# Poissons Ratio (x) = 0.04912 0.37030
# Poissons Ratio (y) = 0.22180 1.18894
# Poissons Ratio (z) = 0.27338 0.19437
#
# Static dielectric constant tensor:
#      x y z
#    x 1.617920 0.000000 0.000000 
#    y 0.000000 1.594770 0.000000 
#    z 0.000000 0.000000 1.731170 
# 
# From -- ./inp_files/6684.got.cif
#   From: 2010.05.17/outbox.cif.g08.bks.cpg/sg28_4_cif.got.tgz:6684.got - 2010.06.04 01:15:21.
