data_PCOD9339211
_publ_section_title
;
Structure prediction by ZEFSAII (Michael W. Deem and Ramdas Pophale) SiO2 
 PCOD9339211
Probable space group: P C C 2
;
_chemical_formula_sum "Si O2"
_cell_formula_units_Z 20
_cell_length_a 4.989414
_cell_length_b 8.666362
_cell_length_c 19.451214
_cell_angle_alpha 90.000000
_cell_angle_beta 90.000000
_cell_angle_gamma 90.000000
_cell_volume 841.071814
_symmetry_space_group_name_H-M "P C C 2"
_symmetry_group_IT_number 27
_symmetry_cell_setting 'orthorhombic'
loop_
_space_group_symop_operation_xyz
x,y,z
-x,-y,z
-x,y,1/2+z
x,-y,1/2+z
loop_
_atom_site_type_symbol
_atom_site_label
_atom_site_fract_x
_atom_site_fract_y
_atom_site_fract_z
Si Si1 0.756160 0.394362 0.103490
Si Si2 0.618223 0.325515 0.812355
Si Si3 0.105422 0.827226 0.532477
Si Si4 0.114849 0.174922 0.878649
Si Si5 0.575092 0.824533 0.176151
O O1 0.500000 0.500000 0.088447
O O2 0.689594 0.275253 0.163205
O O3 0.000000 0.500000 0.124720
O O4 0.863509 0.293520 0.040526
O O5 0.500000 0.500000 0.811604
O O6 0.367383 0.215735 0.831661
O O7 0.716796 0.263403 0.738113
O O8 0.868168 0.290776 0.862472
O O9 0.222095 0.805021 0.456888
O O10 0.283334 0.814916 0.601276
O O11 0.000000 0.000000 0.534167
O O12 0.000000 0.000000 0.870260
O O13 0.500000 0.000000 0.190914
#
# Coordination Sequence:
#
# PCOD9339211 Si02
#       5
#     4   4   4   4   4
#     4  12  26  43  69 109 148 187 236 309 374 428
#     4  12  29  50  76 111 153 198 247 309 375 444
#     4  11  26  47  79 111 150 195 255 306 369 446
#     4  11  27  51  78 107 148 202 252 301 369 451
#     4  12  26  47  80 110 149 196 254 305 373 443
#
# _framework density 23.779181999999999
#
# number of rings (size 3 to 8) (size 9 to 14) (size 15 to 20)
#    0.000    0.400    4.000    3.000    5.600    3.200 
#    0.000    0.000    0.000    0.000    0.000    0.000 
#    0.000    0.000    0.000    0.000    0.000    0.000 
#
# Total GULP energy -111875.729013 kJ/mol
# GULP energy per Si atom -5593.786451 kJ/mol
# Density = 2.372506 g / cm^3
# Si number density = 23.779182 Si / 1000 Ang^3
#
#
#
# Elastic Constant Matrix: (Units=GPa)
#
#
# Indices 1 2 3 4 5 6 
#
# 1 113.8064 37.1247 35.0627 0.0000 0.0000 0.0000
# 2 37.1247 151.9165 38.8578 0.0000 0.0000 0.0000
# 3 35.0627 38.8578 144.5471 0.0000 0.0000 0.0000
# 4 0.0000 0.0000 0.0000 111.5674 0.0000 0.0000
# 5 0.0000 0.0000 0.0000 0.0000 41.8097 0.0000
# 6 0.0000 0.0000 0.0000 0.0000 0.0000 15.1360
#
#
#
# Elastic Compliance Matrix: (Units=1/GPa)
#
#
# Indices 1 2 3 4 5 6 
#
# 1 0.010012 -0.001960 -0.001902 0.000000 0.000000 0.000000
# 2 -0.001960 0.007452 -0.001528 0.000000 0.000000 0.000000
# 3 -0.001902 -0.001528 0.007790 0.000000 0.000000 0.000000
# 4 0.000000 0.000000 0.000000 0.008963 0.000000 0.000000
# 5 0.000000 0.000000 0.000000 0.000000 0.023918 0.000000
# 6 0.000000 0.000000 0.000000 0.000000 0.000000 0.066068
#
#
# Mechanical properties :
#
#
# Convention : Reuss Voigt Hill
#
# Bulk Modulus (GPa) = 69.08431 70.26227 69.67329
# Shear Modulus (GPa) = 35.76319 53.65094 44.70707
#
# Velocity S-wave (km/s) = 3.88231 4.75512 4.34071
# Velocity P-wave (km/s) = 7.01513 7.73047 7.38147
#
# Compressibility (1/GPa) = 0.01447507
#
# Stress axis : x y z
#
# Youngs Moduli (GPa) = 99.87796 134.18446 128.36676
#
# Poissons Ratio (x) = 0.26304 0.24411
# Poissons Ratio (y) = 0.19579 0.19613
# Poissons Ratio (z) = 0.18994 0.20502
#
# Static dielectric constant tensor:
#      x y z
#    x 1.979020 0.000000 0.000000 
#    y 0.000000 1.899780 0.000000 
#    z 0.000000 0.000000 1.968410 
# 
# From -- ./inp_files/3922.got.cif
#   From: 2010.05.17/outbox.cif.g08.bks.cpg/sg27_2_cif.got.tgz:3922.got - 2010.06.04 01:11:05.
