data_PCOD9339169
_publ_section_title
;
Structure prediction by ZEFSAII (Michael W. Deem and Ramdas Pophale) SiO2 
 PCOD9339169
Probable space group: P C C 2
;
_chemical_formula_sum "Si O2"
_cell_formula_units_Z 24
_cell_length_a 8.254848
_cell_length_b 10.162836
_cell_length_c 13.609958
_cell_angle_alpha 90.000000
_cell_angle_beta 90.000000
_cell_angle_gamma 90.000000
_cell_volume 1141.775667
_symmetry_space_group_name_H-M "P C C 2"
_symmetry_group_IT_number 27
_symmetry_cell_setting 'orthorhombic'
loop_
_space_group_symop_operation_xyz
x,y,z
-x,-y,z
-x,y,1/2+z
x,-y,1/2+z
loop_
_atom_site_type_symbol
_atom_site_label
_atom_site_fract_x
_atom_site_fract_y
_atom_site_fract_z
Si Si1 0.282036 0.265316 0.349150
Si Si2 0.944238 0.638557 0.188698
Si Si3 0.247721 0.287270 0.793759
Si Si4 0.000000 0.000000 0.105678
Si Si5 0.033375 0.732262 0.482367
Si Si6 0.674590 0.997341 0.740993
Si Si7 0.500000 0.500000 0.323238
O O1 0.318984 0.112640 0.324035
O O2 0.413504 0.376514 0.377586
O O3 0.214016 0.312079 0.242859
O O4 0.136366 0.280258 0.425787
O O5 0.097855 0.726037 0.218594
O O6 0.000000 0.500000 0.231582
O O7 0.932301 0.636622 0.072927
O O8 0.168895 0.295846 0.901043
O O9 0.360987 0.412506 0.769296
O O10 0.331523 0.146780 0.788864
O O11 0.836736 0.995368 0.173814
O O12 0.975405 0.875158 0.033696
O O13 0.500000 0.000000 0.685896
#
# Coordination Sequence:
#
# PCOD9339169 Si02
#       7
#     4   4   4   2   4   4   2
#     4  11  24  44  67  94 137 176 224 282 340 402
#     4  11  22  40  69  95 125 178 229 277 342 403
#     4  11  24  44  67  94 137 176 224 282 340 402
#     4  12  22  46  72 104 134 176 232 282 346 402
#     4  11  24  41  70  97 132 177 228 282 338 412
#     4  12  23  45  73 100 137 182 228 284 342 406
#     4  12  24  44  66  96 136 182 224 280 342 412
#
# _framework density 21.01989
#
# number of rings (size 3 to 8) (size 9 to 14) (size 15 to 20)
#    0.000    0.667    6.667    2.000    2.333    0.000 
#    3.000    3.333    0.000    0.000    0.000    0.000 
#    0.000    0.000    0.000    0.000    0.000    0.000 
#
# Total GULP energy -133648.767880 kJ/mol
# GULP energy per Si atom -5568.698662 kJ/mol
# Density = 2.097205 g / cm^3
# Si number density = 21.019890 Si / 1000 Ang^3
#
#
#
# Elastic Constant Matrix: (Units=GPa)
#
#
# Indices 1 2 3 4 5 6 
#
# 1 110.3424 6.6952 24.3909 0.0000 0.0000 0.0000
# 2 6.6952 120.4439 -10.0045 0.0000 0.0000 0.0000
# 3 24.3909 -10.0045 80.2345 0.0000 0.0000 0.0000
# 4 0.0000 0.0000 0.0000 15.2962 0.0000 0.0000
# 5 0.0000 0.0000 0.0000 0.0000 -0.2331 0.0000
# 6 0.0000 0.0000 0.0000 0.0000 0.0000 34.3179
#
#
#
# Elastic Compliance Matrix: (Units=1/GPa)
#
#
# Indices 1 2 3 4 5 6 
#
# 1 0.009791 -0.000800 -0.003076 0.000000 0.000000 0.000000
# 2 -0.000800 0.008455 0.001297 0.000000 0.000000 0.000000
# 3 -0.003076 0.001297 0.013560 0.000000 0.000000 0.000000
# 4 0.000000 0.000000 0.000000 0.065376 0.000000 0.000000
# 5 0.000000 0.000000 0.000000 0.000000 -4.290021 0.000000
# 6 0.000000 0.000000 0.000000 0.000000 0.000000 0.029139
#
#
# Mechanical properties :
#
#
# Convention : Reuss Voigt Hill
#
# Bulk Modulus (GPa) = 37.52457 39.24265 38.38361
# Shear Modulus (GPa) = -1.20492 29.20548 14.00028
#
# Velocity S-wave (km/s) = -0.75794 3.73154 2.58359
# Velocity P-wave (km/s) = 4.13820 6.10538 5.21538
#
# Compressibility (1/GPa) = 0.02664920
#
# Stress axis : x y z
#
# Youngs Moduli (GPa) = 102.13238 118.27541 73.74423
#
# Poissons Ratio (x) = 0.09460 0.22685
# Poissons Ratio (y) = 0.08168 -0.09567
# Poissons Ratio (z) = 0.31418 -0.15345
#
# Static dielectric constant tensor:
#      x y z
#    x 1.840820 0.000000 0.000000 
#    y 0.000000 1.881740 0.000000 
#    z 0.000000 0.000000 1.712510 
# 
# From -- ./inp_files/2361.got.cif
#   From: 2010.05.17/outbox.cif.g08.bks.cpg/sg27_2_cif.got.tgz:2361.got - 2010.06.04 01:11:05.
