data_PCOD9339980
_publ_section_title
;
Structure prediction by ZEFSAII (Michael W. Deem and Ramdas Pophale) SiO2 
 PCOD9339980
Probable space group: P C A 21
;
_chemical_formula_sum "Si O2"
_cell_formula_units_Z 28
_cell_length_a 13.837894
_cell_length_b 16.943061
_cell_length_c 5.284411
_cell_angle_alpha 90.000000
_cell_angle_beta 90.000000
_cell_angle_gamma 90.000000
_cell_volume 1238.963356
_symmetry_space_group_name_H-M "P C A 21"
_symmetry_group_IT_number 29
_symmetry_cell_setting 'orthorhombic'
loop_
_space_group_symop_operation_xyz
x,y,z
-x,-y,1/2+z
1/2-x,y,1/2+z
1/2+x,-y,z
loop_
_atom_site_type_symbol
_atom_site_label
_atom_site_fract_x
_atom_site_fract_y
_atom_site_fract_z
Si Si1 0.813247 0.378650 0.157450
Si Si2 0.637979 0.555220 0.681332
Si Si3 0.862374 0.621031 0.681197
Si Si4 0.612717 0.044309 0.689717
Si Si5 0.883406 0.963527 0.689861
Si Si6 0.187365 0.786818 0.546530
Si Si7 0.308160 0.206601 0.542512
O O1 0.771024 0.377722 0.442349
O O2 0.861825 0.463056 0.123177
O O3 0.866690 0.296042 0.101981
O O4 0.750192 0.588125 0.705210
O O5 0.592626 0.603329 0.451624
O O6 0.592789 0.572865 0.951541
O O7 0.862160 0.712503 0.609901
O O8 0.498621 0.030992 0.703205
O O9 0.631127 0.133204 0.602258
O O10 0.651355 0.985877 0.470811
O O11 0.649419 0.024208 0.970787
O O12 0.858780 0.875453 0.605161
O O13 0.227563 0.786884 0.260273
O O14 0.279516 0.208862 0.247507
#
# Coordination Sequence:
#
# PCOD9339980 Si02
#       7
#     4   4   4   4   4   4   4
#     4  10  16  25  41  69  98 124 162 192 241 289
#     4  10  14  25  41  61  98 134 153 186 244 289
#     4  10  16  25  41  64  99 130 153 198 240 284
#     4  10  21  42  54  72  99 134 178 199 249 314
#     4  10  23  37  58  71  96 142 171 203 246 313
#     4  10  21  32  53  80 105 125 163 220 259 285
#     4  12  21  32  48  81 109 123 168 212 257 286
#
# _framework density 22.599539
#
# number of rings (size 3 to 8) (size 9 to 14) (size 15 to 20)
#    0.000    1.714    5.714    1.714    0.000    3.429 
#    0.000    0.000    0.000    0.000    0.000    2.000 
#    0.000    0.000    0.000    0.000    0.000    0.000 
#
# Total GULP energy -156288.280947 kJ/mol
# GULP energy per Si atom -5581.724320 kJ/mol
# Density = 2.254810 g / cm^3
# Si number density = 22.599539 Si / 1000 Ang^3
#
#
#
# Elastic Constant Matrix: (Units=GPa)
#
#
# Indices 1 2 3 4 5 6 
#
# 1 27.6240 -6.9279 -9.4734 0.0000 0.0000 0.0000
# 2 -6.9279 83.2326 -1.4147 0.0000 0.0000 0.0000
# 3 -9.4734 -1.4147 91.2689 0.0000 0.0000 0.0000
# 4 0.0000 0.0000 0.0000 41.7281 0.0000 0.0000
# 5 0.0000 0.0000 0.0000 0.0000 0.1215 0.0000
# 6 0.0000 0.0000 0.0000 0.0000 0.0000 19.1020
#
#
#
# Elastic Compliance Matrix: (Units=1/GPa)
#
#
# Indices 1 2 3 4 5 6 
#
# 1 0.038404 0.003265 0.004037 0.000000 0.000000 0.000000
# 2 0.003265 0.012295 0.000529 0.000000 0.000000 0.000000
# 3 0.004037 0.000529 0.011384 0.000000 0.000000 0.000000
# 4 0.000000 0.000000 0.000000 0.023965 0.000000 0.000000
# 5 0.000000 0.000000 0.000000 0.000000 8.227519 0.000000
# 6 0.000000 0.000000 0.000000 0.000000 0.000000 0.052351
#
#
# Mechanical properties :
#
#
# Convention : Reuss Voigt Hill
#
# Bulk Modulus (GPa) = 12.86246 18.49929 15.68088
# Shear Modulus (GPa) = 0.59693 26.85309 13.72501
#
# Velocity S-wave (km/s) = 0.51450 3.45079 2.46705
# Velocity P-wave (km/s) = 2.46105 4.90721 3.88185
#
# Compressibility (1/GPa) = 0.07774564
#
# Stress axis : x y z
#
# Youngs Moduli (GPa) = 26.03918 81.33194 87.84381
#
# Poissons Ratio (x) = -0.26556 -0.35461
# Poissons Ratio (y) = -0.08502 -0.04651
# Poissons Ratio (z) = -0.10511 -0.04306
#
# Static dielectric constant tensor:
#      x y z
#    x 1.855280 0.000000 0.000000 
#    y 0.000000 1.834600 0.000000 
#    z 0.000000 0.000000 1.873170 
# 
# From -- ./inp_files/234.got.cif
#   From: 2010.05.17/outbox.cif.g08.bks.cpg/sg29_1_cif.got.tgz:234.got - 2010.06.04 01:19:37.
