data_PCOD9339993
_publ_section_title
;
Structure prediction by ZEFSAII (Michael W. Deem and Ramdas Pophale) SiO2 
 PCOD9339993
Probable space group: P C A 21
;
_chemical_formula_sum "Si O2"
_cell_formula_units_Z 24
_cell_length_a 5.413551
_cell_length_b 7.145032
_cell_length_c 27.406724
_cell_angle_alpha 90.000000
_cell_angle_beta 90.000000
_cell_angle_gamma 90.000000
_cell_volume 1060.091951
_symmetry_space_group_name_H-M "P C A 21"
_symmetry_group_IT_number 29
_symmetry_cell_setting 'orthorhombic'
loop_
_space_group_symop_operation_xyz
x,y,z
-x,-y,1/2+z
1/2-x,y,1/2+z
1/2+x,-y,z
loop_
_atom_site_type_symbol
_atom_site_label
_atom_site_fract_x
_atom_site_fract_y
_atom_site_fract_z
Si Si1 0.724064 0.620547 0.777330
Si Si2 0.324062 0.216164 0.674612
Si Si3 0.317367 0.794095 0.521046
Si Si4 0.324282 0.792141 0.635349
Si Si5 0.244112 0.123414 0.372288
Si Si6 0.182672 0.221554 0.981469
O O1 0.456523 0.521611 0.775029
O O2 0.756008 0.755661 0.730729
O O3 0.743988 0.736160 0.827155
O O4 0.593152 0.299044 0.662865
O O5 0.094473 0.293244 0.643387
O O6 0.350347 0.999848 0.658457
O O7 0.265572 0.808236 0.578349
O O8 0.584295 0.705601 0.511712
O O9 0.086355 0.701248 0.494110
O O10 0.340613 0.002802 0.498179
O O11 0.258691 0.226345 0.424427
O O12 0.486513 0.990482 0.370381
#
# Coordination Sequence:
#
# PCOD9339993 Si02
#       6
#     4   4   4   4   4   4
#     4  12  28  46  62  88 128 176 210 260 330 382
#     4  10  20  35  57  81 122 154 209 243 305 360
#     4  10  16  28  50  88 140 142 180 242 338 352
#     4  10  19  32  57  99 122 154 191 266 306 356
#     4  12  23  40  67  97 121 160 218 272 309 366
#     4  10  16  29  49  87 125 152 180 245 312 362
#
# _framework density 22.639545999999999
#
# number of rings (size 3 to 8) (size 9 to 14) (size 15 to 20)
#    0.000    1.333    3.333    7.000    4.667    0.000 
#    0.000    0.000    0.000    0.000    0.000   39.667 
#    0.000    0.000    0.000    0.000    0.000    0.000 
#
# Total GULP energy -134141.831419 kJ/mol
# GULP energy per Si atom -5589.242976 kJ/mol
# Density = 2.258802 g / cm^3
# Si number density = 22.639546 Si / 1000 Ang^3
#
#
#
# Elastic Constant Matrix: (Units=GPa)
#
#
# Indices 1 2 3 4 5 6 
#
# 1 156.3641 -21.4533 -36.6696 0.0000 0.0000 0.0000
# 2 -21.4533 57.0766 -12.6089 0.0000 0.0000 0.0000
# 3 -36.6696 -12.6089 124.5065 0.0000 0.0000 0.0000
# 4 0.0000 0.0000 0.0000 -28.7068 0.0000 0.0000
# 5 0.0000 0.0000 0.0000 0.0000 40.7396 0.0000
# 6 0.0000 0.0000 0.0000 0.0000 0.0000 -0.6202
#
#
#
# Elastic Compliance Matrix: (Units=1/GPa)
#
#
# Indices 1 2 3 4 5 6 
#
# 1 0.007451 0.003360 0.002535 0.000000 0.000000 0.000000
# 2 0.003360 0.019437 0.002958 0.000000 0.000000 0.000000
# 3 0.002535 0.002958 0.009078 0.000000 0.000000 0.000000
# 4 0.000000 0.000000 0.000000 -0.034835 0.000000 0.000000
# 5 0.000000 0.000000 0.000000 0.000000 0.024546 0.000000
# 6 0.000000 0.000000 0.000000 0.000000 0.000000 -1.612265
#
#
# Mechanical properties :
#
#
# Convention : Reuss Voigt Hill
#
# Bulk Modulus (GPa) = 18.63163 21.83153 20.23158
# Shear Modulus (GPa) = -3.15178 29.52777 13.18799
#
# Velocity S-wave (km/s) = -1.18118 3.61537 2.41616
# Velocity P-wave (km/s) = 2.52731 5.20498 4.09140
#
# Compressibility (1/GPa) = 0.05367216
#
# Stress axis : x y z
#
# Youngs Moduli (GPa) = 134.21341 51.44856 110.15878
#
# Poissons Ratio (x) = -0.17289 -0.27922
# Poissons Ratio (y) = -0.45102 -0.32586
# Poissons Ratio (z) = -0.34019 -0.15219
#
# Static dielectric constant tensor:
#      x y z
#    x 1.926930 0.000000 0.000000 
#    y 0.000000 2.870120 0.000000 
#    z 0.000000 0.000000 1.771330 
# 
# From -- ./inp_files/5628.got.cif
#   From: 2010.05.17/outbox.cif.g08.bks.cpg/sg29_3_cif.got.tgz:5628.got - 2010.06.04 01:19:37.
