data_PCOD9340174
_publ_section_title
;
Structure prediction by ZEFSAII (Michael W. Deem and Ramdas Pophale) SiO2 
 PCOD9340174
Probable space group: P C A 21
;
_chemical_formula_sum "Si O2"
_cell_formula_units_Z 16
_cell_length_a 16.681862
_cell_length_b 6.907309
_cell_length_c 4.831420
_cell_angle_alpha 90.000000
_cell_angle_beta 90.000000
_cell_angle_gamma 90.000000
_cell_volume 556.708948
_symmetry_space_group_name_H-M "P C A 21"
_symmetry_group_IT_number 29
_symmetry_cell_setting 'orthorhombic'
loop_
_space_group_symop_operation_xyz
x,y,z
-x,-y,1/2+z
1/2-x,y,1/2+z
1/2+x,-y,z
loop_
_atom_site_type_symbol
_atom_site_label
_atom_site_fract_x
_atom_site_fract_y
_atom_site_fract_z
Si Si1 0.052006 0.959538 0.963180
Si Si2 0.447994 0.540460 0.705104
Si Si3 0.202156 0.516055 0.557981
Si Si4 0.797844 0.016057 0.110303
O O1 0.123467 0.043512 0.776603
O O2 0.076437 0.749999 0.084142
O O3 0.981578 0.934688 0.734747
O O4 0.481579 0.434688 0.433539
O O5 0.376533 0.456485 0.891682
O O6 0.197672 0.749999 0.584141
O O7 0.277717 0.043065 0.800411
O O8 0.277717 0.456933 0.367873
#
# Coordination Sequence:
#
# PCOD9340174 Si02
#       4
#     4   4   4   4
#     4  12  24  40  63  92 126 162 202 252 310 368
#     4  12  24  40  63  92 126 162 202 252 310 368
#     4  10  19  35  61  91 118 152 208 263 296 340
#     4  10  19  35  61  91 118 152 208 263 296 340
#
# _framework density 28.740331000000001
#
# number of rings (size 3 to 8) (size 9 to 14) (size 15 to 20)
#    0.000    1.000    0.000   12.000    0.000    0.000 
#    0.000    0.000    0.000   30.000    0.000    0.000 
#    0.000    0.000    0.000    0.000    0.000    0.000 
#
# Total GULP energy -89680.708238 kJ/mol
# GULP energy per Si atom -5605.044265 kJ/mol
# Density = 2.867492 g / cm^3
# Si number density = 28.740331 Si / 1000 Ang^3
#
#
#
# Elastic Constant Matrix: (Units=GPa)
#
#
# Indices 1 2 3 4 5 6 
#
# 1 141.6117 4.0073 74.7257 0.0000 0.0000 0.0000
# 2 4.0073 100.7072 6.9728 0.0000 0.0000 0.0000
# 3 74.7257 6.9728 248.9913 0.0000 0.0000 0.0000
# 4 0.0000 0.0000 0.0000 12.5344 0.0000 0.0000
# 5 0.0000 0.0000 0.0000 0.0000 60.1819 0.0000
# 6 0.0000 0.0000 0.0000 0.0000 0.0000 20.9278
#
#
#
# Elastic Compliance Matrix: (Units=1/GPa)
#
#
# Indices 1 2 3 4 5 6 
#
# 1 0.008393 -0.000160 -0.002514 0.000000 0.000000 0.000000
# 2 -0.000160 0.009952 -0.000231 0.000000 0.000000 0.000000
# 3 -0.002514 -0.000231 0.004777 0.000000 0.000000 0.000000
# 4 0.000000 0.000000 0.000000 0.079781 0.000000 0.000000
# 5 0.000000 0.000000 0.000000 0.000000 0.016616 0.000000
# 6 0.000000 0.000000 0.000000 0.000000 0.000000 0.047783
#
#
# Mechanical properties :
#
#
# Convention : Reuss Voigt Hill
#
# Bulk Modulus (GPa) = 57.76223 73.63578 65.69900
# Shear Modulus (GPa) = 27.95123 45.76912 36.86017
#
# Velocity S-wave (km/s) = 3.12195 3.99495 3.58512
# Velocity P-wave (km/s) = 5.75647 6.85246 6.32824
#
# Compressibility (1/GPa) = 0.01731235
#
# Stress axis : x y z
#
# Youngs Moduli (GPa) = 119.14905 100.48120 209.32542
#
# Poissons Ratio (x) = 0.01606 0.52631
# Poissons Ratio (y) = 0.01905 0.04830
# Poissons Ratio (z) = 0.29958 0.02318
#
# Static dielectric constant tensor:
#      x y z
#    x 2.288560 0.000000 0.000000 
#    y 0.000000 2.342080 0.000000 
#    z 0.000000 0.000000 2.044370 
# 
# From -- ./inp_files/317.got.cif
#   From: 2010.05.17/outbox.cif.g08.bks.cpg/sg29_1_cif.got.tgz:317.got - 2010.06.04 01:19:37.
