data_PCOD9340246
_publ_section_title
;
Structure prediction by ZEFSAII (Michael W. Deem and Ramdas Pophale) SiO2 
 PCOD9340246
Probable space group: P C A 21
;
_chemical_formula_sum "Si O2"
_cell_formula_units_Z 28
_cell_length_a 9.813875
_cell_length_b 8.293567
_cell_length_c 13.859703
_cell_angle_alpha 90.000000
_cell_angle_beta 90.000000
_cell_angle_gamma 90.000000
_cell_volume 1128.069360
_symmetry_space_group_name_H-M "P C A 21"
_symmetry_group_IT_number 29
_symmetry_cell_setting 'orthorhombic'
loop_
_space_group_symop_operation_xyz
x,y,z
-x,-y,1/2+z
1/2-x,y,1/2+z
1/2+x,-y,z
loop_
_atom_site_type_symbol
_atom_site_label
_atom_site_fract_x
_atom_site_fract_y
_atom_site_fract_z
Si Si1 0.767733 0.465347 0.450380
Si Si2 0.537828 0.954038 0.353341
Si Si3 0.229851 0.256666 0.672919
Si Si4 0.467004 0.329285 0.004913
Si Si5 0.171203 0.587027 0.243739
Si Si6 0.920784 0.726284 0.368143
Si Si7 0.225263 0.921599 0.723273
O O1 0.614958 0.504204 0.481038
O O2 0.771276 0.428960 0.336450
O O3 0.844876 0.636066 0.453746
O O4 0.871131 0.347952 0.502083
O O5 0.561958 0.801481 0.421220
O O6 0.429643 0.916981 0.265930
O O7 0.473658 0.105448 0.409124
O O8 0.671493 0.038747 0.310774
O O9 0.098646 0.288551 0.606908
O O10 0.322277 0.420075 0.682137
O O11 0.187222 0.236637 0.784257
O O12 0.261996 0.068626 0.650156
O O13 0.229785 0.743884 0.190234
O O14 0.032265 0.629613 0.302051
#
# Coordination Sequence:
#
# PCOD9340246 Si02
#       7
#     4   4   4   4   4   4   4
#     4  11  22  40  66  93 123 171 220 260 322 393
#     4  10  20  40  66  90 123 163 220 265 310 384
#     4  10  24  38  60  94 135 160 213 266 330 373
#     4  12  24  41  61  98 135 165 209 283 331 373
#     4  10  19  40  67  89 121 172 216 261 305 395
#     4   9  20  40  66  92 118 174 220 252 311 405
#     4  10  21  41  66  92 119 175 218 255 315 391
#
# _framework density 24.821171
#
# number of rings (size 3 to 8) (size 9 to 14) (size 15 to 20)
#    0.000    1.714    2.857    2.571    2.000    0.000 
#    2.571    7.143    0.000    0.000    0.000    0.000 
#    0.000    0.000    0.000    0.000    0.000    0.000 
#
# Total GULP energy -155922.454566 kJ/mol
# GULP energy per Si atom -5568.659092 kJ/mol
# Density = 2.476468 g / cm^3
# Si number density = 24.821171 Si / 1000 Ang^3
#
#
#
# Elastic Constant Matrix: (Units=GPa)
#
#
# Indices 1 2 3 4 5 6 
#
# 1 69.7049 21.7940 8.6380 0.0000 0.0000 0.0000
# 2 21.7940 109.6194 20.9914 0.0000 0.0000 0.0000
# 3 8.6380 20.9914 74.1816 0.0000 0.0000 0.0000
# 4 0.0000 0.0000 0.0000 18.1463 0.0000 0.0000
# 5 0.0000 0.0000 0.0000 0.0000 27.6912 0.0000
# 6 0.0000 0.0000 0.0000 0.0000 0.0000 34.1319
#
#
#
# Elastic Compliance Matrix: (Units=1/GPa)
#
#
# Indices 1 2 3 4 5 6 
#
# 1 0.015364 -0.002867 -0.000978 0.000000 0.000000 0.000000
# 2 -0.002867 0.010180 -0.002547 0.000000 0.000000 0.000000
# 3 -0.000978 -0.002547 0.014315 0.000000 0.000000 0.000000
# 4 0.000000 0.000000 0.000000 0.055108 0.000000 0.000000
# 5 0.000000 0.000000 0.000000 0.000000 0.036113 0.000000
# 6 0.000000 0.000000 0.000000 0.000000 0.000000 0.029298
#
#
# Mechanical properties :
#
#
# Convention : Reuss Voigt Hill
#
# Bulk Modulus (GPa) = 36.93393 39.59473 38.26433
# Shear Modulus (GPa) = 27.44446 29.46605 28.45525
#
# Velocity S-wave (km/s) = 3.32880 3.44922 3.38954
# Velocity P-wave (km/s) = 5.44856 5.64353 5.54690
#
# Compressibility (1/GPa) = 0.02707538
#
# Stress axis : x y z
#
# Youngs Moduli (GPa) = 65.08782 98.22942 69.85693
#
# Poissons Ratio (x) = 0.28166 0.06830
# Poissons Ratio (y) = 0.18663 0.17792
# Poissons Ratio (z) = 0.06363 0.25018
#
# Static dielectric constant tensor:
#      x y z
#    x 2.046920 0.000000 0.000000 
#    y 0.000000 2.200980 0.000000 
#    z 0.000000 0.000000 1.942220 
# 
# From -- ./inp_files/4525.got.cif
#   From: 2010.05.17/outbox.cif.g08.bks.cpg/sg29_3_cif.got.tgz:4525.got - 2010.06.04 01:19:37.
