data_PCOD9340517
_publ_section_title
;
Structure prediction by ZEFSAII (Michael W. Deem and Ramdas Pophale) SiO2 
 PCOD9340517
Probable space group: P C A 21
;
_chemical_formula_sum "Si O2"
_cell_formula_units_Z 32
_cell_length_a 36.358211
_cell_length_b 7.264901
_cell_length_c 5.234777
_cell_angle_alpha 90.000000
_cell_angle_beta 90.000000
_cell_angle_gamma 90.000000
_cell_volume 1382.707733
_symmetry_space_group_name_H-M "P C A 21"
_symmetry_group_IT_number 29
_symmetry_cell_setting 'orthorhombic'
loop_
_space_group_symop_operation_xyz
x,y,z
-x,-y,1/2+z
1/2-x,y,1/2+z
1/2+x,-y,z
loop_
_atom_site_type_symbol
_atom_site_label
_atom_site_fract_x
_atom_site_fract_y
_atom_site_fract_z
Si Si1 0.459487 0.128478 0.940850
Si Si2 0.885903 0.285444 0.245017
Si Si3 0.459487 0.871520 0.437944
Si Si4 0.269238 0.221157 0.659919
Si Si5 0.730762 0.221154 0.218872
Si Si6 0.852776 0.285040 0.738872
Si Si7 0.885903 0.714557 0.133774
Si Si8 0.352776 0.285041 0.639920
O O1 0.500000 0.219812 0.939395
O O2 0.455018 0.999997 0.689398
O O3 0.425467 0.260950 0.000812
O O4 0.460072 0.000001 0.189399
O O5 0.925468 0.260952 0.377978
O O6 0.858523 0.203235 0.456611
O O7 0.878952 0.500000 0.189396
O O8 0.878719 0.205687 0.962322
O O9 0.241181 0.288369 0.442508
O O10 0.310209 0.269612 0.571147
O O11 0.267341 0.000002 0.689395
O O12 0.758819 0.288366 0.436282
O O13 0.689791 0.269609 0.307643
O O14 0.861742 0.500000 0.689397
O O15 0.878719 0.794313 0.416471
O O16 0.858522 0.796765 0.922182
#
# Coordination Sequence:
#
# PCOD9340517 Si02
#       8
#     4   4   4   4   4   4   4   4
#     4  10  21  38  59  85 116 149 189 235 282 338
#     4  10  21  38  57  83 115 147 187 232 279 334
#     4  10  21  38  59  85 116 149 189 235 282 338
#     4  10  21  36  53  77 108 141 181 227 274 328
#     4  10  21  36  53  77 108 141 181 227 274 328
#     4  10  21  36  56  81 110 144 185 230 275 331
#     4  10  21  38  57  83 115 147 187 232 279 334
#     4  10  21  36  56  81 110 144 185 230 275 331
#
# _framework density 23.142997999999999
#
# number of rings (size 3 to 8) (size 9 to 14) (size 15 to 20)
#    0.000    2.000    0.000    3.000    0.000    4.000 
#    0.000    7.500    0.000    0.000    0.000    0.000 
#    0.000    0.000    0.000    0.000    0.000    0.000 
#
# Total GULP energy -178523.309850 kJ/mol
# GULP energy per Si atom -5578.853433 kJ/mol
# Density = 2.309032 g / cm^3
# Si number density = 23.142998 Si / 1000 Ang^3
#
#
#
# Elastic Constant Matrix: (Units=GPa)
#
#
# Indices 1 2 3 4 5 6 
#
# 1 96.1706 -28.5344 44.5829 0.0000 0.0000 0.0000
# 2 -28.5344 44.4273 13.0056 0.0000 0.0000 0.0000
# 3 44.5829 13.0056 194.1868 0.0000 0.0000 0.0000
# 4 0.0000 0.0000 0.0000 1.5375 0.0000 0.0000
# 5 0.0000 0.0000 0.0000 0.0000 42.3520 0.0000
# 6 0.0000 0.0000 0.0000 0.0000 0.0000 33.2067
#
#
#
# Elastic Compliance Matrix: (Units=1/GPa)
#
#
# Indices 1 2 3 4 5 6 
#
# 1 0.015842 0.011464 -0.004405 0.000000 0.000000 0.000000
# 2 0.011464 0.031255 -0.004725 0.000000 0.000000 0.000000
# 3 -0.004405 -0.004725 0.006477 0.000000 0.000000 0.000000
# 4 0.000000 0.000000 0.000000 0.650408 0.000000 0.000000
# 5 0.000000 0.000000 0.000000 0.000000 0.023612 0.000000
# 6 0.000000 0.000000 0.000000 0.000000 0.000000 0.030114
#
#
# Mechanical properties :
#
#
# Convention : Reuss Voigt Hill
#
# Bulk Modulus (GPa) = 17.16968 43.65477 30.41222
# Shear Modulus (GPa) = 6.47288 35.80128 21.13708
#
# Velocity S-wave (km/s) = 1.67421 3.93741 3.02541
# Velocity P-wave (km/s) = 3.34251 6.29086 5.03722
#
# Compressibility (1/GPa) = 0.05824219
#
# Stress axis : x y z
#
# Youngs Moduli (GPa) = 63.12453 31.99477 154.38139
#
# Poissons Ratio (x) = -0.36679 0.68003
# Poissons Ratio (y) = -0.72367 0.72950
# Poissons Ratio (z) = 0.27806 0.15119
#
# Static dielectric constant tensor:
#      x y z
#    x 1.880470 0.000000 0.000000 
#    y 0.000000 1.862440 0.000000 
#    z 0.000000 0.000000 1.931480 
# 
# From -- ./inp_files/913.got.cif
#   From: 2010.05.17/outbox.cif.g08.bks.cpg/sg29_1_cif.got.tgz:913.got - 2010.06.04 01:19:37.
