data_PCOD9340017
_publ_section_title
;
Structure prediction by ZEFSAII (Michael W. Deem and Ramdas Pophale) SiO2 
 PCOD9340017
Probable space group: P C A 21
;
_chemical_formula_sum "Si O2"
_cell_formula_units_Z 24
_cell_length_a 14.702374
_cell_length_b 12.586303
_cell_length_c 5.443283
_cell_angle_alpha 90.000000
_cell_angle_beta 90.000000
_cell_angle_gamma 90.000000
_cell_volume 1007.271539
_symmetry_space_group_name_H-M "P C A 21"
_symmetry_group_IT_number 29
_symmetry_cell_setting 'orthorhombic'
loop_
_space_group_symop_operation_xyz
x,y,z
-x,-y,1/2+z
1/2-x,y,1/2+z
1/2+x,-y,z
loop_
_atom_site_type_symbol
_atom_site_label
_atom_site_fract_x
_atom_site_fract_y
_atom_site_fract_z
Si Si1 0.463633 0.947528 0.223340
Si Si2 0.389761 0.658764 0.714834
Si Si3 0.106842 0.299070 0.717935
Si Si4 0.800695 0.923386 0.132091
Si Si5 0.898570 0.592027 0.718125
Si Si6 0.082180 0.713802 0.715548
O O1 0.477011 0.821463 0.216130
O O2 0.490776 0.996309 0.486822
O O3 0.357509 0.971092 0.185050
O O4 0.497609 0.690057 0.719777
O O5 0.381315 0.532451 0.706769
O O6 0.359079 0.707864 0.460193
O O7 0.358330 0.703372 0.973332
O O8 0.136816 0.178188 0.692756
O O9 0.137749 0.360766 0.473356
O O10 0.138328 0.349868 0.974909
O O11 0.724632 0.918437 0.344841
O O12 0.008223 0.616759 0.718681
#
# Coordination Sequence:
#
# PCOD9340017 Si02
#       6
#     4   4   4   4   4   4
#     4  12  23  40  64  91 121 158 214 273 315 371
#     4  10  18  30  52  88 122 144 182 245 305 352
#     4  10  18  32  52  77 112 154 192 229 291 367
#     4  12  26  43  61  89 128 169 207 258 330 398
#     4  10  17  30  53  88 121 144 181 244 301 350
#     4  10  18  29  48  79 114 149 186 237 298 346
#
# _framework density 23.826743
#
# number of rings (size 3 to 8) (size 9 to 14) (size 15 to 20)
#    0.000    1.333    0.000   12.000    0.000    0.000 
#    0.000    0.000    0.000    0.000    0.000   39.667 
#    0.000    0.000    0.000    0.000    0.000    0.000 
#
# Total GULP energy -134232.367824 kJ/mol
# GULP energy per Si atom -5593.015326 kJ/mol
# Density = 2.377251 g / cm^3
# Si number density = 23.826743 Si / 1000 Ang^3
#
#
#
# Elastic Constant Matrix: (Units=GPa)
#
#
# Indices 1 2 3 4 5 6 
#
# 1 35.6818 -5.8944 -2.8851 0.0000 0.0000 0.0000
# 2 -5.8944 74.6286 32.6235 0.0000 0.0000 0.0000
# 3 -2.8851 32.6235 229.7444 0.0000 0.0000 0.0000
# 4 0.0000 0.0000 0.0000 38.0095 0.0000 0.0000
# 5 0.0000 0.0000 0.0000 0.0000 15.6778 0.0000
# 6 0.0000 0.0000 0.0000 0.0000 0.0000 12.1618
#
#
#
# Elastic Compliance Matrix: (Units=1/GPa)
#
#
# Indices 1 2 3 4 5 6 
#
# 1 0.028396 0.002225 0.000041 0.000000 0.000000 0.000000
# 2 0.002225 0.014461 -0.002025 0.000000 0.000000 0.000000
# 3 0.000041 -0.002025 0.004641 0.000000 0.000000 0.000000
# 4 0.000000 0.000000 0.000000 0.026309 0.000000 0.000000
# 5 0.000000 0.000000 0.000000 0.000000 0.063784 0.000000
# 6 0.000000 0.000000 0.000000 0.000000 0.000000 0.082225
#
#
# Mechanical properties :
#
#
# Convention : Reuss Voigt Hill
#
# Bulk Modulus (GPa) = 20.84269 43.08255 31.96262
# Shear Modulus (GPa) = 21.24687 34.25054 27.74871
#
# Velocity S-wave (km/s) = 2.98941 3.79553 3.41633
# Velocity P-wave (km/s) = 4.54775 6.10974 5.38567
#
# Compressibility (1/GPa) = 0.04797846
#
# Stress axis : x y z
#
# Youngs Moduli (GPa) = 35.21578 69.15217 215.48048
#
# Poissons Ratio (x) = -0.15387 -0.00876
# Poissons Ratio (y) = -0.07836 0.43645
# Poissons Ratio (z) = -0.00143 0.14007
#
# Static dielectric constant tensor:
#      x y z
#    x 1.708650 0.000000 0.000000 
#    y 0.000000 1.840070 0.000000 
#    z 0.000000 0.000000 2.025860 
# 
# From -- ./inp_files/195.got.cif
#   From: 2010.05.17/outbox.cif.g08.bks.cpg/sg29_1_cif.got.tgz:195.got - 2010.06.04 01:19:37.
