data_PCOD9340682
_publ_section_title
;
Structure prediction by ZEFSAII (Michael W. Deem and Ramdas Pophale) SiO2 
 PCOD9340682
Probable space group: P C A 21
;
_chemical_formula_sum "Si O2"
_cell_formula_units_Z 24
_cell_length_a 8.499946
_cell_length_b 14.078078
_cell_length_c 7.943743
_cell_angle_alpha 90.000000
_cell_angle_beta 90.000000
_cell_angle_gamma 90.000000
_cell_volume 950.571346
_symmetry_space_group_name_H-M "P C A 21"
_symmetry_group_IT_number 29
_symmetry_cell_setting 'orthorhombic'
loop_
_space_group_symop_operation_xyz
x,y,z
-x,-y,1/2+z
1/2-x,y,1/2+z
1/2+x,-y,z
loop_
_atom_site_type_symbol
_atom_site_label
_atom_site_fract_x
_atom_site_fract_y
_atom_site_fract_z
Si Si1 0.483904 0.604506 0.386660
Si Si2 0.506321 0.911067 0.672625
Si Si3 0.555232 0.403355 0.254743
Si Si4 0.190668 0.281784 0.606151
Si Si5 0.316475 0.913327 0.025041
Si Si6 0.436681 0.711873 0.071961
O O1 0.562204 0.504248 0.343982
O O2 0.389650 0.592580 0.561137
O O3 0.602589 0.690052 0.432483
O O4 0.399410 0.636595 0.217695
O O5 0.611180 0.815621 0.668359
O O6 0.408076 0.916925 0.846627
O O7 0.372485 0.913556 0.527451
O O8 0.619929 0.999133 0.635060
O O9 0.372899 0.370198 0.218394
O O10 0.609713 0.324832 0.387356
O O11 0.374241 0.276782 0.575676
O O12 0.360379 0.812542 0.106198
#
# Coordination Sequence:
#
# PCOD9340682 Si02
#       6
#     4   4   4   4   4   4
#     4  10  22  38  69  97 144 183 235 286 347 416
#     4  12  27  49  72 107 142 186 237 292 358 431
#     4  10  21  41  63 103 140 185 236 284 347 418
#     4  10  24  43  73 103 141 181 239 292 355 425
#     4  12  28  47  76 103 144 186 235 293 359 430
#     4  12  22  46  73 105 139 189 234 299 358 424
#
# _framework density 25.247973999999999
#
# number of rings (size 3 to 8) (size 9 to 14) (size 15 to 20)
#    1.000    0.000    3.333    3.000    4.667    0.000 
#    0.000   10.000    0.000    0.000    0.000    0.000 
#    0.000    0.000    0.000    0.000    0.000    0.000 
#
# Total GULP energy -134261.578020 kJ/mol
# GULP energy per Si atom -5594.232417 kJ/mol
# Density = 2.519051 g / cm^3
# Si number density = 25.247974 Si / 1000 Ang^3
#
#
#
# Elastic Constant Matrix: (Units=GPa)
#
#
# Indices 1 2 3 4 5 6 
#
# 1 110.1254 15.7947 11.2372 0.0000 0.0000 0.0000
# 2 15.7947 146.2602 27.0336 0.0000 0.0000 0.0000
# 3 11.2372 27.0336 131.0119 0.0000 0.0000 0.0000
# 4 0.0000 0.0000 0.0000 37.6268 0.0000 0.0000
# 5 0.0000 0.0000 0.0000 0.0000 46.1485 0.0000
# 6 0.0000 0.0000 0.0000 0.0000 0.0000 2.8963
#
#
#
# Elastic Compliance Matrix: (Units=1/GPa)
#
#
# Indices 1 2 3 4 5 6 
#
# 1 0.009270 -0.000888 -0.000612 0.000000 0.000000 0.000000
# 2 -0.000888 0.007193 -0.001408 0.000000 0.000000 0.000000
# 3 -0.000612 -0.001408 0.007976 0.000000 0.000000 0.000000
# 4 0.000000 0.000000 0.000000 0.026577 0.000000 0.000000
# 5 0.000000 0.000000 0.000000 0.000000 0.021669 0.000000
# 6 0.000000 0.000000 0.000000 0.000000 0.000000 0.345270
#
#
# Mechanical properties :
#
#
# Convention : Reuss Voigt Hill
#
# Bulk Modulus (GPa) = 53.69560 55.05873 54.37717
# Shear Modulus (GPa) = 11.62847 39.55646 25.59247
#
# Velocity S-wave (km/s) = 2.14842 3.96247 3.18723
# Velocity P-wave (km/s) = 5.24097 6.54136 5.92694
#
# Compressibility (1/GPa) = 0.01862350
#
# Stress axis : x y z
#
# Youngs Moduli (GPa) = 107.87068 139.01836 125.37708
#
# Poissons Ratio (x) = 0.12345 0.07672
# Poissons Ratio (y) = 0.09579 0.17655
# Poissons Ratio (z) = 0.06601 0.19576
#
# Static dielectric constant tensor:
#      x y z
#    x 1.946960 0.000000 0.000000 
#    y 0.000000 1.887500 0.000000 
#    z 0.000000 0.000000 2.051390 
# 
# From -- ./inp_files/1179.got.cif
#   From: 2010.05.17/outbox.cif.g08.bks.cpg/sg29_1_cif.got.tgz:1179.got - 2010.06.04 01:19:37.
