data_PCOD9340428
_publ_section_title
;
Structure prediction by ZEFSAII (Michael W. Deem and Ramdas Pophale) SiO2 
 PCOD9340428
Probable space group: P C A 21
;
_chemical_formula_sum "Si O2"
_cell_formula_units_Z 32
_cell_length_a 22.623014
_cell_length_b 5.183560
_cell_length_c 11.939280
_cell_angle_alpha 90.000000
_cell_angle_beta 90.000000
_cell_angle_gamma 90.000000
_cell_volume 1400.092508
_symmetry_space_group_name_H-M "P C A 21"
_symmetry_group_IT_number 29
_symmetry_cell_setting 'orthorhombic'
loop_
_space_group_symop_operation_xyz
x,y,z
-x,-y,1/2+z
1/2-x,y,1/2+z
1/2+x,-y,z
loop_
_atom_site_type_symbol
_atom_site_label
_atom_site_fract_x
_atom_site_fract_y
_atom_site_fract_z
Si Si1 0.543341 0.746035 0.798990
Si Si2 0.560157 0.536572 0.371424
Si Si3 0.013760 0.123143 0.158861
Si Si4 0.704614 0.471147 0.739969
Si Si5 0.660121 0.308886 0.217869
Si Si6 0.137373 0.194922 0.088682
Si Si7 0.338608 0.021388 0.353043
Si Si8 0.901751 0.439714 0.106028
O O1 0.500763 0.620346 0.888583
O O2 0.590360 0.959550 0.834327
O O3 0.583661 0.556837 0.727714
O O4 0.497766 0.839711 0.704131
O O5 0.538192 0.732632 0.273091
O O6 0.614440 0.373819 0.318014
O O7 0.583737 0.607821 0.495438
O O8 0.068057 0.134793 0.075992
O O9 0.951196 0.215069 0.108275
O O10 0.773502 0.404483 0.736928
O O11 0.693595 0.771162 0.771549
O O12 0.668190 0.396156 0.625597
O O13 0.680644 0.268372 0.831763
O O14 0.640578 0.504593 0.118816
O O15 0.657544 0.008574 0.184241
O O16 0.172085 0.122503 0.977606
#
# Coordination Sequence:
#
# PCOD9340428 Si02
#       8
#     4   4   4   4   4   4   4   4
#     4  10  20  40  59  92 127 158 205 264 315 376
#     4  10  22  38  61  90 126 168 207 257 323 378
#     4  10  20  40  59  92 127 158 205 264 315 376
#     4  11  24  44  63  92 130 165 216 267 303 369
#     4  11  24  44  63  92 130 165 216 267 303 369
#     4  11  23  41  67  93 124 168 209 257 321 374
#     4  11  23  41  67  93 124 168 209 257 321 374
#     4  10  22  38  61  90 126 168 207 257 323 378
#
# _framework density 22.855633000000001
#
# number of rings (size 3 to 8) (size 9 to 14) (size 15 to 20)
#    0.000    1.500    2.500    2.250    0.000    4.000 
#    0.000    0.000    0.000    0.000    0.000    0.000 
#    0.000    0.000    0.000    0.000    0.000    0.000 
#
# Total GULP energy -178209.888638 kJ/mol
# GULP energy per Si atom -5569.059020 kJ/mol
# Density = 2.280361 g / cm^3
# Si number density = 22.855633 Si / 1000 Ang^3
#
#
#
# Elastic Constant Matrix: (Units=GPa)
#
#
# Indices 1 2 3 4 5 6 
#
# 1 117.4878 -0.7380 1.7922 0.0000 0.0000 0.0000
# 2 -0.7380 48.0392 -1.6550 0.0000 0.0000 0.0000
# 3 1.7922 -1.6550 54.7455 0.0000 0.0000 0.0000
# 4 0.0000 0.0000 0.0000 13.3512 0.0000 0.0000
# 5 0.0000 0.0000 0.0000 0.0000 10.1967 0.0000
# 6 0.0000 0.0000 0.0000 0.0000 0.0000 32.3347
#
#
#
# Elastic Compliance Matrix: (Units=1/GPa)
#
#
# Indices 1 2 3 4 5 6 
#
# 1 0.008516 0.000121 -0.000275 0.000000 0.000000 0.000000
# 2 0.000121 0.020840 0.000626 0.000000 0.000000 0.000000
# 3 -0.000275 0.000626 0.018294 0.000000 0.000000 0.000000
# 4 0.000000 0.000000 0.000000 0.074900 0.000000 0.000000
# 5 0.000000 0.000000 0.000000 0.000000 0.098071 0.000000
# 6 0.000000 0.000000 0.000000 0.000000 0.000000 0.030927
#
#
# Mechanical properties :
#
#
# Convention : Reuss Voigt Hill
#
# Bulk Modulus (GPa) = 20.57823 24.34120 22.45971
# Shear Modulus (GPa) = 18.74050 25.90140 22.32095
#
# Velocity S-wave (km/s) = 2.86659 3.37005 3.12846
# Velocity P-wave (km/s) = 4.46985 5.08095 4.78516
#
# Compressibility (1/GPa) = 0.04859505
#
# Stress axis : x y z
#
# Youngs Moduli (GPa) = 117.41941 47.98518 54.66186
#
# Poissons Ratio (x) = -0.00582 0.01504
# Poissons Ratio (y) = -0.01425 -0.03422
# Poissons Ratio (z) = 0.03231 -0.03004
#
# Static dielectric constant tensor:
#      x y z
#    x 1.950880 0.000000 0.000000 
#    y 0.000000 1.876400 0.000000 
#    z 0.000000 0.000000 1.914160 
# 
# From -- ./inp_files/3842.got.cif
#   From: 2010.05.17/outbox.cif.g08.bks.cpg/sg29_2_cif.got.tgz:3842.got - 2010.06.04 01:19:37.
