data_PCOD9340799
_publ_section_title
;
Structure prediction by ZEFSAII (Michael W. Deem and Ramdas Pophale) SiO2 
 PCOD9340799
Probable space group: P C A 21
;
_chemical_formula_sum "Si O2"
_cell_formula_units_Z 20
_cell_length_a 9.411975
_cell_length_b 8.369373
_cell_length_c 10.796246
_cell_angle_alpha 90.000000
_cell_angle_beta 90.000000
_cell_angle_gamma 90.000000
_cell_volume 850.445447
_symmetry_space_group_name_H-M "P C A 21"
_symmetry_group_IT_number 29
_symmetry_cell_setting 'orthorhombic'
loop_
_space_group_symop_operation_xyz
x,y,z
-x,-y,1/2+z
1/2-x,y,1/2+z
1/2+x,-y,z
loop_
_atom_site_type_symbol
_atom_site_label
_atom_site_fract_x
_atom_site_fract_y
_atom_site_fract_z
Si Si1 0.752244 0.446806 0.519730
Si Si2 0.691243 0.127435 0.672932
Si Si3 0.085981 0.759123 0.338991
Si Si4 0.437398 0.029548 0.539883
Si Si5 0.963065 0.689310 0.070736
O O1 0.709107 0.306627 0.617659
O O2 0.670597 0.389737 0.397190
O O3 0.691476 0.617049 0.556577
O O4 0.921510 0.436442 0.516869
O O5 0.781407 0.126931 0.798084
O O6 0.777918 0.008436 0.581405
O O7 0.528366 0.081378 0.661966
O O8 0.001156 0.714646 0.215151
O O9 0.981782 0.844960 0.435693
O O10 0.499697 0.855133 0.504994
#
# Coordination Sequence:
#
# PCOD9340799 Si02
#       5
#     4   4   4   4   4
#     4   9  20  37  55  80 113 146 187 228 275 339
#     4   9  20  36  55  82 111 145 189 231 276 336
#     4   9  19  38  59  79 117 151 179 239 287 316
#     4   9  19  36  58  83 110 144 191 233 276 335
#     4  10  22  37  57  88 115 146 192 229 276 344
#
# _framework density 23.517088999999999
#
# number of rings (size 3 to 8) (size 9 to 14) (size 15 to 20)
#    0.000    3.200    0.000    0.000    0.000   16.000 
#    0.000    8.000    0.000    0.000    0.000    0.000 
#    0.000    0.000    0.000    0.000    0.000    0.000 
#
# Total GULP energy -111628.193231 kJ/mol
# GULP energy per Si atom -5581.409662 kJ/mol
# Density = 2.346356 g / cm^3
# Si number density = 23.517089 Si / 1000 Ang^3
#
#
#
# Elastic Constant Matrix: (Units=GPa)
#
#
# Indices 1 2 3 4 5 6 
#
# 1 52.0655 12.2112 4.1788 0.0000 0.0000 0.0000
# 2 12.2112 27.0325 5.4886 0.0000 0.0000 0.0000
# 3 4.1788 5.4886 81.7088 0.0000 0.0000 0.0000
# 4 0.0000 0.0000 0.0000 19.7958 0.0000 0.0000
# 5 0.0000 0.0000 0.0000 0.0000 18.4746 0.0000
# 6 0.0000 0.0000 0.0000 0.0000 0.0000 42.1898
#
#
#
# Elastic Compliance Matrix: (Units=1/GPa)
#
#
# Indices 1 2 3 4 5 6 
#
# 1 0.021499 -0.009620 -0.000453 0.000000 0.000000 0.000000
# 2 -0.009620 0.041808 -0.002316 0.000000 0.000000 0.000000
# 3 -0.000453 -0.002316 0.012417 0.000000 0.000000 0.000000
# 4 0.000000 0.000000 0.000000 0.050516 0.000000 0.000000
# 5 0.000000 0.000000 0.000000 0.000000 0.054128 0.000000
# 6 0.000000 0.000000 0.000000 0.000000 0.000000 0.023702
#
#
# Mechanical properties :
#
#
# Convention : Reuss Voigt Hill
#
# Bulk Modulus (GPa) = 19.62863 22.72934 21.17898
# Shear Modulus (GPa) = 20.33911 25.35393 22.84652
#
# Velocity S-wave (km/s) = 2.94405 3.28702 3.12025
# Velocity P-wave (km/s) = 4.46332 4.90836 4.69112
#
# Compressibility (1/GPa) = 0.05094600
#
# Stress axis : x y z
#
# Youngs Moduli (GPa) = 46.51359 23.91876 80.53239
#
# Poissons Ratio (x) = 0.23009 0.03651
# Poissons Ratio (y) = 0.44744 0.18654
# Poissons Ratio (z) = 0.02109 0.05540
#
# Static dielectric constant tensor:
#      x y z
#    x 1.891390 0.000000 0.000000 
#    y 0.000000 1.897100 0.000000 
#    z 0.000000 0.000000 1.944770 
# 
# From -- ./inp_files/2763.got.cif
#   From: 2010.05.17/outbox.cif.g08.bks.cpg/sg29_2_cif.got.tgz:2763.got - 2010.06.04 01:19:37.
