data_PCOD9340182
_publ_section_title
;
Structure prediction by ZEFSAII (Michael W. Deem and Ramdas Pophale) SiO2 
 PCOD9340182
Probable space group: P C A 21
;
_chemical_formula_sum "Si O2"
_cell_formula_units_Z 32
_cell_length_a 24.555869
_cell_length_b 12.554675
_cell_length_c 5.153793
_cell_angle_alpha 90.000000
_cell_angle_beta 90.000000
_cell_angle_gamma 90.000000
_cell_volume 1588.867764
_symmetry_space_group_name_H-M "P C A 21"
_symmetry_group_IT_number 29
_symmetry_cell_setting 'orthorhombic'
loop_
_space_group_symop_operation_xyz
x,y,z
-x,-y,1/2+z
1/2-x,y,1/2+z
1/2+x,-y,z
loop_
_atom_site_type_symbol
_atom_site_label
_atom_site_fract_x
_atom_site_fract_y
_atom_site_fract_z
Si Si1 0.423547 0.200544 0.931920
Si Si2 0.779467 0.996807 0.304980
Si Si3 0.562118 0.577877 0.139456
Si Si4 0.731269 0.232195 0.345370
Si Si5 0.452330 0.876309 0.445055
Si Si6 0.431452 0.557980 0.127986
Si Si7 0.603867 0.912781 0.949811
Si Si8 0.894449 0.215628 0.958054
O O1 0.419506 0.313167 0.780859
O O2 0.388200 0.126937 0.742502
O O3 0.486513 0.164646 0.914958
O O4 0.408280 0.178598 0.233409
O O5 0.758627 0.953443 0.033411
O O6 0.767119 0.123889 0.309275
O O7 0.841446 0.971950 0.363234
O O8 0.496152 0.583317 0.139004
O O9 0.579435 0.491393 0.348670
O O10 0.578866 0.528472 0.858355
O O11 0.742017 0.293374 0.081739
O O12 0.668681 0.203388 0.385615
O O13 0.419055 0.858882 0.179549
O O14 0.445653 0.003213 0.476964
O O15 0.426803 0.811600 0.690938
O O16 0.401356 0.670471 0.103840
#
# Coordination Sequence:
#
# PCOD9340182 Si02
#       8
#     4   4   4   4   4   4   4   4
#     4  12  24  39  57  85 126 172 208 250 296 362
#     4  10  19  36  57  79 110 149 198 259 303 352
#     4  10  21  38  58  84 121 157 205 253 294 349
#     4  10  20  35  55  85 118 151 192 250 314 367
#     4  12  23  37  56  86 130 168 204 245 290 381
#     4  10  21  36  61  88 115 157 200 254 307 367
#     4  12  24  38  57  86 122 169 210 245 310 368
#     4  12  22  37  63  93 122 163 203 252 322 386
#
# _framework density 20.140128000000001
#
# number of rings (size 3 to 8) (size 9 to 14) (size 15 to 20)
#    0.000    1.000    1.250    8.250    3.500    0.000 
#    0.000    0.000    0.000    0.000    0.000   17.500 
#    0.000    0.000    0.000    0.000    0.000    0.000 
#
# Total GULP energy -178326.422070 kJ/mol
# GULP energy per Si atom -5572.700690 kJ/mol
# Density = 2.009429 g / cm^3
# Si number density = 20.140128 Si / 1000 Ang^3
#
#
#
# Elastic Constant Matrix: (Units=GPa)
#
#
# Indices 1 2 3 4 5 6 
#
# 1 59.2460 8.4718 20.9049 0.0000 0.0000 0.0000
# 2 8.4718 37.7953 -1.9827 0.0000 0.0000 0.0000
# 3 20.9049 -1.9827 113.6967 0.0000 0.0000 0.0000
# 4 0.0000 0.0000 0.0000 29.1087 0.0000 0.0000
# 5 0.0000 0.0000 0.0000 0.0000 31.6326 0.0000
# 6 0.0000 0.0000 0.0000 0.0000 0.0000 1.5752
#
#
#
# Elastic Compliance Matrix: (Units=1/GPa)
#
#
# Indices 1 2 3 4 5 6 
#
# 1 0.018750 -0.004388 -0.003524 0.000000 0.000000 0.000000
# 2 -0.004388 0.027509 0.001286 0.000000 0.000000 0.000000
# 3 -0.003524 0.001286 0.009466 0.000000 0.000000 0.000000
# 4 0.000000 0.000000 0.000000 0.034354 0.000000 0.000000
# 5 0.000000 0.000000 0.000000 0.000000 0.031613 0.000000
# 6 0.000000 0.000000 0.000000 0.000000 0.000000 0.634849
#
#
# Mechanical properties :
#
#
# Convention : Reuss Voigt Hill
#
# Bulk Modulus (GPa) = 23.54359 29.50291 26.52325
# Shear Modulus (GPa) = 6.37797 24.68622 15.53209
#
# Velocity S-wave (km/s) = 1.78148 3.50483 2.78006
# Velocity P-wave (km/s) = 3.99335 5.57307 4.84798
#
# Compressibility (1/GPa) = 0.04247441
#
# Stress axis : x y z
#
# Youngs Moduli (GPa) = 53.33452 36.35141 105.64476
#
# Poissons Ratio (x) = 0.15949 0.37228
# Poissons Ratio (y) = 0.23401 -0.13591
# Poissons Ratio (z) = 0.18795 -0.04676
#
# Static dielectric constant tensor:
#      x y z
#    x 1.700100 0.000000 0.000000 
#    y 0.000000 1.793450 0.000000 
#    z 0.000000 0.000000 1.846850 
# 
# From -- ./inp_files/569.got.cif
#   From: 2010.05.17/outbox.cif.g08.bks.cpg/sg29_1_cif.got.tgz:569.got - 2010.06.04 01:19:37.
