data_PCOD9340190
_publ_section_title
;
Structure prediction by ZEFSAII (Michael W. Deem and Ramdas Pophale) SiO2 
 PCOD9340190
Probable space group: P C A 21
;
_chemical_formula_sum "Si O2"
_cell_formula_units_Z 32
_cell_length_a 14.058712
_cell_length_b 11.637344
_cell_length_c 8.573373
_cell_angle_alpha 90.000000
_cell_angle_beta 90.000000
_cell_angle_gamma 90.000000
_cell_volume 1402.655844
_symmetry_space_group_name_H-M "P C A 21"
_symmetry_group_IT_number 29
_symmetry_cell_setting 'orthorhombic'
loop_
_space_group_symop_operation_xyz
x,y,z
-x,-y,1/2+z
1/2-x,y,1/2+z
1/2+x,-y,z
loop_
_atom_site_type_symbol
_atom_site_label
_atom_site_fract_x
_atom_site_fract_y
_atom_site_fract_z
Si Si1 0.872135 0.987172 0.610410
Si Si2 0.790835 0.885866 0.906559
Si Si3 0.563996 0.681285 0.406807
Si Si4 0.881966 0.236103 0.524404
Si Si5 0.297190 0.455541 0.061628
Si Si6 0.201994 0.713244 0.686614
Si Si7 0.994628 0.230873 0.073096
Si Si8 0.148368 0.318528 0.864577
O O1 0.843293 0.974045 0.791356
O O2 0.771169 0.954111 0.531135
O O3 0.951586 0.890260 0.582443
O O4 0.910399 0.102819 0.532345
O O5 0.870029 0.791010 0.951123
O O6 0.709125 0.798847 0.838735
O O7 0.473774 0.684058 0.520175
O O8 0.627581 0.568181 0.423150
O O9 0.527501 0.702287 0.231297
O O10 0.827574 0.270098 0.365402
O O11 0.807275 0.241604 0.662562
O O12 0.291462 0.584230 0.120453
O O13 0.340791 0.387714 0.207204
O O14 0.201893 0.393619 0.999387
O O15 0.118554 0.774092 0.586460
O O16 0.043070 0.291910 0.925317
#
# Coordination Sequence:
#
# PCOD9340190 Si02
#       8
#     4   4   4   4   4   4   4   4
#     4  10  19  36  61  84 114 152 182 235 294 332
#     4   9  17  34  60  87 112 143 192 237 281 343
#     4   9  20  39  58  84 118 154 200 246 287 348
#     4  11  24  41  58  85 121 155 197 242 294 358
#     4  11  21  36  61  86 118 158 190 242 301 342
#     4  11  25  41  57  85 121 155 197 244 293 358
#     4   9  21  39  59  86 118 152 199 245 288 349
#     4  10  19  36  62  91 116 149 199 243 290 356
#
# _framework density 22.813865
#
# number of rings (size 3 to 8) (size 9 to 14) (size 15 to 20)
#    0.000    2.000    0.000    5.250    0.000    5.000 
#    0.000   10.000    0.000    0.000    0.000    0.000 
#    0.000    0.000    0.000    0.000    0.000    0.000 
#
# Total GULP energy -178637.458119 kJ/mol
# GULP energy per Si atom -5582.420566 kJ/mol
# Density = 2.276194 g / cm^3
# Si number density = 22.813865 Si / 1000 Ang^3
#
#
#
# Elastic Constant Matrix: (Units=GPa)
#
#
# Indices 1 2 3 4 5 6 
#
# 1 48.4840 -31.9707 -11.1453 0.0000 0.0000 0.0000
# 2 -31.9707 41.1122 13.0721 0.0000 0.0000 0.0000
# 3 -11.1453 13.0721 29.8672 0.0000 0.0000 0.0000
# 4 0.0000 0.0000 0.0000 24.4457 0.0000 0.0000
# 5 0.0000 0.0000 0.0000 0.0000 27.2763 0.0000
# 6 0.0000 0.0000 0.0000 0.0000 0.0000 17.3938
#
#
#
# Elastic Compliance Matrix: (Units=1/GPa)
#
#
# Indices 1 2 3 4 5 6 
#
# 1 0.042400 0.032458 0.001616 0.000000 0.000000 0.000000
# 2 0.032458 0.053104 -0.011130 0.000000 0.000000 0.000000
# 3 0.001616 -0.011130 0.038956 0.000000 0.000000 0.000000
# 4 0.000000 0.000000 0.000000 0.040907 0.000000 0.000000
# 5 0.000000 0.000000 0.000000 0.000000 0.036662 0.000000
# 6 0.000000 0.000000 0.000000 0.000000 0.000000 0.057492
#
#
# Mechanical properties :
#
#
# Convention : Reuss Voigt Hill
#
# Bulk Modulus (GPa) = 5.54482 6.59729 6.07105
# Shear Modulus (GPa) = 17.62131 23.79031 20.70581
#
# Velocity S-wave (km/s) = 2.78221 3.23275 3.01590
# Velocity P-wave (km/s) = 3.57165 4.10271 3.84636
#
# Compressibility (1/GPa) = 0.18034862
#
# Stress axis : x y z
#
# Youngs Moduli (GPa) = 23.58482 18.83111 25.67015
#
# Poissons Ratio (x) = -0.61123 -0.04148
# Poissons Ratio (y) = -0.76553 0.28570
# Poissons Ratio (z) = -0.03811 0.20959
#
# Static dielectric constant tensor:
#      x y z
#    x 1.857090 0.000000 0.000000 
#    y 0.000000 1.897040 0.000000 
#    z 0.000000 0.000000 1.887040 
# 
# From -- ./inp_files/1820.got.cif
#   From: 2010.05.17/outbox.cif.g08.bks.cpg/sg29_1_cif.got.tgz:1820.got - 2010.06.04 01:19:37.
