data_PCOD9340743
_publ_section_title
;
Structure prediction by ZEFSAII (Michael W. Deem and Ramdas Pophale) SiO2 
 PCOD9340743
Probable space group: P C A 21
;
_chemical_formula_sum "Si O2"
_cell_formula_units_Z 24
_cell_length_a 16.306118
_cell_length_b 5.192352
_cell_length_c 10.028661
_cell_angle_alpha 90.000000
_cell_angle_beta 90.000000
_cell_angle_gamma 90.000000
_cell_volume 849.097688
_symmetry_space_group_name_H-M "P C A 21"
_symmetry_group_IT_number 29
_symmetry_cell_setting 'orthorhombic'
loop_
_space_group_symop_operation_xyz
x,y,z
-x,-y,1/2+z
1/2-x,y,1/2+z
1/2+x,-y,z
loop_
_atom_site_type_symbol
_atom_site_label
_atom_site_fract_x
_atom_site_fract_y
_atom_site_fract_z
Si Si1 0.447173 0.930023 0.360950
Si Si2 0.332451 0.594208 0.232205
Si Si3 0.789131 0.786655 0.445485
Si Si4 0.324330 0.900054 0.813795
Si Si5 0.042525 0.805555 0.576177
Si Si6 0.621370 0.588370 0.171352
O O1 0.371478 0.044926 0.443815
O O2 0.524135 0.024686 0.446139
O O3 0.413190 0.642544 0.330152
O O4 0.452630 0.001199 0.204004
O O5 0.290697 0.354463 0.302588
O O6 0.376140 0.629542 0.090435
O O7 0.265008 0.816418 0.252580
O O8 0.709017 0.963783 0.449671
O O9 0.805615 0.577862 0.560785
O O10 0.366242 0.133361 0.736862
O O11 0.373460 0.639808 0.778356
O O12 0.967002 0.610540 0.602085
#
# Coordination Sequence:
#
# PCOD9340743 Si02
#       6
#     4   4   4   4   4   4
#     4   8  19  38  65  97 138 180 229 284 347 422
#     4   9  20  42  67  92 138 185 227 277 357 426
#     4  10  21  43  68  94 137 191 226 283 377 426
#     4  11  23  42  65 100 133 182 231 284 357 427
#     4   9  20  41  66 105 136 186 233 292 347 420
#     4  11  25  40  71 100 136 180 234 298 351 425
#
# _framework density 28.265297
#
# number of rings (size 3 to 8) (size 9 to 14) (size 15 to 20)
#    1.000    1.333    1.667    0.000    7.000    1.333 
#    6.000    0.000   11.000    0.000    0.000    0.000 
#    0.000    0.000    0.000    0.000    0.000    0.000 
#
# Total GULP energy -133794.127198 kJ/mol
# GULP energy per Si atom -5574.755300 kJ/mol
# Density = 2.820096 g / cm^3
# Si number density = 28.265297 Si / 1000 Ang^3
#
#
#
# Elastic Constant Matrix: (Units=GPa)
#
#
# Indices 1 2 3 4 5 6 
#
# 1 77.6563 31.5930 13.6182 0.0000 0.0000 0.0000
# 2 31.5930 131.4835 31.3463 0.0000 0.0000 0.0000
# 3 13.6182 31.3463 133.4468 0.0000 0.0000 0.0000
# 4 0.0000 0.0000 0.0000 51.6047 0.0000 0.0000
# 5 0.0000 0.0000 0.0000 0.0000 42.1559 0.0000
# 6 0.0000 0.0000 0.0000 0.0000 0.0000 43.8902
#
#
#
# Elastic Compliance Matrix: (Units=1/GPa)
#
#
# Indices 1 2 3 4 5 6 
#
# 1 0.014333 -0.003279 -0.000692 0.000000 0.000000 0.000000
# 2 -0.003279 0.008807 -0.001734 0.000000 0.000000 0.000000
# 3 -0.000692 -0.001734 0.007972 0.000000 0.000000 0.000000
# 4 0.000000 0.000000 0.000000 0.019378 0.000000 0.000000
# 5 0.000000 0.000000 0.000000 0.000000 0.023721 0.000000
# 6 0.000000 0.000000 0.000000 0.000000 0.000000 0.022784
#
#
# Mechanical properties :
#
#
# Convention : Reuss Voigt Hill
#
# Bulk Modulus (GPa) = 50.76053 55.07794 52.91924
# Shear Modulus (GPa) = 43.48882 45.26543 44.37712
#
# Velocity S-wave (km/s) = 3.92675 4.00615 3.96665
# Velocity P-wave (km/s) = 6.20941 6.39745 6.30413
#
# Compressibility (1/GPa) = 0.01970035
#
# Stress axis : x y z
#
# Youngs Moduli (GPa) = 69.77102 113.54918 125.44499
#
# Poissons Ratio (x) = 0.37230 0.08687
# Poissons Ratio (y) = 0.22876 0.21753
# Poissons Ratio (z) = 0.04831 0.19690
#
# Static dielectric constant tensor:
#      x y z
#    x 2.424210 0.000000 0.000000 
#    y 0.000000 2.181370 0.000000 
#    z 0.000000 0.000000 2.349360 
# 
# From -- ./inp_files/3726.got.cif
#   From: 2010.05.17/outbox.cif.g08.bks.cpg/sg29_2_cif.got.tgz:3726.got - 2010.06.04 01:19:37.
