data_PCOD9340136
_publ_section_title
;
Structure prediction by ZEFSAII (Michael W. Deem and Ramdas Pophale) SiO2 
 PCOD9340136
Probable space group: P C A 21
;
_chemical_formula_sum "Si O2"
_cell_formula_units_Z 28
_cell_length_a 9.475320
_cell_length_b 8.167260
_cell_length_c 18.387475
_cell_angle_alpha 90.000000
_cell_angle_beta 90.000000
_cell_angle_gamma 90.000000
_cell_volume 1422.958920
_symmetry_space_group_name_H-M "P C A 21"
_symmetry_group_IT_number 29
_symmetry_cell_setting 'orthorhombic'
loop_
_space_group_symop_operation_xyz
x,y,z
-x,-y,1/2+z
1/2-x,y,1/2+z
1/2+x,-y,z
loop_
_atom_site_type_symbol
_atom_site_label
_atom_site_fract_x
_atom_site_fract_y
_atom_site_fract_z
Si Si1 0.459540 0.139422 0.654770
Si Si2 0.755998 0.108325 0.594137
Si Si3 0.199816 0.213737 0.019498
Si Si4 0.102651 0.438605 0.428158
Si Si5 0.161688 0.161333 0.313397
Si Si6 0.921456 0.966608 0.384519
Si Si7 0.191401 0.698383 0.954116
O O1 0.627228 0.142902 0.647656
O O2 0.214057 0.050176 0.544258
O O3 0.397813 0.179551 0.732971
O O4 0.395219 0.960454 0.633752
O O5 0.393711 0.251650 0.590295
O O6 0.786231 0.251976 0.537806
O O7 0.309188 0.347208 0.991971
O O8 0.099153 0.152230 0.953854
O O9 0.135009 0.327721 0.357900
O O10 0.168937 0.616692 0.422317
O O11 0.937910 0.428128 0.445042
O O12 0.073312 0.018930 0.355114
O O13 0.324283 0.109825 0.321336
O O14 0.856724 0.139143 0.412104
#
# Coordination Sequence:
#
# PCOD9340136 Si02
#       7
#     4   4   4   4   4   4   4
#     4  10  19  32  59  80 112 141 178 229 283 325
#     4   9  19  32  56  82 108 138 183 231 271 321
#     4   8  19  32  57  79 106 133 191 225 273 311
#     4  10  21  36  56  80 107 146 184 230 265 336
#     4  10  20  35  54  82 113 140 182 225 284 328
#     4   9  19  33  55  81 105 143 181 234 262 330
#     4  10  21  34  57  80 111 139 195 222 270 319
#
# _framework density 19.677306999999999
#
# number of rings (size 3 to 8) (size 9 to 14) (size 15 to 20)
#    0.857    1.714    0.000    1.714    8.000    1.143 
#    0.000    0.000    9.429    0.000    0.000    0.000 
#    0.000    0.000    0.000    0.000    0.000    0.000 
#
# Total GULP energy -156089.566573 kJ/mol
# GULP energy per Si atom -5574.627378 kJ/mol
# Density = 1.963252 g / cm^3
# Si number density = 19.677307 Si / 1000 Ang^3
#
#
#
# Elastic Constant Matrix: (Units=GPa)
#
#
# Indices 1 2 3 4 5 6 
#
# 1 64.7249 13.6234 4.0608 0.0000 0.0000 0.0000
# 2 13.6234 27.2669 6.2532 0.0000 0.0000 0.0000
# 3 4.0608 6.2532 50.5119 0.0000 0.0000 0.0000
# 4 0.0000 0.0000 0.0000 13.6085 0.0000 0.0000
# 5 0.0000 0.0000 0.0000 0.0000 21.1324 0.0000
# 6 0.0000 0.0000 0.0000 0.0000 0.0000 28.1126
#
#
#
# Elastic Compliance Matrix: (Units=1/GPa)
#
#
# Indices 1 2 3 4 5 6 
#
# 1 0.017271 -0.008554 -0.000330 0.000000 0.000000 0.000000
# 2 -0.008554 0.041982 -0.004510 0.000000 0.000000 0.000000
# 3 -0.000330 -0.004510 0.020382 0.000000 0.000000 0.000000
# 4 0.000000 0.000000 0.000000 0.073483 0.000000 0.000000
# 5 0.000000 0.000000 0.000000 0.000000 0.047321 0.000000
# 6 0.000000 0.000000 0.000000 0.000000 0.000000 0.035571
#
#
# Mechanical properties :
#
#
# Convention : Reuss Voigt Hill
#
# Bulk Modulus (GPa) = 18.92152 21.15319 20.03735
# Shear Modulus (GPa) = 17.83084 20.47512 19.15298
#
# Velocity S-wave (km/s) = 3.01352 3.22925 3.12325
# Velocity P-wave (km/s) = 4.66317 4.96764 4.81781
#
# Compressibility (1/GPa) = 0.05284988
#
# Stress axis : x y z
#
# Youngs Moduli (GPa) = 57.90027 23.81953 49.06274
#
# Poissons Ratio (x) = 0.20374 0.01617
# Poissons Ratio (y) = 0.49526 0.22125
# Poissons Ratio (z) = 0.01908 0.10742
#
# Static dielectric constant tensor:
#      x y z
#    x 1.712090 0.000000 0.000000 
#    y 0.000000 1.720420 0.000000 
#    z 0.000000 0.000000 1.680040 
# 
# From -- ./inp_files/4980.got.cif
#   From: 2010.05.17/outbox.cif.g08.bks.cpg/sg29_3_cif.got.tgz:4980.got - 2010.06.04 01:19:37.
