data_PCOD9340053
_publ_section_title
;
Structure prediction by ZEFSAII (Michael W. Deem and Ramdas Pophale) SiO2 
 PCOD9340053
Probable space group: P C A 21
;
_chemical_formula_sum "Si O2"
_cell_formula_units_Z 24
_cell_length_a 20.170636
_cell_length_b 11.401852
_cell_length_c 5.271049
_cell_angle_alpha 90.000000
_cell_angle_beta 90.000000
_cell_angle_gamma 90.000000
_cell_volume 1212.249588
_symmetry_space_group_name_H-M "P C A 21"
_symmetry_group_IT_number 29
_symmetry_cell_setting 'orthorhombic'
loop_
_space_group_symop_operation_xyz
x,y,z
-x,-y,1/2+z
1/2-x,y,1/2+z
1/2+x,-y,z
loop_
_atom_site_type_symbol
_atom_site_label
_atom_site_fract_x
_atom_site_fract_y
_atom_site_fract_z
Si Si1 0.654004 0.523694 0.474480
Si Si2 0.169413 0.132151 0.041880
Si Si3 0.136482 0.631271 0.974556
Si Si4 0.182669 0.231074 0.542169
Si Si5 0.206424 0.880436 0.935363
Si Si6 0.007268 0.431535 0.395225
O O1 0.656503 0.445779 0.727914
O O2 0.702050 0.634801 0.483034
O O3 0.583216 0.592596 0.461590
O O4 0.656296 0.440627 0.228324
O O5 0.142903 0.172600 0.312042
O O6 0.146891 0.213336 0.810252
O O7 0.248444 0.159455 0.069411
O O8 0.161953 0.995913 0.979167
O O9 0.170168 0.757014 0.967596
O O10 0.056523 0.646326 0.959423
O O11 0.238234 0.886102 0.656404
O O12 0.994817 0.538961 0.595664
#
# Coordination Sequence:
#
# PCOD9340053 Si02
#       6
#     4   4   4   4   4   4
#     4  10  19  35  54  82 105 134 164 214 267 307
#     4  10  19  35  51  69  94 144 178 200 247 295
#     4  10  21  35  52  82 106 135 167 213 263 305
#     4  10  18  33  53  71  99 132 177 204 245 306
#     4  12  21  38  54  72 104 142 179 209 246 311
#     4   8  16  32  54  72 104 135 167 198 256 322
#
# _framework density 19.797902000000001
#
# number of rings (size 3 to 8) (size 9 to 14) (size 15 to 20)
#    0.000    2.000    3.333    2.000    0.000    0.000 
#   18.000    0.000    0.000    2.000    0.000    0.000 
#    0.000    0.000    0.000    0.000    0.000    0.000 
#
# Total GULP energy -133691.755346 kJ/mol
# GULP energy per Si atom -5570.489806 kJ/mol
# Density = 1.975284 g / cm^3
# Si number density = 19.797902 Si / 1000 Ang^3
#
#
#
# Elastic Constant Matrix: (Units=GPa)
#
#
# Indices 1 2 3 4 5 6 
#
# 1 12.9226 16.2645 2.0584 0.0000 0.0000 0.0000
# 2 16.2645 99.2513 -8.4349 0.0000 0.0000 0.0000
# 3 2.0584 -8.4349 72.8656 0.0000 0.0000 0.0000
# 4 0.0000 0.0000 0.0000 30.9181 0.0000 0.0000
# 5 0.0000 0.0000 0.0000 0.0000 11.4459 0.0000
# 6 0.0000 0.0000 0.0000 0.0000 0.0000 77.3136
#
#
#
# Elastic Compliance Matrix: (Units=1/GPa)
#
#
# Indices 1 2 3 4 5 6 
#
# 1 0.099076 -0.016637 -0.004725 0.000000 0.000000 0.000000
# 2 -0.016637 0.012969 0.001971 0.000000 0.000000 0.000000
# 3 -0.004725 0.001971 0.014086 0.000000 0.000000 0.000000
# 4 0.000000 0.000000 0.000000 0.032344 0.000000 0.000000
# 5 0.000000 0.000000 0.000000 0.000000 0.087367 0.000000
# 6 0.000000 0.000000 0.000000 0.000000 0.000000 0.012934
#
#
# Mechanical properties :
#
#
# Convention : Reuss Voigt Hill
#
# Bulk Modulus (GPa) = 11.44827 22.75729 17.10278
# Shear Modulus (GPa) = 15.30576 35.61228 25.45902
#
# Velocity S-wave (km/s) = 2.78348 4.24582 3.58990
# Velocity P-wave (km/s) = 4.01566 5.96286 5.08336
#
# Compressibility (1/GPa) = 0.08734942
#
# Stress axis : x y z
#
# Youngs Moduli (GPa) = 10.09326 77.10473 70.99465
#
# Poissons Ratio (x) = 1.28282 0.33543
# Poissons Ratio (y) = 0.16793 -0.13995
# Poissons Ratio (z) = 0.04769 -0.15200
#
# Static dielectric constant tensor:
#      x y z
#    x 1.833280 0.000000 0.000000 
#    y 0.000000 1.686320 0.000000 
#    z 0.000000 0.000000 1.806760 
# 
# From -- ./inp_files/642.got.cif
#   From: 2010.05.17/outbox.cif.g08.bks.cpg/sg29_1_cif.got.tgz:642.got - 2010.06.04 01:19:37.
