data_PCOD9340459
_publ_section_title
;
Structure prediction by ZEFSAII (Michael W. Deem and Ramdas Pophale) SiO2 
 PCOD9340459
Probable space group: P C A 21
;
_chemical_formula_sum "Si O2"
_cell_formula_units_Z 32
_cell_length_a 14.517215
_cell_length_b 8.065168
_cell_length_c 14.058437
_cell_angle_alpha 90.000000
_cell_angle_beta 90.000000
_cell_angle_gamma 90.000000
_cell_volume 1646.014915
_symmetry_space_group_name_H-M "P C A 21"
_symmetry_group_IT_number 29
_symmetry_cell_setting 'orthorhombic'
loop_
_space_group_symop_operation_xyz
x,y,z
-x,-y,1/2+z
1/2-x,y,1/2+z
1/2+x,-y,z
loop_
_atom_site_type_symbol
_atom_site_label
_atom_site_fract_x
_atom_site_fract_y
_atom_site_fract_z
Si Si1 0.415063 0.510534 0.869420
Si Si2 0.304684 0.824006 0.265370
Si Si3 0.597619 0.508534 0.758800
Si Si4 0.216822 0.324174 0.222068
Si Si5 0.674991 0.352560 0.110640
Si Si6 0.210523 0.808187 0.449274
Si Si7 0.038014 0.366280 0.572517
Si Si8 0.672975 0.933739 0.617181
O O1 0.505171 0.561726 0.810367
O O2 0.356419 0.379994 0.803830
O O3 0.359493 0.675326 0.901683
O O4 0.449113 0.424039 0.965492
O O5 0.366457 0.667724 0.293824
O O6 0.225238 0.753711 0.193827
O O7 0.260108 0.894506 0.360237
O O8 0.361914 0.952091 0.203299
O O9 0.683379 0.632823 0.767331
O O10 0.574532 0.494923 0.646508
O O11 0.195759 0.459089 0.140097
O O12 0.234854 0.151903 0.164947
O O13 0.566625 0.327241 0.100146
O O14 0.721605 0.305018 0.011898
O O15 0.181404 0.948642 0.524921
O O16 0.103304 0.210866 0.591710
#
# Coordination Sequence:
#
# PCOD9340459 Si02
#       8
#     4   4   4   4   4   4   4   4
#     4  12  22  39  71  95 123 173 232 267 318 405
#     4  10  20  41  63  86 130 173 205 263 336 404
#     4  10  20  42  64  95 123 166 220 271 319 386
#     4  10  21  42  65  92 128 171 213 278 321 390
#     4  10  20  42  65  87 126 171 214 264 328 386
#     4  11  21  40  65  91 124 175 214 262 341 392
#     4  11  22  38  61  97 127 162 221 278 320 399
#     4  10  24  40  60  93 139 163 211 283 337 392
#
# _framework density 19.440892000000002
#
# number of rings (size 3 to 8) (size 9 to 14) (size 15 to 20)
#    0.000    1.500    3.750    3.750    1.750    0.000 
#    4.500    6.250    0.000    0.000    0.000    0.000 
#    0.000    0.000    0.000    0.000    0.000    0.000 
#
# Total GULP energy -178305.558103 kJ/mol
# GULP energy per Si atom -5572.048691 kJ/mol
# Density = 1.939664 g / cm^3
# Si number density = 19.440892 Si / 1000 Ang^3
#
#
#
# Elastic Constant Matrix: (Units=GPa)
#
#
# Indices 1 2 3 4 5 6 
#
# 1 84.5677 5.0477 42.6054 0.0000 0.0000 0.0000
# 2 5.0477 63.9265 21.3989 0.0000 0.0000 0.0000
# 3 42.6054 21.3989 114.6906 0.0000 0.0000 0.0000
# 4 0.0000 0.0000 0.0000 24.1551 0.0000 0.0000
# 5 0.0000 0.0000 0.0000 0.0000 31.5260 0.0000
# 6 0.0000 0.0000 0.0000 0.0000 0.0000 7.5112
#
#
#
# Elastic Compliance Matrix: (Units=1/GPa)
#
#
# Indices 1 2 3 4 5 6 
#
# 1 0.014577 0.000706 -0.005547 0.000000 0.000000 0.000000
# 2 0.000706 0.016719 -0.003382 0.000000 0.000000 0.000000
# 3 -0.005547 -0.003382 0.011411 0.000000 0.000000 0.000000
# 4 0.000000 0.000000 0.000000 0.041399 0.000000 0.000000
# 5 0.000000 0.000000 0.000000 0.000000 0.031720 0.000000
# 6 0.000000 0.000000 0.000000 0.000000 0.000000 0.133135
#
#
# Mechanical properties :
#
#
# Convention : Reuss Voigt Hill
#
# Bulk Modulus (GPa) = 38.07846 44.58765 41.33306
# Shear Modulus (GPa) = 18.23750 25.58063 21.90907
#
# Velocity S-wave (km/s) = 3.06616 3.63135 3.36066
# Velocity P-wave (km/s) = 5.67137 6.36923 6.03040
#
# Compressibility (1/GPa) = 0.02626156
#
# Stress axis : x y z
#
# Youngs Moduli (GPa) = 68.60010 59.81141 87.63787
#
# Poissons Ratio (x) = -0.04221 0.48611
# Poissons Ratio (y) = -0.04841 0.29636
# Poissons Ratio (z) = 0.38051 0.20226
#
# Static dielectric constant tensor:
#      x y z
#    x 1.685900 0.000000 0.000000 
#    y 0.000000 1.713690 0.000000 
#    z 0.000000 0.000000 1.701090 
# 
# From -- ./inp_files/4730.got.cif
#   From: 2010.05.17/outbox.cif.g08.bks.cpg/sg29_3_cif.got.tgz:4730.got - 2010.06.04 01:19:37.
