data_PCOD9340886
_publ_section_title
;
Structure prediction by ZEFSAII (Michael W. Deem and Ramdas Pophale) SiO2 
 PCOD9340886
Probable space group: P C A 21
;
_chemical_formula_sum "Si O2"
_cell_formula_units_Z 24
_cell_length_a 11.189665
_cell_length_b 7.497658
_cell_length_c 11.216186
_cell_angle_alpha 90.000000
_cell_angle_beta 90.000000
_cell_angle_gamma 90.000000
_cell_volume 940.996296
_symmetry_space_group_name_H-M "P C A 21"
_symmetry_group_IT_number 29
_symmetry_cell_setting 'orthorhombic'
loop_
_space_group_symop_operation_xyz
x,y,z
-x,-y,1/2+z
1/2-x,y,1/2+z
1/2+x,-y,z
loop_
_atom_site_type_symbol
_atom_site_label
_atom_site_fract_x
_atom_site_fract_y
_atom_site_fract_z
Si Si1 0.084462 0.905831 0.461050
Si Si2 0.427745 0.387968 0.405116
Si Si3 0.849416 0.867132 0.776265
Si Si4 0.262108 0.653780 0.320560
Si Si5 0.403268 0.962302 0.232590
Si Si6 0.923181 0.493674 0.667846
O O1 0.170978 0.761005 0.401935
O O2 0.106752 0.901458 0.598299
O O3 0.953492 0.820263 0.433862
O O4 0.122746 0.102059 0.415792
O O5 0.296580 0.466405 0.380316
O O6 0.488248 0.430727 0.275235
O O7 0.464219 0.490880 0.529693
O O8 0.884672 0.691525 0.707677
O O9 0.955362 0.010086 0.738981
O O10 0.712719 0.914886 0.752036
O O11 0.375062 0.785495 0.310488
O O12 0.196833 0.620682 0.194200
#
# Coordination Sequence:
#
# PCOD9340886 Si02
#       6
#     4   4   4   4   4   4
#     4  10  23  41  64  98 140 185 230 299 358 426
#     4  11  21  44  71  98 148 180 252 298 370 439
#     4  11  25  43  69 102 141 187 239 291 365 436
#     4  10  22  40  69  98 136 184 238 297 363 427
#     4  11  23  47  66 100 146 181 238 296 361 432
#     4  11  24  43  71 108 133 195 239 307 369 442
#
# _framework density 25.504881000000001
#
# number of rings (size 3 to 8) (size 9 to 14) (size 15 to 20)
#    0.000    1.333    3.333    1.000    2.333    5.333 
#    9.000    0.000    0.000    0.000    0.000    0.000 
#    0.000    0.000    0.000    0.000    0.000    0.000 
#
# Total GULP energy -133672.627444 kJ/mol
# GULP energy per Si atom -5569.692810 kJ/mol
# Density = 2.544683 g / cm^3
# Si number density = 25.504881 Si / 1000 Ang^3
#
#
#
# Elastic Constant Matrix: (Units=GPa)
#
#
# Indices 1 2 3 4 5 6 
#
# 1 132.4280 24.0423 29.0441 0.0000 0.0000 0.0000
# 2 24.0423 65.3460 -4.6955 0.0000 0.0000 0.0000
# 3 29.0441 -4.6955 107.7305 0.0000 0.0000 0.0000
# 4 0.0000 0.0000 0.0000 26.0006 0.0000 0.0000
# 5 0.0000 0.0000 0.0000 0.0000 20.4952 0.0000
# 6 0.0000 0.0000 0.0000 0.0000 0.0000 42.6106
#
#
#
# Elastic Compliance Matrix: (Units=1/GPa)
#
#
# Indices 1 2 3 4 5 6 
#
# 1 0.008713 -0.003385 -0.002497 0.000000 0.000000 0.000000
# 2 -0.003385 0.016666 0.001639 0.000000 0.000000 0.000000
# 3 -0.002497 0.001639 0.010027 0.000000 0.000000 0.000000
# 4 0.000000 0.000000 0.000000 0.038461 0.000000 0.000000
# 5 0.000000 0.000000 0.000000 0.000000 0.048792 0.000000
# 6 0.000000 0.000000 0.000000 0.000000 0.000000 0.023468
#
#
# Mechanical properties :
#
#
# Convention : Reuss Voigt Hill
#
# Bulk Modulus (GPa) = 37.14557 44.69847 40.92202
# Shear Modulus (GPa) = 30.56474 34.96220 32.76347
#
# Velocity S-wave (km/s) = 3.46553 3.70645 3.58801
# Velocity P-wave (km/s) = 5.53253 5.99004 5.76583
#
# Compressibility (1/GPa) = 0.02692111
#
# Stress axis : x y z
#
# Youngs Moduli (GPa) = 114.76526 60.00081 99.73100
#
# Poissons Ratio (x) = 0.20312 0.24900
# Poissons Ratio (y) = 0.38851 -0.16347
# Poissons Ratio (z) = 0.28653 -0.09835
#
# Static dielectric constant tensor:
#      x y z
#    x 2.162380 0.000000 0.000000 
#    y 0.000000 2.174050 0.000000 
#    z 0.000000 0.000000 2.103130 
# 
# From -- ./inp_files/3105.got.cif
#   From: 2010.05.17/outbox.cif.g08.bks.cpg/sg29_2_cif.got.tgz:3105.got - 2010.06.04 01:19:37.
