data_PCOD9340475
_publ_section_title
;
Structure prediction by ZEFSAII (Michael W. Deem and Ramdas Pophale) SiO2 
 PCOD9340475
Probable space group: P C A 21
;
_chemical_formula_sum "Si O2"
_cell_formula_units_Z 28
_cell_length_a 17.456099
_cell_length_b 6.616000
_cell_length_c 10.234510
_cell_angle_alpha 90.000000
_cell_angle_beta 90.000000
_cell_angle_gamma 90.000000
_cell_volume 1181.978964
_symmetry_space_group_name_H-M "P C A 21"
_symmetry_group_IT_number 29
_symmetry_cell_setting 'orthorhombic'
loop_
_space_group_symop_operation_xyz
x,y,z
-x,-y,1/2+z
1/2-x,y,1/2+z
1/2+x,-y,z
loop_
_atom_site_type_symbol
_atom_site_label
_atom_site_fract_x
_atom_site_fract_y
_atom_site_fract_z
Si Si1 0.887497 0.499911 0.371680
Si Si2 0.268949 0.438769 0.594710
Si Si3 0.122928 0.213613 0.623676
Si Si4 0.162498 0.098974 0.268548
Si Si5 0.503448 0.806909 0.346032
Si Si6 0.791385 0.169777 0.228872
Si Si7 0.531504 0.000395 0.086761
O O1 0.839833 0.568297 0.495965
O O2 0.878907 0.663076 0.259906
O O3 0.972931 0.412325 0.388067
O O4 0.847087 0.295624 0.320342
O O5 0.188546 0.342588 0.546520
O O6 0.297457 0.298836 0.714023
O O7 0.250121 0.663976 0.639683
O O8 0.031807 0.177329 0.602312
O O9 0.162614 0.996082 0.646356
O O10 0.094120 0.152829 0.365457
O O11 0.227915 0.948384 0.312877
O O12 0.115708 0.986051 0.149665
O O13 0.464714 0.990829 0.429309
O O14 0.498221 0.829704 0.186771
#
# Coordination Sequence:
#
# PCOD9340475 Si02
#       7
#     4   4   4   4   4   4   4
#     4  11  23  40  67  96 132 176 226 280 343 407
#     4  10  23  38  65  96 131 171 224 280 338 398
#     4  10  23  41  64  94 133 173 227 276 338 411
#     4   9  22  39  62  96 130 167 219 278 339 393
#     4  10  23  41  65  97 132 176 230 274 347 403
#     4  10  20  42  62  92 128 171 222 273 336 401
#     4  10  22  43  65  95 130 180 224 279 339 417
#
# _framework density 23.689084000000001
#
# number of rings (size 3 to 8) (size 9 to 14) (size 15 to 20)
#    0.857    1.143    1.429    0.857    2.000    9.143 
#    0.000    0.000    0.000    0.000    0.000    0.000 
#    0.000    0.000    0.000    0.000    0.000    0.000 
#
# Total GULP energy -155943.188216 kJ/mol
# GULP energy per Si atom -5569.399579 kJ/mol
# Density = 2.363517 g / cm^3
# Si number density = 23.689084 Si / 1000 Ang^3
#
#
#
# Elastic Constant Matrix: (Units=GPa)
#
#
# Indices 1 2 3 4 5 6 
#
# 1 75.3126 29.9405 -12.5181 0.0000 0.0000 0.0000
# 2 29.9405 95.0763 13.0550 0.0000 0.0000 0.0000
# 3 -12.5181 13.0550 35.5204 0.0000 0.0000 0.0000
# 4 0.0000 0.0000 0.0000 18.2422 0.0000 0.0000
# 5 0.0000 0.0000 0.0000 0.0000 42.0891 0.0000
# 6 0.0000 0.0000 0.0000 0.0000 0.0000 55.9699
#
#
#
# Elastic Compliance Matrix: (Units=1/GPa)
#
#
# Indices 1 2 3 4 5 6 
#
# 1 0.017336 -0.006633 0.008547 0.000000 0.000000 0.000000
# 2 -0.006633 0.013615 -0.007341 0.000000 0.000000 0.000000
# 3 0.008547 -0.007341 0.033863 0.000000 0.000000 0.000000
# 4 0.000000 0.000000 0.000000 0.054818 0.000000 0.000000
# 5 0.000000 0.000000 0.000000 0.000000 0.023759 0.000000
# 6 0.000000 0.000000 0.000000 0.000000 0.000000 0.017867
#
#
# Mechanical properties :
#
#
# Convention : Reuss Voigt Hill
#
# Bulk Modulus (GPa) = 18.53244 29.65155 24.09199
# Shear Modulus (GPa) = 26.30230 34.95570 30.62900
#
# Velocity S-wave (km/s) = 3.33575 3.84553 3.59967
# Velocity P-wave (km/s) = 4.76198 5.67993 5.24109
#
# Compressibility (1/GPa) = 0.05395944
#
# Stress axis : x y z
#
# Youngs Moduli (GPa) = 57.68509 73.45038 29.53057
#
# Poissons Ratio (x) = 0.48718 -0.25240
# Poissons Ratio (y) = 0.38261 0.21679
# Poissons Ratio (z) = -0.49304 0.53923
#
# Static dielectric constant tensor:
#      x y z
#    x 1.981080 0.000000 0.000000 
#    y 0.000000 1.853110 0.000000 
#    z 0.000000 0.000000 2.034840 
# 
# From -- ./inp_files/3757.got.cif
#   From: 2010.05.17/outbox.cif.g08.bks.cpg/sg29_2_cif.got.tgz:3757.got - 2010.06.04 01:19:37.
