data_PCOD9340194
_publ_section_title
;
Structure prediction by ZEFSAII (Michael W. Deem and Ramdas Pophale) SiO2 
 PCOD9340194
Probable space group: P C A 21
;
_chemical_formula_sum "Si O2"
_cell_formula_units_Z 32
_cell_length_a 9.732117
_cell_length_b 10.497255
_cell_length_c 17.437574
_cell_angle_alpha 90.000000
_cell_angle_beta 90.000000
_cell_angle_gamma 90.000000
_cell_volume 1781.431520
_symmetry_space_group_name_H-M "P C A 21"
_symmetry_group_IT_number 29
_symmetry_cell_setting 'orthorhombic'
loop_
_space_group_symop_operation_xyz
x,y,z
-x,-y,1/2+z
1/2-x,y,1/2+z
1/2+x,-y,z
loop_
_atom_site_type_symbol
_atom_site_label
_atom_site_fract_x
_atom_site_fract_y
_atom_site_fract_z
Si Si1 0.299601 0.342445 0.406810
Si Si2 0.054721 0.224500 0.338373
Si Si3 0.936487 0.001855 0.244198
Si Si4 0.196971 0.370065 0.084888
Si Si5 0.171178 0.139528 0.187416
Si Si6 0.035417 0.728424 0.290279
Si Si7 0.812280 0.399808 0.317469
Si Si8 0.946602 0.512443 0.169310
O O1 0.175393 0.240029 0.399977
O O2 0.328644 0.371402 0.494762
O O3 0.431913 0.294286 0.360594
O O4 0.263802 0.473502 0.361429
O O5 0.142842 0.235898 0.259032
O O6 0.947284 0.336425 0.353585
O O7 0.965836 0.097679 0.316487
O O8 0.784868 0.960989 0.217439
O O9 0.010981 0.870225 0.262457
O O10 0.024495 0.071141 0.177901
O O11 0.211200 0.225895 0.116591
O O12 0.338623 0.439483 0.106589
O O13 0.071841 0.437483 0.130482
O O14 0.189009 0.699092 0.315444
O O15 0.999770 0.629901 0.221673
O O16 0.860646 0.429858 0.230894
#
# Coordination Sequence:
#
# PCOD9340194 Si02
#       8
#     4   4   4   4   4   4   4   4
#     4  11  24  38  59  87 133 161 194 251 324 374
#     4  10  21  39  61  88 118 157 204 252 300 358
#     4  10  19  36  65  84 112 153 211 253 289 350
#     4  12  24  39  59  92 132 160 193 259 326 373
#     4  10  20  39  61  88 113 155 204 260 297 352
#     4  11  20  37  62  91 114 161 212 251 293 362
#     4  11  21  36  61  92 116 160 207 253 296 366
#     4  11  21  38  60  86 122 161 205 251 307 367
#
# _framework density 17.963082
#
# number of rings (size 3 to 8) (size 9 to 14) (size 15 to 20)
#    0.750    0.500    5.000    3.000    3.500    0.000 
#    0.000    1.250    0.000    1.500    0.000    0.000 
#    0.000    0.000    0.000    0.000    0.000    0.000 
#
# Total GULP energy -178207.128163 kJ/mol
# GULP energy per Si atom -5568.972755 kJ/mol
# Density = 1.792220 g / cm^3
# Si number density = 17.963082 Si / 1000 Ang^3
#
#
#
# Elastic Constant Matrix: (Units=GPa)
#
#
# Indices 1 2 3 4 5 6 
#
# 1 94.6729 31.6344 23.0413 0.0000 0.0000 0.0000
# 2 31.6344 42.7183 19.8717 0.0000 0.0000 0.0000
# 3 23.0413 19.8717 78.0063 0.0000 0.0000 0.0000
# 4 0.0000 0.0000 0.0000 11.1852 0.0000 0.0000
# 5 0.0000 0.0000 0.0000 0.0000 10.1893 0.0000
# 6 0.0000 0.0000 0.0000 0.0000 0.0000 33.7645
#
#
#
# Elastic Compliance Matrix: (Units=1/GPa)
#
#
# Indices 1 2 3 4 5 6 
#
# 1 0.014237 -0.009741 -0.001724 0.000000 0.000000 0.000000
# 2 -0.009741 0.033221 -0.005586 0.000000 0.000000 0.000000
# 3 -0.001724 -0.005586 0.014752 0.000000 0.000000 0.000000
# 4 0.000000 0.000000 0.000000 0.089404 0.000000 0.000000
# 5 0.000000 0.000000 0.000000 0.000000 0.098143 0.000000
# 6 0.000000 0.000000 0.000000 0.000000 0.000000 0.029617
#
#
# Mechanical properties :
#
#
# Convention : Reuss Voigt Hill
#
# Bulk Modulus (GPa) = 35.57623 40.49914 38.03768
# Shear Modulus (GPa) = 15.48733 20.41778 17.95255
#
# Velocity S-wave (km/s) = 2.93947 3.37509 3.16478
# Velocity P-wave (km/s) = 5.60079 6.14679 5.88013
#
# Compressibility (1/GPa) = 0.02810866
#
# Stress axis : x y z
#
# Youngs Moduli (GPa) = 70.23847 30.10124 67.78950
#
# Poissons Ratio (x) = 0.29322 0.11686
# Poissons Ratio (y) = 0.68421 0.37864
# Poissons Ratio (z) = 0.12108 0.16813
#
# Static dielectric constant tensor:
#      x y z
#    x 1.649480 0.000000 0.000000 
#    y 0.000000 1.641700 0.000000 
#    z 0.000000 0.000000 1.590660 
# 
# From -- ./inp_files/5025.got.cif
#   From: 2010.05.17/outbox.cif.g08.bks.cpg/sg29_3_cif.got.tgz:5025.got - 2010.06.04 01:19:37.
