data_PCOD9340013
_publ_section_title
;
Structure prediction by ZEFSAII (Michael W. Deem and Ramdas Pophale) SiO2 
 PCOD9340013
Probable space group: P C A 21
;
_chemical_formula_sum "Si O2"
_cell_formula_units_Z 32
_cell_length_a 26.006549
_cell_length_b 11.766489
_cell_length_c 5.280663
_cell_angle_alpha 90.000000
_cell_angle_beta 90.000000
_cell_angle_gamma 90.000000
_cell_volume 1615.913362
_symmetry_space_group_name_H-M "P C A 21"
_symmetry_group_IT_number 29
_symmetry_cell_setting 'orthorhombic'
loop_
_space_group_symop_operation_xyz
x,y,z
-x,-y,1/2+z
1/2-x,y,1/2+z
1/2+x,-y,z
loop_
_atom_site_type_symbol
_atom_site_label
_atom_site_fract_x
_atom_site_fract_y
_atom_site_fract_z
Si Si1 0.328522 0.993352 0.344500
Si Si2 0.391662 0.403010 0.449617
Si Si3 0.761631 0.807518 0.842273
Si Si4 0.520508 0.442553 0.862811
Si Si5 0.283615 0.502145 0.477625
Si Si6 0.218759 0.750403 0.870001
Si Si7 0.935499 0.716662 0.950859
Si Si8 0.371131 0.078788 0.842546
O O1 0.278718 0.082691 0.344674
O O2 0.368345 0.030656 0.560956
O O3 0.309686 0.868760 0.413678
O O4 0.355362 0.996161 0.071378
O O5 0.420982 0.523530 0.413925
O O6 0.331197 0.418749 0.435950
O O7 0.407752 0.351215 0.720703
O O8 0.413044 0.324324 0.221046
O O9 0.748536 0.741117 0.593819
O O10 0.820684 0.840161 0.841405
O O11 0.508326 0.477004 0.572335
O O12 0.495004 0.321144 0.923340
O O13 0.259529 0.496202 0.758175
O O14 0.306559 0.630446 0.436969
O O15 0.234895 0.752225 0.575296
O O16 0.920550 0.847030 0.908142
#
# Coordination Sequence:
#
# PCOD9340013 Si02
#       8
#     4   4   4   4   4   4   4   4
#     4  10  17  28  43  62  89 121 154 190 228 269
#     4  10  19  35  52  69  98 129 160 202 240 280
#     4   8  14  23  34  49  76 107 139 170 200 246
#     4   8  16  30  51  72  89 117 162 207 239 272
#     4  10  21  35  50  72  98 126 163 200 240 289
#     4  10  18  30  49  67  87 120 162 207 240 267
#     4  10  19  32  50  73  97 126 162 197 239 285
#     4  10  18  27  41  64  92 118 148 185 228 280
#
# _framework density 19.803041
#
# number of rings (size 3 to 8) (size 9 to 14) (size 15 to 20)
#    0.000    2.500    0.000    4.500    0.000    0.000 
#    0.000   11.250    0.000    0.000    0.000    1.750 
#    0.000    0.000    0.000    0.000    0.000    0.000 
#
# Total GULP energy -178227.805254 kJ/mol
# GULP energy per Si atom -5569.618914 kJ/mol
# Density = 1.975797 g / cm^3
# Si number density = 19.803041 Si / 1000 Ang^3
#
#
#
# Elastic Constant Matrix: (Units=GPa)
#
#
# Indices 1 2 3 4 5 6 
#
# 1 29.6388 -5.9770 12.8064 0.0000 0.0000 0.0000
# 2 -5.9770 30.5520 -8.1509 0.0000 0.0000 0.0000
# 3 12.8064 -8.1509 110.9989 0.0000 0.0000 0.0000
# 4 0.0000 0.0000 0.0000 15.1340 0.0000 0.0000
# 5 0.0000 0.0000 0.0000 0.0000 15.7091 0.0000
# 6 0.0000 0.0000 0.0000 0.0000 0.0000 10.0801
#
#
#
# Elastic Compliance Matrix: (Units=1/GPa)
#
#
# Indices 1 2 3 4 5 6 
#
# 1 0.036611 0.006156 -0.003772 0.000000 0.000000 0.000000
# 2 0.006156 0.034420 0.001817 0.000000 0.000000 0.000000
# 3 -0.003772 0.001817 0.009578 0.000000 0.000000 0.000000
# 4 0.000000 0.000000 0.000000 0.066076 0.000000 0.000000
# 5 0.000000 0.000000 0.000000 0.000000 0.063658 0.000000
# 6 0.000000 0.000000 0.000000 0.000000 0.000000 0.099205
#
#
# Mechanical properties :
#
#
# Convention : Reuss Voigt Hill
#
# Bulk Modulus (GPa) = 11.23451 18.72742 14.98096
# Shear Modulus (GPa) = 15.11416 19.68538 17.39977
#
# Velocity S-wave (km/s) = 2.76565 3.15629 2.96740
# Velocity P-wave (km/s) = 3.98546 4.77077 4.39569
#
# Compressibility (1/GPa) = 0.08901147
#
# Stress axis : x y z
#
# Youngs Moduli (GPa) = 27.31440 29.05266 104.40888
#
# Poissons Ratio (x) = -0.17885 0.39382
# Poissons Ratio (y) = -0.16815 -0.18974
# Poissons Ratio (z) = 0.10303 -0.05280
#
# Static dielectric constant tensor:
#      x y z
#    x 1.674530 0.000000 0.000000 
#    y 0.000000 1.763840 0.000000 
#    z 0.000000 0.000000 1.740560 
# 
# From -- ./inp_files/546.got.cif
#   From: 2010.05.17/outbox.cif.g08.bks.cpg/sg29_1_cif.got.tgz:546.got - 2010.06.04 01:19:37.
