data_PCOD9340247
_publ_section_title
;
Structure prediction by ZEFSAII (Michael W. Deem and Ramdas Pophale) SiO2 
 PCOD9340247
Probable space group: P C A 21
;
_chemical_formula_sum "Si O2"
_cell_formula_units_Z 20
_cell_length_a 12.014996
_cell_length_b 8.605809
_cell_length_c 7.436866
_cell_angle_alpha 90.000000
_cell_angle_beta 90.000000
_cell_angle_gamma 90.000000
_cell_volume 768.962728
_symmetry_space_group_name_H-M "P C A 21"
_symmetry_group_IT_number 29
_symmetry_cell_setting 'orthorhombic'
loop_
_space_group_symop_operation_xyz
x,y,z
-x,-y,1/2+z
1/2-x,y,1/2+z
1/2+x,-y,z
loop_
_atom_site_type_symbol
_atom_site_label
_atom_site_fract_x
_atom_site_fract_y
_atom_site_fract_z
Si Si1 0.630892 0.724869 0.498600
Si Si2 0.049038 0.793011 0.604657
Si Si3 0.839141 0.583389 0.651383
Si Si4 0.127220 0.741267 0.992267
Si Si5 0.618979 0.027186 0.269722
O O1 0.725956 0.682211 0.636382
O O2 0.631134 0.580381 0.360242
O O3 0.503323 0.739966 0.554420
O O4 0.662622 0.879695 0.384882
O O5 0.102453 0.838396 0.416767
O O6 0.945295 0.676470 0.571677
O O7 0.122456 0.740820 0.775678
O O8 0.992749 0.949254 0.687762
O O9 0.824101 0.418547 0.561862
O O10 0.174601 0.892555 0.095588
#
# Coordination Sequence:
#
# PCOD9340247 Si02
#       5
#     4   4   4   4   4
#     4  10  24  42  68 100 133 188 223 286 348 401
#     4  10  21  37  69  98 130 181 217 285 335 403
#     4  10  24  41  64 100 141 175 226 279 352 405
#     4  10  22  42  68  98 135 178 234 270 348 407
#     4  10  19  40  69  94 125 176 232 274 339 400
#
# _framework density 26.009065
#
# number of rings (size 3 to 8) (size 9 to 14) (size 15 to 20)
#    0.000    2.400    4.000    0.000    8.400    0.000 
#    0.000    4.000    8.800    0.000    0.000    0.000 
#    0.000    0.000    0.000    0.000    0.000    0.000 
#
# Total GULP energy -111770.174238 kJ/mol
# GULP energy per Si atom -5588.508712 kJ/mol
# Density = 2.594987 g / cm^3
# Si number density = 26.009065 Si / 1000 Ang^3
#
#
#
# Elastic Constant Matrix: (Units=GPa)
#
#
# Indices 1 2 3 4 5 6 
#
# 1 92.7685 26.6676 25.6378 0.0000 0.0000 0.0000
# 2 26.6676 81.4307 19.4073 0.0000 0.0000 0.0000
# 3 25.6378 19.4073 78.2383 0.0000 0.0000 0.0000
# 4 0.0000 0.0000 0.0000 44.0242 0.0000 0.0000
# 5 0.0000 0.0000 0.0000 0.0000 26.5617 0.0000
# 6 0.0000 0.0000 0.0000 0.0000 0.0000 27.3737
#
#
#
# Elastic Compliance Matrix: (Units=1/GPa)
#
#
# Indices 1 2 3 4 5 6 
#
# 1 0.012661 -0.003356 -0.003316 0.000000 0.000000 0.000000
# 2 -0.003356 0.013941 -0.002359 0.000000 0.000000 0.000000
# 3 -0.003316 -0.002359 0.014453 0.000000 0.000000 0.000000
# 4 0.000000 0.000000 0.000000 0.022715 0.000000 0.000000
# 5 0.000000 0.000000 0.000000 0.000000 0.037648 0.000000
# 6 0.000000 0.000000 0.000000 0.000000 0.000000 0.036531
#
#
# Mechanical properties :
#
#
# Convention : Reuss Voigt Hill
#
# Bulk Modulus (GPa) = 43.48973 43.98477 43.73725
# Shear Modulus (GPa) = 30.54815 31.64023 31.09419
#
# Velocity S-wave (km/s) = 3.43084 3.49163 3.46137
# Velocity P-wave (km/s) = 5.69663 5.76224 5.72952
#
# Compressibility (1/GPa) = 0.02299393
#
# Stress axis : x y z
#
# Youngs Moduli (GPa) = 78.98442 71.72836 69.18858
#
# Poissons Ratio (x) = 0.24071 0.22945
# Poissons Ratio (y) = 0.26506 0.16319
# Poissons Ratio (z) = 0.26194 0.16918
#
# Static dielectric constant tensor:
#      x y z
#    x 2.072150 0.000000 0.000000 
#    y 0.000000 2.047480 0.000000 
#    z 0.000000 0.000000 2.011700 
# 
# From -- ./inp_files/1675.got.cif
#   From: 2010.05.17/outbox.cif.g08.bks.cpg/sg29_1_cif.got.tgz:1675.got - 2010.06.04 01:19:37.
