data_PCOD9340354
_publ_section_title
;
Structure prediction by ZEFSAII (Michael W. Deem and Ramdas Pophale) SiO2 
 PCOD9340354
Probable space group: P C A 21
;
_chemical_formula_sum "Si O2"
_cell_formula_units_Z 32
_cell_length_a 8.874710
_cell_length_b 7.613817
_cell_length_c 19.394347
_cell_angle_alpha 90.000000
_cell_angle_beta 90.000000
_cell_angle_gamma 90.000000
_cell_volume 1310.484131
_symmetry_space_group_name_H-M "P C A 21"
_symmetry_group_IT_number 29
_symmetry_cell_setting 'orthorhombic'
loop_
_space_group_symop_operation_xyz
x,y,z
-x,-y,1/2+z
1/2-x,y,1/2+z
1/2+x,-y,z
loop_
_atom_site_type_symbol
_atom_site_label
_atom_site_fract_x
_atom_site_fract_y
_atom_site_fract_z
Si Si1 0.236769 0.256697 0.431620
Si Si2 0.017741 0.937304 0.669839
Si Si3 0.081057 0.663912 0.185207
Si Si4 0.967043 0.425440 0.955898
Si Si5 0.669153 0.483093 0.768411
Si Si6 0.925213 0.750042 0.809508
Si Si7 0.812913 0.314781 0.536270
Si Si8 0.722324 0.944011 0.069346
O O1 0.416324 0.287880 0.421138
O O2 0.139560 0.146765 0.375850
O O3 0.218876 0.183433 0.509427
O O4 0.156349 0.446889 0.420621
O O5 0.996628 0.855044 0.745264
O O6 0.894429 0.848748 0.619709
O O7 0.979360 0.141360 0.679422
O O8 0.166568 0.955748 0.622980
O O9 0.207333 0.654558 0.243528
O O10 0.159369 0.617940 0.113547
O O11 0.945882 0.537373 0.207690
O O12 0.078218 0.563265 0.992119
O O13 0.858113 0.328061 0.010103
O O14 0.771719 0.651637 0.784974
O O15 0.559347 0.391847 0.823648
O O16 0.856934 0.109474 0.531916
#
# Coordination Sequence:
#
# PCOD9340354 Si02
#       8
#     4   4   4   4   4   4   4   4
#     4  11  23  42  64  90 124 166 210 260 319 381
#     4  11  23  41  61  90 127 163 204 256 310 372
#     4  10  20  37  60  89 122 160 203 254 311 370
#     4  10  22  38  61  91 121 159 209 262 312 373
#     4  10  22  38  61  91 121 159 209 262 312 373
#     4  11  23  42  64  90 124 166 210 260 319 381
#     4  10  20  37  60  89 122 160 203 254 311 370
#     4  11  23  41  61  90 127 163 204 256 310 372
#
# _framework density 24.418455999999999
#
# number of rings (size 3 to 8) (size 9 to 14) (size 15 to 20)
#    0.000    1.500    0.000    6.000    0.000    6.000 
#    0.000   16.250    0.000    0.000    0.000    0.000 
#    0.000    0.000    0.000    0.000    0.000    0.000 
#
# Total GULP energy -178527.007906 kJ/mol
# GULP energy per Si atom -5578.968997 kJ/mol
# Density = 2.436288 g / cm^3
# Si number density = 24.418456 Si / 1000 Ang^3
#
#
#
# Elastic Constant Matrix: (Units=GPa)
#
#
# Indices 1 2 3 4 5 6 
#
# 1 112.1258 -7.7538 13.4899 0.0000 0.0000 0.0000
# 2 -7.7538 34.3525 -3.1993 0.0000 0.0000 0.0000
# 3 13.4899 -3.1993 61.6506 0.0000 0.0000 0.0000
# 4 0.0000 0.0000 0.0000 27.1729 0.0000 0.0000
# 5 0.0000 0.0000 0.0000 0.0000 40.9916 0.0000
# 6 0.0000 0.0000 0.0000 0.0000 0.0000 31.4342
#
#
#
# Elastic Compliance Matrix: (Units=1/GPa)
#
#
# Indices 1 2 3 4 5 6 
#
# 1 0.009283 0.001915 -0.001932 0.000000 0.000000 0.000000
# 2 0.001915 0.029647 0.001119 0.000000 0.000000 0.000000
# 3 -0.001932 0.001119 0.016701 0.000000 0.000000 0.000000
# 4 0.000000 0.000000 0.000000 0.036801 0.000000 0.000000
# 5 0.000000 0.000000 0.000000 0.000000 0.024395 0.000000
# 6 0.000000 0.000000 0.000000 0.000000 0.000000 0.031812
#
#
# Mechanical properties :
#
#
# Convention : Reuss Voigt Hill
#
# Bulk Modulus (GPa) = 17.28999 23.68918 20.48959
# Shear Modulus (GPa) = 30.17254 33.62588 31.89921
#
# Velocity S-wave (km/s) = 3.51899 3.71491 3.61828
# Velocity P-wave (km/s) = 4.85871 5.30313 5.08578
#
# Compressibility (1/GPa) = 0.05783694
#
# Stress axis : x y z
#
# Youngs Moduli (GPa) = 107.71863 33.73078 59.87577
#
# Poissons Ratio (x) = -0.06461 0.11568
# Poissons Ratio (y) = -0.20633 -0.06702
# Poissons Ratio (z) = 0.20810 -0.03776
#
# Static dielectric constant tensor:
#      x y z
#    x 2.005900 0.000000 0.000000 
#    y 0.000000 2.012770 0.000000 
#    z 0.000000 0.000000 2.117470 
# 
# From -- ./inp_files/5431.got.cif
#   From: 2010.05.17/outbox.cif.g08.bks.cpg/sg29_3_cif.got.tgz:5431.got - 2010.06.04 01:19:37.
