data_PCOD9340036
_publ_section_title
;
Structure prediction by ZEFSAII (Michael W. Deem and Ramdas Pophale) SiO2 
 PCOD9340036
Probable space group: P C A 21
;
_chemical_formula_sum "Si O2"
_cell_formula_units_Z 32
_cell_length_a 17.144752
_cell_length_b 5.560085
_cell_length_c 12.056627
_cell_angle_alpha 90.000000
_cell_angle_beta 90.000000
_cell_angle_gamma 90.000000
_cell_volume 1149.313382
_symmetry_space_group_name_H-M "P C A 21"
_symmetry_group_IT_number 29
_symmetry_cell_setting 'orthorhombic'
loop_
_space_group_symop_operation_xyz
x,y,z
-x,-y,1/2+z
1/2-x,y,1/2+z
1/2+x,-y,z
loop_
_atom_site_type_symbol
_atom_site_label
_atom_site_fract_x
_atom_site_fract_y
_atom_site_fract_z
Si Si1 0.709147 0.750017 0.559640
Si Si2 0.206650 0.749981 0.107229
Si Si3 0.436255 0.249994 0.838370
Si Si4 0.469983 0.250010 0.124431
Si Si5 0.877103 0.250006 0.367269
Si Si6 0.051418 0.249990 0.080783
Si Si7 0.410493 0.749993 0.812462
Si Si8 0.674520 0.750006 0.877721
O O1 0.746286 0.498821 0.602382
O O2 0.620090 0.750001 0.596187
O O3 0.740024 0.750005 0.431421
O O4 0.746278 0.001233 0.602374
O O5 0.152356 0.749997 0.214878
O O6 0.153747 0.749987 0.994728
O O7 0.530137 0.249998 0.851031
O O8 0.415626 0.249993 0.706588
O O9 0.405508 0.505176 0.879642
O O10 0.405510 0.994809 0.879643
O O11 0.504290 0.500876 0.077513
O O12 0.504699 0.250009 0.250345
O O13 0.504292 0.999148 0.077513
O O14 0.842731 0.497617 0.318946
O O15 0.842729 0.002398 0.318946
O O16 0.113261 0.249988 0.981830
#
# Coordination Sequence:
#
# PCOD9340036 Si02
#       8
#     4   4   4   4   4   4   4   4
#     4  10  18  29  48  75  96 119 158 199 237 284
#     4  10  19  33  50  73 101 126 158 204 245 277
#     4  10  18  29  48  75  98 124 162 202 238 283
#     4  10  18  29  48  75  96 119 158 199 237 284
#     4  10  18  29  48  75  98 124 162 202 238 283
#     4  10  19  33  50  73 101 126 158 204 245 277
#     4  10  19  33  50  73  98 127 159 203 244 278
#     4  10  19  33  50  73  98 127 159 203 244 278
#
# _framework density 27.842707999999998
#
# number of rings (size 3 to 8) (size 9 to 14) (size 15 to 20)
#    0.000    2.000    0.000    9.000    0.000    0.000 
#    0.000    0.000    0.000    0.000    0.000  238.000 
#    0.000    0.000    0.000    0.000    0.000    0.000 
#
# Total GULP energy -179434.493616 kJ/mol
# GULP energy per Si atom -5607.327925 kJ/mol
# Density = 2.777934 g / cm^3
# Si number density = 27.842708 Si / 1000 Ang^3
#
#
#
# Elastic Constant Matrix: (Units=GPa)
#
#
# Indices 1 2 3 4 5 6 
#
# 1 153.1543 101.7913 -1.8375 0.0000 0.0000 0.0000
# 2 101.7913 360.6960 17.1338 0.0000 0.0000 0.0000
# 3 -1.8375 17.1338 83.3577 0.0000 0.0000 0.0000
# 4 0.0000 0.0000 0.0000 7.6032 0.0000 0.0000
# 5 0.0000 0.0000 0.0000 0.0000 47.1394 0.0000
# 6 0.0000 0.0000 0.0000 0.0000 0.0000 0.0275
#
#
#
# Elastic Compliance Matrix: (Units=1/GPa)
#
#
# Indices 1 2 3 4 5 6 
#
# 1 0.008072 -0.002309 0.000653 0.000000 0.000000 0.000000
# 2 -0.002309 0.003460 -0.000762 0.000000 0.000000 0.000000
# 3 0.000653 -0.000762 0.012168 0.000000 0.000000 0.000000
# 4 0.000000 0.000000 0.000000 0.131524 0.000000 0.000000
# 5 0.000000 0.000000 0.000000 0.000000 0.021214 0.000000
# 6 0.000000 0.000000 0.000000 0.000000 0.000000 36.319080
#
#
# Mechanical properties :
#
#
# Convention : Reuss Voigt Hill
#
# Bulk Modulus (GPa) = 53.01533 92.37590 72.69562
# Shear Modulus (GPa) = 0.13696 42.96204 21.54950
#
# Velocity S-wave (km/s) = 0.22203 3.93240 2.78505
# Velocity P-wave (km/s) = 4.37585 7.33949 6.04219
#
# Compressibility (1/GPa) = 0.01886247
#
# Stress axis : x y z
#
# Youngs Moduli (GPa) = 123.88852 288.99936 82.18595
#
# Poissons Ratio (x) = 0.66728 -0.05363
# Poissons Ratio (y) = 0.28605 0.06264
# Poissons Ratio (z) = -0.08084 0.22025
#
# Static dielectric constant tensor:
#      x y z
#    x 2.143760 0.000000 0.000000 
#    y 0.000000 2.198100 0.000000 
#    z 0.000000 0.000000 2.160500 
# 
# From -- ./inp_files/5308.got.cif
#   From: 2010.05.17/outbox.cif.g08.bks.cpg/sg29_3_cif.got.tgz:5308.got - 2010.06.04 01:19:37.
