data_PCOD9340050
_publ_section_title
;
Structure prediction by ZEFSAII (Michael W. Deem and Ramdas Pophale) SiO2 
 PCOD9340050
Probable space group: P C A 21
;
_chemical_formula_sum "Si O2"
_cell_formula_units_Z 28
_cell_length_a 23.717876
_cell_length_b 9.756975
_cell_length_c 5.404088
_cell_angle_alpha 90.000000
_cell_angle_beta 90.000000
_cell_angle_gamma 90.000000
_cell_volume 1250.585529
_symmetry_space_group_name_H-M "P C A 21"
_symmetry_group_IT_number 29
_symmetry_cell_setting 'orthorhombic'
loop_
_space_group_symop_operation_xyz
x,y,z
-x,-y,1/2+z
1/2-x,y,1/2+z
1/2+x,-y,z
loop_
_atom_site_type_symbol
_atom_site_label
_atom_site_fract_x
_atom_site_fract_y
_atom_site_fract_z
Si Si1 0.454505 0.911157 0.595270
Si Si2 0.887741 0.161765 0.093644
Si Si3 0.717410 0.383065 0.092463
Si Si4 0.535517 0.783591 0.928883
Si Si5 0.760592 0.071590 0.104213
Si Si6 0.436790 0.574265 0.068895
Si Si7 0.599448 0.547706 0.068705
O O1 0.421928 0.866261 0.347412
O O2 0.511600 0.824747 0.655874
O O3 0.466603 0.071391 0.565806
O O4 0.416716 0.891331 0.841615
O O5 0.825670 0.107632 0.118933
O O6 0.883262 0.324533 0.059727
O O7 0.747613 0.422641 0.348050
O O8 0.722290 0.213146 0.096499
O O9 0.657662 0.461960 0.073346
O O10 0.488392 0.677484 0.025015
O O11 0.594430 0.706871 0.982881
O O12 0.746899 0.993025 0.351418
O O13 0.428171 0.472784 0.839568
O O14 0.436891 0.517884 0.344464
#
# Coordination Sequence:
#
# PCOD9340050 Si02
#       7
#     4   4   4   4   4   4   4
#     4  11  25  42  62  88 124 174 222 258 302 372
#     4  11  22  39  64  93 126 165 214 262 310 374
#     4  10  20  36  57  86 122 157 195 242 310 379
#     4  11  25  43  64  91 127 170 212 256 308 376
#     4  10  18  32  58  90 122 153 196 256 317 368
#     4  11  22  37  60  95 129 159 198 254 319 378
#     4  12  24  39  63  95 130 162 201 258 322 381
#
# _framework density 22.389512
#
# number of rings (size 3 to 8) (size 9 to 14) (size 15 to 20)
#    0.000    1.143    0.000    9.429    0.000    5.714 
#    0.000    0.000    0.000    5.143    0.000    0.000 
#    0.000    0.000    0.000    0.000    0.000    0.000 
#
# Total GULP energy -156202.693304 kJ/mol
# GULP energy per Si atom -5578.667618 kJ/mol
# Density = 2.233855 g / cm^3
# Si number density = 22.389512 Si / 1000 Ang^3
#
#
#
# Elastic Constant Matrix: (Units=GPa)
#
#
# Indices 1 2 3 4 5 6 
#
# 1 65.0153 16.3387 48.1653 0.0000 0.0000 0.0000
# 2 16.3387 62.7735 26.8948 0.0000 0.0000 0.0000
# 3 48.1653 26.8948 188.4725 0.0000 0.0000 0.0000
# 4 0.0000 0.0000 0.0000 31.6230 0.0000 0.0000
# 5 0.0000 0.0000 0.0000 0.0000 31.9017 0.0000
# 6 0.0000 0.0000 0.0000 0.0000 0.0000 16.5170
#
#
#
# Elastic Compliance Matrix: (Units=1/GPa)
#
#
# Indices 1 2 3 4 5 6 
#
# 1 0.019537 -0.003138 -0.004545 0.000000 0.000000 0.000000
# 2 -0.003138 0.017472 -0.001691 0.000000 0.000000 0.000000
# 3 -0.004545 -0.001691 0.006709 0.000000 0.000000 0.000000
# 4 0.000000 0.000000 0.000000 0.031623 0.000000 0.000000
# 5 0.000000 0.000000 0.000000 0.000000 0.031346 0.000000
# 6 0.000000 0.000000 0.000000 0.000000 0.000000 0.060544
#
#
# Mechanical properties :
#
#
# Convention : Reuss Voigt Hill
#
# Bulk Modulus (GPa) = 40.04989 55.45098 47.75044
# Shear Modulus (GPa) = 25.73337 30.99918 28.36628
#
# Velocity S-wave (km/s) = 3.39388 3.72498 3.56328
# Velocity P-wave (km/s) = 5.76928 6.58186 6.18892
#
# Compressibility (1/GPa) = 0.02496886
#
# Stress axis : x y z
#
# Youngs Moduli (GPa) = 51.18611 57.23575 149.06135
#
# Poissons Ratio (x) = 0.17959 0.67747
# Poissons Ratio (y) = 0.16061 0.25211
# Poissons Ratio (z) = 0.23264 0.09680
#
# Static dielectric constant tensor:
#      x y z
#    x 1.915380 0.000000 0.000000 
#    y 0.000000 1.890600 0.000000 
#    z 0.000000 0.000000 1.926850 
# 
# From -- ./inp_files/662.got.cif
#   From: 2010.05.17/outbox.cif.g08.bks.cpg/sg29_1_cif.got.tgz:662.got - 2010.06.04 01:19:37.
