data_PCOD9340716
_publ_section_title
;
Structure prediction by ZEFSAII (Michael W. Deem and Ramdas Pophale) SiO2 
 PCOD9340716
Probable space group: P C A 21
;
_chemical_formula_sum "Si O2"
_cell_formula_units_Z 28
_cell_length_a 11.911625
_cell_length_b 5.194385
_cell_length_c 17.751438
_cell_angle_alpha 90.000000
_cell_angle_beta 90.000000
_cell_angle_gamma 90.000000
_cell_volume 1098.344775
_symmetry_space_group_name_H-M "P C A 21"
_symmetry_group_IT_number 29
_symmetry_cell_setting 'orthorhombic'
loop_
_space_group_symop_operation_xyz
x,y,z
-x,-y,1/2+z
1/2-x,y,1/2+z
1/2+x,-y,z
loop_
_atom_site_type_symbol
_atom_site_label
_atom_site_fract_x
_atom_site_fract_y
_atom_site_fract_z
Si Si1 0.931273 0.803470 0.963630
Si Si2 0.010002 0.713558 0.243082
Si Si3 0.613886 0.467944 0.868360
Si Si4 0.027461 0.310873 0.007670
Si Si5 0.305750 0.489205 0.634486
Si Si6 0.319737 0.987496 0.190006
Si Si7 0.701051 0.099268 0.348473
O O1 0.826164 0.911528 0.917337
O O2 0.026207 0.741124 0.900559
O O3 0.976365 0.028965 0.018383
O O4 0.928735 0.527426 0.004742
O O5 0.916329 0.537924 0.283134
O O6 0.950564 0.940784 0.196740
O O7 0.095239 0.547217 0.194365
O O8 0.084321 0.826419 0.310150
O O9 0.736804 0.354885 0.876240
O O10 0.585007 0.696806 0.925147
O O11 0.123847 0.432271 0.059310
O O12 0.239545 0.230135 0.651717
O O13 0.222941 0.733578 0.646594
O O14 0.275814 0.987330 0.277182
#
# Coordination Sequence:
#
# PCOD9340716 Si02
#       7
#     4   4   4   4   4   4   4
#     4  10  21  42  63  97 133 169 218 278 328 397
#     4  11  22  44  68 101 132 174 229 284 331 406
#     4  10  23  41  69 101 137 167 230 282 335 397
#     4  10  23  45  65  94 141 172 226 274 330 408
#     4  11  25  47  66  96 138 186 218 280 339 404
#     4  11  25  41  68  96 133 173 229 274 340 406
#     4  11  21  40  69  99 130 171 216 280 345 380
#
# _framework density 25.492909000000001
#
# number of rings (size 3 to 8) (size 9 to 14) (size 15 to 20)
#    0.857    0.571    1.429    4.286    0.000    4.571 
#    5.143    0.000    0.000    0.000    0.000    0.000 
#    0.000    0.000    0.000    0.000    0.000    0.000 
#
# Total GULP energy -156622.407865 kJ/mol
# GULP energy per Si atom -5593.657424 kJ/mol
# Density = 2.543489 g / cm^3
# Si number density = 25.492909 Si / 1000 Ang^3
#
#
#
# Elastic Constant Matrix: (Units=GPa)
#
#
# Indices 1 2 3 4 5 6 
#
# 1 62.7476 27.2643 12.4879 0.0000 0.0000 0.0000
# 2 27.2643 148.6300 15.2153 0.0000 0.0000 0.0000
# 3 12.4879 15.2153 65.3308 0.0000 0.0000 0.0000
# 4 0.0000 0.0000 0.0000 28.5330 0.0000 0.0000
# 5 0.0000 0.0000 0.0000 0.0000 32.0019 0.0000
# 6 0.0000 0.0000 0.0000 0.0000 0.0000 25.2255
#
#
#
# Elastic Compliance Matrix: (Units=1/GPa)
#
#
# Indices 1 2 3 4 5 6 
#
# 1 0.017771 -0.002983 -0.002702 0.000000 0.000000 0.000000
# 2 -0.002983 0.007393 -0.001152 0.000000 0.000000 0.000000
# 3 -0.002702 -0.001152 0.016091 0.000000 0.000000 0.000000
# 4 0.000000 0.000000 0.000000 0.035047 0.000000 0.000000
# 5 0.000000 0.000000 0.000000 0.000000 0.031248 0.000000
# 6 0.000000 0.000000 0.000000 0.000000 0.000000 0.039642
#
#
# Mechanical properties :
#
#
# Convention : Reuss Voigt Hill
#
# Bulk Modulus (GPa) = 36.25598 42.96038 39.60818
# Shear Modulus (GPa) = 29.40120 31.93480 30.66800
#
# Velocity S-wave (km/s) = 3.39972 3.54318 3.47219
# Velocity P-wave (km/s) = 5.44644 5.79891 5.62543
#
# Compressibility (1/GPa) = 0.02758166
#
# Stress axis : x y z
#
# Youngs Moduli (GPa) = 56.27183 135.25858 62.14485
#
# Poissons Ratio (x) = 0.40351 0.16792
# Poissons Ratio (y) = 0.16787 0.07157
# Poissons Ratio (z) = 0.15205 0.15577
#
# Static dielectric constant tensor:
#      x y z
#    x 2.041460 0.000000 0.000000 
#    y 0.000000 2.037820 0.000000 
#    z 0.000000 0.000000 2.052660 
# 
# From -- ./inp_files/5484.got.cif
#   From: 2010.05.17/outbox.cif.g08.bks.cpg/sg29_3_cif.got.tgz:5484.got - 2010.06.04 01:19:37.
