data_PCOD9340056
_publ_section_title
;
Structure prediction by ZEFSAII (Michael W. Deem and Ramdas Pophale) SiO2 
 PCOD9340056
Probable space group: P C A 21
;
_chemical_formula_sum "Si O2"
_cell_formula_units_Z 28
_cell_length_a 5.457496
_cell_length_b 14.800228
_cell_length_c 13.333809
_cell_angle_alpha 90.000000
_cell_angle_beta 90.000000
_cell_angle_gamma 90.000000
_cell_volume 1077.000889
_symmetry_space_group_name_H-M "P C A 21"
_symmetry_group_IT_number 29
_symmetry_cell_setting 'orthorhombic'
loop_
_space_group_symop_operation_xyz
x,y,z
-x,-y,1/2+z
1/2-x,y,1/2+z
1/2+x,-y,z
loop_
_atom_site_type_symbol
_atom_site_label
_atom_site_fract_x
_atom_site_fract_y
_atom_site_fract_z
Si Si1 0.656873 0.321038 0.889430
Si Si2 0.078137 0.624719 0.561527
Si Si3 0.678666 0.046088 0.173586
Si Si4 0.208443 0.219970 0.524905
Si Si5 0.152625 0.024311 0.950927
Si Si6 0.379557 0.451146 0.752549
Si Si7 0.384301 0.754928 0.704683
O O1 0.453667 0.363166 0.815521
O O2 0.864863 0.279591 0.817505
O O3 0.756218 0.398380 0.965578
O O4 0.527709 0.245112 0.957676
O O5 0.913742 0.561787 0.632148
O O6 0.256518 0.675861 0.640083
O O7 0.899097 0.699645 0.516453
O O8 0.748485 0.148240 0.200738
O O9 0.403235 0.018248 0.202956
O O10 0.660000 0.037694 0.051552
O O11 0.322265 0.126688 0.488122
O O12 0.129749 0.222805 0.642362
O O13 0.399778 0.995370 0.896514
O O14 0.104856 0.481030 0.775579
#
# Coordination Sequence:
#
# PCOD9340056 Si02
#       7
#     4   4   4   4   4   4   4
#     4  10  26  44  67 107 140 181 230 289 355 430
#     4  10  24  43  72 100 135 181 235 279 355 429
#     4  10  18  33  59  89 125 178 236 284 336 388
#     4  11  22  40  70  96 141 193 238 294 350 419
#     4  10  19  34  61  93 129 184 240 289 341 390
#     4  11  28  50  77 105 140 179 223 284 356 433
#     4  10  21  40  64  94 136 186 234 287 349 413
#
# _framework density 25.99812
#
# number of rings (size 3 to 8) (size 9 to 14) (size 15 to 20)
#    0.000    1.714    2.857    1.714   10.000    2.286 
#    0.000    1.429    0.000    0.000    0.000    0.000 
#    0.000    0.000    0.000    0.000    0.000    0.000 
#
# Total GULP energy -156628.881399 kJ/mol
# GULP energy per Si atom -5593.888621 kJ/mol
# Density = 2.593895 g / cm^3
# Si number density = 25.998120 Si / 1000 Ang^3
#
#
#
# Elastic Constant Matrix: (Units=GPa)
#
#
# Indices 1 2 3 4 5 6 
#
# 1 126.7148 7.1396 22.5368 0.0000 0.0000 0.0000
# 2 7.1396 47.9124 14.8730 0.0000 0.0000 0.0000
# 3 22.5368 14.8730 123.5639 0.0000 0.0000 0.0000
# 4 0.0000 0.0000 0.0000 8.5624 0.0000 0.0000
# 5 0.0000 0.0000 0.0000 0.0000 26.9820 0.0000
# 6 0.0000 0.0000 0.0000 0.0000 0.0000 1.7068
#
#
#
# Elastic Compliance Matrix: (Units=1/GPa)
#
#
# Indices 1 2 3 4 5 6 
#
# 1 0.008185 -0.000786 -0.001398 0.000000 0.000000 0.000000
# 2 -0.000786 0.021757 -0.002476 0.000000 0.000000 0.000000
# 3 -0.001398 -0.002476 0.008646 0.000000 0.000000 0.000000
# 4 0.000000 0.000000 0.000000 0.116790 0.000000 0.000000
# 5 0.000000 0.000000 0.000000 0.000000 0.037062 0.000000
# 6 0.000000 0.000000 0.000000 0.000000 0.000000 0.585886
#
#
# Mechanical properties :
#
#
# Convention : Reuss Voigt Hill
#
# Bulk Modulus (GPa) = 34.16596 43.03218 38.59907
# Shear Modulus (GPa) = 6.27038 24.35970 15.31504
#
# Velocity S-wave (km/s) = 1.55470 3.06433 2.42974
# Velocity P-wave (km/s) = 4.04883 5.39520 4.76976
#
# Compressibility (1/GPa) = 0.02926890
#
# Stress axis : x y z
#
# Youngs Moduli (GPa) = 122.17939 45.96235 115.66075
#
# Poissons Ratio (x) = 0.03611 0.16172
# Poissons Ratio (y) = 0.09598 0.28632
# Poissons Ratio (z) = 0.17084 0.11378
#
# Static dielectric constant tensor:
#      x y z
#    x 2.108030 0.000000 0.000000 
#    y 0.000000 2.016940 0.000000 
#    z 0.000000 0.000000 2.032520 
# 
# From -- ./inp_files/4050.got.cif
#   From: 2010.05.17/outbox.cif.g08.bks.cpg/sg29_3_cif.got.tgz:4050.got - 2010.06.04 01:19:37.
