data_PCOD9340511
_publ_section_title
;
Structure prediction by ZEFSAII (Michael W. Deem and Ramdas Pophale) SiO2 
 PCOD9340511
Probable space group: P C A 21
;
_chemical_formula_sum "Si O2"
_cell_formula_units_Z 28
_cell_length_a 22.093625
_cell_length_b 9.047498
_cell_length_c 5.446636
_cell_angle_alpha 90.000000
_cell_angle_beta 90.000000
_cell_angle_gamma 90.000000
_cell_volume 1088.739116
_symmetry_space_group_name_H-M "P C A 21"
_symmetry_group_IT_number 29
_symmetry_cell_setting 'orthorhombic'
loop_
_space_group_symop_operation_xyz
x,y,z
-x,-y,1/2+z
1/2-x,y,1/2+z
1/2+x,-y,z
loop_
_atom_site_type_symbol
_atom_site_label
_atom_site_fract_x
_atom_site_fract_y
_atom_site_fract_z
Si Si1 0.283777 0.299488 0.821910
Si Si2 0.028058 0.549049 0.239085
Si Si3 0.994946 0.150543 0.501255
Si Si4 0.603085 0.960300 0.781245
Si Si5 0.820099 0.229800 0.209099
Si Si6 0.813434 0.357580 0.716103
Si Si7 0.591062 0.723106 0.158058
O O1 0.250779 0.256051 0.568676
O O2 0.290075 0.477901 0.785716
O O3 0.352027 0.237439 0.829399
O O4 0.086949 0.454809 0.159870
O O5 0.017099 0.510332 0.522893
O O6 0.020547 0.721631 0.194257
O O7 0.051156 0.049226 0.578040
O O8 0.026145 0.227128 0.263727
O O9 0.934502 0.057972 0.476852
O O10 0.660988 0.058636 0.724344
O O11 0.608034 0.798735 0.901712
O O12 0.841488 0.320598 0.449855
O O13 0.748450 0.259034 0.198064
O O14 0.847301 0.296943 0.957483
#
# Coordination Sequence:
#
# PCOD9340511 Si02
#       7
#     4   4   4   4   4   4   4
#     4  12  25  47  74 104 144 185 238 304 359 429
#     4  10  22  44  71  99 138 183 238 292 344 429
#     4  11  25  47  69 103 144 193 244 291 365 441
#     4  12  25  46  70 102 148 189 240 299 361 435
#     4  10  22  40  74  98 140 180 238 288 353 418
#     4  10  20  47  67 108 134 182 244 287 349 435
#     4  11  27  47  71 104 146 192 240 305 371 421
#
# _framework density 25.717824
#
# number of rings (size 3 to 8) (size 9 to 14) (size 15 to 20)
#    0.000    1.143    5.714    0.000    6.000    0.000 
#   15.429    0.000    0.000    0.000    0.000    0.000 
#    0.000    0.000    0.000    0.000    0.000    0.000 
#
# Total GULP energy -156319.845160 kJ/mol
# GULP energy per Si atom -5582.851613 kJ/mol
# Density = 2.565929 g / cm^3
# Si number density = 25.717824 Si / 1000 Ang^3
#
#
#
# Elastic Constant Matrix: (Units=GPa)
#
#
# Indices 1 2 3 4 5 6 
#
# 1 76.4670 -6.2211 -9.8903 0.0000 0.0000 0.0000
# 2 -6.2211 20.4928 2.7385 0.0000 0.0000 0.0000
# 3 -9.8903 2.7385 129.0713 0.0000 0.0000 0.0000
# 4 0.0000 0.0000 0.0000 28.0954 0.0000 0.0000
# 5 0.0000 0.0000 0.0000 0.0000 26.1712 0.0000
# 6 0.0000 0.0000 0.0000 0.0000 0.0000 38.3688
#
#
#
# Elastic Compliance Matrix: (Units=1/GPa)
#
#
# Indices 1 2 3 4 5 6 
#
# 1 0.013524 0.003978 0.000952 0.000000 0.000000 0.000000
# 2 0.003978 0.050107 -0.000758 0.000000 0.000000 0.000000
# 3 0.000952 -0.000758 0.007837 0.000000 0.000000 0.000000
# 4 0.000000 0.000000 0.000000 0.035593 0.000000 0.000000
# 5 0.000000 0.000000 0.000000 0.000000 0.038210 0.000000
# 6 0.000000 0.000000 0.000000 0.000000 0.000000 0.026063
#
#
# Mechanical properties :
#
#
# Convention : Reuss Voigt Hill
#
# Bulk Modulus (GPa) = 12.52945 22.14281 17.33613
# Shear Modulus (GPa) = 26.37221 34.48733 30.42977
#
# Velocity S-wave (km/s) = 3.20573 3.66593 3.44352
# Velocity P-wave (km/s) = 4.31100 5.15240 4.75037
#
# Compressibility (1/GPa) = 0.07981197
#
# Stress axis : x y z
#
# Youngs Moduli (GPa) = 73.94078 19.95737 127.60490
#
# Poissons Ratio (x) = -0.07940 -0.12147
# Poissons Ratio (y) = -0.29417 0.09676
# Poissons Ratio (z) = -0.07039 0.01513
#
# Static dielectric constant tensor:
#      x y z
#    x 2.091220 0.000000 0.000000 
#    y 0.000000 2.077900 0.000000 
#    z 0.000000 0.000000 2.145210 
# 
# From -- ./inp_files/660.got.cif
#   From: 2010.05.17/outbox.cif.g08.bks.cpg/sg29_1_cif.got.tgz:660.got - 2010.06.04 01:19:37.
