data_PCOD9340605
_publ_section_title
;
Structure prediction by ZEFSAII (Michael W. Deem and Ramdas Pophale) SiO2 
 PCOD9340605
Probable space group: P C A 21
;
_chemical_formula_sum "Si O2"
_cell_formula_units_Z 32
_cell_length_a 12.154665
_cell_length_b 8.344054
_cell_length_c 14.780158
_cell_angle_alpha 90.000000
_cell_angle_beta 90.000000
_cell_angle_gamma 90.000000
_cell_volume 1498.991521
_symmetry_space_group_name_H-M "P C A 21"
_symmetry_group_IT_number 29
_symmetry_cell_setting 'orthorhombic'
loop_
_space_group_symop_operation_xyz
x,y,z
-x,-y,1/2+z
1/2-x,y,1/2+z
1/2+x,-y,z
loop_
_atom_site_type_symbol
_atom_site_label
_atom_site_fract_x
_atom_site_fract_y
_atom_site_fract_z
Si Si1 0.699927 0.252453 0.827120
Si Si2 0.290383 0.285580 0.902805
Si Si3 0.923817 0.427379 0.869488
Si Si4 0.716739 0.201016 0.628356
Si Si5 0.770194 0.563014 0.594838
Si Si6 0.879795 0.595032 0.260530
Si Si7 0.520320 0.730182 0.044384
Si Si8 0.679322 0.001019 0.973341
O O1 0.812258 0.324607 0.868396
O O2 0.722147 0.159585 0.733870
O O3 0.636206 0.410627 0.793096
O O4 0.648018 0.138928 0.902446
O O5 0.393224 0.384577 0.864859
O O6 0.195471 0.304807 0.828699
O O7 0.281662 0.101881 0.932058
O O8 0.260582 0.386326 0.993319
O O9 0.994623 0.371396 0.783327
O O10 0.987362 0.389200 0.962395
O O11 0.773706 0.373447 0.610210
O O12 0.590209 0.221949 0.596354
O O13 0.777451 0.075244 0.565800
O O14 0.672871 0.617475 0.662423
O O15 0.888716 0.645620 0.608342
O O16 0.580934 0.880162 0.997123
#
# Coordination Sequence:
#
# PCOD9340605 Si02
#       8
#     4   4   4   4   4   4   4   4
#     4  10  24  42  66  94 140 171 215 281 320 398
#     4  10  21  39  64  92 127 167 215 275 315 389
#     4  11  20  44  69  94 122 177 223 273 333 376
#     4  11  23  45  65  97 142 169 218 273 329 400
#     4  10  21  40  68  95 126 167 222 284 310 383
#     4  10  21  39  67  96 126 166 226 276 324 383
#     4  11  23  43  71  92 130 178 220 271 333 384
#     4  11  23  42  62 100 137 173 211 273 326 407
#
# _framework density 21.347684000000001
#
# number of rings (size 3 to 8) (size 9 to 14) (size 15 to 20)
#    0.000    1.500    5.000    0.750    0.000    9.000 
#    2.250    0.000    0.000    0.000    0.000    0.000 
#    0.000    0.000    0.000    0.000    0.000    0.000 
#
# Total GULP energy -178682.295585 kJ/mol
# GULP energy per Si atom -5583.821737 kJ/mol
# Density = 2.129910 g / cm^3
# Si number density = 21.347684 Si / 1000 Ang^3
#
#
#
# Elastic Constant Matrix: (Units=GPa)
#
#
# Indices 1 2 3 4 5 6 
#
# 1 42.8635 5.3423 2.0132 0.0000 0.0000 0.0000
# 2 5.3423 43.7010 6.0997 0.0000 0.0000 0.0000
# 3 2.0132 6.0997 64.8093 0.0000 0.0000 0.0000
# 4 0.0000 0.0000 0.0000 16.6180 0.0000 0.0000
# 5 0.0000 0.0000 0.0000 0.0000 32.5924 0.0000
# 6 0.0000 0.0000 0.0000 0.0000 0.0000 22.2947
#
#
#
# Elastic Compliance Matrix: (Units=1/GPa)
#
#
# Indices 1 2 3 4 5 6 
#
# 1 0.023705 -0.002832 -0.000470 0.000000 0.000000 0.000000
# 2 -0.002832 0.023526 -0.002126 0.000000 0.000000 0.000000
# 3 -0.000470 -0.002126 0.015645 0.000000 0.000000 0.000000
# 4 0.000000 0.000000 0.000000 0.060176 0.000000 0.000000
# 5 0.000000 0.000000 0.000000 0.000000 0.030682 0.000000
# 6 0.000000 0.000000 0.000000 0.000000 0.000000 0.044854
#
#
# Mechanical properties :
#
#
# Convention : Reuss Voigt Hill
#
# Bulk Modulus (GPa) = 19.22384 19.80936 19.51660
# Shear Modulus (GPa) = 22.04751 23.49559 22.77155
#
# Velocity S-wave (km/s) = 3.21718 3.32115 3.26958
# Velocity P-wave (km/s) = 4.77755 4.89962 4.83897
#
# Compressibility (1/GPa) = 0.05201876
#
# Stress axis : x y z
#
# Youngs Moduli (GPa) = 42.18526 42.50654 63.91983
#
# Poissons Ratio (x) = 0.12039 0.03003
# Poissons Ratio (y) = 0.11948 0.13591
# Poissons Ratio (z) = 0.01982 0.09038
#
# Static dielectric constant tensor:
#      x y z
#    x 1.799440 0.000000 0.000000 
#    y 0.000000 1.788870 0.000000 
#    z 0.000000 0.000000 1.784840 
# 
# From -- ./inp_files/4531.got.cif
#   From: 2010.05.17/outbox.cif.g08.bks.cpg/sg29_3_cif.got.tgz:4531.got - 2010.06.04 01:19:37.
