data_PCOD9340944
_publ_section_title
;
Structure prediction by ZEFSAII (Michael W. Deem and Ramdas Pophale) SiO2 
 PCOD9340944
Probable space group: P C A 21
;
_chemical_formula_sum "Si O2"
_cell_formula_units_Z 16
_cell_length_a 5.317045
_cell_length_b 13.356332
_cell_length_c 9.077367
_cell_angle_alpha 90.000000
_cell_angle_beta 90.000000
_cell_angle_gamma 90.000000
_cell_volume 644.640276
_symmetry_space_group_name_H-M "P C A 21"
_symmetry_group_IT_number 29
_symmetry_cell_setting 'orthorhombic'
loop_
_space_group_symop_operation_xyz
x,y,z
-x,-y,1/2+z
1/2-x,y,1/2+z
1/2+x,-y,z
loop_
_atom_site_type_symbol
_atom_site_label
_atom_site_fract_x
_atom_site_fract_y
_atom_site_fract_z
Si Si1 0.273960 0.805891 0.012230
Si Si2 0.960719 0.475482 0.401019
Si Si3 0.626034 0.331283 0.266010
Si Si4 0.508592 0.063662 0.773748
O O1 0.137122 0.722039 0.111265
O O2 0.431628 0.871276 0.128135
O O3 0.442402 0.749463 0.890679
O O4 0.079365 0.872423 0.918759
O O5 0.211998 0.495214 0.489095
O O6 0.970476 0.567895 0.284790
O O7 0.902161 0.372771 0.317596
O O8 0.225777 0.022312 0.773370
#
# Coordination Sequence:
#
# PCOD9340944 Si02
#       4
#     4   4   4   4
#     4  10  22  42  66  94 120 158 210 254 290 384
#     4   8  18  40  56  86 126 168 196 244 294 350
#     4   9  20  40  59  96 122 168 203 244 300 345
#     4  11  24  48  63  92 120 160 195 260 324 359
#
# _framework density 24.820045
#
# number of rings (size 3 to 8) (size 9 to 14) (size 15 to 20)
#    1.500    1.000    0.000    1.500    0.000    2.000 
#   27.000    0.000    0.000    0.000    0.000    0.000 
#    0.000    0.000    0.000    0.000    0.000    0.000 
#
# Total GULP energy -89285.952774 kJ/mol
# GULP energy per Si atom -5580.372048 kJ/mol
# Density = 2.476355 g / cm^3
# Si number density = 24.820045 Si / 1000 Ang^3
#
#
#
# Elastic Constant Matrix: (Units=GPa)
#
#
# Indices 1 2 3 4 5 6 
#
# 1 68.5879 -8.1948 -2.7346 0.0000 0.0000 0.0000
# 2 -8.1948 98.8629 50.5166 0.0000 0.0000 0.0000
# 3 -2.7346 50.5166 163.2476 0.0000 0.0000 0.0000
# 4 0.0000 0.0000 0.0000 19.5853 0.0000 0.0000
# 5 0.0000 0.0000 0.0000 0.0000 6.7205 0.0000
# 6 0.0000 0.0000 0.0000 0.0000 0.0000 12.4669
#
#
#
# Elastic Compliance Matrix: (Units=1/GPa)
#
#
# Indices 1 2 3 4 5 6 
#
# 1 0.014729 0.001300 -0.000156 0.000000 0.000000 0.000000
# 2 0.001300 0.012130 -0.003732 0.000000 0.000000 0.000000
# 3 -0.000156 -0.003732 0.007278 0.000000 0.000000 0.000000
# 4 0.000000 0.000000 0.000000 0.051059 0.000000 0.000000
# 5 0.000000 0.000000 0.000000 0.000000 0.148799 0.000000
# 6 0.000000 0.000000 0.000000 0.000000 0.000000 0.080213
#
#
# Mechanical properties :
#
#
# Convention : Reuss Voigt Hill
#
# Bulk Modulus (GPa) = 34.52731 45.54141 40.03436
# Shear Modulus (GPa) = 15.19595 27.16193 21.17894
#
# Velocity S-wave (km/s) = 2.47704 3.31169 2.92430
# Velocity P-wave (km/s) = 4.70343 5.74557 5.25042
#
# Compressibility (1/GPa) = 0.02896258
#
# Stress axis : x y z
#
# Youngs Moduli (GPa) = 67.89322 82.44276 137.40371
#
# Poissons Ratio (x) = -0.10721 0.02139
# Poissons Ratio (y) = -0.08829 0.51275
# Poissons Ratio (z) = 0.01057 0.30765
#
# Static dielectric constant tensor:
#      x y z
#    x 2.033090 0.000000 0.000000 
#    y 0.000000 1.993330 0.000000 
#    z 0.000000 0.000000 1.909830 
# 
# From -- ./inp_files/602.got.cif
#   From: 2010.05.17/outbox.cif.g08.bks.cpg/sg29_1_cif.got.tgz:602.got - 2010.06.04 01:19:37.
