data_PCOD9340504
_publ_section_title
;
Structure prediction by ZEFSAII (Michael W. Deem and Ramdas Pophale) SiO2 
 PCOD9340504
Probable space group: P C A 21
;
_chemical_formula_sum "Si O2"
_cell_formula_units_Z 32
_cell_length_a 11.215017
_cell_length_b 10.795664
_cell_length_c 12.758759
_cell_angle_alpha 90.000000
_cell_angle_beta 90.000000
_cell_angle_gamma 90.000000
_cell_volume 1544.748313
_symmetry_space_group_name_H-M "P C A 21"
_symmetry_group_IT_number 29
_symmetry_cell_setting 'orthorhombic'
loop_
_space_group_symop_operation_xyz
x,y,z
-x,-y,1/2+z
1/2-x,y,1/2+z
1/2+x,-y,z
loop_
_atom_site_type_symbol
_atom_site_label
_atom_site_fract_x
_atom_site_fract_y
_atom_site_fract_z
Si Si1 0.165005 0.338963 0.957510
Si Si2 0.113962 0.880193 0.834878
Si Si3 0.643392 0.936418 0.019391
Si Si4 0.441812 0.309655 0.911015
Si Si5 0.386629 0.589755 0.583414
Si Si6 0.304625 0.725751 0.960620
Si Si7 0.027338 0.565703 0.317326
Si Si8 0.390155 0.950980 0.093588
O O1 0.303111 0.324098 0.930882
O O2 0.095973 0.369350 0.849382
O O3 0.128333 0.210248 0.010035
O O4 0.133545 0.453261 0.034284
O O5 0.210350 0.780489 0.877039
O O6 0.121667 0.905087 0.712536
O O7 0.986494 0.820856 0.866410
O O8 0.138503 0.001843 0.904193
O O9 0.527662 0.995145 0.078432
O O10 0.773556 0.964822 0.069139
O O11 0.482633 0.418884 0.832867
O O12 0.510287 0.341542 0.018092
O O13 0.267427 0.664356 0.555756
O O14 0.422337 0.590401 0.703318
O O15 0.383272 0.623051 0.903718
O O16 0.374959 0.840396 0.009319
#
# Coordination Sequence:
#
# PCOD9340504 Si02
#       8
#     4   4   4   4   4   4   4   4
#     4  11  23  44  64 100 136 172 230 294 331 426
#     4  10  24  44  67  92 133 181 224 279 353 407
#     4  11  25  45  66  98 135 174 236 289 334 423
#     4  10  23  42  64  97 136 170 228 287 337 421
#     4  10  23  41  65  99 139 178 216 278 363 419
#     4  10  20  44  66  96 134 172 225 280 336 435
#     4  11  22  40  68  98 134 179 217 281 358 417
#     4  11  24  44  72  94 133 186 228 288 348 412
#
# _framework density 20.715350000000001
#
# number of rings (size 3 to 8) (size 9 to 14) (size 15 to 20)
#    0.000    1.500    2.500    1.500    1.750    4.000 
#    9.000    0.000    0.000    0.000    0.000    0.000 
#    0.000    0.000    0.000    0.000    0.000    0.000 
#
# Total GULP energy -178743.994065 kJ/mol
# GULP energy per Si atom -5585.749815 kJ/mol
# Density = 2.066820 g / cm^3
# Si number density = 20.715350 Si / 1000 Ang^3
#
#
#
# Elastic Constant Matrix: (Units=GPa)
#
#
# Indices 1 2 3 4 5 6 
#
# 1 121.9437 15.0915 15.1368 0.0000 0.0000 0.0000
# 2 15.0915 39.7196 -12.7050 0.0000 0.0000 0.0000
# 3 15.1368 -12.7050 84.6240 0.0000 0.0000 0.0000
# 4 0.0000 0.0000 0.0000 13.3332 0.0000 0.0000
# 5 0.0000 0.0000 0.0000 0.0000 19.4706 0.0000
# 6 0.0000 0.0000 0.0000 0.0000 0.0000 30.5166
#
#
#
# Elastic Compliance Matrix: (Units=1/GPa)
#
#
# Indices 1 2 3 4 5 6 
#
# 1 0.008988 -0.004127 -0.002227 0.000000 0.000000 0.000000
# 2 -0.004127 0.028342 0.004993 0.000000 0.000000 0.000000
# 3 -0.002227 0.004993 0.012965 0.000000 0.000000 0.000000
# 4 0.000000 0.000000 0.000000 0.075001 0.000000 0.000000
# 5 0.000000 0.000000 0.000000 0.000000 0.051360 0.000000
# 6 0.000000 0.000000 0.000000 0.000000 0.000000 0.032769
#
#
# Mechanical properties :
#
#
# Convention : Reuss Voigt Hill
#
# Bulk Modulus (GPa) = 21.02071 31.25933 26.14002
# Shear Modulus (GPa) = 21.92942 27.91499 24.92221
#
# Velocity S-wave (km/s) = 3.25715 3.67488 3.47231
# Velocity P-wave (km/s) = 4.93101 5.75578 5.35929
#
# Compressibility (1/GPa) = 0.04757212
#
# Stress axis : x y z
#
# Youngs Moduli (GPa) = 111.26218 35.28342 77.13038
#
# Poissons Ratio (x) = 0.14563 0.17179
# Poissons Ratio (y) = 0.45922 -0.38514
# Poissons Ratio (z) = 0.24782 -0.17618
#
# Static dielectric constant tensor:
#      x y z
#    x 1.803250 0.000000 0.000000 
#    y 0.000000 1.740450 0.000000 
#    z 0.000000 0.000000 1.683460 
# 
# From -- ./inp_files/3214.got.cif
#   From: 2010.05.17/outbox.cif.g08.bks.cpg/sg29_2_cif.got.tgz:3214.got - 2010.06.04 01:19:37.
