data_PCOD9340356
_publ_section_title
;
Structure prediction by ZEFSAII (Michael W. Deem and Ramdas Pophale) SiO2 
 PCOD9340356
Probable space group: P C A 21
;
_chemical_formula_sum "Si O2"
_cell_formula_units_Z 32
_cell_length_a 8.855960
_cell_length_b 15.209947
_cell_length_c 10.469517
_cell_angle_alpha 90.000000
_cell_angle_beta 90.000000
_cell_angle_gamma 90.000000
_cell_volume 1410.230144
_symmetry_space_group_name_H-M "P C A 21"
_symmetry_group_IT_number 29
_symmetry_cell_setting 'orthorhombic'
loop_
_space_group_symop_operation_xyz
x,y,z
-x,-y,1/2+z
1/2-x,y,1/2+z
1/2+x,-y,z
loop_
_atom_site_type_symbol
_atom_site_label
_atom_site_fract_x
_atom_site_fract_y
_atom_site_fract_z
Si Si1 0.410390 0.193801 0.997790
Si Si2 0.047332 0.471156 0.377444
Si Si3 0.692022 0.633499 0.585325
Si Si4 0.712003 0.448423 0.712826
Si Si5 0.026469 0.118517 0.235129
Si Si6 0.616158 0.930704 0.727065
Si Si7 0.449007 0.188946 0.454070
Si Si8 0.020200 0.637040 0.529688
O O1 0.492922 0.178765 0.862214
O O2 0.418714 0.282746 0.084111
O O3 0.435011 0.111389 0.091890
O O4 0.232627 0.198310 0.961056
O O5 0.164918 0.405584 0.442809
O O6 0.130189 0.534258 0.276896
O O7 0.983166 0.540064 0.478820
O O8 0.909070 0.420259 0.318070
O O9 0.666072 0.547784 0.670578
O O10 0.867512 0.658344 0.610597
O O11 0.678345 0.380570 0.600103
O O12 0.203475 0.087847 0.235122
O O13 0.998609 0.161221 0.096080
O O14 0.922821 0.032437 0.240699
O O15 0.529842 0.880345 0.841652
O O16 0.522679 0.284032 0.430177
#
# Coordination Sequence:
#
# PCOD9340356 Si02
#       8
#     4   4   4   4   4   4   4   4
#     4   9  20  34  60  89 112 147 201 241 281 350
#     4  11  22  36  59  82 116 158 197 244 298 352
#     4  10  21  35  57  86 111 154 205 246 290 350
#     4  11  22  36  59  82 116 158 197 244 298 352
#     4  10  20  37  61  86 114 149 191 238 296 359
#     4  10  20  37  61  86 114 149 191 238 296 359
#     4   9  20  36  60  85 114 153 193 242 288 348
#     4  10  21  37  57  86 113 150 205 247 295 344
#
# _framework density 22.691333
#
# number of rings (size 3 to 8) (size 9 to 14) (size 15 to 20)
#    0.000    2.000    2.500    0.750    3.500    1.000 
#    0.000    1.250    5.500    0.000    0.000    0.000 
#    0.000    0.000    0.000    0.000    0.000    0.000 
#
# Total GULP energy -178264.780431 kJ/mol
# GULP energy per Si atom -5570.774388 kJ/mol
# Density = 2.263969 g / cm^3
# Si number density = 22.691333 Si / 1000 Ang^3
#
#
#
# Elastic Constant Matrix: (Units=GPa)
#
#
# Indices 1 2 3 4 5 6 
#
# 1 33.6605 -8.2972 1.4695 0.0000 0.0000 0.0000
# 2 -8.2972 72.6944 -1.8005 0.0000 0.0000 0.0000
# 3 1.4695 -1.8005 50.2822 0.0000 0.0000 0.0000
# 4 0.0000 0.0000 0.0000 24.9934 0.0000 0.0000
# 5 0.0000 0.0000 0.0000 0.0000 13.0092 0.0000
# 6 0.0000 0.0000 0.0000 0.0000 0.0000 30.3409
#
#
#
# Elastic Compliance Matrix: (Units=1/GPa)
#
#
# Indices 1 2 3 4 5 6 
#
# 1 0.030598 0.003473 -0.000770 0.000000 0.000000 0.000000
# 2 0.003473 0.014163 0.000406 0.000000 0.000000 0.000000
# 3 -0.000770 0.000406 0.019925 0.000000 0.000000 0.000000
# 4 0.000000 0.000000 0.000000 0.040011 0.000000 0.000000
# 5 0.000000 0.000000 0.000000 0.000000 0.076869 0.000000
# 6 0.000000 0.000000 0.000000 0.000000 0.000000 0.032959
#
#
# Mechanical properties :
#
#
# Convention : Reuss Voigt Hill
#
# Bulk Modulus (GPa) = 14.10361 15.48676 14.79519
# Shear Modulus (GPa) = 21.55727 24.68637 23.12182
#
# Velocity S-wave (km/s) = 3.08559 3.30194 3.19560
# Velocity P-wave (km/s) = 4.35010 4.62351 4.48889
#
# Compressibility (1/GPa) = 0.07090382
#
# Stress axis : x y z
#
# Youngs Moduli (GPa) = 32.68169 70.60797 50.18876
#
# Poissons Ratio (x) = -0.24525 0.03864
# Poissons Ratio (y) = -0.11351 -0.02036
# Poissons Ratio (z) = 0.02516 -0.02864
#
# Static dielectric constant tensor:
#      x y z
#    x 1.819370 0.000000 0.000000 
#    y 0.000000 1.874040 0.000000 
#    z 0.000000 0.000000 1.923300 
# 
# From -- ./inp_files/2934.got.cif
#   From: 2010.05.17/outbox.cif.g08.bks.cpg/sg29_2_cif.got.tgz:2934.got - 2010.06.04 01:19:37.
