data_PCOD9341720
_publ_section_title
;
Structure prediction by ZEFSAII (Michael W. Deem and Ramdas Pophale) SiO2 
 PCOD9341720
Probable space group: P C A 21
;
_chemical_formula_sum "Si O2"
_cell_formula_units_Z 24
_cell_length_a 8.902613
_cell_length_b 8.253095
_cell_length_c 12.789599
_cell_angle_alpha 90.000000
_cell_angle_beta 90.000000
_cell_angle_gamma 90.000000
_cell_volume 939.704414
_symmetry_space_group_name_H-M "P C A 21"
_symmetry_group_IT_number 29
_symmetry_cell_setting 'orthorhombic'
loop_
_space_group_symop_operation_xyz
x,y,z
-x,-y,1/2+z
1/2-x,y,1/2+z
1/2+x,-y,z
loop_
_atom_site_type_symbol
_atom_site_label
_atom_site_fract_x
_atom_site_fract_y
_atom_site_fract_z
Si Si1 0.033810 0.216189 0.788090
Si Si2 0.900964 0.823083 0.069024
Si Si3 0.302402 0.740113 0.259822
Si Si4 0.406643 0.561469 0.057788
Si Si5 0.160498 0.486800 0.907494
Si Si6 0.853820 0.012436 0.438599
O O1 0.084726 0.115543 0.687134
O O2 0.164589 0.338258 0.827168
O O3 0.020050 0.107651 0.891424
O O4 0.876768 0.299638 0.755247
O O5 0.884619 0.629160 0.085738
O O6 0.768838 0.910307 0.004086
O O7 0.057960 0.863553 0.012713
O O8 0.364765 0.694483 0.144406
O O9 0.406436 0.624386 0.332725
O O10 0.299103 0.900020 0.332327
O O11 0.305971 0.571957 0.953914
O O12 0.571939 0.569150 0.009925
#
# Coordination Sequence:
#
# PCOD9341720 Si02
#       6
#     4   4   4   4   4   4
#     4  12  27  48  76 117 157 211 261 332 417 477
#     4  12  27  49  77 117 155 212 266 334 405 484
#     4  12  27  48  80 117 156 212 274 335 404 489
#     4  12  26  47  79 114 154 206 270 331 401 485
#     4  12  25  46  77 113 155 201 269 334 395 484
#     4  12  28  50  77 114 161 206 270 334 402 487
#
# _framework density 25.539946
#
# number of rings (size 3 to 8) (size 9 to 14) (size 15 to 20)
#    0.000    0.000    8.333    1.000    2.333    1.333 
#    3.000    0.000    0.000    0.000    0.000    0.000 
#    0.000    0.000    0.000    0.000    0.000    0.000 
#
# Total GULP energy -133797.394281 kJ/mol
# GULP energy per Si atom -5574.891428 kJ/mol
# Density = 2.548182 g / cm^3
# Si number density = 25.539946 Si / 1000 Ang^3
#
#
#
# Elastic Constant Matrix: (Units=GPa)
#
#
# Indices 1 2 3 4 5 6 
#
# 1 82.2715 24.6544 39.3773 0.0000 0.0000 0.0000
# 2 24.6544 56.7682 45.9677 0.0000 0.0000 0.0000
# 3 39.3773 45.9677 168.6138 0.0000 0.0000 0.0000
# 4 0.0000 0.0000 0.0000 61.6805 0.0000 0.0000
# 5 0.0000 0.0000 0.0000 0.0000 34.6782 0.0000
# 6 0.0000 0.0000 0.0000 0.0000 0.0000 22.8084
#
#
#
# Elastic Compliance Matrix: (Units=1/GPa)
#
#
# Indices 1 2 3 4 5 6 
#
# 1 0.014557 -0.004580 -0.002151 0.000000 0.000000 0.000000
# 2 -0.004580 0.024047 -0.005486 0.000000 0.000000 0.000000
# 3 -0.002151 -0.005486 0.007929 0.000000 0.000000 0.000000
# 4 0.000000 0.000000 0.000000 0.016213 0.000000 0.000000
# 5 0.000000 0.000000 0.000000 0.000000 0.028837 0.000000
# 6 0.000000 0.000000 0.000000 0.000000 0.000000 0.043843
#
#
# Mechanical properties :
#
#
# Convention : Reuss Voigt Hill
#
# Bulk Modulus (GPa) = 45.25299 58.62805 51.94052
# Shear Modulus (GPa) = 29.89970 37.01038 33.45504
#
# Velocity S-wave (km/s) = 3.42527 3.81086 3.62319
# Velocity P-wave (km/s) = 5.77929 6.50913 6.15504
#
# Compressibility (1/GPa) = 0.02209799
#
# Stress axis : x y z
#
# Youngs Moduli (GPa) = 68.69570 41.58515 126.12530
#
# Poissons Ratio (x) = 0.19048 0.27128
# Poissons Ratio (y) = 0.31466 0.69193
# Poissons Ratio (z) = 0.14775 0.22814
#
# Static dielectric constant tensor:
#      x y z
#    x 2.040150 0.000000 0.000000 
#    y 0.000000 2.198920 0.000000 
#    z 0.000000 0.000000 2.086040 
# 
# From -- ./inp_files/4221.got.cif
#   From: 2010.05.17/outbox.cif.g08.bks.cpg/sg29_3_cif.got.tgz:4221.got - 2010.06.04 01:19:37.
