data_PCOD9341487
_publ_section_title
;
Structure prediction by ZEFSAII (Michael W. Deem and Ramdas Pophale) SiO2 
 PCOD9341487
Probable space group: P C A 21
;
_chemical_formula_sum "Si O2"
_cell_formula_units_Z 32
_cell_length_a 26.405973
_cell_length_b 5.621666
_cell_length_c 8.589201
_cell_angle_alpha 90.000000
_cell_angle_beta 90.000000
_cell_angle_gamma 90.000000
_cell_volume 1275.028758
_symmetry_space_group_name_H-M "P C A 21"
_symmetry_group_IT_number 29
_symmetry_cell_setting 'orthorhombic'
loop_
_space_group_symop_operation_xyz
x,y,z
-x,-y,1/2+z
1/2-x,y,1/2+z
1/2+x,-y,z
loop_
_atom_site_type_symbol
_atom_site_label
_atom_site_fract_x
_atom_site_fract_y
_atom_site_fract_z
Si Si1 0.293377 0.013574 0.236770
Si Si2 0.316409 0.948244 0.597835
Si Si3 0.052754 0.582077 0.029661
Si Si4 0.534265 0.270951 0.474421
Si Si5 0.543258 0.025207 0.793204
Si Si6 0.877382 0.654756 0.272386
Si Si7 0.640864 0.309714 0.514126
Si Si8 0.363295 0.447472 0.712787
O O1 0.319262 0.860405 0.096890
O O2 0.305105 0.929163 0.412842
O O3 0.234792 0.993904 0.195681
O O4 0.318392 0.277680 0.251331
O O5 0.347880 0.188701 0.644226
O O6 0.339181 0.689237 0.637989
O O7 0.076146 0.499744 0.194241
O O8 0.993958 0.525058 0.997616
O O9 0.058502 0.839100 0.951970
O O10 0.093629 0.432253 0.925166
O O11 0.523142 0.166086 0.646162
O O12 0.591804 0.191365 0.436663
O O13 0.499568 0.156631 0.342604
O O14 0.593718 0.895636 0.735055
O O15 0.887182 0.450184 0.151085
O O16 0.656446 0.512998 0.390271
#
# Coordination Sequence:
#
# PCOD9341487 Si02
#       8
#     4   4   4   4   4   4   4   4
#     4  12  27  51  80 111 152 205 255 328 398 474
#     4  12  30  52  82 114 155 204 265 324 399 472
#     4  11  25  46  71 104 149 205 253 320 388 466
#     4  11  27  41  71 106 148 200 259 312 388 470
#     4  11  25  44  68 106 145 200 252 313 383 456
#     4  11  22  46  74  98 147 197 250 311 396 454
#     4  12  28  46  77 113 157 202 258 328 394 471
#     4  12  30  50  77 120 155 205 262 330 390 469
#
# _framework density 25.097473000000001
#
# number of rings (size 3 to 8) (size 9 to 14) (size 15 to 20)
#    0.000    0.500    3.750    2.250   12.250    0.000 
#    0.000    0.000    0.000    0.000    0.000    0.000 
#    0.000    0.000    0.000    0.000    0.000    0.000 
#
# Total GULP energy -178395.940445 kJ/mol
# GULP energy per Si atom -5574.873139 kJ/mol
# Density = 2.504035 g / cm^3
# Si number density = 25.097473 Si / 1000 Ang^3
#
#
#
# Elastic Constant Matrix: (Units=GPa)
#
#
# Indices 1 2 3 4 5 6 
#
# 1 92.4752 26.9342 -13.1102 0.0000 0.0000 0.0000
# 2 26.9342 76.4974 -9.1067 0.0000 0.0000 0.0000
# 3 -13.1102 -9.1067 69.6161 0.0000 0.0000 0.0000
# 4 0.0000 0.0000 0.0000 32.6208 0.0000 0.0000
# 5 0.0000 0.0000 0.0000 0.0000 36.7224 0.0000
# 6 0.0000 0.0000 0.0000 0.0000 0.0000 29.1531
#
#
#
# Elastic Compliance Matrix: (Units=1/GPa)
#
#
# Indices 1 2 3 4 5 6 
#
# 1 0.012261 -0.004106 0.001772 0.000000 0.000000 0.000000
# 2 -0.004106 0.014654 0.001144 0.000000 0.000000 0.000000
# 3 0.001772 0.001144 0.014848 0.000000 0.000000 0.000000
# 4 0.000000 0.000000 0.000000 0.030655 0.000000 0.000000
# 5 0.000000 0.000000 0.000000 0.000000 0.027231 0.000000
# 6 0.000000 0.000000 0.000000 0.000000 0.000000 0.034302
#
#
# Mechanical properties :
#
#
# Convention : Reuss Voigt Hill
#
# Bulk Modulus (GPa) = 25.39237 27.55814 26.47525
# Shear Modulus (GPa) = 33.45392 35.29067 34.37229
#
# Velocity S-wave (km/s) = 3.65493 3.75393 3.70476
# Velocity P-wave (km/s) = 5.28686 5.45835 5.37329
#
# Compressibility (1/GPa) = 0.03938191
#
# Stress axis : x y z
#
# Youngs Moduli (GPa) = 81.56069 68.23987 67.35008
#
# Poissons Ratio (x) = 0.28019 -0.11933
# Poissons Ratio (y) = 0.33489 -0.07703
# Poissons Ratio (z) = -0.14451 -0.07805
#
# Static dielectric constant tensor:
#      x y z
#    x 2.078570 0.000000 0.000000 
#    y 0.000000 2.021060 0.000000 
#    z 0.000000 0.000000 2.153010 
# 
# From -- ./inp_files/2642.got.cif
#   From: 2010.05.17/outbox.cif.g08.bks.cpg/sg29_2_cif.got.tgz:2642.got - 2010.06.04 01:19:37.
