data_PCOD9341986
_publ_section_title
;
Structure prediction by ZEFSAII (Michael W. Deem and Ramdas Pophale) SiO2 
 PCOD9341986
Probable space group: P N C 2
;
_chemical_formula_sum "Si O2"
_cell_formula_units_Z 28
_cell_length_a 9.222090
_cell_length_b 22.190254
_cell_length_c 5.411475
_cell_angle_alpha 90.000000
_cell_angle_beta 90.000000
_cell_angle_gamma 90.000000
_cell_volume 1107.407055
_symmetry_space_group_name_H-M "P N C 2"
_symmetry_group_IT_number 30
_symmetry_cell_setting 'orthorhombic'
loop_
_space_group_symop_operation_xyz
x,y,z
-x,-y,z
-x,1/2+y,1/2+z
x,1/2-y,1/2+z
loop_
_atom_site_type_symbol
_atom_site_label
_atom_site_fract_x
_atom_site_fract_y
_atom_site_fract_z
Si Si1 0.912667 0.218712 0.883300
Si Si2 0.500000 0.500000 0.684757
Si Si3 0.507943 0.877990 0.460663
Si Si4 0.975455 0.907195 0.073880
Si Si5 0.000000 0.000000 0.464528
Si Si6 0.414042 0.678773 0.463901
Si Si7 0.303624 0.268047 0.976559
Si Si8 0.217551 0.997758 0.866131
O O1 0.939123 0.230007 0.591927
O O2 0.990858 0.159673 0.994985
O O3 0.739162 0.207685 0.905359
O O4 0.467536 0.444955 0.869120
O O5 0.631202 0.488681 0.495484
O O6 0.411746 0.850380 0.236215
O O7 0.652503 0.837216 0.458742
O O8 0.158966 0.989699 0.590142
O O9 0.109461 0.949391 0.988963
O O10 0.834953 0.934864 0.939261
O O11 0.968020 0.933860 0.347864
O O12 0.547069 0.727170 0.471380
O O13 0.446505 0.633312 0.235336
O O14 0.226969 0.252178 0.229465
#
# Coordination Sequence:
#
# PCOD9341986 Si02
#       8
#     4   2   4   4   2   4   4   4
#     4  12  24  35  65 110 140 171 230 302 355 427
#     4  12  24  42  60 112 140 178 248 296 364 414
#     4  10  21  36  55  84 136 174 209 285 346 413
#     4   9  21  44  68  98 134 192 232 286 372 427
#     4   8  18  44  74  88 126 204 238 290 358 436
#     4  10  19  38  56  87 130 179 219 279 350 409
#     4   8  14  28  53  71 105 162 209 245 321 390
#     4   9  21  42  70  94 138 188 239 300 346 432
#
# _framework density 25.284291
#
# number of rings (size 3 to 8) (size 9 to 14) (size 15 to 20)
#    0.000    2.571    0.000    4.286    4.000    0.571 
#   18.000    0.000    0.000    5.143    0.000    0.000 
#    0.000    0.000    0.000    0.000    0.000    0.000 
#
# Total GULP energy -156307.653110 kJ/mol
# GULP energy per Si atom -5582.416182 kJ/mol
# Density = 2.522674 g / cm^3
# Si number density = 25.284291 Si / 1000 Ang^3
#
#
#
# Elastic Constant Matrix: (Units=GPa)
#
#
# Indices 1 2 3 4 5 6 
#
# 1 46.7522 -2.0717 -10.2520 0.0000 0.0000 0.0000
# 2 -2.0717 100.4705 16.8286 0.0000 0.0000 0.0000
# 3 -10.2520 16.8286 130.6427 0.0000 0.0000 0.0000
# 4 0.0000 0.0000 0.0000 169.9816 0.0000 0.0000
# 5 0.0000 0.0000 0.0000 0.0000 21.3088 0.0000
# 6 0.0000 0.0000 0.0000 0.0000 0.0000 15.5978
#
#
#
# Elastic Compliance Matrix: (Units=1/GPa)
#
#
# Indices 1 2 3 4 5 6 
#
# 1 0.021767 0.000166 0.001687 0.000000 0.000000 0.000000
# 2 0.000166 0.010174 -0.001297 0.000000 0.000000 0.000000
# 3 0.001687 -0.001297 0.007954 0.000000 0.000000 0.000000
# 4 0.000000 0.000000 0.000000 0.005883 0.000000 0.000000
# 5 0.000000 0.000000 0.000000 0.000000 0.046929 0.000000
# 6 0.000000 0.000000 0.000000 0.000000 0.000000 0.064112
#
#
# Mechanical properties :
#
#
# Convention : Reuss Voigt Hill
#
# Bulk Modulus (GPa) = 24.38699 31.87504 28.13102
# Shear Modulus (GPa) = 29.52020 59.60167 44.56094
#
# Velocity S-wave (km/s) = 3.42062 4.86043 4.20264
# Velocity P-wave (km/s) = 5.02662 6.64322 5.89064
#
# Compressibility (1/GPa) = 0.04100546
#
# Stress axis : x y z
#
# Youngs Moduli (GPa) = 45.94194 98.29049 125.72349
#
# Poissons Ratio (x) = -0.01635 -0.21206
# Poissons Ratio (y) = -0.00764 0.16313
# Poissons Ratio (z) = -0.07749 0.12753
#
# Static dielectric constant tensor:
#      x y z
#    x 1.959310 0.000000 0.000000 
#    y 0.000000 1.610450 0.000000 
#    z 0.000000 0.000000 2.199840 
# 
# From -- ./inp_files/829.got.cif
#   From: 2010.05.17/outbox.cif.g08.bks.cpg/sg30_1_cif.got.tgz:829.got - 2010.06.03 17:03:02.
