data_PCOD9341757
_publ_section_title
;
Structure prediction by ZEFSAII (Michael W. Deem and Ramdas Pophale) SiO2 
 PCOD9341757
Probable space group: P C A 21
;
_chemical_formula_sum "Si O2"
_cell_formula_units_Z 20
_cell_length_a 9.648474
_cell_length_b 7.722149
_cell_length_c 10.446437
_cell_angle_alpha 90.000000
_cell_angle_beta 90.000000
_cell_angle_gamma 90.000000
_cell_volume 778.332199
_symmetry_space_group_name_H-M "P C A 21"
_symmetry_group_IT_number 29
_symmetry_cell_setting 'orthorhombic'
loop_
_space_group_symop_operation_xyz
x,y,z
-x,-y,1/2+z
1/2-x,y,1/2+z
1/2+x,-y,z
loop_
_atom_site_type_symbol
_atom_site_label
_atom_site_fract_x
_atom_site_fract_y
_atom_site_fract_z
Si Si1 0.733055 0.037864 0.360790
Si Si2 0.822207 0.389083 0.963809
Si Si3 0.088909 0.190935 0.029301
Si Si4 0.462702 0.078755 0.194230
Si Si5 0.766495 0.604432 0.213425
O O1 0.755348 0.208276 0.443439
O O2 0.835871 0.038389 0.241085
O O3 0.582717 0.055695 0.298632
O O4 0.988906 0.988407 0.564176
O O5 0.777498 0.512242 0.845428
O O6 0.984682 0.333477 0.971582
O O7 0.782423 0.466535 0.100013
O O8 0.217954 0.130658 0.940940
O O9 0.145447 0.269286 0.161711
O O10 0.404014 0.273877 0.200290
#
# Coordination Sequence:
#
# PCOD9341757 Si02
#       5
#     4   4   4   4   4
#     4  12  27  51  85 122 168 232 298 350 438 536
#     4  12  30  51  84 130 178 226 286 372 443 511
#     4  12  28  50  86 123 170 239 292 359 430 546
#     4  12  27  54  86 122 172 236 294 359 435 537
#     4  12  30  54  83 131 180 227 292 368 452 512
#
# _framework density 25.695968000000001
#
# number of rings (size 3 to 8) (size 9 to 14) (size 15 to 20)
#    0.000    0.000    4.000    3.600    5.600    1.600 
#    0.000    0.000    0.000    0.000    0.000    0.000 
#    0.000    0.000    0.000    0.000    0.000    0.000 
#
# Total GULP energy -111970.494327 kJ/mol
# GULP energy per Si atom -5598.524716 kJ/mol
# Density = 2.563748 g / cm^3
# Si number density = 25.695968 Si / 1000 Ang^3
#
#
#
# Elastic Constant Matrix: (Units=GPa)
#
#
# Indices 1 2 3 4 5 6 
#
# 1 101.5215 60.8501 60.8228 0.0000 0.0000 0.0000
# 2 60.8501 163.6233 69.8981 0.0000 0.0000 0.0000
# 3 60.8228 69.8981 143.7007 0.0000 0.0000 0.0000
# 4 0.0000 0.0000 0.0000 69.2684 0.0000 0.0000
# 5 0.0000 0.0000 0.0000 0.0000 52.0847 0.0000
# 6 0.0000 0.0000 0.0000 0.0000 0.0000 54.9136
#
#
#
# Elastic Compliance Matrix: (Units=1/GPa)
#
#
# Indices 1 2 3 4 5 6 
#
# 1 0.014655 -0.003535 -0.004483 0.000000 0.000000 0.000000
# 2 -0.003535 0.008567 -0.002671 0.000000 0.000000 0.000000
# 3 -0.004483 -0.002671 0.010156 0.000000 0.000000 0.000000
# 4 0.000000 0.000000 0.000000 0.014437 0.000000 0.000000
# 5 0.000000 0.000000 0.000000 0.000000 0.019199 0.000000
# 6 0.000000 0.000000 0.000000 0.000000 0.000000 0.018210
#
#
# Mechanical properties :
#
#
# Convention : Reuss Voigt Hill
#
# Bulk Modulus (GPa) = 83.33815 87.99861 85.66838
# Shear Modulus (GPa) = 45.20679 49.73832 47.47255
#
# Velocity S-wave (km/s) = 4.19895 4.40437 4.30288
# Velocity P-wave (km/s) = 7.48405 7.75790 7.62221
#
# Compressibility (1/GPa) = 0.01199931
#
# Stress axis : x y z
#
# Youngs Moduli (GPa) = 68.23658 116.72424 98.46540
#
# Poissons Ratio (x) = 0.41259 0.44147
# Poissons Ratio (y) = 0.24120 0.26301
# Poissons Ratio (z) = 0.30594 0.31178
#
# Static dielectric constant tensor:
#      x y z
#    x 2.069380 0.000000 0.000000 
#    y 0.000000 2.035020 0.000000 
#    z 0.000000 0.000000 2.108160 
# 
# From -- ./inp_files/2794.got.cif
#   From: 2010.05.17/outbox.cif.g08.bks.cpg/sg29_2_cif.got.tgz:2794.got - 2010.06.04 01:19:37.
