data_PCOD9341881
_publ_section_title
;
Structure prediction by ZEFSAII (Michael W. Deem and Ramdas Pophale) SiO2 
 PCOD9341881
Probable space group: P N C 2
;
_chemical_formula_sum "Si O2"
_cell_formula_units_Z 28
_cell_length_a 5.071607
_cell_length_b 28.220823
_cell_length_c 9.235565
_cell_angle_alpha 90.000000
_cell_angle_beta 90.000000
_cell_angle_gamma 90.000000
_cell_volume 1321.839534
_symmetry_space_group_name_H-M "P N C 2"
_symmetry_group_IT_number 30
_symmetry_cell_setting 'orthorhombic'
loop_
_space_group_symop_operation_xyz
x,y,z
-x,-y,z
-x,1/2+y,1/2+z
x,1/2-y,1/2+z
loop_
_atom_site_type_symbol
_atom_site_label
_atom_site_fract_x
_atom_site_fract_y
_atom_site_fract_z
Si Si1 0.228864 0.855560 0.457120
Si Si2 0.724386 0.594056 0.030209
Si Si3 0.157331 0.104230 0.864652
Si Si4 0.224900 0.811804 0.769579
Si Si5 0.922965 0.210448 0.199635
Si Si6 0.500000 0.000000 0.610683
Si Si7 0.585823 0.682419 0.513285
Si Si8 0.000000 0.500000 0.314080
O O1 0.528905 0.872357 0.440619
O O2 0.239330 0.823845 0.600993
O O3 0.098525 0.827674 0.326834
O O4 0.027856 0.898305 0.492023
O O5 0.705258 0.603309 0.204889
O O6 0.611442 0.542016 0.014365
O O7 0.923445 0.143296 0.843758
O O8 0.069597 0.049931 0.892027
O O9 0.340488 0.126900 0.988914
O O10 0.080507 0.761681 0.773669
O O11 0.502958 0.803981 0.849602
O O12 0.665076 0.198807 0.104649
O O13 0.168932 0.205437 0.093564
O O14 0.253246 0.987226 0.714561
#
# Coordination Sequence:
#
# PCOD9341881 Si02
#       8
#     4   4   4   4   4   2   4   2
#     4  11  23  40  61  93 130 170 213 267 321 392
#     4  10  20  37  64  93 128 161 213 272 328 380
#     4  10  22  41  67 100 129 171 218 286 331 398
#     4  11  24  44  68  94 131 172 227 273 327 389
#     4  12  28  41  64  96 136 180 220 262 332 401
#     4  10  18  34  60 104 126 160 208 282 338 386
#     4  12  25  44  65  95 134 177 219 271 324 400
#     4  10  22  34  66 100 136 154 220 284 354 366
#
# _framework density 21.182600999999998
#
# number of rings (size 3 to 8) (size 9 to 14) (size 15 to 20)
#    0.000    1.143    2.857    4.286    4.000    2.286 
#    0.000    0.000    0.000    3.429    0.000    0.000 
#    0.000    0.000    0.000    0.000    0.000    0.000 
#
# Total GULP energy -156248.938163 kJ/mol
# GULP energy per Si atom -5580.319220 kJ/mol
# Density = 2.113439 g / cm^3
# Si number density = 21.182601 Si / 1000 Ang^3
#
#
#
# Elastic Constant Matrix: (Units=GPa)
#
#
# Indices 1 2 3 4 5 6 
#
# 1 141.5184 37.6293 36.4583 0.0000 0.0000 0.0000
# 2 37.6293 127.8798 28.7339 0.0000 0.0000 0.0000
# 3 36.4583 28.7339 49.3590 0.0000 0.0000 0.0000
# 4 0.0000 0.0000 0.0000 13.6365 0.0000 0.0000
# 5 0.0000 0.0000 0.0000 0.0000 29.3442 0.0000
# 6 0.0000 0.0000 0.0000 0.0000 0.0000 27.9928
#
#
#
# Elastic Compliance Matrix: (Units=1/GPa)
#
#
# Indices 1 2 3 4 5 6 
#
# 1 0.008915 -0.001316 -0.005819 0.000000 0.000000 0.000000
# 2 -0.001316 0.009191 -0.004378 0.000000 0.000000 0.000000
# 3 -0.005819 -0.004378 0.027107 0.000000 0.000000 0.000000
# 4 0.000000 0.000000 0.000000 0.073333 0.000000 0.000000
# 5 0.000000 0.000000 0.000000 0.000000 0.034078 0.000000
# 6 0.000000 0.000000 0.000000 0.000000 0.000000 0.035724
#
#
# Mechanical properties :
#
#
# Convention : Reuss Voigt Hill
#
# Bulk Modulus (GPa) = 45.07327 58.26671 51.66999
# Shear Modulus (GPa) = 22.85508 28.59039 25.72274
#
# Velocity S-wave (km/s) = 3.28831 3.67783 3.48851
# Velocity P-wave (km/s) = 5.97846 6.75291 6.37745
#
# Compressibility (1/GPa) = 0.02218610
#
# Stress axis : x y z
#
# Youngs Moduli (GPa) = 112.16768 108.80385 36.89112
#
# Poissons Ratio (x) = 0.14317 0.21467
# Poissons Ratio (y) = 0.14759 0.16153
# Poissons Ratio (z) = 0.65272 0.47639
#
# Static dielectric constant tensor:
#      x y z
#    x 1.802180 0.000000 0.000000 
#    y 0.000000 1.800110 0.000000 
#    z 0.000000 0.000000 1.762430 
# 
# From -- ./inp_files/1449.got.cif
#   From: 2010.05.17/outbox.cif.g08.bks.cpg/sg30_1_cif.got.tgz:1449.got - 2010.06.03 17:03:02.
