data_PCOD9341803
_publ_section_title
;
Structure prediction by ZEFSAII (Michael W. Deem and Ramdas Pophale) SiO2 
 PCOD9341803
Probable space group: P N C 2
;
_chemical_formula_sum "Si O2"
_cell_formula_units_Z 20
_cell_length_a 24.888599
_cell_length_b 6.681609
_cell_length_c 5.235605
_cell_angle_alpha 90.000000
_cell_angle_beta 90.000000
_cell_angle_gamma 90.000000
_cell_volume 870.659578
_symmetry_space_group_name_H-M "P N C 2"
_symmetry_group_IT_number 30
_symmetry_cell_setting 'orthorhombic'
loop_
_space_group_symop_operation_xyz
x,y,z
-x,-y,z
-x,1/2+y,1/2+z
x,1/2-y,1/2+z
loop_
_atom_site_type_symbol
_atom_site_label
_atom_site_fract_x
_atom_site_fract_y
_atom_site_fract_z
Si Si1 0.554442 0.119912 0.402180
Si Si2 0.667575 0.113629 0.290108
Si Si3 0.219585 0.614555 0.897501
Si Si4 0.897182 0.015194 0.483558
Si Si5 0.939659 0.028096 0.983031
O O1 0.554928 0.203450 0.690388
O O2 0.610793 0.007206 0.344123
O O3 0.500000 0.000000 0.361102
O O4 0.667808 0.292853 0.504968
O O5 0.723904 0.003857 0.345963
O O6 0.219303 0.785386 0.677868
O O7 0.163021 0.504197 0.878391
O O8 0.900116 0.939284 0.771335
O O9 0.918270 0.245151 0.522328
O O10 0.936898 0.938137 0.265924
O O11 0.000000 0.000000 0.886262
#
# Coordination Sequence:
#
# PCOD9341803 Si02
#       5
#     4   4   4   4   4
#     4  10  19  33  50  76 111 142 177 216 262 315
#     4   8  16  25  42  66  93 121 146 190 238 289
#     4  10  14  25  41  59  87 111 135 181 241 278
#     4  10  17  28  40  58  83 107 134 183 218 270
#     4  10  18  27  39  57  83 105 136 166 216 273
#
# _framework density 22.971088999999999
#
# number of rings (size 3 to 8) (size 9 to 14) (size 15 to 20)
#    0.000    2.400    4.000    1.200    0.000    0.000 
#    0.000    0.000    0.000    0.000    0.000    0.000 
#   36.000    0.000    0.000    0.000    0.000    0.000 
#
# Total GULP energy -111399.046452 kJ/mol
# GULP energy per Si atom -5569.952323 kJ/mol
# Density = 2.291881 g / cm^3
# Si number density = 22.971089 Si / 1000 Ang^3
#
#
#
# Elastic Constant Matrix: (Units=GPa)
#
#
# Indices 1 2 3 4 5 6 
#
# 1 187.5777 -6.6207 -10.0604 0.0000 0.0000 0.0000
# 2 -6.6207 42.7452 -18.7695 0.0000 0.0000 0.0000
# 3 -10.0604 -18.7695 144.9079 0.0000 0.0000 0.0000
# 4 0.0000 0.0000 0.0000 17.4451 0.0000 0.0000
# 5 0.0000 0.0000 0.0000 0.0000 37.6510 0.0000
# 6 0.0000 0.0000 0.0000 0.0000 0.0000 37.5114
#
#
#
# Elastic Compliance Matrix: (Units=1/GPa)
#
#
# Indices 1 2 3 4 5 6 
#
# 1 0.005396 0.001061 0.000512 0.000000 0.000000 0.000000
# 2 0.001061 0.025014 0.003314 0.000000 0.000000 0.000000
# 3 0.000512 0.003314 0.007366 0.000000 0.000000 0.000000
# 4 0.000000 0.000000 0.000000 0.057323 0.000000 0.000000
# 5 0.000000 0.000000 0.000000 0.000000 0.026560 0.000000
# 6 0.000000 0.000000 0.000000 0.000000 0.000000 0.026659
#
#
# Mechanical properties :
#
#
# Convention : Reuss Voigt Hill
#
# Bulk Modulus (GPa) = 21.03149 33.81441 27.42295
# Shear Modulus (GPa) = 32.38480 45.90024 39.14252
#
# Velocity S-wave (km/s) = 3.75881 4.47494 4.13242
# Velocity P-wave (km/s) = 5.29280 6.43836 5.89348
#
# Compressibility (1/GPa) = 0.04754774
#
# Stress axis : x y z
#
# Youngs Moduli (GPa) = 185.32182 39.97810 135.76476
#
# Poissons Ratio (x) = -0.04240 -0.06951
# Poissons Ratio (y) = -0.19655 -0.44987
# Poissons Ratio (z) = -0.09488 -0.13247
#
# Static dielectric constant tensor:
#      x y z
#    x 1.951410 0.000000 0.000000 
#    y 0.000000 0.779440 0.000000 
#    z 0.000000 0.000000 1.886070 
# 
# From -- ./inp_files/1048.got.cif
#   From: 2010.05.17/outbox.cif.g08.bks.cpg/sg30_1_cif.got.tgz:1048.got - 2010.06.03 17:03:02.
