data_PCOD9341592
_publ_section_title
;
Structure prediction by ZEFSAII (Michael W. Deem and Ramdas Pophale) SiO2 
 PCOD9341592
Probable space group: P C A 21
;
_chemical_formula_sum "Si O2"
_cell_formula_units_Z 28
_cell_length_a 4.734804
_cell_length_b 16.543142
_cell_length_c 13.141149
_cell_angle_alpha 90.000000
_cell_angle_beta 90.000000
_cell_angle_gamma 90.000000
_cell_volume 1029.326948
_symmetry_space_group_name_H-M "P C A 21"
_symmetry_group_IT_number 29
_symmetry_cell_setting 'orthorhombic'
loop_
_space_group_symop_operation_xyz
x,y,z
-x,-y,1/2+z
1/2-x,y,1/2+z
1/2+x,-y,z
loop_
_atom_site_type_symbol
_atom_site_label
_atom_site_fract_x
_atom_site_fract_y
_atom_site_fract_z
Si Si1 0.352896 0.844016 0.604530
Si Si2 0.975842 0.653692 0.431030
Si Si3 0.986126 0.255227 0.346513
Si Si4 0.312852 0.118550 0.474105
Si Si5 0.494009 0.050360 0.275417
Si Si6 0.247609 0.306731 0.640937
Si Si7 0.907786 0.448717 0.751617
O O1 0.054179 0.845085 0.548559
O O2 0.369399 0.873035 0.720788
O O3 0.529344 0.760872 0.598384
O O4 0.559535 0.908877 0.547591
O O5 0.657667 0.670082 0.395341
O O6 0.946221 0.658685 0.551555
O O7 0.071616 0.574608 0.370880
O O8 0.548556 0.624752 0.690649
O O9 0.668978 0.274467 0.381944
O O10 0.058722 0.264988 0.227871
O O11 0.481761 0.062831 0.396081
O O12 0.135047 0.177783 0.397165
O O13 0.677837 0.972593 0.246763
O O14 0.088784 0.528657 0.728672
#
# Coordination Sequence:
#
# PCOD9341592 Si02
#       7
#     4   4   4   4   4   4   4
#     4  12  27  47  79 118 150 200 269 331 388 477
#     4  11  25  44  76 112 152 198 263 321 396 463
#     4  11  24  46  72 113 153 193 252 332 388 463
#     4  12  26  47  76 113 157 195 263 321 405 460
#     4  12  28  52  77 110 159 214 258 319 399 482
#     4  11  26  49  83 112 155 206 265 332 399 466
#     4  11  26  49  73 112 160 206 258 322 393 483
#
# _framework density 27.202241000000001
#
# number of rings (size 3 to 8) (size 9 to 14) (size 15 to 20)
#    0.000    0.571    2.857    4.286    0.000   11.429 
#    0.000    0.000    0.000    0.000    0.000    0.000 
#    0.000    0.000    0.000    0.000    0.000    0.000 
#
# Total GULP energy -156877.074465 kJ/mol
# GULP energy per Si atom -5602.752659 kJ/mol
# Density = 2.714033 g / cm^3
# Si number density = 27.202241 Si / 1000 Ang^3
#
#
#
# Elastic Constant Matrix: (Units=GPa)
#
#
# Indices 1 2 3 4 5 6 
#
# 1 149.0111 27.0674 42.1651 0.0000 0.0000 0.0000
# 2 27.0674 70.5885 26.5510 0.0000 0.0000 0.0000
# 3 42.1651 26.5510 155.5045 0.0000 0.0000 0.0000
# 4 0.0000 0.0000 0.0000 54.4412 0.0000 0.0000
# 5 0.0000 0.0000 0.0000 0.0000 31.5893 0.0000
# 6 0.0000 0.0000 0.0000 0.0000 0.0000 48.4738
#
#
#
# Elastic Compliance Matrix: (Units=1/GPa)
#
#
# Indices 1 2 3 4 5 6 
#
# 1 0.007599 -0.002286 -0.001670 0.000000 0.000000 0.000000
# 2 -0.002286 0.015826 -0.002082 0.000000 0.000000 0.000000
# 3 -0.001670 -0.002082 0.007239 0.000000 0.000000 0.000000
# 4 0.000000 0.000000 0.000000 0.018368 0.000000 0.000000
# 5 0.000000 0.000000 0.000000 0.000000 0.031656 0.000000
# 6 0.000000 0.000000 0.000000 0.000000 0.000000 0.020630
#
#
# Mechanical properties :
#
#
# Convention : Reuss Voigt Hill
#
# Bulk Modulus (GPa) = 53.79881 62.96345 58.38113
# Shear Modulus (GPa) = 41.80928 45.52225 43.66576
#
# Velocity S-wave (km/s) = 3.92469 4.09525 4.01087
# Velocity P-wave (km/s) = 6.35278 6.74967 6.55423
#
# Compressibility (1/GPa) = 0.01858777
#
# Stress axis : x y z
#
# Youngs Moduli (GPa) = 131.60218 63.18594 138.13853
#
# Poissons Ratio (x) = 0.14441 0.23071
# Poissons Ratio (y) = 0.30078 0.28767
# Poissons Ratio (z) = 0.21979 0.13158
#
# Static dielectric constant tensor:
#      x y z
#    x 2.005380 0.000000 0.000000 
#    y 0.000000 2.141650 0.000000 
#    z 0.000000 0.000000 2.178820 
# 
# From -- ./inp_files/2692.got.cif
#   From: 2010.05.17/outbox.cif.g08.bks.cpg/sg29_2_cif.got.tgz:2692.got - 2010.06.04 01:19:37.
