data_PCOD9341089
_publ_section_title
;
Structure prediction by ZEFSAII (Michael W. Deem and Ramdas Pophale) SiO2 
 PCOD9341089
Probable space group: P C A 21
;
_chemical_formula_sum "Si O2"
_cell_formula_units_Z 28
_cell_length_a 23.550354
_cell_length_b 10.225442
_cell_length_c 5.283907
_cell_angle_alpha 90.000000
_cell_angle_beta 90.000000
_cell_angle_gamma 90.000000
_cell_volume 1272.432328
_symmetry_space_group_name_H-M "P C A 21"
_symmetry_group_IT_number 29
_symmetry_cell_setting 'orthorhombic'
loop_
_space_group_symop_operation_xyz
x,y,z
-x,-y,1/2+z
1/2-x,y,1/2+z
1/2+x,-y,z
loop_
_atom_site_type_symbol
_atom_site_label
_atom_site_fract_x
_atom_site_fract_y
_atom_site_fract_z
Si Si1 0.235258 0.573064 0.105970
Si Si2 0.966592 0.807668 0.560592
Si Si3 0.603449 0.163736 0.534068
Si Si4 0.782475 0.720692 0.120381
Si Si5 0.525873 0.516307 0.882376
Si Si6 0.378506 0.675662 0.526332
Si Si7 0.100694 0.130184 0.573020
O O1 0.242361 0.647840 0.364897
O O2 0.271039 0.437853 0.119658
O O3 0.168630 0.562756 0.060575
O O4 0.955833 0.658272 0.474886
O O5 0.935084 0.883267 0.333491
O O6 0.034128 0.834609 0.560963
O O7 0.939440 0.832358 0.835405
O O8 0.629410 0.237668 0.776125
O O9 0.623641 0.014815 0.519626
O O10 0.617589 0.238126 0.275886
O O11 0.752984 0.768027 0.377558
O O12 0.847301 0.767437 0.101527
O O13 0.527296 0.506045 0.577056
O O14 0.563575 0.399697 0.985244
#
# Coordination Sequence:
#
# PCOD9341089 Si02
#       7
#     4   4   4   4   4   4   4
#     4  10  23  41  64  94 125 160 225 287 338 391
#     4  12  24  42  69 104 139 178 233 270 335 401
#     4  12  25  46  65 102 146 182 220 264 332 436
#     4  10  23  44  65  97 128 165 230 292 330 379
#     4  12  23  41  64 101 138 173 221 276 337 398
#     4  12  24  43  67  95 138 178 216 276 347 400
#     4  12  26  43  72  99 136 188 223 279 333 389
#
# _framework density 22.005098
#
# number of rings (size 3 to 8) (size 9 to 14) (size 15 to 20)
#    0.000    0.571    2.857    5.143    8.000    0.000 
#    0.000    4.286    0.000    0.000    0.000    0.000 
#    0.000    0.000    0.000    0.000    0.000    0.000 
#
# Total GULP energy -156264.598390 kJ/mol
# GULP energy per Si atom -5580.878514 kJ/mol
# Density = 2.195501 g / cm^3
# Si number density = 22.005098 Si / 1000 Ang^3
#
#
#
# Elastic Constant Matrix: (Units=GPa)
#
#
# Indices 1 2 3 4 5 6 
#
# 1 73.1083 9.7431 27.6995 0.0000 0.0000 0.0000
# 2 9.7431 78.0122 -7.5475 0.0000 0.0000 0.0000
# 3 27.6995 -7.5475 123.4729 0.0000 0.0000 0.0000
# 4 0.0000 0.0000 0.0000 23.3580 0.0000 0.0000
# 5 0.0000 0.0000 0.0000 0.0000 12.1497 0.0000
# 6 0.0000 0.0000 0.0000 0.0000 0.0000 15.5672
#
#
#
# Elastic Compliance Matrix: (Units=1/GPa)
#
#
# Indices 1 2 3 4 5 6 
#
# 1 0.015336 -0.002262 -0.003579 0.000000 0.000000 0.000000
# 2 -0.002262 0.013228 0.001316 0.000000 0.000000 0.000000
# 3 -0.003579 0.001316 0.008982 0.000000 0.000000 0.000000
# 4 0.000000 0.000000 0.000000 0.042812 0.000000 0.000000
# 5 0.000000 0.000000 0.000000 0.000000 0.082306 0.000000
# 6 0.000000 0.000000 0.000000 0.000000 0.000000 0.064238
#
#
# Mechanical properties :
#
#
# Convention : Reuss Voigt Hill
#
# Bulk Modulus (GPa) = 35.09049 37.15374 36.12211
# Shear Modulus (GPa) = 20.37077 26.52819 23.44948
#
# Velocity S-wave (km/s) = 3.04588 3.47587 3.26795
# Velocity P-wave (km/s) = 5.32457 5.74714 5.53989
#
# Compressibility (1/GPa) = 0.02849775
#
# Stress axis : x y z
#
# Youngs Moduli (GPa) = 65.20783 75.59570 111.33139
#
# Poissons Ratio (x) = 0.17096 0.39841
# Poissons Ratio (y) = 0.14747 -0.14651
# Poissons Ratio (z) = 0.23335 -0.09948
#
# Static dielectric constant tensor:
#      x y z
#    x 1.864310 0.000000 0.000000 
#    y 0.000000 1.815010 0.000000 
#    z 0.000000 0.000000 1.970700 
# 
# From -- ./inp_files/664.got.cif
#   From: 2010.05.17/outbox.cif.g08.bks.cpg/sg29_1_cif.got.tgz:664.got - 2010.06.04 01:19:37.
