data_PCOD9341927
_publ_section_title
;
Structure prediction by ZEFSAII (Michael W. Deem and Ramdas Pophale) SiO2 
 PCOD9341927
Probable space group: P N C 2
;
_chemical_formula_sum "Si O2"
_cell_formula_units_Z 24
_cell_length_a 7.052758
_cell_length_b 5.198358
_cell_length_c 27.704764
_cell_angle_alpha 90.000000
_cell_angle_beta 90.000000
_cell_angle_gamma 90.000000
_cell_volume 1015.733140
_symmetry_space_group_name_H-M "P N C 2"
_symmetry_group_IT_number 30
_symmetry_cell_setting 'orthorhombic'
loop_
_space_group_symop_operation_xyz
x,y,z
-x,-y,z
-x,1/2+y,1/2+z
x,1/2-y,1/2+z
loop_
_atom_site_type_symbol
_atom_site_label
_atom_site_fract_x
_atom_site_fract_y
_atom_site_fract_z
Si Si1 0.634827 0.248407 0.320650
Si Si2 0.779771 0.561655 0.575588
Si Si3 0.725578 0.957878 0.966487
Si Si4 0.633844 0.248738 0.715084
Si Si5 0.782793 0.066067 0.617324
Si Si6 0.729061 0.455385 0.918704
O O1 0.500000 0.500000 0.328636
O O2 0.730885 0.258802 0.267977
O O3 0.760843 0.179975 0.366996
O O4 0.500000 0.000000 0.316587
O O5 0.763502 0.641420 0.520189
O O6 0.694363 0.277182 0.581721
O O7 0.000000 0.500000 0.586925
O O8 0.698974 0.780783 0.610814
O O9 0.797527 0.743372 0.928931
O O10 0.500000 0.000000 0.960731
O O11 0.798002 0.246543 0.957558
O O12 0.500000 0.500000 0.709978
O O13 0.768034 0.197959 0.669575
O O14 0.500000 0.000000 0.715369
O O15 0.000000 0.000000 0.605199
O O16 0.500000 0.500000 0.922039
#
# Coordination Sequence:
#
# PCOD9341927 Si02
#       6
#     4   4   4   4   4   4
#     4   9  16  28  47  72 102 131 160 200 253 309
#     4  10  21  36  52  71  99 138 176 209 254 312
#     4  10  19  30  48  74  98 126 165 208 251 293
#     4  10  20  33  53  81 105 130 170 219 263 302
#     4  10  21  37  54  73 102 141 177 209 259 321
#     4   9  16  28  46  71 101 128 158 199 249 303
#
# _framework density 23.628250999999999
#
# number of rings (size 3 to 8) (size 9 to 14) (size 15 to 20)
#    0.000    2.333    0.000    4.500    0.000    2.000 
#    0.000    0.000    0.000    1.000    0.000   16.333 
#    0.000    0.000    0.000    0.000    0.000    0.000 
#
# Total GULP energy -133796.230401 kJ/mol
# GULP energy per Si atom -5574.842933 kJ/mol
# Density = 2.357447 g / cm^3
# Si number density = 23.628251 Si / 1000 Ang^3
#
#
#
# Elastic Constant Matrix: (Units=GPa)
#
#
# Indices 1 2 3 4 5 6 
#
# 1 51.5902 7.2496 -24.8744 0.0000 0.0000 0.0000
# 2 7.2496 195.5870 53.3100 0.0000 0.0000 0.0000
# 3 -24.8744 53.3100 129.4863 0.0000 0.0000 0.0000
# 4 0.0000 0.0000 0.0000 39.9913 0.0000 0.0000
# 5 0.0000 0.0000 0.0000 0.0000 9.2649 0.0000
# 6 0.0000 0.0000 0.0000 0.0000 0.0000 -3.3941
#
#
#
# Elastic Compliance Matrix: (Units=1/GPa)
#
#
# Indices 1 2 3 4 5 6 
#
# 1 0.022198 -0.002236 0.005185 0.000000 0.000000 0.000000
# 2 -0.002236 0.005984 -0.002893 0.000000 0.000000 0.000000
# 3 0.005185 -0.002893 0.009910 0.000000 0.000000 0.000000
# 4 0.000000 0.000000 0.000000 0.025005 0.000000 0.000000
# 5 0.000000 0.000000 0.000000 0.000000 0.107934 0.000000
# 6 0.000000 0.000000 0.000000 0.000000 0.000000 -0.294626
#
#
# Mechanical properties :
#
#
# Convention : Reuss Voigt Hill
#
# Bulk Modulus (GPa) = 26.17610 49.78155 37.97882
# Shear Modulus (GPa) = -45.05677 31.90430 -6.57623
#
# Velocity S-wave (km/s) = -4.37155 3.67858 -1.67010
# Velocity P-wave (km/s) = 3.79186 6.25755 3.51985
#
# Compressibility (1/GPa) = 0.03820279
#
# Stress axis : x y z
#
# Youngs Moduli (GPa) = 45.05003 167.10401 100.90834
#
# Poissons Ratio (x) = 0.37363 -0.52318
# Poissons Ratio (y) = 0.10073 0.29196
# Poissons Ratio (z) = -0.23357 0.48348
#
# Static dielectric constant tensor:
#      x y z
#    x 1.932720 0.000000 0.000000 
#    y 0.000000 1.948640 0.000000 
#    z 0.000000 0.000000 1.957660 
# 
# From -- ./inp_files/7315.got.cif
#   From: 2010.05.17/outbox.cif.g08.bks.cpg/sg30_4_cif.got.tgz:7315.got - 2010.06.03 17:03:02.
