data_PCOD9341204
_publ_section_title
;
Structure prediction by ZEFSAII (Michael W. Deem and Ramdas Pophale) SiO2 
 PCOD9341204
Probable space group: P C A 21
;
_chemical_formula_sum "Si O2"
_cell_formula_units_Z 28
_cell_length_a 10.676557
_cell_length_b 9.891345
_cell_length_c 12.609986
_cell_angle_alpha 90.000000
_cell_angle_beta 90.000000
_cell_angle_gamma 90.000000
_cell_volume 1331.683986
_symmetry_space_group_name_H-M "P C A 21"
_symmetry_group_IT_number 29
_symmetry_cell_setting 'orthorhombic'
loop_
_space_group_symop_operation_xyz
x,y,z
-x,-y,1/2+z
1/2-x,y,1/2+z
1/2+x,-y,z
loop_
_atom_site_type_symbol
_atom_site_label
_atom_site_fract_x
_atom_site_fract_y
_atom_site_fract_z
Si Si1 0.095551 0.833050 0.373300
Si Si2 0.700432 0.668053 0.235639
Si Si3 0.717515 0.981988 0.212381
Si Si4 0.035185 0.281271 0.673619
Si Si5 0.536182 0.989236 0.577489
Si Si6 0.592349 0.504906 0.066943
Si Si7 0.841621 0.471046 0.931922
O O1 0.045576 0.923369 0.470717
O O2 0.149198 0.687757 0.405086
O O3 0.992892 0.799239 0.282322
O O4 0.197681 0.920770 0.311421
O O5 0.712353 0.827710 0.253097
O O6 0.840447 0.632116 0.194586
O O7 0.664130 0.574537 0.333612
O O8 0.605132 0.636693 0.140212
O O9 0.598470 0.992026 0.133036
O O10 0.843871 0.023460 0.151264
O O11 0.920105 0.377460 0.645702
O O12 0.051763 0.174950 0.577235
O O13 0.714851 0.494952 0.996332
O O14 0.467847 0.502100 0.997575
#
# Coordination Sequence:
#
# PCOD9341204 Si02
#       7
#     4   4   4   4   4   4   4
#     4  11  24  43  69 104 137 175 231 284 338 413
#     4  11  24  47  70  98 141 182 229 282 351 413
#     4  10  25  44  69  99 137 178 224 279 340 410
#     4  10  23  48  67 102 140 181 224 293 341 416
#     4  10  24  43  69  98 136 180 222 278 346 405
#     4  12  25  45  68 101 139 177 236 286 339 408
#     4  12  27  40  74 102 134 185 228 280 347 405
#
# _framework density 21.026008000000001
#
# number of rings (size 3 to 8) (size 9 to 14) (size 15 to 20)
#    0.000    1.143    2.857    1.714    6.000    4.571 
#    0.000    0.000    0.000    0.000    0.000    0.000 
#    0.000    0.000    0.000    0.000    0.000    0.000 
#
# Total GULP energy -156309.072024 kJ/mol
# GULP energy per Si atom -5582.466858 kJ/mol
# Density = 2.097815 g / cm^3
# Si number density = 21.026008 Si / 1000 Ang^3
#
#
#
# Elastic Constant Matrix: (Units=GPa)
#
#
# Indices 1 2 3 4 5 6 
#
# 1 108.9331 5.6694 35.1312 0.0000 0.0000 0.0000
# 2 5.6694 76.7855 49.8669 0.0000 0.0000 0.0000
# 3 35.1312 49.8669 93.0472 0.0000 0.0000 0.0000
# 4 0.0000 0.0000 0.0000 34.3699 0.0000 0.0000
# 5 0.0000 0.0000 0.0000 0.0000 33.9858 0.0000
# 6 0.0000 0.0000 0.0000 0.0000 0.0000 31.3322
#
#
#
# Elastic Compliance Matrix: (Units=1/GPa)
#
#
# Indices 1 2 3 4 5 6 
#
# 1 0.010845 0.002851 -0.005622 0.000000 0.000000 0.000000
# 2 0.002851 0.020725 -0.012184 0.000000 0.000000 0.000000
# 3 -0.005622 -0.012184 0.019400 0.000000 0.000000 0.000000
# 4 0.000000 0.000000 0.000000 0.029095 0.000000 0.000000
# 5 0.000000 0.000000 0.000000 0.000000 0.029424 0.000000
# 6 0.000000 0.000000 0.000000 0.000000 0.000000 0.031916
#
#
# Mechanical properties :
#
#
# Convention : Reuss Voigt Hill
#
# Bulk Modulus (GPa) = 47.48567 51.12233 49.30400
# Shear Modulus (GPa) = 28.03709 32.47745 30.25727
#
# Velocity S-wave (km/s) = 3.65560 3.93444 3.79758
# Velocity P-wave (km/s) = 6.36012 6.70868 6.53673
#
# Compressibility (1/GPa) = 0.02105899
#
# Stress axis : x y z
#
# Youngs Moduli (GPa) = 92.21008 48.25041 51.54753
#
# Poissons Ratio (x) = -0.13754 0.28982
# Poissons Ratio (y) = -0.26285 0.62803
# Poissons Ratio (z) = 0.51843 0.58786
#
# Static dielectric constant tensor:
#      x y z
#    x 1.760440 0.000000 0.000000 
#    y 0.000000 1.781450 0.000000 
#    z 0.000000 0.000000 1.767310 
# 
# From -- ./inp_files/3156.got.cif
#   From: 2010.05.17/outbox.cif.g08.bks.cpg/sg29_2_cif.got.tgz:3156.got - 2010.06.04 01:19:37.
