data_PCOD9341770
_publ_section_title
;
Structure prediction by ZEFSAII (Michael W. Deem and Ramdas Pophale) SiO2 
 PCOD9341770
Probable space group: P C A 21
;
_chemical_formula_sum "Si O2"
_cell_formula_units_Z 32
_cell_length_a 19.428163
_cell_length_b 7.097805
_cell_length_c 8.238316
_cell_angle_alpha 90.000000
_cell_angle_beta 90.000000
_cell_angle_gamma 90.000000
_cell_volume 1136.041636
_symmetry_space_group_name_H-M "P C A 21"
_symmetry_group_IT_number 29
_symmetry_cell_setting 'orthorhombic'
loop_
_space_group_symop_operation_xyz
x,y,z
-x,-y,1/2+z
1/2-x,y,1/2+z
1/2+x,-y,z
loop_
_atom_site_type_symbol
_atom_site_label
_atom_site_fract_x
_atom_site_fract_y
_atom_site_fract_z
Si Si1 0.479030 0.084655 0.478650
Si Si2 0.603924 0.987386 0.285566
Si Si3 0.727610 0.466694 0.175754
Si Si4 0.353696 0.115020 0.286054
Si Si5 0.977745 0.476840 0.551748
Si Si6 0.232751 0.080005 0.104541
Si Si7 0.355178 0.563801 0.351701
Si Si8 0.602336 0.545463 0.362359
O O1 0.444346 0.974747 0.627513
O O2 0.429333 0.042182 0.325146
O O3 0.468224 0.301020 0.525875
O O4 0.558178 0.061330 0.433210
O O5 0.681746 0.028512 0.228953
O O6 0.607196 0.763217 0.315312
O O7 0.732161 0.693173 0.140535
O O8 0.801031 0.373066 0.214195
O O9 0.677508 0.460035 0.334442
O O10 0.685951 0.398578 0.019649
O O11 0.313744 0.047185 0.126924
O O12 0.302749 0.052507 0.432055
O O13 0.356748 0.340072 0.312250
O O14 0.932822 0.382823 0.405671
O O15 0.945485 0.440832 0.727725
O O16 0.058775 0.449277 0.527094
#
# Coordination Sequence:
#
# PCOD9341770 Si02
#       8
#     4   4   4   4   4   4   4   4
#     4   9  18  31  46  67  94 120 148 184 223 264
#     4   9  18  31  46  67  94 120 148 184 223 264
#     4   8  14  25  41  62  87 112 141 180 221 259
#     4   8  14  25  41  62  87 112 141 180 221 259
#     4   9  18  31  46  67  94 120 148 184 223 264
#     4   8  14  25  41  62  87 112 141 180 221 259
#     4   8  14  25  41  62  87 112 141 180 221 259
#     4   9  18  31  46  67  94 120 148 184 223 264
#
# _framework density 28.167981999999999
#
# number of rings (size 3 to 8) (size 9 to 14) (size 15 to 20)
#    0.000    3.500    0.000    3.000    0.000    3.000 
#    0.000    5.000    0.000    1.500    0.000    0.000 
#    0.000    0.000    0.000    0.000    0.000    0.000 
#
# Total GULP energy -178810.841600 kJ/mol
# GULP energy per Si atom -5587.838800 kJ/mol
# Density = 2.810387 g / cm^3
# Si number density = 28.167982 Si / 1000 Ang^3
#
#
#
# Elastic Constant Matrix: (Units=GPa)
#
#
# Indices 1 2 3 4 5 6 
#
# 1 152.7591 -0.6426 43.3323 0.0000 0.0000 0.0000
# 2 -0.6426 96.0235 3.7349 0.0000 0.0000 0.0000
# 3 43.3323 3.7349 74.1886 0.0000 0.0000 0.0000
# 4 0.0000 0.0000 0.0000 10.3121 0.0000 0.0000
# 5 0.0000 0.0000 0.0000 0.0000 62.7596 0.0000
# 6 0.0000 0.0000 0.0000 0.0000 0.0000 13.4055
#
#
#
# Elastic Compliance Matrix: (Units=1/GPa)
#
#
# Indices 1 2 3 4 5 6 
#
# 1 0.007851 0.000231 -0.004598 0.000000 0.000000 0.000000
# 2 0.000231 0.010441 -0.000661 0.000000 0.000000 0.000000
# 3 -0.004598 -0.000661 0.016198 0.000000 0.000000 0.000000
# 4 0.000000 0.000000 0.000000 0.096974 0.000000 0.000000
# 5 0.000000 0.000000 0.000000 0.000000 0.015934 0.000000
# 6 0.000000 0.000000 0.000000 0.000000 0.000000 0.074596
#
#
# Mechanical properties :
#
#
# Convention : Reuss Voigt Hill
#
# Bulk Modulus (GPa) = 40.92218 46.20228 43.56223
# Shear Modulus (GPa) = 20.81652 35.73186 28.27419
#
# Velocity S-wave (km/s) = 2.72143 3.56550 3.17167
# Velocity P-wave (km/s) = 4.94311 5.77827 5.37693
#
# Compressibility (1/GPa) = 0.02443663
#
# Stress axis : x y z
#
# Youngs Moduli (GPa) = 127.36619 95.77289 61.73696
#
# Poissons Ratio (x) = -0.02216 0.28384
# Poissons Ratio (y) = -0.02947 0.04080
# Poissons Ratio (z) = 0.58557 0.06329
#
# Static dielectric constant tensor:
#      x y z
#    x 2.174750 0.000000 0.000000 
#    y 0.000000 2.199600 0.000000 
#    z 0.000000 0.000000 2.252200 
# 
# From -- ./inp_files/2167.got.cif
#   From: 2010.05.17/outbox.cif.g08.bks.cpg/sg29_2_cif.got.tgz:2167.got - 2010.06.04 01:19:37.
