data_PCOD9341087
_publ_section_title
;
Structure prediction by ZEFSAII (Michael W. Deem and Ramdas Pophale) SiO2 
 PCOD9341087
Probable space group: P C A 21
;
_chemical_formula_sum "Si O2"
_cell_formula_units_Z 24
_cell_length_a 10.006342
_cell_length_b 12.213038
_cell_length_c 8.514319
_cell_angle_alpha 90.000000
_cell_angle_beta 90.000000
_cell_angle_gamma 90.000000
_cell_volume 1040.516492
_symmetry_space_group_name_H-M "P C A 21"
_symmetry_group_IT_number 29
_symmetry_cell_setting 'orthorhombic'
loop_
_space_group_symop_operation_xyz
x,y,z
-x,-y,1/2+z
1/2-x,y,1/2+z
1/2+x,-y,z
loop_
_atom_site_type_symbol
_atom_site_label
_atom_site_fract_x
_atom_site_fract_y
_atom_site_fract_z
Si Si1 0.110235 0.197632 0.072120
Si Si2 0.111360 0.885971 0.211902
Si Si3 0.170421 0.775881 0.538083
Si Si4 0.694077 0.909219 0.770459
Si Si5 0.162863 0.523623 0.554700
Si Si6 0.408062 0.425748 0.381081
O O1 0.220107 0.194858 0.207708
O O2 0.959172 0.173954 0.127612
O O3 0.160117 0.104794 0.952781
O O4 0.101291 0.306952 0.965338
O O5 0.131852 0.801131 0.357356
O O6 0.186932 0.829624 0.068014
O O7 0.953897 0.911077 0.192233
O O8 0.203228 0.990856 0.251401
O O9 0.172593 0.651537 0.597859
O O10 0.301236 0.492862 0.479372
O O11 0.123657 0.444952 0.698582
O O12 0.051573 0.522850 0.418989
#
# Coordination Sequence:
#
# PCOD9341087 Si02
#       6
#     4   4   4   4   4   4
#     4  10  23  41  60  90 125 162 209 257 310 378
#     4  11  23  40  63  92 124 164 208 256 314 381
#     4  10  23  41  61  90 125 161 209 258 311 376
#     4  11  23  39  62  89 124 163 207 257 312 375
#     4  11  23  41  64  94 129 170 217 273 327 387
#     4  11  23  40  64  93 129 170 218 271 328 387
#
# _framework density 23.065467000000002
#
# number of rings (size 3 to 8) (size 9 to 14) (size 15 to 20)
#    0.000    1.333    0.000    5.000    0.000   10.667 
#    0.000    0.000    0.000    0.000    0.000    0.000 
#    0.000    0.000    0.000    0.000    0.000    0.000 
#
# Total GULP energy -133979.011422 kJ/mol
# GULP energy per Si atom -5582.458809 kJ/mol
# Density = 2.301297 g / cm^3
# Si number density = 23.065467 Si / 1000 Ang^3
#
#
#
# Elastic Constant Matrix: (Units=GPa)
#
#
# Indices 1 2 3 4 5 6 
#
# 1 -54.2672 126.5854 0.0788 0.0000 0.0000 0.0000
# 2 126.5854 -15.4479 6.8423 0.0000 0.0000 0.0000
# 3 0.0788 6.8423 23.0384 0.0000 0.0000 0.0000
# 4 0.0000 0.0000 0.0000 26.4073 0.0000 0.0000
# 5 0.0000 0.0000 0.0000 0.0000 9.2575 0.0000
# 6 0.0000 0.0000 0.0000 0.0000 0.0000 37.1534
#
#
#
# Elastic Compliance Matrix: (Units=1/GPa)
#
#
# Indices 1 2 3 4 5 6 
#
# 1 0.001160 0.008399 -0.002498 0.000000 0.000000 0.000000
# 2 0.008399 0.003601 -0.001098 0.000000 0.000000 0.000000
# 3 -0.002498 -0.001098 0.043740 0.000000 0.000000 0.000000
# 4 0.000000 0.000000 0.000000 0.037868 0.000000 0.000000
# 5 0.000000 0.000000 0.000000 0.000000 0.108021 0.000000
# 6 0.000000 0.000000 0.000000 0.000000 0.000000 0.026915
#
#
# Mechanical properties :
#
#
# Convention : Reuss Voigt Hill
#
# Bulk Modulus (GPa) = 17.21002 24.48182 20.84592
# Shear Modulus (GPa) = 21.63842 2.55144 12.09493
#
# Velocity S-wave (km/s) = 3.06621 1.05289 2.29241
# Velocity P-wave (km/s) = 4.47360 3.48069 4.00801
#
# Compressibility (1/GPa) = 0.05810568
#
# Stress axis : x y z
#
# Youngs Moduli (GPa) = 862.08757 277.68638 22.86214
#
# Poissons Ratio (x) = -2.33219 0.05712
# Poissons Ratio (y) = -7.24037 0.02511
# Poissons Ratio (z) = 2.15378 0.30497
#
# Static dielectric constant tensor:
#      x y z
#    x 1.910210 0.000000 0.000000 
#    y 0.000000 1.936880 0.000000 
#    z 0.000000 0.000000 1.945420 
# 
# From -- ./inp_files/1135.got.cif
#   From: 2010.05.17/outbox.cif.g08.bks.cpg/sg29_1_cif.got.tgz:1135.got - 2010.06.04 01:19:37.
