data_PCOD9341627
_publ_section_title
;
Structure prediction by ZEFSAII (Michael W. Deem and Ramdas Pophale) SiO2 
 PCOD9341627
Probable space group: P C A 21
;
_chemical_formula_sum "Si O2"
_cell_formula_units_Z 24
_cell_length_a 10.219675
_cell_length_b 6.805144
_cell_length_c 13.504651
_cell_angle_alpha 90.000000
_cell_angle_beta 90.000000
_cell_angle_gamma 90.000000
_cell_volume 939.199320
_symmetry_space_group_name_H-M "P C A 21"
_symmetry_group_IT_number 29
_symmetry_cell_setting 'orthorhombic'
loop_
_space_group_symop_operation_xyz
x,y,z
-x,-y,1/2+z
1/2-x,y,1/2+z
1/2+x,-y,z
loop_
_atom_site_type_symbol
_atom_site_label
_atom_site_fract_x
_atom_site_fract_y
_atom_site_fract_z
Si Si1 0.476190 0.201496 0.402950
Si Si2 0.241159 0.900784 0.199936
Si Si3 0.556913 0.216741 0.869852
Si Si4 0.659591 0.706125 0.099062
Si Si5 0.473317 0.561953 0.741365
Si Si6 0.216921 0.655171 0.516736
O O1 0.375379 0.207111 0.492573
O O2 0.421586 0.305284 0.302857
O O3 0.601870 0.324294 0.438442
O O4 0.522459 0.977002 0.397036
O O5 0.342358 0.871856 0.288426
O O6 0.130226 0.737571 0.223285
O O7 0.188913 0.116825 0.173967
O O8 0.303014 0.825383 0.097272
O O9 0.469709 0.379023 0.817384
O O10 0.646124 0.306237 0.957851
O O11 0.544127 0.565155 0.141322
O O12 0.774560 0.550627 0.075823
#
# Coordination Sequence:
#
# PCOD9341627 Si02
#       6
#     4   4   4   4   4   4
#     4  12  25  46  76 107 147 200 254 309 384 455
#     4  11  25  49  74 109 151 194 258 313 387 449
#     4  12  25  46  75 108 151 199 249 320 376 460
#     4  11  25  47  75 107 148 199 253 315 379 455
#     4  11  25  44  71 109 144 197 254 310 380 450
#     4  11  25  46  71 110 149 191 256 313 384 449
#
# _framework density 25.55368
#
# number of rings (size 3 to 8) (size 9 to 14) (size 15 to 20)
#    0.000    0.667    5.000    2.000    0.000    6.667 
#    0.000    0.000    0.000    0.000    0.000    0.000 
#    0.000    0.000    0.000    0.000    0.000    0.000 
#
# Total GULP energy -133936.969065 kJ/mol
# GULP energy per Si atom -5580.707044 kJ/mol
# Density = 2.549552 g / cm^3
# Si number density = 25.553680 Si / 1000 Ang^3
#
#
#
# Elastic Constant Matrix: (Units=GPa)
#
#
# Indices 1 2 3 4 5 6 
#
# 1 51.2673 40.7952 19.8937 0.0000 0.0000 0.0000
# 2 40.7952 195.6459 37.4125 0.0000 0.0000 0.0000
# 3 19.8937 37.4125 91.5242 0.0000 0.0000 0.0000
# 4 0.0000 0.0000 0.0000 45.5241 0.0000 0.0000
# 5 0.0000 0.0000 0.0000 0.0000 33.8150 0.0000
# 6 0.0000 0.0000 0.0000 0.0000 0.0000 23.8509
#
#
#
# Elastic Compliance Matrix: (Units=1/GPa)
#
#
# Indices 1 2 3 4 5 6 
#
# 1 0.024374 -0.004414 -0.003493 0.000000 0.000000 0.000000
# 2 -0.004414 0.006344 -0.001634 0.000000 0.000000 0.000000
# 3 -0.003493 -0.001634 0.012353 0.000000 0.000000 0.000000
# 4 0.000000 0.000000 0.000000 0.021966 0.000000 0.000000
# 5 0.000000 0.000000 0.000000 0.000000 0.029573 0.000000
# 6 0.000000 0.000000 0.000000 0.000000 0.000000 0.041927
#
#
# Mechanical properties :
#
#
# Convention : Reuss Voigt Hill
#
# Bulk Modulus (GPa) = 41.68730 59.40444 50.54587
# Shear Modulus (GPa) = 30.55924 36.66039 33.60981
#
# Velocity S-wave (km/s) = 3.46191 3.79178 3.63059
# Velocity P-wave (km/s) = 5.68584 6.51671 6.11540
#
# Compressibility (1/GPa) = 0.02398812
#
# Stress axis : x y z
#
# Youngs Moduli (GPa) = 41.02767 157.62564 80.95028
#
# Poissons Ratio (x) = 0.69580 0.28280
# Poissons Ratio (y) = 0.18111 0.13226
# Poissons Ratio (z) = 0.14333 0.25753
#
# Static dielectric constant tensor:
#      x y z
#    x 2.059290 0.000000 0.000000 
#    y 0.000000 2.024880 0.000000 
#    z 0.000000 0.000000 2.149650 
# 
# From -- ./inp_files/4446.got.cif
#   From: 2010.05.17/outbox.cif.g08.bks.cpg/sg29_3_cif.got.tgz:4446.got - 2010.06.04 01:19:37.
