data_PCOD9341032
_publ_section_title
;
Structure prediction by ZEFSAII (Michael W. Deem and Ramdas Pophale) SiO2 
 PCOD9341032
Probable space group: P C A 21
;
_chemical_formula_sum "Si O2"
_cell_formula_units_Z 32
_cell_length_a 12.512478
_cell_length_b 8.449267
_cell_length_c 14.226587
_cell_angle_alpha 90.000000
_cell_angle_beta 90.000000
_cell_angle_gamma 90.000000
_cell_volume 1504.052809
_symmetry_space_group_name_H-M "P C A 21"
_symmetry_group_IT_number 29
_symmetry_cell_setting 'orthorhombic'
loop_
_space_group_symop_operation_xyz
x,y,z
-x,-y,1/2+z
1/2-x,y,1/2+z
1/2+x,-y,z
loop_
_atom_site_type_symbol
_atom_site_label
_atom_site_fract_x
_atom_site_fract_y
_atom_site_fract_z
Si Si1 0.044486 0.961550 0.811550
Si Si2 0.267454 0.253316 0.025366
Si Si3 0.724182 0.266105 0.765229
Si Si4 0.346446 0.265372 0.814760
Si Si5 0.343723 0.384290 0.205327
Si Si6 0.054301 0.603669 0.311555
Si Si7 0.863686 0.059214 0.113491
Si Si8 0.029869 0.223416 0.975166
O O1 0.139211 0.831309 0.828110
O O2 0.068871 0.006277 0.703052
O O3 0.928950 0.878258 0.811436
O O4 0.049789 0.092854 0.892442
O O5 0.322471 0.377701 0.095074
O O6 0.309743 0.081881 0.057173
O O7 0.301347 0.282688 0.919137
O O8 0.139511 0.256693 0.029256
O O9 0.683213 0.443893 0.748025
O O10 0.720309 0.174023 0.665846
O O11 0.842756 0.282995 0.804616
O O12 0.242982 0.260992 0.748053
O O13 0.409825 0.425508 0.790569
O O14 0.463090 0.351120 0.237849
O O15 0.007175 0.624378 0.415818
O O16 0.941181 0.158364 0.045984
#
# Coordination Sequence:
#
# PCOD9341032 Si02
#       8
#     4   4   4   4   4   4   4   4
#     4  10  22  45  68  92 142 175 224 277 337 399
#     4  12  26  41  68 105 133 176 232 280 339 408
#     4   9  24  44  69  98 132 180 221 280 333 407
#     4  11  23  45  68  99 136 174 231 281 330 417
#     4  11  23  45  70  99 135 178 225 278 348 393
#     4  11  23  44  72  97 138 179 223 278 350 399
#     4  10  24  42  64  98 132 180 224 274 334 398
#     4  12  25  42  69 100 136 180 224 282 341 403
#
# _framework density 21.275849999999998
#
# number of rings (size 3 to 8) (size 9 to 14) (size 15 to 20)
#    0.750    0.500    3.750    1.500    3.500    3.000 
#    0.000    0.000    0.000    0.000    0.000    0.000 
#    0.000    0.000    0.000    0.000    0.000    0.000 
#
# Total GULP energy -178817.334398 kJ/mol
# GULP energy per Si atom -5588.041700 kJ/mol
# Density = 2.122743 g / cm^3
# Si number density = 21.275850 Si / 1000 Ang^3
#
#
#
# Elastic Constant Matrix: (Units=GPa)
#
#
# Indices 1 2 3 4 5 6 
#
# 1 75.4816 0.9441 -6.8619 0.0000 0.0000 0.0000
# 2 0.9441 28.8780 -15.3616 0.0000 0.0000 0.0000
# 3 -6.8619 -15.3616 58.7319 0.0000 0.0000 0.0000
# 4 0.0000 0.0000 0.0000 27.6863 0.0000 0.0000
# 5 0.0000 0.0000 0.0000 0.0000 36.5196 0.0000
# 6 0.0000 0.0000 0.0000 0.0000 0.0000 19.6021
#
#
#
# Elastic Compliance Matrix: (Units=1/GPa)
#
#
# Indices 1 2 3 4 5 6 
#
# 1 0.013396 0.000458 0.001685 0.000000 0.000000 0.000000
# 2 0.000458 0.040241 0.010579 0.000000 0.000000 0.000000
# 3 0.001685 0.010579 0.019990 0.000000 0.000000 0.000000
# 4 0.000000 0.000000 0.000000 0.036119 0.000000 0.000000
# 5 0.000000 0.000000 0.000000 0.000000 0.027383 0.000000
# 6 0.000000 0.000000 0.000000 0.000000 0.000000 0.051015
#
#
# Mechanical properties :
#
#
# Convention : Reuss Voigt Hill
#
# Bulk Modulus (GPa) = 10.09377 13.39252 11.74315
# Shear Modulus (GPa) = 25.54631 29.05297 27.29964
#
# Velocity S-wave (km/s) = 3.46890 3.69933 3.58596
# Velocity P-wave (km/s) = 4.56058 4.95531 4.76203
#
# Compressibility (1/GPa) = 0.09907098
#
# Stress axis : x y z
#
# Youngs Moduli (GPa) = 74.65077 24.85037 50.02426
#
# Poissons Ratio (x) = -0.01139 -0.08429
# Poissons Ratio (y) = -0.03422 -0.52919
# Poissons Ratio (z) = -0.12578 -0.26289
#
# Static dielectric constant tensor:
#      x y z
#    x 1.763190 0.000000 0.000000 
#    y 0.000000 1.802700 0.000000 
#    z 0.000000 0.000000 1.735490 
# 
# From -- ./inp_files/4589.got.cif
#   From: 2010.05.17/outbox.cif.g08.bks.cpg/sg29_3_cif.got.tgz:4589.got - 2010.06.04 01:19:37.
