data_PCOD9341099
_publ_section_title
;
Structure prediction by ZEFSAII (Michael W. Deem and Ramdas Pophale) SiO2 
 PCOD9341099
Probable space group: P C A 21
;
_chemical_formula_sum "Si O2"
_cell_formula_units_Z 28
_cell_length_a 18.232392
_cell_length_b 5.119877
_cell_length_c 11.904288
_cell_angle_alpha 90.000000
_cell_angle_beta 90.000000
_cell_angle_gamma 90.000000
_cell_volume 1111.236768
_symmetry_space_group_name_H-M "P C A 21"
_symmetry_group_IT_number 29
_symmetry_cell_setting 'orthorhombic'
loop_
_space_group_symop_operation_xyz
x,y,z
-x,-y,1/2+z
1/2-x,y,1/2+z
1/2+x,-y,z
loop_
_atom_site_type_symbol
_atom_site_label
_atom_site_fract_x
_atom_site_fract_y
_atom_site_fract_z
Si Si1 0.645246 0.784572 0.228630
Si Si2 0.778924 0.047338 0.525852
Si Si3 0.635146 0.841236 0.483409
Si Si4 0.481701 0.785652 0.994576
Si Si5 0.404332 0.490933 0.182811
Si Si6 0.557145 0.291224 0.251725
Si Si7 0.142175 0.440744 0.931392
O O1 0.661709 0.763030 0.360083
O O2 0.610872 0.505650 0.198963
O O3 0.704764 0.914913 0.147434
O O4 0.582577 0.004049 0.221812
O O5 0.822445 0.311873 0.496319
O O6 0.691792 0.076512 0.511547
O O7 0.807989 0.816436 0.444160
O O8 0.643681 0.648832 0.587988
O O9 0.547987 0.917224 0.478224
O O10 0.440922 0.663226 0.885945
O O11 0.563861 0.677643 0.977391
O O12 0.446380 0.714221 0.113422
O O13 0.473453 0.313740 0.217451
O O14 0.365755 0.536663 0.301842
#
# Coordination Sequence:
#
# PCOD9341099 Si02
#       7
#     4   4   4   4   4   4   4
#     4  11  23  47  71  99 150 189 241 296 377 438
#     4  12  28  49  70 107 151 197 246 305 376 451
#     4  11  28  44  75 109 146 197 252 306 379 444
#     4  10  23  45  72 107 143 188 248 301 370 436
#     4  11  24  43  75 105 147 181 251 308 365 437
#     4  10  23  41  71 106 136 189 234 303 361 439
#     4  11  29  47  76 107 149 195 248 307 378 443
#
# _framework density 25.197153
#
# number of rings (size 3 to 8) (size 9 to 14) (size 15 to 20)
#    0.000    1.143    1.429    2.571   12.000    2.286 
#    0.000    0.000    0.000    0.000    0.000    0.000 
#    0.000    0.000    0.000    0.000    0.000    0.000 
#
# Total GULP energy -156239.289967 kJ/mol
# GULP energy per Si atom -5579.974642 kJ/mol
# Density = 2.513980 g / cm^3
# Si number density = 25.197153 Si / 1000 Ang^3
#
#
#
# Elastic Constant Matrix: (Units=GPa)
#
#
# Indices 1 2 3 4 5 6 
#
# 1 98.9270 38.7216 31.1642 0.0000 0.0000 0.0000
# 2 38.7216 120.6888 21.6167 0.0000 0.0000 0.0000
# 3 31.1642 21.6167 156.3067 0.0000 0.0000 0.0000
# 4 0.0000 0.0000 0.0000 29.5287 0.0000 0.0000
# 5 0.0000 0.0000 0.0000 0.0000 100.0573 0.0000
# 6 0.0000 0.0000 0.0000 0.0000 0.0000 -7.2509
#
#
#
# Elastic Compliance Matrix: (Units=1/GPa)
#
#
# Indices 1 2 3 4 5 6 
#
# 1 0.012099 -0.003537 -0.001923 0.000000 0.000000 0.000000
# 2 -0.003537 0.009530 -0.000613 0.000000 0.000000 0.000000
# 3 -0.001923 -0.000613 0.006866 0.000000 0.000000 0.000000
# 4 0.000000 0.000000 0.000000 0.033865 0.000000 0.000000
# 5 0.000000 0.000000 0.000000 0.000000 0.009994 0.000000
# 6 0.000000 0.000000 0.000000 0.000000 0.000000 -0.137914
#
#
# Mechanical properties :
#
#
# Convention : Reuss Voigt Hill
#
# Bulk Modulus (GPa) = 61.16646 62.10306 61.63476
# Shear Modulus (GPa) = -104.24550 43.42835 -30.40857
#
# Velocity S-wave (km/s) = -6.43908 4.15606 -3.47771
# Velocity P-wave (km/s) = 5.56368 6.90875 2.89623
#
# Compressibility (1/GPa) = 0.01634883
#
# Stress axis : x y z
#
# Youngs Moduli (GPa) = 82.65261 104.92696 145.64863
#
# Poissons Ratio (x) = 0.37116 0.28009
# Poissons Ratio (y) = 0.29237 0.08925
# Poissons Ratio (z) = 0.15895 0.06430
#
# Static dielectric constant tensor:
#      x y z
#    x 1.985550 0.000000 0.000000 
#    y 0.000000 2.048830 0.000000 
#    z 0.000000 0.000000 2.078520 
# 
# From -- ./inp_files/3577.got.cif
#   From: 2010.05.17/outbox.cif.g08.bks.cpg/sg29_2_cif.got.tgz:3577.got - 2010.06.04 01:19:37.
