data_PCOD9341968
_publ_section_title
;
Structure prediction by ZEFSAII (Michael W. Deem and Ramdas Pophale) SiO2 
 PCOD9341968
Probable space group: P N C 2
;
_chemical_formula_sum "Si O2"
_cell_formula_units_Z 32
_cell_length_a 12.073552
_cell_length_b 7.978855
_cell_length_c 17.707386
_cell_angle_alpha 90.000000
_cell_angle_beta 90.000000
_cell_angle_gamma 90.000000
_cell_volume 1705.807754
_symmetry_space_group_name_H-M "P N C 2"
_symmetry_group_IT_number 30
_symmetry_cell_setting 'orthorhombic'
loop_
_space_group_symop_operation_xyz
x,y,z
-x,-y,z
-x,1/2+y,1/2+z
x,1/2-y,1/2+z
loop_
_atom_site_type_symbol
_atom_site_label
_atom_site_fract_x
_atom_site_fract_y
_atom_site_fract_z
Si Si1 0.091915 0.863140 0.824920
Si Si2 0.408083 0.863141 0.196769
Si Si3 0.022941 0.805923 0.179259
Si Si4 0.256012 0.838859 0.421590
Si Si5 0.696324 0.611657 0.814348
Si Si6 0.243987 0.661143 0.100099
Si Si7 0.803675 0.888345 0.707341
Si Si8 0.477057 0.694076 0.342430
O O1 0.045990 0.718947 0.769175
O O2 0.161751 0.786275 0.891756
O O3 0.168712 0.965506 0.766909
O O4 0.000000 0.000000 0.847950
O O5 0.338249 0.786278 0.129931
O O6 0.454006 0.718946 0.252514
O O7 0.500000 0.000000 0.173741
O O8 0.331285 0.965506 0.254779
O O9 0.125849 0.734149 0.130687
O O10 0.914056 0.690550 0.170171
O O11 0.000000 0.000000 0.162428
O O12 0.249999 0.853480 0.510844
O O13 0.374151 0.765852 0.391002
O O14 0.238215 0.018144 0.380430
O O15 0.749999 0.750002 0.760845
O O16 0.585943 0.690549 0.851516
O O17 0.261785 0.481859 0.141260
O O18 0.500000 0.500000 0.359261
#
# Coordination Sequence:
#
# PCOD9341968 Si02
#       8
#     4   4   4   4   4   4   4   4
#     4   9  19  35  56  81 108 146 196 235 273 336
#     4   9  19  35  56  81 108 146 196 235 273 336
#     4  10  19  36  61  83 108 149 197 243 286 342
#     4  11  22  36  54  84 123 152 183 238 300 353
#     4  10  19  37  61  82 105 145 196 238 280 339
#     4  11  22  36  54  84 123 152 183 238 300 353
#     4  10  19  37  61  82 105 145 196 238 280 339
#     4  10  19  36  61  83 108 149 197 243 286 342
#
# _framework density 18.759440000000001
#
# number of rings (size 3 to 8) (size 9 to 14) (size 15 to 20)
#    0.000    2.000    0.000    8.250    0.000    1.000 
#    0.000   17.500    0.000    0.000    0.000    0.000 
#    0.000    0.000    0.000    0.000    0.000    0.000 
#
# Total GULP energy -178393.423980 kJ/mol
# GULP energy per Si atom -5574.794499 kJ/mol
# Density = 1.871674 g / cm^3
# Si number density = 18.759440 Si / 1000 Ang^3
#
#
#
# Elastic Constant Matrix: (Units=GPa)
#
#
# Indices 1 2 3 4 5 6 
#
# 1 68.4686 21.5982 61.3047 0.0000 0.0000 0.0000
# 2 21.5982 95.3306 69.5159 0.0000 0.0000 0.0000
# 3 61.3047 69.5159 138.2082 0.0000 0.0000 0.0000
# 4 0.0000 0.0000 0.0000 19.7240 0.0000 0.0000
# 5 0.0000 0.0000 0.0000 0.0000 17.3724 0.0000
# 6 0.0000 0.0000 0.0000 0.0000 0.0000 24.4524
#
#
#
# Elastic Compliance Matrix: (Units=1/GPa)
#
#
# Indices 1 2 3 4 5 6 
#
# 1 0.025086 0.003839 -0.013058 0.000000 0.000000 0.000000
# 2 0.003839 0.017153 -0.010330 0.000000 0.000000 0.000000
# 3 -0.013058 -0.010330 0.018224 0.000000 0.000000 0.000000
# 4 0.000000 0.000000 0.000000 0.050700 0.000000 0.000000
# 5 0.000000 0.000000 0.000000 0.000000 0.057563 0.000000
# 6 0.000000 0.000000 0.000000 0.000000 0.000000 0.040896
#
#
# Mechanical properties :
#
#
# Convention : Reuss Voigt Hill
#
# Bulk Modulus (GPa) = 46.80972 67.42723 57.11848
# Shear Modulus (GPa) = 19.54331 22.28232 20.91282
#
# Velocity S-wave (km/s) = 3.23117 3.45018 3.34247
# Velocity P-wave (km/s) = 6.23918 7.20366 6.73870
#
# Compressibility (1/GPa) = 0.02136309
#
# Stress axis : x y z
#
# Youngs Moduli (GPa) = 39.86240 58.29850 54.87390
#
# Poissons Ratio (x) = -0.22378 0.71655
# Poissons Ratio (y) = -0.15301 0.56687
# Poissons Ratio (z) = 0.52053 0.60224
#
# Static dielectric constant tensor:
#      x y z
#    x 1.733830 0.000000 0.000000 
#    y 0.000000 1.705810 0.000000 
#    z 0.000000 0.000000 1.626810 
# 
# From -- ./inp_files/5496.got.cif
#   From: 2010.05.17/outbox.cif.g08.bks.cpg/sg30_3_cif.got.tgz:5496.got - 2010.06.03 17:03:02.
