data_PCOD9341935
_publ_section_title
;
Structure prediction by ZEFSAII (Michael W. Deem and Ramdas Pophale) SiO2 
 PCOD9341935
Probable space group: P N C 2
;
_chemical_formula_sum "Si O2"
_cell_formula_units_Z 32
_cell_length_a 5.261041
_cell_length_b 28.546725
_cell_length_c 8.984887
_cell_angle_alpha 90.000000
_cell_angle_beta 90.000000
_cell_angle_gamma 90.000000
_cell_volume 1349.399662
_symmetry_space_group_name_H-M "P N C 2"
_symmetry_group_IT_number 30
_symmetry_cell_setting 'orthorhombic'
loop_
_space_group_symop_operation_xyz
x,y,z
-x,-y,z
-x,1/2+y,1/2+z
x,1/2-y,1/2+z
loop_
_atom_site_type_symbol
_atom_site_label
_atom_site_fract_x
_atom_site_fract_y
_atom_site_fract_z
Si Si1 0.763788 0.311090 0.581970
Si Si2 0.424419 0.652649 0.873482
Si Si3 0.947041 0.286353 0.148477
Si Si4 0.249957 0.027889 0.464382
Si Si5 0.927375 0.875550 0.441162
Si Si6 0.747996 0.529279 0.602864
Si Si7 0.262011 0.365758 0.479141
Si Si8 0.557419 0.817004 0.709622
O O1 0.721591 0.313347 0.762182
O O2 0.495443 0.332999 0.533815
O O3 0.843735 0.257632 0.558265
O O4 0.993356 0.343759 0.527189
O O5 0.210760 0.611296 0.882640
O O6 0.709288 0.638979 0.822986
O O7 0.489806 0.671252 0.038123
O O8 0.225409 0.276997 0.218223
O O9 0.722626 0.300995 0.261386
O O10 0.009998 0.331297 0.045232
O O11 0.252824 0.032745 0.283628
O O12 0.205726 0.080617 0.519360
O O13 0.500000 0.000000 0.510893
O O14 0.000000 0.000000 0.507843
O O15 0.500000 0.500000 0.559370
O O16 0.732671 0.580725 0.531433
O O17 0.000000 0.500000 0.561522
O O18 0.318323 0.358948 0.302722
#
# Coordination Sequence:
#
# PCOD9341935 Si02
#       8
#     4   4   4   4   4   4   4   4
#     4  12  24  39  65 100 134 173 229 280 336 409
#     4  10  21  38  61  86 123 173 218 268 333 404
#     4  10  23  41  62  90 130 180 222 269 332 404
#     4  10  19  32  56  90 125 162 210 272 339 404
#     4  10  20  37  59  87 126 172 219 273 339 407
#     4  10  21  38  61  91 128 168 214 274 346 414
#     4  12  25  42  66 101 134 171 225 289 342 409
#     4  10  23  41  62  87 128 175 220 269 332 395
#
# _framework density 23.714248999999999
#
# number of rings (size 3 to 8) (size 9 to 14) (size 15 to 20)
#    0.000    1.500    0.000    5.250    0.000    8.000 
#    0.000    0.000    0.000   12.000    0.000    0.000 
#    0.000    0.000    0.000    0.000    0.000    0.000 
#
# Total GULP energy -178499.133127 kJ/mol
# GULP energy per Si atom -5578.097910 kJ/mol
# Density = 2.366027 g / cm^3
# Si number density = 23.714249 Si / 1000 Ang^3
#
#
#
# Elastic Constant Matrix: (Units=GPa)
#
#
# Indices 1 2 3 4 5 6 
#
# 1 234.8728 49.6243 28.9898 0.0000 0.0000 0.0000
# 2 49.6243 152.3933 30.3687 0.0000 0.0000 0.0000
# 3 28.9898 30.3687 74.8174 0.0000 0.0000 0.0000
# 4 0.0000 0.0000 0.0000 33.1296 0.0000 0.0000
# 5 0.0000 0.0000 0.0000 0.0000 31.1934 0.0000
# 6 0.0000 0.0000 0.0000 0.0000 0.0000 38.2213
#
#
#
# Elastic Compliance Matrix: (Units=1/GPa)
#
#
# Indices 1 2 3 4 5 6 
#
# 1 0.004686 -0.001266 -0.001302 0.000000 0.000000 0.000000
# 2 -0.001266 0.007482 -0.002546 0.000000 0.000000 0.000000
# 3 -0.001302 -0.002546 0.014904 0.000000 0.000000 0.000000
# 4 0.000000 0.000000 0.000000 0.030185 0.000000 0.000000
# 5 0.000000 0.000000 0.000000 0.000000 0.032058 0.000000
# 6 0.000000 0.000000 0.000000 0.000000 0.000000 0.026163
#
#
# Mechanical properties :
#
#
# Convention : Reuss Voigt Hill
#
# Bulk Modulus (GPa) = 59.37223 75.56101 67.46662
# Shear Modulus (GPa) = 38.07491 44.04890 41.06191
#
# Velocity S-wave (km/s) = 4.01130 4.31453 4.16568
# Velocity P-wave (km/s) = 6.82239 7.53343 7.18671
#
# Compressibility (1/GPa) = 0.01684289
#
# Stress axis : x y z
#
# Youngs Moduli (GPa) = 213.40793 133.65818 67.09745
#
# Poissons Ratio (x) = 0.16928 0.08733
# Poissons Ratio (y) = 0.27028 0.17084
# Poissons Ratio (z) = 0.27777 0.34031
#
# Static dielectric constant tensor:
#      x y z
#    x 2.119010 0.000000 0.000000 
#    y 0.000000 1.936200 0.000000 
#    z 0.000000 0.000000 2.205820 
# 
# From -- ./inp_files/1475.got.cif
#   From: 2010.05.17/outbox.cif.g08.bks.cpg/sg30_1_cif.got.tgz:1475.got - 2010.06.03 17:03:02.
