data_PCOD9341365
_publ_section_title
;
Structure prediction by ZEFSAII (Michael W. Deem and Ramdas Pophale) SiO2 
 PCOD9341365
Probable space group: P C A 21
;
_chemical_formula_sum "Si O2"
_cell_formula_units_Z 24
_cell_length_a 21.103248
_cell_length_b 5.000265
_cell_length_c 9.074605
_cell_angle_alpha 90.000000
_cell_angle_beta 90.000000
_cell_angle_gamma 90.000000
_cell_volume 957.568948
_symmetry_space_group_name_H-M "P C A 21"
_symmetry_group_IT_number 29
_symmetry_cell_setting 'orthorhombic'
loop_
_space_group_symop_operation_xyz
x,y,z
-x,-y,1/2+z
1/2-x,y,1/2+z
1/2+x,-y,z
loop_
_atom_site_type_symbol
_atom_site_label
_atom_site_fract_x
_atom_site_fract_y
_atom_site_fract_z
Si Si1 0.451656 0.752171 0.512360
Si Si2 0.055374 0.968838 0.323057
Si Si3 0.328433 0.069605 0.156724
Si Si4 0.366047 0.575948 0.026627
Si Si5 0.120405 0.239415 0.076744
Si Si6 0.755060 0.701988 0.434617
O O1 0.503940 0.846266 0.399262
O O2 0.431729 0.445709 0.516602
O O3 0.472769 0.825497 0.678788
O O4 0.391705 0.956298 0.495324
O O5 0.085479 0.742852 0.427267
O O6 0.108503 0.161392 0.247040
O O7 0.288706 0.200785 0.287271
O O8 0.353875 0.772496 0.165834
O O9 0.279696 0.057188 0.019347
O O10 0.379872 0.286635 0.098874
O O11 0.301341 0.512861 0.935302
O O12 0.187043 0.371432 0.042566
#
# Coordination Sequence:
#
# PCOD9341365 Si02
#       6
#     4   4   4   4   4   4
#     4  10  26  43  74  98 139 191 243 301 359 426
#     4  10  26  47  72 103 145 188 250 300 365 427
#     4  10  26  39  69 100 142 180 236 283 358 441
#     4  10  26  40  72 100 144 183 234 298 359 438
#     4  10  26  41  74  99 144 183 239 304 358 428
#     4  10  26  44  69 104 142 187 240 288 377 428
#
# _framework density 25.063471
#
# number of rings (size 3 to 8) (size 9 to 14) (size 15 to 20)
#    2.000    0.000    0.000    0.000   14.000    2.667 
#    0.000    0.000    0.000    0.000    0.000    0.000 
#    0.000    0.000    0.000    0.000    0.000    0.000 
#
# Total GULP energy -133918.744134 kJ/mol
# GULP energy per Si atom -5579.947672 kJ/mol
# Density = 2.500643 g / cm^3
# Si number density = 25.063471 Si / 1000 Ang^3
#
#
#
# Elastic Constant Matrix: (Units=GPa)
#
#
# Indices 1 2 3 4 5 6 
#
# 1 68.0492 14.9789 5.0709 0.0000 0.0000 0.0000
# 2 14.9789 106.9703 6.8094 0.0000 0.0000 0.0000
# 3 5.0709 6.8094 43.0300 0.0000 0.0000 0.0000
# 4 0.0000 0.0000 0.0000 13.9881 0.0000 0.0000
# 5 0.0000 0.0000 0.0000 0.0000 44.0063 0.0000
# 6 0.0000 0.0000 0.0000 0.0000 0.0000 20.2268
#
#
#
# Elastic Compliance Matrix: (Units=1/GPa)
#
#
# Indices 1 2 3 4 5 6 
#
# 1 0.015255 -0.002042 -0.001475 0.000000 0.000000 0.000000
# 2 -0.002042 0.009717 -0.001297 0.000000 0.000000 0.000000
# 3 -0.001475 -0.001297 0.023619 0.000000 0.000000 0.000000
# 4 0.000000 0.000000 0.000000 0.071490 0.000000 0.000000
# 5 0.000000 0.000000 0.000000 0.000000 0.022724 0.000000
# 6 0.000000 0.000000 0.000000 0.000000 0.000000 0.049439
#
#
# Mechanical properties :
#
#
# Convention : Reuss Voigt Hill
#
# Bulk Modulus (GPa) = 25.66559 30.19644 27.93101
# Shear Modulus (GPa) = 23.27115 28.39024 25.83070
#
# Velocity S-wave (km/s) = 3.05042 3.36926 3.21380
# Velocity P-wave (km/s) = 4.76122 5.21633 4.99396
#
# Compressibility (1/GPa) = 0.03896268
#
# Stress axis : x y z
#
# Youngs Moduli (GPa) = 65.55371 102.91328 42.33948
#
# Poissons Ratio (x) = 0.21017 0.06243
# Poissons Ratio (y) = 0.13388 0.05492
# Poissons Ratio (z) = 0.09666 0.13348
#
# Static dielectric constant tensor:
#      x y z
#    x 2.074750 0.000000 0.000000 
#    y 0.000000 1.966860 0.000000 
#    z 0.000000 0.000000 2.036580 
# 
# From -- ./inp_files/3720.got.cif
#   From: 2010.05.17/outbox.cif.g08.bks.cpg/sg29_2_cif.got.tgz:3720.got - 2010.06.04 01:19:37.
