data_PCOD9341304
_publ_section_title
;
Structure prediction by ZEFSAII (Michael W. Deem and Ramdas Pophale) SiO2 
 PCOD9341304
Probable space group: P C A 21
;
_chemical_formula_sum "Si O2"
_cell_formula_units_Z 28
_cell_length_a 12.091535
_cell_length_b 6.085123
_cell_length_c 16.540752
_cell_angle_alpha 90.000000
_cell_angle_beta 90.000000
_cell_angle_gamma 90.000000
_cell_volume 1217.043353
_symmetry_space_group_name_H-M "P C A 21"
_symmetry_group_IT_number 29
_symmetry_cell_setting 'orthorhombic'
loop_
_space_group_symop_operation_xyz
x,y,z
-x,-y,1/2+z
1/2-x,y,1/2+z
1/2+x,-y,z
loop_
_atom_site_type_symbol
_atom_site_label
_atom_site_fract_x
_atom_site_fract_y
_atom_site_fract_z
Si Si1 0.599405 0.433195 0.528560
Si Si2 0.189712 0.256782 0.231576
Si Si3 0.272760 0.918333 0.596905
Si Si4 0.056684 0.258409 0.389397
Si Si5 0.604279 0.603747 0.810563
Si Si6 0.085875 0.122884 0.963441
Si Si7 0.034309 0.617290 0.162792
O O1 0.682802 0.252531 0.563459
O O2 0.624956 0.574100 0.447870
O O3 0.485970 0.310600 0.505758
O O4 0.567296 0.590671 0.601944
O O5 0.129203 0.175726 0.313657
O O6 0.282661 0.429576 0.261808
O O7 0.096823 0.387180 0.180899
O O8 0.246973 0.074415 0.174676
O O9 0.378591 0.778737 0.624344
O O10 0.313780 0.057533 0.520413
O O11 0.953355 0.393858 0.350964
O O12 0.000458 0.071914 0.443676
O O13 0.626405 0.782594 0.878686
O O14 0.513201 0.694222 0.748223
#
# Coordination Sequence:
#
# PCOD9341304 Si02
#       7
#     4   4   4   4   4   4   4
#     4  11  25  42  70 107 137 182 231 288 351 413
#     4  11  25  43  70 102 136 182 237 282 349 416
#     4  12  26  41  75 101 137 182 231 283 351 409
#     4  10  24  46  68  96 145 180 226 291 347 419
#     4  10  25  43  68  98 136 182 228 283 348 411
#     4  11  24  44  68 100 141 174 230 284 345 413
#     4  11  23  47  65 100 142 180 227 285 341 411
#
# _framework density 23.006575999999999
#
# number of rings (size 3 to 8) (size 9 to 14) (size 15 to 20)
#    0.000    1.143    2.857    1.714    6.000    4.571 
#    0.000    0.000    0.000    0.000    0.000    0.000 
#    0.000    0.000    0.000    0.000    0.000    0.000 
#
# Total GULP energy -156558.062046 kJ/mol
# GULP energy per Si atom -5591.359359 kJ/mol
# Density = 2.295421 g / cm^3
# Si number density = 23.006576 Si / 1000 Ang^3
#
#
#
# Elastic Constant Matrix: (Units=GPa)
#
#
# Indices 1 2 3 4 5 6 
#
# 1 51.3704 3.7543 24.7777 0.0000 0.0000 0.0000
# 2 3.7543 43.6227 36.6165 0.0000 0.0000 0.0000
# 3 24.7777 36.6165 138.1951 0.0000 0.0000 0.0000
# 4 0.0000 0.0000 0.0000 29.3367 0.0000 0.0000
# 5 0.0000 0.0000 0.0000 0.0000 22.9359 0.0000
# 6 0.0000 0.0000 0.0000 0.0000 0.0000 41.6990
#
#
#
# Elastic Compliance Matrix: (Units=1/GPa)
#
#
# Indices 1 2 3 4 5 6 
#
# 1 0.021416 0.001775 -0.004310 0.000000 0.000000 0.000000
# 2 0.001775 0.029628 -0.008168 0.000000 0.000000 0.000000
# 3 -0.004310 -0.008168 0.010173 0.000000 0.000000 0.000000
# 4 0.000000 0.000000 0.000000 0.034087 0.000000 0.000000
# 5 0.000000 0.000000 0.000000 0.000000 0.043600 0.000000
# 6 0.000000 0.000000 0.000000 0.000000 0.000000 0.023981
#
#
# Mechanical properties :
#
#
# Convention : Reuss Voigt Hill
#
# Bulk Modulus (GPa) = 25.11994 40.38725 32.75359
# Shear Modulus (GPa) = 25.30858 29.99697 27.65277
#
# Velocity S-wave (km/s) = 3.32031 3.61479 3.47068
# Velocity P-wave (km/s) = 5.06375 5.91735 5.50712
#
# Compressibility (1/GPa) = 0.03980901
#
# Stress axis : x y z
#
# Youngs Moduli (GPa) = 46.69497 33.75234 98.29748
#
# Poissons Ratio (x) = -0.05990 0.42365
# Poissons Ratio (y) = -0.08287 0.80293
# Poissons Ratio (z) = 0.20125 0.27570
#
# Static dielectric constant tensor:
#      x y z
#    x 1.834880 0.000000 0.000000 
#    y 0.000000 1.900240 0.000000 
#    z 0.000000 0.000000 1.867200 
# 
# From -- ./inp_files/5094.got.cif
#   From: 2010.05.17/outbox.cif.g08.bks.cpg/sg29_3_cif.got.tgz:5094.got - 2010.06.04 01:19:37.
