data_PCOD9341878
_publ_section_title
;
Structure prediction by ZEFSAII (Michael W. Deem and Ramdas Pophale) SiO2 
 PCOD9341878
Probable space group: P N C 2
;
_chemical_formula_sum "Si O2"
_cell_formula_units_Z 26
_cell_length_a 7.853759
_cell_length_b 17.158154
_cell_length_c 9.250079
_cell_angle_alpha 90.000000
_cell_angle_beta 90.000000
_cell_angle_gamma 90.000000
_cell_volume 1246.503705
_symmetry_space_group_name_H-M "P N C 2"
_symmetry_group_IT_number 30
_symmetry_cell_setting 'orthorhombic'
loop_
_space_group_symop_operation_xyz
x,y,z
-x,-y,z
-x,1/2+y,1/2+z
x,1/2-y,1/2+z
loop_
_atom_site_type_symbol
_atom_site_label
_atom_site_fract_x
_atom_site_fract_y
_atom_site_fract_z
Si Si1 0.978871 0.184398 0.691030
Si Si2 0.191227 0.532927 0.155470
Si Si3 0.582802 0.425576 0.426133
Si Si4 0.189084 0.707548 0.483084
Si Si5 0.626918 0.688566 0.218142
Si Si6 0.475427 0.676544 0.898351
Si Si7 0.500000 0.500000 0.945160
O O1 0.856170 0.121533 0.614784
O O2 0.918286 0.263382 0.617318
O O3 0.938412 0.179344 0.859514
O O4 0.178414 0.172096 0.678739
O O5 0.285735 0.538049 0.309116
O O6 0.000000 0.500000 0.164953
O O7 0.328738 0.496827 0.045639
O O8 0.500000 0.500000 0.501388
O O9 0.682496 0.362426 0.520532
O O10 0.451203 0.374717 0.329197
O O11 0.300327 0.773971 0.400620
O O12 0.598212 0.772409 0.294545
O O13 0.529721 0.684268 0.066642
O O14 0.481260 0.583967 0.866714
#
# Coordination Sequence:
#
# PCOD9341878 Si02
#       7
#     4   4   4   4   4   4   2
#     4  11  21  37  57  92 118 163 200 258 309 375
#     4  11  20  32  58  90 122 153 203 266 303 354
#     4  10  18  34  56  87 119 159 205 259 307 367
#     4  10  21  36  59  83 123 156 204 254 312 369
#     4  11  22  37  66  90 127 160 214 255 318 378
#     4  11  21  39  62  92 119 168 207 259 311 383
#     4  12  20  38  62  92 128 162 218 262 312 374
#
# _framework density 20.858340999999999
#
# number of rings (size 3 to 8) (size 9 to 14) (size 15 to 20)
#    0.000    1.231    3.846    4.615    0.000    0.000 
#    0.000    0.000   15.231    0.000    0.000    0.000 
#    0.000    0.000    0.000    0.000    0.000    0.000 
#
# Total GULP energy -145026.610975 kJ/mol
# GULP energy per Si atom -5577.946576 kJ/mol
# Density = 2.081087 g / cm^3
# Si number density = 20.858341 Si / 1000 Ang^3
#
#
#
# Elastic Constant Matrix: (Units=GPa)
#
#
# Indices 1 2 3 4 5 6 
#
# 1 115.8644 17.9448 3.2476 0.0000 0.0000 0.0000
# 2 17.9448 116.0341 19.4459 0.0000 0.0000 0.0000
# 3 3.2476 19.4459 13.5824 0.0000 0.0000 0.0000
# 4 0.0000 0.0000 0.0000 27.0053 0.0000 0.0000
# 5 0.0000 0.0000 0.0000 0.0000 8.2928 0.0000
# 6 0.0000 0.0000 0.0000 0.0000 0.0000 34.4457
#
#
#
# Elastic Compliance Matrix: (Units=1/GPa)
#
#
# Indices 1 2 3 4 5 6 
#
# 1 0.008843 -0.001333 -0.000206 0.000000 0.000000 0.000000
# 2 -0.001333 0.011540 -0.016203 0.000000 0.000000 0.000000
# 3 -0.000206 -0.016203 0.096871 0.000000 0.000000 0.000000
# 4 0.000000 0.000000 0.000000 0.037030 0.000000 0.000000
# 5 0.000000 0.000000 0.000000 0.000000 0.120587 0.000000
# 6 0.000000 0.000000 0.000000 0.000000 0.000000 0.029031
#
#
# Mechanical properties :
#
#
# Convention : Reuss Voigt Hill
#
# Bulk Modulus (GPa) = 12.22931 36.30640 24.26785
# Shear Modulus (GPa) = 13.63730 27.60493 20.62112
#
# Velocity S-wave (km/s) = 2.55974 3.64187 3.14765
# Velocity P-wave (km/s) = 3.82258 5.92691 4.98700
#
# Compressibility (1/GPa) = 0.08177078
#
# Stress axis : x y z
#
# Youngs Moduli (GPa) = 113.08365 86.65751 10.32299
#
# Poissons Ratio (x) = 0.11552 0.00212
# Poissons Ratio (y) = 0.15075 0.16726
# Poissons Ratio (z) = 0.02328 1.40408
#
# Static dielectric constant tensor:
#      x y z
#    x 1.733970 0.000000 0.000000 
#    y 0.000000 1.882110 0.000000 
#    z 0.000000 0.000000 1.707570 
# 
# From -- ./inp_files/1966.got.cif
#   From: 2010.05.17/outbox.cif.g08.bks.cpg/sg30_1_cif.got.tgz:1966.got - 2010.06.03 17:03:02.
