data_PCOD9341474
_publ_section_title
;
Structure prediction by ZEFSAII (Michael W. Deem and Ramdas Pophale) SiO2 
 PCOD9341474
Probable space group: P C A 21
;
_chemical_formula_sum "Si O2"
_cell_formula_units_Z 28
_cell_length_a 10.795904
_cell_length_b 5.325604
_cell_length_c 18.709058
_cell_angle_alpha 90.000000
_cell_angle_beta 90.000000
_cell_angle_gamma 90.000000
_cell_volume 1075.671855
_symmetry_space_group_name_H-M "P C A 21"
_symmetry_group_IT_number 29
_symmetry_cell_setting 'orthorhombic'
loop_
_space_group_symop_operation_xyz
x,y,z
-x,-y,1/2+z
1/2-x,y,1/2+z
1/2+x,-y,z
loop_
_atom_site_type_symbol
_atom_site_label
_atom_site_fract_x
_atom_site_fract_y
_atom_site_fract_z
Si Si1 0.275515 0.371426 0.863480
Si Si2 0.619728 0.960817 0.947279
Si Si3 0.083180 0.614177 0.487724
Si Si4 0.044344 0.530456 0.125802
Si Si5 0.563860 0.018650 0.693285
Si Si6 0.743394 0.122482 0.084811
Si Si7 0.952706 0.308229 0.331152
O O1 0.235352 0.102086 0.895437
O O2 0.309100 0.514195 0.937400
O O3 0.160661 0.498455 0.822945
O O4 0.403977 0.383553 0.820599
O O5 0.527432 0.726541 0.941358
O O6 0.554221 0.197806 0.911621
O O7 0.649721 0.984055 0.031227
O O8 0.031838 0.444801 0.551664
O O9 0.141902 0.843168 0.531735
O O10 0.009183 0.261917 0.159661
O O11 0.184613 0.606374 0.105092
O O12 0.003387 0.759330 0.176428
O O13 0.698903 0.007263 0.655874
O O14 0.571763 0.083517 0.775935
#
# Coordination Sequence:
#
# PCOD9341474 Si02
#       7
#     4   4   4   4   4   4   4
#     4  12  25  47  76 112 162 202 280 330 416 487
#     4  12  24  46  79 118 155 211 272 346 417 489
#     4  11  22  44  75 115 150 202 263 339 408 481
#     4  11  25  47  72 108 150 204 261 330 399 489
#     4  11  29  47  73 108 157 209 275 323 414 484
#     4  11  22  44  76 106 152 201 263 334 403 478
#     4  12  29  47  77 115 160 225 268 348 409 506
#
# _framework density 26.030245000000001
#
# number of rings (size 3 to 8) (size 9 to 14) (size 15 to 20)
#    0.000    0.571    2.857    5.143    4.000    4.571 
#    0.000    0.000    0.000    0.000    0.000    0.000 
#    0.000    0.000    0.000    0.000    0.000    0.000 
#
# Total GULP energy -156685.009303 kJ/mol
# GULP energy per Si atom -5595.893189 kJ/mol
# Density = 2.597100 g / cm^3
# Si number density = 26.030245 Si / 1000 Ang^3
#
#
#
# Elastic Constant Matrix: (Units=GPa)
#
#
# Indices 1 2 3 4 5 6 
#
# 1 135.4405 32.5971 22.8353 0.0000 0.0000 0.0000
# 2 32.5971 94.1652 13.4529 0.0000 0.0000 0.0000
# 3 22.8353 13.4529 92.3256 0.0000 0.0000 0.0000
# 4 0.0000 0.0000 0.0000 45.3035 0.0000 0.0000
# 5 0.0000 0.0000 0.0000 0.0000 29.5952 0.0000
# 6 0.0000 0.0000 0.0000 0.0000 0.0000 39.9579
#
#
#
# Elastic Compliance Matrix: (Units=1/GPa)
#
#
# Indices 1 2 3 4 5 6 
#
# 1 0.008299 -0.002634 -0.001669 0.000000 0.000000 0.000000
# 2 -0.002634 0.011682 -0.001051 0.000000 0.000000 0.000000
# 3 -0.001669 -0.001051 0.011397 0.000000 0.000000 0.000000
# 4 0.000000 0.000000 0.000000 0.022073 0.000000 0.000000
# 5 0.000000 0.000000 0.000000 0.000000 0.033789 0.000000
# 6 0.000000 0.000000 0.000000 0.000000 0.000000 0.025026
#
#
# Mechanical properties :
#
#
# Convention : Reuss Voigt Hill
#
# Bulk Modulus (GPa) = 48.37901 51.07798 49.72850
# Shear Modulus (GPa) = 38.50195 39.84107 39.17151
#
# Velocity S-wave (km/s) = 3.85011 3.91649 3.88344
# Velocity P-wave (km/s) = 6.19601 6.33380 6.26528
#
# Compressibility (1/GPa) = 0.02067012
#
# Stress axis : x y z
#
# Youngs Moduli (GPa) = 120.50114 85.60431 87.74212
#
# Poissons Ratio (x) = 0.22551 0.14641
# Poissons Ratio (y) = 0.31744 0.09218
# Poissons Ratio (z) = 0.20108 0.08993
#
# Static dielectric constant tensor:
#      x y z
#    x 2.087290 0.000000 0.000000 
#    y 0.000000 2.039750 0.000000 
#    z 0.000000 0.000000 2.002420 
# 
# From -- ./inp_files/5477.got.cif
#   From: 2010.05.17/outbox.cif.g08.bks.cpg/sg29_3_cif.got.tgz:5477.got - 2010.06.04 01:19:37.
