data_PCOD9341522
_publ_section_title
;
Structure prediction by ZEFSAII (Michael W. Deem and Ramdas Pophale) SiO2 
 PCOD9341522
Probable space group: P C A 21
;
_chemical_formula_sum "Si O2"
_cell_formula_units_Z 16
_cell_length_a 9.550863
_cell_length_b 7.554738
_cell_length_c 8.600343
_cell_angle_alpha 90.000000
_cell_angle_beta 90.000000
_cell_angle_gamma 90.000000
_cell_volume 620.551451
_symmetry_space_group_name_H-M "P C A 21"
_symmetry_group_IT_number 29
_symmetry_cell_setting 'orthorhombic'
loop_
_space_group_symop_operation_xyz
x,y,z
-x,-y,1/2+z
1/2-x,y,1/2+z
1/2+x,-y,z
loop_
_atom_site_type_symbol
_atom_site_label
_atom_site_fract_x
_atom_site_fract_y
_atom_site_fract_z
Si Si1 0.557469 0.121651 0.981890
Si Si2 0.945471 0.485249 0.027458
Si Si3 0.201826 0.027844 0.287864
Si Si4 0.317594 0.408729 0.335518
O O1 0.522964 0.325573 0.014437
O O2 0.411317 0.037602 0.926837
O O3 0.668797 0.089241 0.844900
O O4 0.624417 0.041629 0.136431
O O5 0.811100 0.492508 0.916326
O O6 0.063990 0.356527 0.961903
O O7 0.891118 0.475510 0.202245
O O8 0.258903 0.227424 0.263367
#
# Coordination Sequence:
#
# PCOD9341522 Si02
#       4
#     4   4   4   4
#     4  11  24  42  69  98 134 180 232 288 348 412
#     4  11  25  44  68  98 136 184 231 285 346 412
#     4  11  23  44  70 102 138 180 233 291 348 412
#     4  11  24  44  69 100 140 182 232 288 346 414
#
# _framework density 25.783517
#
# number of rings (size 3 to 8) (size 9 to 14) (size 15 to 20)
#    0.000    1.000    0.000    7.500    0.000    8.000 
#    0.000    0.000    0.000    0.000    0.000    0.000 
#    0.000    0.000    0.000    0.000    0.000    0.000 
#
# Total GULP energy -89868.761454 kJ/mol
# GULP energy per Si atom -5616.797591 kJ/mol
# Density = 2.572483 g / cm^3
# Si number density = 25.783517 Si / 1000 Ang^3
#
#
#
# Elastic Constant Matrix: (Units=GPa)
#
#
# Indices 1 2 3 4 5 6 
#
# 1 152.4963 29.3172 55.5862 0.0000 0.0000 0.0000
# 2 29.3172 29.3776 11.0329 0.0000 0.0000 0.0000
# 3 55.5862 11.0329 126.4022 0.0000 0.0000 0.0000
# 4 0.0000 0.0000 0.0000 37.4851 0.0000 0.0000
# 5 0.0000 0.0000 0.0000 0.0000 57.9319 0.0000
# 6 0.0000 0.0000 0.0000 0.0000 0.0000 45.8182
#
#
#
# Elastic Compliance Matrix: (Units=1/GPa)
#
#
# Indices 1 2 3 4 5 6 
#
# 1 0.009347 -0.008048 -0.003408 0.000000 0.000000 0.000000
# 2 -0.008048 0.042123 -0.000138 0.000000 0.000000 0.000000
# 3 -0.003408 -0.000138 0.009422 0.000000 0.000000 0.000000
# 4 0.000000 0.000000 0.000000 0.026677 0.000000 0.000000
# 5 0.000000 0.000000 0.000000 0.000000 0.017262 0.000000
# 6 0.000000 0.000000 0.000000 0.000000 0.000000 0.021825
#
#
# Mechanical properties :
#
#
# Convention : Reuss Voigt Hill
#
# Bulk Modulus (GPa) = 26.52187 55.57210 41.04698
# Shear Modulus (GPa) = 30.78616 42.40303 36.59460
#
# Velocity S-wave (km/s) = 3.45922 4.05974 3.77145
# Velocity P-wave (km/s) = 5.12480 6.60117 5.90927
#
# Compressibility (1/GPa) = 0.03770473
#
# Stress axis : x y z
#
# Youngs Moduli (GPa) = 106.98672 23.74026 106.13551
#
# Poissons Ratio (x) = 0.19106 0.36170
# Poissons Ratio (y) = 0.86102 0.01460
# Poissons Ratio (z) = 0.36460 0.00327
#
# Static dielectric constant tensor:
#      x y z
#    x 1.993120 0.000000 0.000000 
#    y 0.000000 2.028660 0.000000 
#    z 0.000000 0.000000 2.024620 
# 
# From -- ./inp_files/1028.got.cif
#   From: 2010.05.17/outbox.cif.g08.bks.cpg/sg29_1_cif.got.tgz:1028.got - 2010.06.04 01:19:37.
