data_PCOD9341419
_publ_section_title
;
Structure prediction by ZEFSAII (Michael W. Deem and Ramdas Pophale) SiO2 
 PCOD9341419
Probable space group: P C A 21
;
_chemical_formula_sum "Si O2"
_cell_formula_units_Z 32
_cell_length_a 9.768347
_cell_length_b 9.026129
_cell_length_c 18.552525
_cell_angle_alpha 90.000000
_cell_angle_beta 90.000000
_cell_angle_gamma 90.000000
_cell_volume 1635.782811
_symmetry_space_group_name_H-M "P C A 21"
_symmetry_group_IT_number 29
_symmetry_cell_setting 'orthorhombic'
loop_
_space_group_symop_operation_xyz
x,y,z
-x,-y,1/2+z
1/2-x,y,1/2+z
1/2+x,-y,z
loop_
_atom_site_type_symbol
_atom_site_label
_atom_site_fract_x
_atom_site_fract_y
_atom_site_fract_z
Si Si1 0.517805 0.690366 0.947100
Si Si2 0.408248 0.834119 0.085361
Si Si3 0.857114 0.343404 0.570582
Si Si4 0.017805 0.690366 0.276080
Si Si5 0.357114 0.343405 0.652598
Si Si6 0.408248 0.165881 0.137819
Si Si7 0.263487 0.503762 0.276337
Si Si8 0.736513 0.503762 0.446843
O O1 0.500000 0.723960 0.861590
O O2 0.419828 0.545219 0.962598
O O3 0.675931 0.651216 0.965099
O O4 0.461740 0.810372 0.003294
O O5 0.252949 0.780244 0.092115
O O6 0.496277 0.718974 0.132696
O O7 0.426957 1.000000 0.111590
O O8 0.832909 0.500000 0.611590
O O9 0.822798 0.377728 0.487786
O O10 0.003723 0.281026 0.590484
O O11 0.175931 0.651216 0.258081
O O12 0.961740 0.810372 0.219886
O O13 0.919828 0.545219 0.260582
O O14 0.247051 0.219756 0.631064
O O15 0.322798 0.377728 0.735394
O O16 0.250000 0.500000 0.361590
#
# Coordination Sequence:
#
# PCOD9341419 Si02
#       8
#     4   4   4   4   4   4   4   4
#     4   9  18  34  57  81 113 143 182 232 284 336
#     4  11  23  37  57  84 119 150 185 233 285 336
#     4  11  21  36  61  84 111 148 193 234 276 332
#     4   9  18  34  57  81 113 143 182 232 284 336
#     4  11  21  36  61  84 111 148 193 234 276 332
#     4  11  23  37  57  84 119 150 185 233 285 336
#     4   9  18  32  55  85 110 138 183 237 281 325
#     4   9  18  32  55  85 110 138 183 237 281 325
#
# _framework density 19.562498000000001
#
# number of rings (size 3 to 8) (size 9 to 14) (size 15 to 20)
#    0.000    2.000    2.500    1.500    3.500    0.000 
#    0.000    0.000    5.500    6.000    0.000    0.000 
#    0.000    0.000    0.000    0.000    0.000    0.000 
#
# Total GULP energy -178137.924626 kJ/mol
# GULP energy per Si atom -5566.810145 kJ/mol
# Density = 1.951797 g / cm^3
# Si number density = 19.562498 Si / 1000 Ang^3
#
#
#
# Elastic Constant Matrix: (Units=GPa)
#
#
# Indices 1 2 3 4 5 6 
#
# 1 53.4815 11.0984 8.8125 0.0000 0.0000 0.0000
# 2 11.0984 90.3954 40.4778 0.0000 0.0000 0.0000
# 3 8.8125 40.4778 95.3434 0.0000 0.0000 0.0000
# 4 0.0000 0.0000 0.0000 27.6161 0.0000 0.0000
# 5 0.0000 0.0000 0.0000 0.0000 22.3153 0.0000
# 6 0.0000 0.0000 0.0000 0.0000 0.0000 22.9901
#
#
#
# Elastic Compliance Matrix: (Units=1/GPa)
#
#
# Indices 1 2 3 4 5 6 
#
# 1 0.019258 -0.001935 -0.000958 0.000000 0.000000 0.000000
# 2 -0.001935 0.013854 -0.005703 0.000000 0.000000 0.000000
# 3 -0.000958 -0.005703 0.012998 0.000000 0.000000 0.000000
# 4 0.000000 0.000000 0.000000 0.036211 0.000000 0.000000
# 5 0.000000 0.000000 0.000000 0.000000 0.044812 0.000000
# 6 0.000000 0.000000 0.000000 0.000000 0.000000 0.043497
#
#
# Mechanical properties :
#
#
# Convention : Reuss Voigt Hill
#
# Bulk Modulus (GPa) = 34.58203 39.99975 37.29089
# Shear Modulus (GPa) = 25.32147 26.50639 25.91393
#
# Velocity S-wave (km/s) = 3.60166 3.68497 3.64356
# Velocity P-wave (km/s) = 5.91710 6.21264 6.06667
#
# Compressibility (1/GPa) = 0.02891675
#
# Stress axis : x y z
#
# Youngs Moduli (GPa) = 51.92765 72.18293 76.93466
#
# Poissons Ratio (x) = 0.13969 0.07373
# Poissons Ratio (y) = 0.10049 0.43873
# Poissons Ratio (z) = 0.04977 0.41164
#
# Static dielectric constant tensor:
#      x y z
#    x 2.840220 0.000000 0.000000 
#    y 0.000000 1.651640 0.000000 
#    z 0.000000 0.000000 1.734300 
# 
# From -- ./inp_files/5405.got.cif
#   From: 2010.05.17/outbox.cif.g08.bks.cpg/sg29_3_cif.got.tgz:5405.got - 2010.06.04 01:19:37.
