data_PCOD9342620
_publ_section_title
;
Structure prediction by ZEFSAII (Michael W. Deem and Ramdas Pophale) SiO2 
 PCOD9342620
Probable space group: P N C 2
;
_chemical_formula_sum "Si O2"
_cell_formula_units_Z 32
_cell_length_a 8.079317
_cell_length_b 27.331013
_cell_length_c 5.348340
_cell_angle_alpha 90.000000
_cell_angle_beta 90.000000
_cell_angle_gamma 90.000000
_cell_volume 1180.998607
_symmetry_space_group_name_H-M "P N C 2"
_symmetry_group_IT_number 30
_symmetry_cell_setting 'orthorhombic'
loop_
_space_group_symop_operation_xyz
x,y,z
-x,-y,z
-x,1/2+y,1/2+z
x,1/2-y,1/2+z
loop_
_atom_site_type_symbol
_atom_site_label
_atom_site_fract_x
_atom_site_fract_y
_atom_site_fract_z
Si Si1 0.036198 0.446933 0.639420
Si Si2 0.292958 0.591725 0.853356
Si Si3 0.748127 0.216762 0.874586
Si Si4 0.268623 0.099710 0.473194
Si Si5 0.523817 0.057710 0.844320
Si Si6 0.066820 0.149426 0.817295
Si Si7 0.517402 0.323818 0.726033
Si Si8 0.737156 0.736495 0.353675
O O1 0.204803 0.444319 0.801302
O O2 0.041363 0.401669 0.453677
O O3 0.000000 0.500000 0.526700
O O4 0.881733 0.433385 0.812607
O O5 0.354902 0.572286 0.118282
O O6 0.316307 0.651176 0.848602
O O7 0.400233 0.575281 0.607511
O O8 0.747305 0.248445 0.621599
O O9 0.582180 0.184797 0.941476
O O10 0.906784 0.182025 0.863726
O O11 0.355360 0.080857 0.727162
O O12 0.110972 0.133186 0.538032
O O13 0.390546 0.136028 0.330201
O O14 0.500000 0.000000 0.859607
O O15 0.231982 0.179226 0.905506
O O16 0.422493 0.272603 0.804014
O O17 0.825928 0.759730 0.588761
#
# Coordination Sequence:
#
# PCOD9342620 Si02
#       8
#     4   4   4   4   4   4   4   4
#     4  12  29  52  83 118 169 222 288 353 434 503
#     4  11  27  48  78 117 163 216 268 350 422 503
#     4  12  29  49  79 120 167 225 272 343 425 509
#     4  11  28  48  84 116 158 224 280 353 419 506
#     4  11  26  49  80 114 159 208 285 345 422 492
#     4  12  28  48  79 118 167 216 284 346 423 512
#     4  11  25  52  77 120 164 216 278 344 419 509
#     4  12  25  44  76 113 157 208 268 333 404 499
#
# _framework density 27.095711000000001
#
# number of rings (size 3 to 8) (size 9 to 14) (size 15 to 20)
#    0.000    0.500    2.500    3.375   10.500    2.500 
#    0.000    0.000    0.000    0.000    0.000    0.000 
#    0.000    0.000    0.000    0.000    0.000    0.000 
#
# Total GULP energy -178804.865922 kJ/mol
# GULP energy per Si atom -5587.652060 kJ/mol
# Density = 2.703404 g / cm^3
# Si number density = 27.095711 Si / 1000 Ang^3
#
#
#
# Elastic Constant Matrix: (Units=GPa)
#
#
# Indices 1 2 3 4 5 6 
#
# 1 124.3870 60.6178 36.5203 0.0000 0.0000 0.0000
# 2 60.6178 188.6981 44.8654 0.0000 0.0000 0.0000
# 3 36.5203 44.8654 145.0619 0.0000 0.0000 0.0000
# 4 0.0000 0.0000 0.0000 44.4094 0.0000 0.0000
# 5 0.0000 0.0000 0.0000 0.0000 50.2309 0.0000
# 6 0.0000 0.0000 0.0000 0.0000 0.0000 34.0317
#
#
#
# Elastic Compliance Matrix: (Units=1/GPa)
#
#
# Indices 1 2 3 4 5 6 
#
# 1 0.009874 -0.002786 -0.001624 0.000000 0.000000 0.000000
# 2 -0.002786 0.006506 -0.001311 0.000000 0.000000 0.000000
# 3 -0.001624 -0.001311 0.007708 0.000000 0.000000 0.000000
# 4 0.000000 0.000000 0.000000 0.022518 0.000000 0.000000
# 5 0.000000 0.000000 0.000000 0.000000 0.019908 0.000000
# 6 0.000000 0.000000 0.000000 0.000000 0.000000 0.029384
#
#
# Mechanical properties :
#
#
# Convention : Reuss Voigt Hill
#
# Bulk Modulus (GPa) = 79.07527 82.46155 80.76841
# Shear Modulus (GPa) = 44.82087 46.81063 45.81575
#
# Velocity S-wave (km/s) = 4.07156 4.16095 4.11650
# Velocity P-wave (km/s) = 7.16593 7.32012 7.24344
#
# Compressibility (1/GPa) = 0.01264618
#
# Stress axis : x y z
#
# Youngs Moduli (GPa) = 101.27737 153.70319 129.73596
#
# Poissons Ratio (x) = 0.42817 0.21072
# Poissons Ratio (y) = 0.28213 0.17007
# Poissons Ratio (z) = 0.16450 0.20149
#
# Static dielectric constant tensor:
#      x y z
#    x 2.285900 0.000000 0.000000 
#    y 0.000000 2.173840 0.000000 
#    z 0.000000 0.000000 2.153540 
# 
# From -- ./inp_files/576.got.cif
#   From: 2010.05.17/outbox.cif.g08.bks.cpg/sg30_1_cif.got.tgz:576.got - 2010.06.03 17:03:02.
