data_PCOD9342919
_publ_section_title
;
Structure prediction by ZEFSAII (Michael W. Deem and Ramdas Pophale) SiO2 
 PCOD9342919
Probable space group: P M N 21
;
_chemical_formula_sum "Si O2"
_cell_formula_units_Z 24
_cell_length_a 8.195976
_cell_length_b 7.880816
_cell_length_c 14.196718
_cell_angle_alpha 90.000000
_cell_angle_beta 90.000000
_cell_angle_gamma 90.000000
_cell_volume 916.979911
_symmetry_space_group_name_H-M "P M N 21"
_symmetry_group_IT_number 31
_symmetry_cell_setting 'orthorhombic'
loop_
_space_group_symop_operation_xyz
x,y,z
1/2-x,-y,1/2+z
-x,y,z
1/2+x,-y,1/2+z
loop_
_atom_site_type_symbol
_atom_site_label
_atom_site_fract_x
_atom_site_fract_y
_atom_site_fract_z
Si Si1 0.309110 0.427048 0.586130
Si Si2 0.314411 0.689704 0.805577
Si Si3 0.190156 0.375765 0.916669
Si Si4 0.806033 0.806844 0.244344
Si Si5 0.187499 0.915816 0.959645
Si Si6 0.310761 0.126494 0.130581
O O1 0.500000 0.469797 0.595405
O O2 0.234199 0.568829 0.517414
O O3 0.250698 0.362019 0.686751
O O4 0.301885 0.251272 0.526449
O O5 0.500000 0.628646 0.812694
O O6 0.203324 0.549938 0.855727
O O7 0.274266 0.734184 0.697591
O O8 0.294492 0.859289 0.870022
O O9 0.273834 0.234231 0.852785
O O10 0.000000 0.334929 0.927192
O O11 0.709350 0.959553 0.197238
O O12 0.000000 0.833403 0.227967
O O13 0.234153 0.067317 0.031164
O O14 0.000000 0.934479 0.928738
O O15 0.500000 0.164077 0.119137
#
# Coordination Sequence:
#
# PCOD9342919 Si02
#       6
#     4   4   4   4   4   4
#     4   7  14  29  50  71  98 133 168 204 252 308
#     4  11  21  35  55  80 107 140 179 221 264 313
#     4  10  19  34  54  78 105 137 175 218 263 312
#     4  10  19  34  54  78 105 137 175 218 263 312
#     4   9  17  33  54  77 104 137 174 216 262 316
#     4  11  21  35  55  80 107 140 179 221 264 313
#
# _framework density 26.172875999999999
#
# number of rings (size 3 to 8) (size 9 to 14) (size 15 to 20)
#    0.000    2.333    0.000    6.500    0.000    0.000 
#    0.000    4.167    0.000    2.000    0.000    0.000 
#    0.000    0.000    0.000    0.000    0.000    0.000 
#
# Total GULP energy -134337.084090 kJ/mol
# GULP energy per Si atom -5597.378504 kJ/mol
# Density = 2.611330 g / cm^3
# Si number density = 26.172876 Si / 1000 Ang^3
#
#
#
# Elastic Constant Matrix: (Units=GPa)
#
#
# Indices 1 2 3 4 5 6 
#
# 1 92.9791 -5.8966 8.7646 0.0000 0.0000 0.0000
# 2 -5.8966 96.1975 4.7505 0.0000 0.0000 0.0000
# 3 8.7646 4.7505 174.8064 0.0000 0.0000 0.0000
# 4 0.0000 0.0000 0.0000 59.1052 0.0000 0.0000
# 5 0.0000 0.0000 0.0000 0.0000 31.8060 0.0000
# 6 0.0000 0.0000 0.0000 0.0000 0.0000 28.5241
#
#
#
# Elastic Compliance Matrix: (Units=1/GPa)
#
#
# Indices 1 2 3 4 5 6 
#
# 1 0.010852 0.000693 -0.000563 0.000000 0.000000 0.000000
# 2 0.000693 0.010454 -0.000319 0.000000 0.000000 0.000000
# 3 -0.000563 -0.000319 0.005758 0.000000 0.000000 0.000000
# 4 0.000000 0.000000 0.000000 0.016919 0.000000 0.000000
# 5 0.000000 0.000000 0.000000 0.000000 0.031441 0.000000
# 6 0.000000 0.000000 0.000000 0.000000 0.000000 0.035058
#
#
# Mechanical properties :
#
#
# Convention : Reuss Voigt Hill
#
# Bulk Modulus (GPa) = 37.47344 42.13557 39.80451
# Shear Modulus (GPa) = 41.75241 47.64469 44.69855
#
# Velocity S-wave (km/s) = 3.99840 4.27122 4.13706
# Velocity P-wave (km/s) = 5.97202 6.36069 6.16942
#
# Compressibility (1/GPa) = 0.02668557
#
# Stress axis : x y z
#
# Youngs Moduli (GPa) = 92.14789 95.66174 173.68637
#
# Poissons Ratio (x) = -0.06629 0.09778
# Poissons Ratio (y) = -0.06386 0.05538
# Poissons Ratio (z) = 0.05187 0.03050
#
# Static dielectric constant tensor:
#      x y z
#    x 1.869490 0.000000 0.000000 
#    y 0.000000 2.222030 0.000000 
#    z 0.000000 0.000000 2.091560 
# 
# From -- ./inp_files/5704.got.cif
#   From: 2010.05.17/outbox.cif.g08.bks.cpg/sg31_3_cif.got.tgz:5704.got - 2010.06.03 17:08:30.
