data_PCOD9342915
_publ_section_title
;
Structure prediction by ZEFSAII (Michael W. Deem and Ramdas Pophale) SiO2 
 PCOD9342915
Probable space group: P M N 21
;
_chemical_formula_sum "Si O2"
_cell_formula_units_Z 32
_cell_length_a 8.820350
_cell_length_b 10.745906
_cell_length_c 14.058354
_cell_angle_alpha 90.000000
_cell_angle_beta 90.000000
_cell_angle_gamma 90.000000
_cell_volume 1332.488075
_symmetry_space_group_name_H-M "P M N 21"
_symmetry_group_IT_number 31
_symmetry_cell_setting 'orthorhombic'
loop_
_space_group_symop_operation_xyz
x,y,z
1/2-x,-y,1/2+z
-x,y,z
1/2+x,-y,1/2+z
loop_
_atom_site_type_symbol
_atom_site_label
_atom_site_fract_x
_atom_site_fract_y
_atom_site_fract_z
Si Si1 0.828606 0.182476 0.903470
Si Si2 0.172396 0.442134 0.787713
Si Si3 0.822624 0.965524 0.132299
Si Si4 0.677668 0.181794 0.254562
Si Si5 0.676182 0.940441 0.926495
Si Si6 0.327016 0.569933 0.956066
Si Si7 0.174658 0.687959 0.122873
Si Si8 0.675722 0.311892 0.071903
O O1 0.822422 0.309607 0.843724
O O2 0.000000 0.133217 0.896509
O O3 0.710924 0.074618 0.877535
O O4 0.786908 0.226448 0.010199
O O5 0.224047 0.542660 0.865061
O O6 0.279596 0.416138 0.698814
O O7 0.000000 0.464314 0.755493
O O8 0.803179 0.823812 0.167689
O O9 0.000000 0.000272 0.141530
O O10 0.718853 0.063262 0.187577
O O11 0.775234 0.951430 0.021875
O O12 0.500000 0.182619 0.278257
O O13 0.772098 0.162529 0.350345
O O14 0.710781 0.296847 0.183373
O O15 0.500000 0.928038 0.949461
O O16 0.500000 0.585263 0.925964
O O17 0.274323 0.675210 0.028422
O O18 0.317423 0.446210 0.022999
O O19 0.000000 0.674342 0.095217
O O20 0.500000 0.268558 0.060591
#
# Coordination Sequence:
#
# PCOD9342915 Si02
#       8
#     4   4   4   4   4   4   4   4
#     4  10  19  33  58  87 118 154 198 249 296 351
#     4  10  21  38  63  94 122 159 207 254 303 362
#     4  11  24  42  63  90 125 164 206 254 307 363
#     4  11  22  38  61  90 123 160 201 246 304 368
#     4  12  24  37  56  86 124 165 205 246 301 365
#     4  10  21  40  65  91 121 158 202 254 307 363
#     4  11  24  42  63  90 124 164 207 255 307 364
#     4   9  19  36  59  86 115 150 192 244 301 354
#
# _framework density 24.015225000000001
#
# number of rings (size 3 to 8) (size 9 to 14) (size 15 to 20)
#    0.000    1.500    1.250    4.125    0.000    6.500 
#    2.250    0.000    0.000    0.000    0.000    0.000 
#    0.000    0.000    0.000    0.000    0.000    0.000 
#
# Total GULP energy -179144.554709 kJ/mol
# GULP energy per Si atom -5598.267335 kJ/mol
# Density = 2.396057 g / cm^3
# Si number density = 24.015225 Si / 1000 Ang^3
#
#
#
# Elastic Constant Matrix: (Units=GPa)
#
#
# Indices 1 2 3 4 5 6 
#
# 1 56.2675 10.8907 -2.9056 0.0000 0.0000 0.0000
# 2 10.8907 60.6366 -5.4486 0.0000 0.0000 0.0000
# 3 -2.9056 -5.4486 83.7974 0.0000 0.0000 0.0000
# 4 0.0000 0.0000 0.0000 45.9681 0.0000 0.0000
# 5 0.0000 0.0000 0.0000 0.0000 27.4662 0.0000
# 6 0.0000 0.0000 0.0000 0.0000 0.0000 26.2261
#
#
#
# Elastic Compliance Matrix: (Units=1/GPa)
#
#
# Indices 1 2 3 4 5 6 
#
# 1 0.018427 -0.003271 0.000426 0.000000 0.000000 0.000000
# 2 -0.003271 0.017169 0.001003 0.000000 0.000000 0.000000
# 3 0.000426 0.001003 0.012014 0.000000 0.000000 0.000000
# 4 0.000000 0.000000 0.000000 0.021754 0.000000 0.000000
# 5 0.000000 0.000000 0.000000 0.000000 0.036408 0.000000
# 6 0.000000 0.000000 0.000000 0.000000 0.000000 0.038130
#
#
# Mechanical properties :
#
#
# Convention : Reuss Voigt Hill
#
# Bulk Modulus (GPa) = 22.76558 22.86383 22.81470
# Shear Modulus (GPa) = 30.82057 33.14307 31.98182
#
# Velocity S-wave (km/s) = 3.58631 3.71898 3.65325
# Velocity P-wave (km/s) = 5.16227 5.28983 5.22644
#
# Compressibility (1/GPa) = 0.04392597
#
# Stress axis : x y z
#
# Youngs Moduli (GPa) = 54.26689 58.24330 83.23947
#
# Poissons Ratio (x) = 0.19054 -0.03548
# Poissons Ratio (y) = 0.17753 -0.08348
# Poissons Ratio (z) = -0.02313 -0.05841
#
# Static dielectric constant tensor:
#      x y z
#    x 1.800160 0.000000 0.000000 
#    y 0.000000 2.012160 0.000000 
#    z 0.000000 0.000000 1.915840 
# 
# From -- ./inp_files/5000.got.cif
#   From: 2010.05.17/outbox.cif.g08.bks.cpg/sg31_3_cif.got.tgz:5000.got - 2010.06.03 17:08:30.
