data_PCOD9342841
_publ_section_title
;
Structure prediction by ZEFSAII (Michael W. Deem and Ramdas Pophale) SiO2 
 PCOD9342841
Probable space group: P M N 21
;
_chemical_formula_sum "Si O2"
_cell_formula_units_Z 24
_cell_length_a 16.417253
_cell_length_b 9.226044
_cell_length_c 8.807580
_cell_angle_alpha 90.000000
_cell_angle_beta 90.000000
_cell_angle_gamma 90.000000
_cell_volume 1334.051542
_symmetry_space_group_name_H-M "P M N 21"
_symmetry_group_IT_number 31
_symmetry_cell_setting 'orthorhombic'
loop_
_space_group_symop_operation_xyz
x,y,z
1/2-x,-y,1/2+z
-x,y,z
1/2+x,-y,1/2+z
loop_
_atom_site_type_symbol
_atom_site_label
_atom_site_fract_x
_atom_site_fract_y
_atom_site_fract_z
Si Si1 0.738387 0.840089 0.371350
Si Si2 0.755926 0.843052 0.007860
Si Si3 0.591336 0.680644 0.515278
Si Si4 0.590538 0.836883 0.840062
Si Si5 0.412286 0.184849 0.860807
Si Si6 0.410579 0.335651 0.533247
O O1 0.663175 0.739272 0.411429
O O2 0.825391 0.783618 0.437175
O O3 0.724756 0.998106 0.442467
O O4 0.748592 0.850726 0.189997
O O5 0.668422 0.796996 0.940852
O O6 0.830878 0.739067 0.963699
O O7 0.500000 0.713085 0.456593
O O8 0.598700 0.760941 0.677317
O O9 0.597808 0.508296 0.535195
O O10 0.500000 0.799014 0.900996
O O11 0.591652 0.012268 0.824237
O O12 0.500000 0.210438 0.939063
O O13 0.413355 0.274942 0.705200
O O14 0.500000 0.299347 0.465027
#
# Coordination Sequence:
#
# PCOD9342841 Si02
#       6
#     4   4   4   4   4   4
#     4  10  19  32  50  77 104 132 168 208 252 296
#     4  10  20  33  53  77 103 133 168 211 254 302
#     4  10  20  33  51  74 101 134 171 208 250 303
#     4   9  18  34  55  77 101 131 167 209 256 306
#     4   8  15  30  51  72  95 125 162 202 246 297
#     4   9  18  32  50  73 100 133 170 206 250 304
#
# _framework density 17.990311999999999
#
# number of rings (size 3 to 8) (size 9 to 14) (size 15 to 20)
#    0.000    2.667    0.000    3.000    0.000    5.333 
#    0.000    0.000    0.000    3.000    0.000   11.667 
#    0.000    0.000    0.000    0.000    0.000    0.000 
#
# Total GULP energy -133617.642570 kJ/mol
# GULP energy per Si atom -5567.401774 kJ/mol
# Density = 1.794936 g / cm^3
# Si number density = 17.990312 Si / 1000 Ang^3
#
#
#
# Elastic Constant Matrix: (Units=GPa)
#
#
# Indices 1 2 3 4 5 6 
#
# 1 196.1002 66.2466 42.7974 0.0000 0.0000 0.0000
# 2 66.2466 45.1020 17.3283 0.0000 0.0000 0.0000
# 3 42.7974 17.3283 35.0049 0.0000 0.0000 0.0000
# 4 0.0000 0.0000 0.0000 8.7160 0.0000 0.0000
# 5 0.0000 0.0000 0.0000 0.0000 27.8602 0.0000
# 6 0.0000 0.0000 0.0000 0.0000 0.0000 21.6458
#
#
#
# Elastic Compliance Matrix: (Units=1/GPa)
#
#
# Indices 1 2 3 4 5 6 
#
# 1 0.011340 -0.013991 -0.006939 0.000000 0.000000 0.000000
# 2 -0.013991 0.044640 -0.004993 0.000000 0.000000 0.000000
# 3 -0.006939 -0.004993 0.039523 0.000000 0.000000 0.000000
# 4 0.000000 0.000000 0.000000 0.114732 0.000000 0.000000
# 5 0.000000 0.000000 0.000000 0.000000 0.035893 0.000000
# 6 0.000000 0.000000 0.000000 0.000000 0.000000 0.046198
#
#
# Mechanical properties :
#
#
# Convention : Reuss Voigt Hill
#
# Bulk Modulus (GPa) = 22.90534 58.77241 40.83887
# Shear Modulus (GPa) = 13.93834 21.63340 17.78587
#
# Velocity S-wave (km/s) = 2.78649 3.47147 3.14767
# Velocity P-wave (km/s) = 4.80753 6.98627 5.99668
#
# Compressibility (1/GPa) = 0.04365795
#
# Stress axis : x y z
#
# Youngs Moduli (GPa) = 88.18287 22.40153 25.30203
#
# Poissons Ratio (x) = 0.31341 0.17557
# Poissons Ratio (y) = 1.23373 0.12633
# Poissons Ratio (z) = 0.61188 0.11185
#
# Static dielectric constant tensor:
#      x y z
#    x 1.702820 0.000000 0.000000 
#    y 0.000000 1.591850 0.000000 
#    z 0.000000 0.000000 1.591500 
# 
# From -- ./inp_files/2769.got.cif
#   From: 2010.05.17/outbox.cif.g08.bks.cpg/sg31_2_cif.got.tgz:2769.got - 2010.06.03 17:08:30.
