data_PCOD9342554
_publ_section_title
;
Structure prediction by ZEFSAII (Michael W. Deem and Ramdas Pophale) SiO2 
 PCOD9342554
Probable space group: P N C 2
;
_chemical_formula_sum "Si O2"
_cell_formula_units_Z 32
_cell_length_a 13.777238
_cell_length_b 11.733095
_cell_length_c 8.771173
_cell_angle_alpha 90.000000
_cell_angle_beta 90.000000
_cell_angle_gamma 90.000000
_cell_volume 1417.856978
_symmetry_space_group_name_H-M "P N C 2"
_symmetry_group_IT_number 30
_symmetry_cell_setting 'orthorhombic'
loop_
_space_group_symop_operation_xyz
x,y,z
-x,-y,z
-x,1/2+y,1/2+z
x,1/2-y,1/2+z
loop_
_atom_site_type_symbol
_atom_site_label
_atom_site_fract_x
_atom_site_fract_y
_atom_site_fract_z
Si Si1 0.834104 0.010703 0.054790
Si Si2 0.261291 0.300536 0.417695
Si Si3 0.913668 0.135159 0.493065
Si Si4 0.166610 0.814576 0.794798
Si Si5 0.602975 0.807619 0.665059
Si Si6 0.667715 0.181707 0.162243
Si Si7 0.465372 0.808128 0.420987
Si Si8 0.118492 0.406461 0.869990
O O1 0.739643 0.084220 0.103724
O O2 0.814174 0.888285 0.984045
O O3 0.886955 0.978367 0.212599
O O4 0.866775 0.088143 0.912515
O O5 0.338968 0.277433 0.552296
O O6 0.313178 0.358453 0.271682
O O7 0.206815 0.182642 0.373652
O O8 0.910542 0.186932 0.659611
O O9 0.836163 0.201348 0.393825
O O10 0.016292 0.150951 0.410591
O O11 0.879132 0.004638 0.498964
O O12 0.271897 0.796384 0.713601
O O13 0.533771 0.871156 0.544275
O O14 0.534823 0.750083 0.793467
O O15 0.611608 0.133055 0.310067
O O16 0.594452 0.218867 0.026968
#
# Coordination Sequence:
#
# PCOD9342554 Si02
#       8
#     4   4   4   4   4   4   4   4
#     4  12  25  43  75 104 137 194 236 288 359 429
#     4  11  23  44  69  98 143 190 237 277 355 429
#     4  11  25  45  70 106 144 174 244 292 358 420
#     4  12  23  44  73 108 140 181 231 303 353 424
#     4   9  20  40  66  95 137 188 232 292 334 429
#     4  11  19  40  70 104 134 182 228 294 356 414
#     4   9  19  37  70  95 140 181 230 296 350 405
#     4  11  26  47  70 101 142 191 230 295 350 433
#
# _framework density 22.569271000000001
#
# number of rings (size 3 to 8) (size 9 to 14) (size 15 to 20)
#    0.000    1.250    5.000    0.000    3.500    0.000 
#    2.250    5.625    5.500    0.000    0.000    0.000 
#    0.000    0.000    0.000    0.000    0.000    0.000 
#
# Total GULP energy -178171.650288 kJ/mol
# GULP energy per Si atom -5567.864071 kJ/mol
# Density = 2.251790 g / cm^3
# Si number density = 22.569271 Si / 1000 Ang^3
#
#
#
# Elastic Constant Matrix: (Units=GPa)
#
#
# Indices 1 2 3 4 5 6 
#
# 1 72.5576 9.9316 43.4913 0.0000 0.0000 0.0000
# 2 9.9316 45.1136 12.2247 0.0000 0.0000 0.0000
# 3 43.4913 12.2247 143.2799 0.0000 0.0000 0.0000
# 4 0.0000 0.0000 0.0000 30.4634 0.0000 0.0000
# 5 0.0000 0.0000 0.0000 0.0000 38.1313 0.0000
# 6 0.0000 0.0000 0.0000 0.0000 0.0000 -37.2198
#
#
#
# Elastic Compliance Matrix: (Units=1/GPa)
#
#
# Indices 1 2 3 4 5 6 
#
# 1 0.017100 -0.002414 -0.004985 0.000000 0.000000 0.000000
# 2 -0.002414 0.023032 -0.001232 0.000000 0.000000 0.000000
# 3 -0.004985 -0.001232 0.008598 0.000000 0.000000 0.000000
# 4 0.000000 0.000000 0.000000 0.032826 0.000000 0.000000
# 5 0.000000 0.000000 0.000000 0.000000 0.026225 0.000000
# 6 0.000000 0.000000 0.000000 0.000000 0.000000 -0.026867
#
#
# Mechanical properties :
#
#
# Convention : Reuss Voigt Hill
#
# Bulk Modulus (GPa) = 31.77859 43.58291 37.68075
# Shear Modulus (GPa) = 46.01301 19.29518 32.65409
#
# Velocity S-wave (km/s) = 4.52015 2.92709 3.80786
# Velocity P-wave (km/s) = 6.43066 5.54766 6.00541
#
# Compressibility (1/GPa) = 0.03146773
#
# Stress axis : x y z
#
# Youngs Moduli (GPa) = 58.47803 43.41855 116.31201
#
# Poissons Ratio (x) = 0.10481 0.57978
# Poissons Ratio (y) = 0.14116 0.14334
# Poissons Ratio (z) = 0.29150 0.05351
#
# Static dielectric constant tensor:
#      x y z
#    x 1.927090 0.000000 0.000000 
#    y 0.000000 1.768750 0.000000 
#    z 0.000000 0.000000 1.902890 
# 
# From -- ./inp_files/2704.got.cif
#   From: 2010.05.17/outbox.cif.g08.bks.cpg/sg30_2_cif.got.tgz:2704.got - 2010.06.03 17:03:02.
