data_PCOD9342035
_publ_section_title
;
Structure prediction by ZEFSAII (Michael W. Deem and Ramdas Pophale) SiO2 
 PCOD9342035
Probable space group: P N C 2
;
_chemical_formula_sum "Si O2"
_cell_formula_units_Z 30
_cell_length_a 17.860060
_cell_length_b 5.315398
_cell_length_c 13.485997
_cell_angle_alpha 90.000000
_cell_angle_beta 90.000000
_cell_angle_gamma 90.000000
_cell_volume 1280.270566
_symmetry_space_group_name_H-M "P N C 2"
_symmetry_group_IT_number 30
_symmetry_cell_setting 'orthorhombic'
loop_
_space_group_symop_operation_xyz
x,y,z
-x,-y,z
-x,1/2+y,1/2+z
x,1/2-y,1/2+z
loop_
_atom_site_type_symbol
_atom_site_label
_atom_site_fract_x
_atom_site_fract_y
_atom_site_fract_z
Si Si1 0.282387 0.302257 0.026410
Si Si2 0.044524 0.739819 0.165103
Si Si3 0.929807 0.353867 0.397115
Si Si4 0.200865 0.942208 0.178490
Si Si5 0.427692 0.097709 0.037209
Si Si6 0.845671 0.638303 0.885943
Si Si7 0.650313 0.305959 0.181792
Si Si8 0.500000 0.500000 0.189658
O O1 0.359002 0.206606 0.975692
O O2 0.313895 0.479603 0.112797
O O3 0.233333 0.099699 0.087074
O O4 0.229782 0.420131 0.944797
O O5 0.048687 0.693074 0.282925
O O6 0.132444 0.771326 0.138440
O O7 0.000000 0.500000 0.122790
O O8 0.000000 0.000000 0.150929
O O9 0.867340 0.571173 0.401705
O O10 0.000000 0.500000 0.444581
O O11 0.903780 0.073514 0.425088
O O12 0.274186 0.810233 0.227388
O O13 0.164799 0.102493 0.267774
O O14 0.464780 0.291377 0.115566
O O15 0.500000 0.000000 0.979243
O O16 0.386054 0.892791 0.105338
O O17 0.576144 0.396826 0.241269
#
# Coordination Sequence:
#
# PCOD9342035 Si02
#       8
#     4   4   4   4   4   4   4   2
#     4  10  22  36  59  95 125 160 208 264 306 375
#     4  10  20  36  62  89 118 163 215 259 309 376
#     4  10  20  39  63  88 117 166 208 260 312 374
#     4  10  22  37  61  91 124 170 205 260 319 368
#     4   8  15  31  55  88 115 158 202 244 308 373
#     4  11  24  38  64  93 124 164 213 258 314 373
#     4   9  18  32  58  87 121 155 205 256 302 381
#     4   8  14  30  54  90 110 154 204 246 308 374
#
# _framework density 23.432548000000001
#
# number of rings (size 3 to 8) (size 9 to 14) (size 15 to 20)
#    0.000    2.400    0.000    3.600    9.333    0.000 
#    0.000    0.667    2.933    0.000  138.667    0.000 
#    0.000    0.000    0.000    0.000    0.000    0.000 
#
# Total GULP energy -167146.636463 kJ/mol
# GULP energy per Si atom -5571.554549 kJ/mol
# Density = 2.337921 g / cm^3
# Si number density = 23.432548 Si / 1000 Ang^3
#
#
#
# Elastic Constant Matrix: (Units=GPa)
#
#
# Indices 1 2 3 4 5 6 
#
# 1 164.4603 51.7600 25.4241 0.0000 0.0000 0.0000
# 2 51.7600 103.0803 12.9181 0.0000 0.0000 0.0000
# 3 25.4241 12.9181 60.4799 0.0000 0.0000 0.0000
# 4 0.0000 0.0000 0.0000 -28.0400 0.0000 0.0000
# 5 0.0000 0.0000 0.0000 0.0000 17.8595 0.0000
# 6 0.0000 0.0000 0.0000 0.0000 0.0000 57.8130
#
#
#
# Elastic Compliance Matrix: (Units=1/GPa)
#
#
# Indices 1 2 3 4 5 6 
#
# 1 0.007554 -0.003489 -0.002430 0.000000 0.000000 0.000000
# 2 -0.003489 0.011579 -0.001007 0.000000 0.000000 0.000000
# 3 -0.002430 -0.001007 0.017771 0.000000 0.000000 0.000000
# 4 0.000000 0.000000 0.000000 -0.035663 0.000000 0.000000
# 5 0.000000 0.000000 0.000000 0.000000 0.055993 0.000000
# 6 0.000000 0.000000 0.000000 0.000000 0.000000 0.017297
#
#
# Mechanical properties :
#
#
# Convention : Reuss Voigt Hill
#
# Bulk Modulus (GPa) = 43.37849 56.46946 49.92397
# Shear Modulus (GPa) = 52.04727 25.38773 38.71750
#
# Velocity S-wave (km/s) = 4.71802 3.29513 4.06925
# Velocity P-wave (km/s) = 6.94492 6.21516 6.59015
#
# Compressibility (1/GPa) = 0.02305290
#
# Stress axis : x y z
#
# Youngs Moduli (GPa) = 132.37713 86.36266 56.27104
#
# Poissons Ratio (x) = 0.30129 0.13676
# Poissons Ratio (y) = 0.46181 0.05665
# Poissons Ratio (z) = 0.32173 0.08694
#
# Static dielectric constant tensor:
#      x y z
#    x 2.130910 0.000000 0.000000 
#    y 0.000000 2.047740 0.000000 
#    z 0.000000 0.000000 1.881460 
# 
# From -- ./inp_files/5658.got.cif
#   From: 2010.05.17/outbox.cif.g08.bks.cpg/sg30_3_cif.got.tgz:5658.got - 2010.06.03 17:03:02.
