data_PCOD9342523
_publ_section_title
;
Structure prediction by ZEFSAII (Michael W. Deem and Ramdas Pophale) SiO2 
 PCOD9342523
Probable space group: P N C 2
;
_chemical_formula_sum "Si O2"
_cell_formula_units_Z 10
_cell_length_a 4.755031
_cell_length_b 8.682272
_cell_length_c 11.287178
_cell_angle_alpha 90.000000
_cell_angle_beta 90.000000
_cell_angle_gamma 90.000000
_cell_volume 465.985190
_symmetry_space_group_name_H-M "P N C 2"
_symmetry_group_IT_number 30
_symmetry_cell_setting 'orthorhombic'
loop_
_space_group_symop_operation_xyz
x,y,z
-x,-y,z
-x,1/2+y,1/2+z
x,1/2-y,1/2+z
loop_
_atom_site_type_symbol
_atom_site_label
_atom_site_fract_x
_atom_site_fract_y
_atom_site_fract_z
Si Si1 0.155046 0.846501 0.057020
Si Si2 0.352284 0.348992 0.987333
Si Si3 0.500000 0.500000 0.762367
O O1 0.304996 0.894969 0.179550
O O2 0.412609 0.782911 0.981165
O O3 0.000000 0.000000 0.012390
O O4 0.916985 0.715081 0.054691
O O5 0.500000 0.500000 0.044362
O O6 0.303927 0.403435 0.852451
#
# Coordination Sequence:
#
# PCOD9342523 Si02
#       3
#     4   4   2
#     4  12  22  44  73 101 138 194 237 288 357 429
#     4  10  25  42  72 101 143 189 236 292 353 425
#     4  10  26  44  76 100 156 186 226 306 374 386
#
# _framework density 21.459909
#
# number of rings (size 3 to 8) (size 9 to 14) (size 15 to 20)
#    1.200    0.000    4.000    1.200    5.600    0.000 
#    0.000    8.000    0.000    0.000    0.000    0.000 
#    0.000    0.000    0.000    0.000    0.000    0.000 
#
# Total GULP energy -55734.674258 kJ/mol
# GULP energy per Si atom -5573.467426 kJ/mol
# Density = 2.141107 g / cm^3
# Si number density = 21.459909 Si / 1000 Ang^3
#
#
#
# Elastic Constant Matrix: (Units=GPa)
#
#
# Indices 1 2 3 4 5 6 
#
# 1 146.5897 56.0460 49.7196 0.0000 0.0000 0.0000
# 2 56.0460 94.4588 63.0852 0.0000 0.0000 0.0000
# 3 49.7196 63.0852 82.5532 0.0000 0.0000 0.0000
# 4 0.0000 0.0000 0.0000 40.7936 0.0000 0.0000
# 5 0.0000 0.0000 0.0000 0.0000 59.2991 0.0000
# 6 0.0000 0.0000 0.0000 0.0000 0.0000 69.1792
#
#
#
# Elastic Compliance Matrix: (Units=1/GPa)
#
#
# Indices 1 2 3 4 5 6 
#
# 1 0.009124 -0.003561 -0.002774 0.000000 0.000000 0.000000
# 2 -0.003561 0.023011 -0.015440 0.000000 0.000000 0.000000
# 3 -0.002774 -0.015440 0.025583 0.000000 0.000000 0.000000
# 4 0.000000 0.000000 0.000000 0.024514 0.000000 0.000000
# 5 0.000000 0.000000 0.000000 0.000000 0.016864 0.000000
# 6 0.000000 0.000000 0.000000 0.000000 0.000000 0.014455
#
#
# Mechanical properties :
#
#
# Convention : Reuss Voigt Hill
#
# Bulk Modulus (GPa) = 70.57953 73.47814 72.02884
# Shear Modulus (GPa) = 30.89789 44.17111 37.53450
#
# Velocity S-wave (km/s) = 3.79858 4.54178 4.18670
# Velocity P-wave (km/s) = 7.22491 7.86243 7.55040
#
# Compressibility (1/GPa) = 0.01416841
#
# Stress axis : x y z
#
# Youngs Moduli (GPa) = 109.59946 43.45701 39.08870
#
# Poissons Ratio (x) = 0.15476 0.10843
# Poissons Ratio (y) = 0.39030 0.60353
# Poissons Ratio (z) = 0.30402 0.67097
#
# Static dielectric constant tensor:
#      x y z
#    x 1.814570 0.000000 0.000000 
#    y 0.000000 1.825580 0.000000 
#    z 0.000000 0.000000 1.737060 
# 
# From -- ./inp_files/2858.got.cif
#   From: 2010.05.17/outbox.cif.g08.bks.cpg/sg30_2_cif.got.tgz:2858.got - 2010.06.03 17:03:02.
