data_PCOD9342777
_publ_section_title
;
Structure prediction by ZEFSAII (Michael W. Deem and Ramdas Pophale) SiO2 
 PCOD9342777
Probable space group: P M N 21
;
_chemical_formula_sum "Si O2"
_cell_formula_units_Z 32
_cell_length_a 8.069439
_cell_length_b 8.549469
_cell_length_c 20.305672
_cell_angle_alpha 90.000000
_cell_angle_beta 90.000000
_cell_angle_gamma 90.000000
_cell_volume 1400.876505
_symmetry_space_group_name_H-M "P M N 21"
_symmetry_group_IT_number 31
_symmetry_cell_setting 'orthorhombic'
loop_
_space_group_symop_operation_xyz
x,y,z
1/2-x,-y,1/2+z
-x,y,z
1/2+x,-y,1/2+z
loop_
_atom_site_type_symbol
_atom_site_label
_atom_site_fract_x
_atom_site_fract_y
_atom_site_fract_z
Si Si1 0.813672 0.283948 0.753630
Si Si2 0.185568 0.661882 0.118630
Si Si3 0.191770 0.860630 0.467008
Si Si4 0.807930 0.011818 0.101293
Si Si5 0.809572 0.424046 0.899868
Si Si6 0.188584 0.978774 0.325365
Si Si7 0.704445 0.661859 0.664010
Si Si8 0.812134 0.345477 0.312153
O O1 0.684422 0.322255 0.697764
O O2 0.781697 0.357694 0.825329
O O3 0.000000 0.322267 0.732185
O O4 0.797631 0.101400 0.769923
O O5 0.254785 0.482589 0.115303
O O6 0.000000 0.657522 0.089768
O O7 0.263468 0.832748 0.100694
O O8 0.296109 0.922204 0.527490
O O9 0.207348 0.675767 0.451529
O O10 0.000000 0.900979 0.478628
O O11 0.249049 0.938157 0.398510
O O12 0.741875 0.162847 0.142523
O O13 0.000000 0.991682 0.122409
O O14 0.770011 0.600552 0.880804
O O15 0.000000 0.402531 0.917295
O O16 0.180909 0.160310 0.315073
O O17 0.000000 0.914315 0.320507
O O18 0.500000 0.663074 0.664506
O O19 0.762321 0.625232 0.739051
O O20 0.000000 0.408759 0.312929
#
# Coordination Sequence:
#
# PCOD9342777 Si02
#       8
#     4   4   4   4   4   4   4   4
#     4  10  19  31  51  80 112 142 176 222 277 331
#     4  10  19  34  57  80 108 149 187 226 280 339
#     4  10  21  39  58  77 106 148 193 233 281 339
#     4  10  21  38  58  80 110 148 195 240 278 332
#     4  10  20  34  54  81 113 146 179 225 281 335
#     4   9  19  34  55  80 108 144 186 230 281 342
#     4   9  18  33  56  85 113 144 185 230 279 338
#     4  10  18  33  57  85 114 143 181 232 285 344
#
# _framework density 22.842841
#
# number of rings (size 3 to 8) (size 9 to 14) (size 15 to 20)
#    0.000    2.250    1.250    1.875    0.000    4.500 
#    2.250    1.250    0.000    0.000    0.000    0.000 
#    0.000    0.000    0.000    0.000    0.000    0.000 
#
# Total GULP energy -178175.513713 kJ/mol
# GULP energy per Si atom -5567.984804 kJ/mol
# Density = 2.279085 g / cm^3
# Si number density = 22.842841 Si / 1000 Ang^3
#
#
#
# Elastic Constant Matrix: (Units=GPa)
#
#
# Indices 1 2 3 4 5 6 
#
# 1 31.9244 0.5872 -2.5017 0.0000 0.0000 0.0000
# 2 0.5872 80.2152 -0.5529 0.0000 0.0000 0.0000
# 3 -2.5017 -0.5529 40.2144 0.0000 0.0000 0.0000
# 4 0.0000 0.0000 0.0000 26.9259 0.0000 0.0000
# 5 0.0000 0.0000 0.0000 0.0000 16.2562 0.0000
# 6 0.0000 0.0000 0.0000 0.0000 0.0000 11.3470
#
#
#
# Elastic Compliance Matrix: (Units=1/GPa)
#
#
# Indices 1 2 3 4 5 6 
#
# 1 0.031481 -0.000217 0.001955 0.000000 0.000000 0.000000
# 2 -0.000217 0.012469 0.000158 0.000000 0.000000 0.000000
# 3 0.001955 0.000158 0.024991 0.000000 0.000000 0.000000
# 4 0.000000 0.000000 0.000000 0.037139 0.000000 0.000000
# 5 0.000000 0.000000 0.000000 0.000000 0.061515 0.000000
# 6 0.000000 0.000000 0.000000 0.000000 0.000000 0.088129
#
#
# Mechanical properties :
#
#
# Convention : Reuss Voigt Hill
#
# Bulk Modulus (GPa) = 13.74879 16.37992 15.06435
# Shear Modulus (GPa) = 18.10442 21.22725 19.66584
#
# Velocity S-wave (km/s) = 2.81831 3.05171 2.93733
# Velocity P-wave (km/s) = 4.07706 4.42758 4.25593
#
# Compressibility (1/GPa) = 0.07273368
#
# Stress axis : x y z
#
# Youngs Moduli (GPa) = 31.76494 80.19799 40.01515
#
# Poissons Ratio (x) = 0.01740 -0.07825
# Poissons Ratio (y) = 0.00689 -0.00632
# Poissons Ratio (z) = -0.06211 -0.01267
#
# Static dielectric constant tensor:
#      x y z
#    x 1.860480 0.000000 0.000000 
#    y 0.000000 2.078190 0.000000 
#    z 0.000000 0.000000 1.822970 
# 
# From -- ./inp_files/6451.got.cif
#   From: 2010.05.17/outbox.cif.g08.bks.cpg/sg31_4_cif.got.tgz:6451.got - 2010.06.03 17:08:30.
