data_PCOD9342900
_publ_section_title
;
Structure prediction by ZEFSAII (Michael W. Deem and Ramdas Pophale) SiO2 
 PCOD9342900
Probable space group: P M N 21
;
_chemical_formula_sum "Si O2"
_cell_formula_units_Z 32
_cell_length_a 7.770287
_cell_length_b 13.830670
_cell_length_c 13.483425
_cell_angle_alpha 90.000000
_cell_angle_beta 90.000000
_cell_angle_gamma 90.000000
_cell_volume 1449.040430
_symmetry_space_group_name_H-M "P M N 21"
_symmetry_group_IT_number 31
_symmetry_cell_setting 'orthorhombic'
loop_
_space_group_symop_operation_xyz
x,y,z
1/2-x,-y,1/2+z
-x,y,z
1/2+x,-y,1/2+z
loop_
_atom_site_type_symbol
_atom_site_label
_atom_site_fract_x
_atom_site_fract_y
_atom_site_fract_z
Si Si1 0.797261 0.604841 0.689870
Si Si2 0.710961 0.108290 0.934805
Si Si3 0.795174 0.817145 0.648365
Si Si4 0.789098 0.747116 0.256999
Si Si5 0.700947 0.901631 0.859127
Si Si6 0.800651 0.761178 0.034483
Si Si7 0.295078 0.459498 0.832325
Si Si8 0.706740 0.540974 0.033889
O O1 0.723085 0.709147 0.667165
O O2 0.776351 0.563703 0.799241
O O3 0.723898 0.513928 0.629901
O O4 0.000000 0.608853 0.666423
O O5 0.500000 0.107750 0.937163
O O6 0.760285 0.183314 0.847835
O O7 0.771349 0.001743 0.903540
O O8 0.770754 0.137558 0.045420
O O9 0.772592 0.874030 0.751315
O O10 0.000000 0.807969 0.634338
O O11 0.731540 0.779212 0.146769
O O12 0.727697 0.638083 0.281655
O O13 0.000000 0.744724 0.254600
O O14 0.500000 0.916610 0.841801
O O15 0.720658 0.818934 0.942731
O O16 0.785599 0.645976 0.020273
O O17 0.000000 0.789428 0.034652
O O18 0.500000 0.461515 0.818766
O O19 0.262132 0.461680 0.949020
O O20 0.500000 0.556946 0.039767
#
# Coordination Sequence:
#
# PCOD9342900 Si02
#       8
#     4   4   4   4   4   4   4   4
#     4  10  20  34  54  82 114 149 185 226 279 336
#     4   9  20  39  63  87 113 150 196 245 299 351
#     4  10  21  40  63  87 116 153 199 244 289 355
#     4   9  18  35  59  87 115 151 198 241 286 347
#     4  11  24  40  61  88 118 154 194 246 304 349
#     4  11  22  37  60  88 120 157 198 240 285 350
#     4  10  19  33  55  82 112 150 191 230 274 331
#     4  10  20  34  55  83 118 154 189 234 286 337
#
# _framework density 22.083579
#
# number of rings (size 3 to 8) (size 9 to 14) (size 15 to 20)
#    0.000    2.000    1.250    2.250    1.750    6.000 
#    0.000    0.625    0.000    5.250    0.000    0.000 
#    0.000    0.000    0.000    0.000    0.000    0.000 
#
# Total GULP energy -178537.043998 kJ/mol
# GULP energy per Si atom -5579.282625 kJ/mol
# Density = 2.203332 g / cm^3
# Si number density = 22.083579 Si / 1000 Ang^3
#
#
#
# Elastic Constant Matrix: (Units=GPa)
#
#
# Indices 1 2 3 4 5 6 
#
# 1 18.2279 -8.6793 -3.3428 0.0000 0.0000 0.0000
# 2 -8.6793 112.1190 51.0032 0.0000 0.0000 0.0000
# 3 -3.3428 51.0032 136.1682 0.0000 0.0000 0.0000
# 4 0.0000 0.0000 0.0000 31.7242 0.0000 0.0000
# 5 0.0000 0.0000 0.0000 0.0000 12.3315 0.0000
# 6 0.0000 0.0000 0.0000 0.0000 0.0000 -3.4604
#
#
#
# Elastic Compliance Matrix: (Units=1/GPa)
#
#
# Indices 1 2 3 4 5 6 
#
# 1 0.056971 0.004549 -0.000305 0.000000 0.000000 0.000000
# 2 0.004549 0.011114 -0.004051 0.000000 0.000000 0.000000
# 3 -0.000305 -0.004051 0.008854 0.000000 0.000000 0.000000
# 4 0.000000 0.000000 0.000000 0.031522 0.000000 0.000000
# 5 0.000000 0.000000 0.000000 0.000000 0.081093 0.000000
# 6 0.000000 0.000000 0.000000 0.000000 0.000000 -0.288980
#
#
# Mechanical properties :
#
#
# Convention : Reuss Voigt Hill
#
# Bulk Modulus (GPa) = 12.93259 38.27527 25.60393
# Shear Modulus (GPa) = -67.53429 23.28799 -22.12315
#
# Velocity S-wave (km/s) = -5.53603 3.25089 -3.16854
# Velocity P-wave (km/s) = 5.91562 5.60898 1.32927
#
# Compressibility (1/GPa) = 0.07732405
#
# Stress axis : x y z
#
# Youngs Moduli (GPa) = 17.55278 89.97521 112.94587
#
# Poissons Ratio (x) = -0.40931 0.03449
# Poissons Ratio (y) = -0.07985 0.45757
# Poissons Ratio (z) = 0.00536 0.36451
#
# Static dielectric constant tensor:
#      x y z
#    x 1.840260 0.000000 0.000000 
#    y 0.000000 1.793300 0.000000 
#    z 0.000000 0.000000 1.812900 
# 
# From -- ./inp_files/5103.got.cif
#   From: 2010.05.17/outbox.cif.g08.bks.cpg/sg31_3_cif.got.tgz:5103.got - 2010.06.03 17:08:30.
