data_PCOD9342148
_publ_section_title
;
Structure prediction by ZEFSAII (Michael W. Deem and Ramdas Pophale) SiO2 
 PCOD9342148
Probable space group: P N C 2
;
_chemical_formula_sum "Si O2"
_cell_formula_units_Z 18
_cell_length_a 12.309818
_cell_length_b 6.133487
_cell_length_c 10.522606
_cell_angle_alpha 90.000000
_cell_angle_beta 90.000000
_cell_angle_gamma 90.000000
_cell_volume 794.478942
_symmetry_space_group_name_H-M "P N C 2"
_symmetry_group_IT_number 30
_symmetry_cell_setting 'orthorhombic'
loop_
_space_group_symop_operation_xyz
x,y,z
-x,-y,z
-x,1/2+y,1/2+z
x,1/2-y,1/2+z
loop_
_atom_site_type_symbol
_atom_site_label
_atom_site_fract_x
_atom_site_fract_y
_atom_site_fract_z
Si Si1 0.712153 0.151742 0.342680
Si Si2 0.377122 0.577439 0.568394
Si Si3 0.198949 0.217084 0.496383
Si Si4 0.000000 0.000000 0.044683
Si Si5 0.889234 0.378638 0.201223
O O1 0.646180 0.238129 0.463219
O O2 0.645770 0.154240 0.212032
O O3 0.814314 0.310324 0.317944
O O4 0.759227 0.913745 0.374020
O O5 0.500000 0.500000 0.556405
O O6 0.291668 0.383752 0.539919
O O7 0.083620 0.336235 0.476986
O O8 0.175104 0.035188 0.604395
O O9 0.923598 0.155820 0.130324
O O10 0.000000 0.500000 0.233207
#
# Coordination Sequence:
#
# PCOD9342148 Si02
#       5
#     4   4   4   2   4
#     4  12  26  53  73 119 155 197 258 316 387 451
#     4  12  31  51  80 111 151 205 259 321 382 448
#     4  11  24  47  75 109 158 200 254 310 378 461
#     4  10  20  48  68 112 152 208 246 304 376 460
#     4  10  23  47  74 110 155 204 249 306 378 460
#
# _framework density 22.656358999999998
#
# number of rings (size 3 to 8) (size 9 to 14) (size 15 to 20)
#    0.000    0.889    4.444    0.000    6.222    0.000 
#   26.000    0.000    0.000    0.000    0.000    0.000 
#    0.000    0.000    0.000    0.000    0.000    0.000 
#
# Total GULP energy -100850.770111 kJ/mol
# GULP energy per Si atom -5602.820562 kJ/mol
# Density = 2.260479 g / cm^3
# Si number density = 22.656359 Si / 1000 Ang^3
#
#
#
# Elastic Constant Matrix: (Units=GPa)
#
#
# Indices 1 2 3 4 5 6 
#
# 1 145.9562 35.3196 52.5363 0.0000 0.0000 0.0000
# 2 35.3196 90.2615 45.2515 0.0000 0.0000 0.0000
# 3 52.5363 45.2515 143.9693 0.0000 0.0000 0.0000
# 4 0.0000 0.0000 0.0000 44.3052 0.0000 0.0000
# 5 0.0000 0.0000 0.0000 0.0000 17.5399 0.0000
# 6 0.0000 0.0000 0.0000 0.0000 0.0000 39.6738
#
#
#
# Elastic Compliance Matrix: (Units=1/GPa)
#
#
# Indices 1 2 3 4 5 6 
#
# 1 0.008188 -0.002025 -0.002351 0.000000 0.000000 0.000000
# 2 -0.002025 0.013652 -0.003552 0.000000 0.000000 0.000000
# 3 -0.002351 -0.003552 0.008920 0.000000 0.000000 0.000000
# 4 0.000000 0.000000 0.000000 0.022571 0.000000 0.000000
# 5 0.000000 0.000000 0.000000 0.000000 0.057013 0.000000
# 6 0.000000 0.000000 0.000000 0.000000 0.000000 0.025206
#
#
# Mechanical properties :
#
#
# Convention : Reuss Voigt Hill
#
# Bulk Modulus (GPa) = 67.09896 71.82243 69.46069
# Shear Modulus (GPa) = 31.97462 36.77577 34.37519
#
# Velocity S-wave (km/s) = 3.76079 4.03326 3.89941
# Velocity P-wave (km/s) = 6.96694 7.31158 7.14134
#
# Compressibility (1/GPa) = 0.01490336
#
# Stress axis : x y z
#
# Youngs Moduli (GPa) = 122.13350 73.24865 112.10249
#
# Poissons Ratio (x) = 0.14834 0.26359
# Poissons Ratio (y) = 0.24733 0.39820
# Poissons Ratio (z) = 0.28717 0.26018
#
# Static dielectric constant tensor:
#      x y z
#    x 1.789240 0.000000 0.000000 
#    y 0.000000 1.850940 0.000000 
#    z 0.000000 0.000000 1.881880 
# 
# From -- ./inp_files/3960.got.cif
#   From: 2010.05.17/outbox.cif.g08.bks.cpg/sg30_2_cif.got.tgz:3960.got - 2010.06.03 17:03:02.
