data_PCOD9342773
_publ_section_title
;
Structure prediction by ZEFSAII (Michael W. Deem and Ramdas Pophale) SiO2 
 PCOD9342773
Probable space group: P M N 21
;
_chemical_formula_sum "Si O2"
_cell_formula_units_Z 32
_cell_length_a 14.512613
_cell_length_b 12.042222
_cell_length_c 8.926450
_cell_angle_alpha 90.000000
_cell_angle_beta 90.000000
_cell_angle_gamma 90.000000
_cell_volume 1560.023068
_symmetry_space_group_name_H-M "P M N 21"
_symmetry_group_IT_number 31
_symmetry_cell_setting 'orthorhombic'
loop_
_space_group_symop_operation_xyz
x,y,z
1/2-x,-y,1/2+z
-x,y,z
1/2+x,-y,1/2+z
loop_
_atom_site_type_symbol
_atom_site_label
_atom_site_fract_x
_atom_site_fract_y
_atom_site_fract_z
Si Si1 0.668523 0.534443 0.224800
Si Si2 0.401046 0.776366 0.212322
Si Si3 0.604957 0.181651 0.081455
Si Si4 0.776465 0.065733 0.210639
Si Si5 0.392539 0.754324 0.551166
Si Si6 0.285108 0.377873 0.960495
Si Si7 0.896966 0.680002 0.894185
Si Si8 0.773606 0.860440 0.038640
O O1 0.604633 0.642256 0.215695
O O2 0.763438 0.580750 0.294446
O O3 0.636437 0.441239 0.343536
O O4 0.676462 0.474227 0.066345
O O5 0.500000 0.813945 0.157355
O O6 0.390237 0.810957 0.386094
O O7 0.320712 0.820653 0.111432
O O8 0.500000 0.146753 0.046650
O O9 0.683183 0.090064 0.113291
O O10 0.601568 0.250288 0.238252
O O11 0.648602 0.271195 0.967199
O O12 0.745746 0.077891 0.381436
O O13 0.850536 0.160958 0.171202
O O14 0.815008 0.948162 0.156118
O O15 0.500000 0.722686 0.577922
O O16 0.313903 0.659633 0.532976
O O17 0.832879 0.751656 0.001713
O O18 0.000000 0.672879 0.953884
#
# Coordination Sequence:
#
# PCOD9342773 Si02
#       8
#     4   4   4   4   4   4   4   4
#     4  10  18  33  55  80 110 144 181 231 285 336
#     4  10  21  36  56  81 110 147 190 235 284 340
#     4   8  16  33  54  74  99 138 184 222 264 324
#     4  10  21  36  57  81 111 148 185 230 282 330
#     4   9  19  37  57  76 105 148 192 231 279 339
#     4   9  18  31  51  78 107 141 183 231 281 337
#     4   9  18  33  54  79 106 140 184 227 271 330
#     4  11  22  37  57  85 116 148 188 235 281 336
#
# _framework density 20.512518
#
# number of rings (size 3 to 8) (size 9 to 14) (size 15 to 20)
#    0.000    2.500    0.000    2.625    0.000    2.500 
#    0.000    3.125    0.000   15.750    0.000    0.000 
#    0.000    0.000    0.000    0.000    0.000    0.000 
#
# Total GULP energy -178465.857423 kJ/mol
# GULP energy per Si atom -5577.058044 kJ/mol
# Density = 2.046583 g / cm^3
# Si number density = 20.512518 Si / 1000 Ang^3
#
#
#
# Elastic Constant Matrix: (Units=GPa)
#
#
# Indices 1 2 3 4 5 6 
#
# 1 50.5588 -16.4322 -0.6988 0.0000 0.0000 0.0000
# 2 -16.4322 47.2320 8.4756 0.0000 0.0000 0.0000
# 3 -0.6988 8.4756 34.9633 0.0000 0.0000 0.0000
# 4 0.0000 0.0000 0.0000 31.9928 0.0000 0.0000
# 5 0.0000 0.0000 0.0000 0.0000 21.1510 0.0000
# 6 0.0000 0.0000 0.0000 0.0000 0.0000 -3.6845
#
#
#
# Elastic Compliance Matrix: (Units=1/GPa)
#
#
# Indices 1 2 3 4 5 6 
#
# 1 0.022376 0.008055 -0.001505 0.000000 0.000000 0.000000
# 2 0.008055 0.025035 -0.005908 0.000000 0.000000 0.000000
# 3 -0.001505 -0.005908 0.030003 0.000000 0.000000 0.000000
# 4 0.000000 0.000000 0.000000 0.031257 0.000000 0.000000
# 5 0.000000 0.000000 0.000000 0.000000 0.047279 0.000000
# 6 0.000000 0.000000 0.000000 0.000000 0.000000 -0.271409
#
#
# Mechanical properties :
#
#
# Convention : Reuss Voigt Hill
#
# Bulk Modulus (GPa) = 12.70689 12.82704 12.76696
# Shear Modulus (GPa) = -55.24235 19.31918 -17.96159
#
# Velocity S-wave (km/s) = -5.19514 3.07224 -2.96233
# Velocity P-wave (km/s) = 5.45691 4.34186 2.33732
#
# Compressibility (1/GPa) = 0.07869747
#
# Stress axis : x y z
#
# Youngs Moduli (GPa) = 44.69066 39.94485 33.32949
#
# Poissons Ratio (x) = -0.32175 0.05017
# Poissons Ratio (y) = -0.35998 0.19690
# Poissons Ratio (z) = 0.06728 0.23598
#
# Static dielectric constant tensor:
#      x y z
#    x 1.731680 0.000000 0.000000 
#    y 0.000000 1.782230 0.000000 
#    z 0.000000 0.000000 1.725010 
# 
# From -- ./inp_files/2574.got.cif
#   From: 2010.05.17/outbox.cif.g08.bks.cpg/sg31_2_cif.got.tgz:2574.got - 2010.06.03 17:08:30.
