data_PCOD9342202
_publ_section_title
;
Structure prediction by ZEFSAII (Michael W. Deem and Ramdas Pophale) SiO2 
 PCOD9342202
Probable space group: P N C 2
;
_chemical_formula_sum "Si O2"
_cell_formula_units_Z 32
_cell_length_a 9.010865
_cell_length_b 12.982607
_cell_length_c 13.578341
_cell_angle_alpha 90.000000
_cell_angle_beta 90.000000
_cell_angle_gamma 90.000000
_cell_volume 1588.455691
_symmetry_space_group_name_H-M "P N C 2"
_symmetry_group_IT_number 30
_symmetry_cell_setting 'orthorhombic'
loop_
_space_group_symop_operation_xyz
x,y,z
-x,-y,z
-x,1/2+y,1/2+z
x,1/2-y,1/2+z
loop_
_atom_site_type_symbol
_atom_site_label
_atom_site_fract_x
_atom_site_fract_y
_atom_site_fract_z
Si Si1 0.405926 0.674168 0.675870
Si Si2 0.576216 0.265847 0.453200
Si Si3 0.339785 0.338023 0.831410
Si Si4 0.241635 0.639121 0.291004
Si Si5 0.749072 0.049599 0.427703
Si Si6 0.887684 0.411978 0.723265
Si Si7 0.066913 0.225734 0.740710
Si Si8 0.170686 0.030223 0.645565
O O1 0.438852 0.702113 0.564879
O O2 0.553208 0.652605 0.737226
O O3 0.324083 0.771387 0.728179
O O4 0.280462 0.585879 0.684829
O O5 0.419558 0.244864 0.401627
O O6 0.676205 0.348808 0.394682
O O7 0.655687 0.153756 0.443311
O O8 0.328928 0.450147 0.880052
O O9 0.178670 0.294139 0.804690
O O10 0.257954 0.534600 0.228524
O O11 0.064677 0.664169 0.298060
O O12 0.869060 0.083093 0.343452
O O13 0.791644 0.007627 0.535866
O O14 0.000000 0.500000 0.693912
O O15 0.965574 0.308320 0.684159
O O16 0.166041 0.150566 0.673115
O O17 0.000000 0.000000 0.656722
#
# Coordination Sequence:
#
# PCOD9342202 Si02
#       8
#     4   4   4   4   4   4   4   4
#     4  10  22  41  61  89 133 171 209 259 329 395
#     4  11  22  41  67  89 128 178 211 255 326 397
#     4  11  24  38  60  98 131 163 209 278 318 380
#     4   9  19  41  64  88 124 169 214 263 323 377
#     4  12  21  37  69 100 120 163 223 266 314 377
#     4  11  21  41  65  91 127 167 213 270 322 379
#     4  10  21  39  60  94 134 159 202 277 328 366
#     4  10  22  37  65  99 126 161 216 275 318 381
#
# _framework density 20.145353
#
# number of rings (size 3 to 8) (size 9 to 14) (size 15 to 20)
#    0.000    1.500    6.250    0.750    1.750    0.000 
#    0.000    4.375    5.500    0.000    0.000    0.000 
#    0.000    0.000    0.000    0.000    0.000    0.000 
#
# Total GULP energy -178342.224183 kJ/mol
# GULP energy per Si atom -5573.194506 kJ/mol
# Density = 2.009950 g / cm^3
# Si number density = 20.145353 Si / 1000 Ang^3
#
#
#
# Elastic Constant Matrix: (Units=GPa)
#
#
# Indices 1 2 3 4 5 6 
#
# 1 75.2254 14.8198 29.3759 0.0000 0.0000 0.0000
# 2 14.8198 73.0849 29.6455 0.0000 0.0000 0.0000
# 3 29.3759 29.6455 111.4473 0.0000 0.0000 0.0000
# 4 0.0000 0.0000 0.0000 17.1796 0.0000 0.0000
# 5 0.0000 0.0000 0.0000 0.0000 16.6653 0.0000
# 6 0.0000 0.0000 0.0000 0.0000 0.0000 18.0411
#
#
#
# Elastic Compliance Matrix: (Units=1/GPa)
#
#
# Indices 1 2 3 4 5 6 
#
# 1 0.014986 -0.001610 -0.003522 0.000000 0.000000 0.000000
# 2 -0.001610 0.015511 -0.003701 0.000000 0.000000 0.000000
# 3 -0.003522 -0.003701 0.010886 0.000000 0.000000 0.000000
# 4 0.000000 0.000000 0.000000 0.058209 0.000000 0.000000
# 5 0.000000 0.000000 0.000000 0.000000 0.060005 0.000000
# 6 0.000000 0.000000 0.000000 0.000000 0.000000 0.055429
#
#
# Mechanical properties :
#
#
# Convention : Reuss Voigt Hill
#
# Bulk Modulus (GPa) = 42.16671 45.27111 43.71891
# Shear Modulus (GPa) = 20.78164 22.77162 21.77663
#
# Velocity S-wave (km/s) = 3.21531 3.36574 3.29139
# Velocity P-wave (km/s) = 5.89585 6.13394 6.01607
#
# Compressibility (1/GPa) = 0.02371539
#
# Stress axis : x y z
#
# Youngs Moduli (GPa) = 66.72962 64.47176 91.86335
#
# Poissons Ratio (x) = 0.10381 0.32352
# Poissons Ratio (y) = 0.10745 0.34003
# Poissons Ratio (z) = 0.23500 0.23864
#
# Static dielectric constant tensor:
#      x y z
#    x 1.735800 0.000000 0.000000 
#    y 0.000000 1.797540 0.000000 
#    z 0.000000 0.000000 1.708580 
# 
# From -- ./inp_files/5231.got.cif
#   From: 2010.05.17/outbox.cif.g08.bks.cpg/sg30_3_cif.got.tgz:5231.got - 2010.06.03 17:03:02.
