data_PCOD9342153
_publ_section_title
;
Structure prediction by ZEFSAII (Michael W. Deem and Ramdas Pophale) SiO2 
 PCOD9342153
Probable space group: P N C 2
;
_chemical_formula_sum "Si O2"
_cell_formula_units_Z 32
_cell_length_a 14.306020
_cell_length_b 20.828361
_cell_length_c 5.135637
_cell_angle_alpha 90.000000
_cell_angle_beta 90.000000
_cell_angle_gamma 90.000000
_cell_volume 1530.270631
_symmetry_space_group_name_H-M "P N C 2"
_symmetry_group_IT_number 30
_symmetry_cell_setting 'orthorhombic'
loop_
_space_group_symop_operation_xyz
x,y,z
-x,-y,z
-x,1/2+y,1/2+z
x,1/2-y,1/2+z
loop_
_atom_site_type_symbol
_atom_site_label
_atom_site_fract_x
_atom_site_fract_y
_atom_site_fract_z
Si Si1 0.577020 0.053716 0.533580
Si Si2 0.178798 0.415943 0.656320
Si Si3 0.621458 0.973874 0.011875
Si Si4 0.474133 0.147625 0.188316
Si Si5 0.670037 0.206453 0.051385
Si Si6 0.734730 0.085609 0.765384
Si Si7 0.274908 0.288242 0.796544
Si Si8 0.106525 0.016512 0.677318
O O1 0.507250 0.112121 0.450623
O O2 0.677945 0.101899 0.509145
O O3 0.500000 0.000000 0.663979
O O4 0.599677 0.010919 0.275971
O O5 0.276088 0.443537 0.547974
O O6 0.200426 0.342267 0.714560
O O7 0.108711 0.436249 0.427074
O O8 0.152657 0.450512 0.925751
O O9 0.556242 0.911651 0.003257
O O10 0.647100 0.032464 0.810303
O O11 0.560455 0.185342 0.062598
O O12 0.380553 0.187310 0.245652
O O13 0.688763 0.243353 0.318287
O O14 0.728612 0.142953 0.965917
O O15 0.829539 0.046337 0.742414
O O16 0.262722 0.229317 0.597877
O O17 0.000000 0.000000 0.618010
#
# Coordination Sequence:
#
# PCOD9342153 Si02
#       8
#     4   4   4   4   4   4   4   4
#     4  10  21  33  56  90 129 173 217 268 335 392
#     4  10  22  42  68 101 140 167 221 273 351 426
#     4   8  21  37  57  91 123 172 215 284 344 391
#     4  11  23  37  59  89 133 177 244 283 319 390
#     4  12  26  42  58  83 125 183 229 269 307 378
#     4   9  23  42  62  90 131 166 220 270 345 407
#     4  11  24  42  66  92 139 197 233 274 325 390
#     4  11  23  44  75 107 133 163 208 295 372 425
#
# _framework density 20.911332999999999
#
# number of rings (size 3 to 8) (size 9 to 14) (size 15 to 20)
#    0.750    1.000    0.000    3.375    5.250    6.000 
#    0.000    0.000    0.000    4.500    0.000    0.000 
#    0.000    0.000    0.000    0.000    0.000    0.000 
#
# Total GULP energy -178261.994922 kJ/mol
# GULP energy per Si atom -5570.687341 kJ/mol
# Density = 2.086374 g / cm^3
# Si number density = 20.911333 Si / 1000 Ang^3
#
#
#
# Elastic Constant Matrix: (Units=GPa)
#
#
# Indices 1 2 3 4 5 6 
#
# 1 70.3723 32.5224 -0.2245 0.0000 0.0000 0.0000
# 2 32.5224 77.5112 25.1829 0.0000 0.0000 0.0000
# 3 -0.2245 25.1829 54.3793 0.0000 0.0000 0.0000
# 4 0.0000 0.0000 0.0000 64.3246 0.0000 0.0000
# 5 0.0000 0.0000 0.0000 0.0000 23.2922 0.0000
# 6 0.0000 0.0000 0.0000 0.0000 0.0000 19.0172
#
#
#
# Elastic Compliance Matrix: (Units=1/GPa)
#
#
# Indices 1 2 3 4 5 6 
#
# 1 0.018448 -0.009141 0.004309 0.000000 0.000000 0.000000
# 2 -0.009141 0.019715 -0.009168 0.000000 0.000000 0.000000
# 3 0.004309 -0.009168 0.022653 0.000000 0.000000 0.000000
# 4 0.000000 0.000000 0.000000 0.015546 0.000000 0.000000
# 5 0.000000 0.000000 0.000000 0.000000 0.042933 0.000000
# 6 0.000000 0.000000 0.000000 0.000000 0.000000 0.052584
#
#
# Mechanical properties :
#
#
# Convention : Reuss Voigt Hill
#
# Bulk Modulus (GPa) = 30.47142 35.24715 32.85928
# Shear Modulus (GPa) = 23.71731 30.97893 27.34812
#
# Velocity S-wave (km/s) = 3.37142 3.85313 3.62029
# Velocity P-wave (km/s) = 5.45515 6.05703 5.76395
#
# Compressibility (1/GPa) = 0.03281764
#
# Stress axis : x y z
#
# Youngs Moduli (GPa) = 54.20593 50.72256 44.14490
#
# Poissons Ratio (x) = 0.46363 -0.19023
# Poissons Ratio (y) = 0.49547 0.40471
# Poissons Ratio (z) = -0.23358 0.46501
#
# Static dielectric constant tensor:
#      x y z
#    x 1.828330 0.000000 0.000000 
#    y 0.000000 1.819980 0.000000 
#    z 0.000000 0.000000 1.832280 
# 
# From -- ./inp_files/960.got.cif
#   From: 2010.05.17/outbox.cif.g08.bks.cpg/sg30_1_cif.got.tgz:960.got - 2010.06.03 17:03:02.
