data_PCOD9342631
_publ_section_title
;
Structure prediction by ZEFSAII (Michael W. Deem and Ramdas Pophale) SiO2 
 PCOD9342631
Probable space group: P N C 2
;
_chemical_formula_sum "Si O2"
_cell_formula_units_Z 10
_cell_length_a 5.139552
_cell_length_b 5.132664
_cell_length_c 14.190773
_cell_angle_alpha 90.000000
_cell_angle_beta 90.000000
_cell_angle_gamma 90.000000
_cell_volume 374.346824
_symmetry_space_group_name_H-M "P N C 2"
_symmetry_group_IT_number 30
_symmetry_cell_setting 'orthorhombic'
loop_
_space_group_symop_operation_xyz
x,y,z
-x,-y,z
-x,1/2+y,1/2+z
x,1/2-y,1/2+z
loop_
_atom_site_type_symbol
_atom_site_label
_atom_site_fract_x
_atom_site_fract_y
_atom_site_fract_z
Si Si1 0.000000 0.000000 0.394090
Si Si2 0.253093 0.316678 0.539108
Si Si3 0.323981 0.260650 0.257115
O O1 0.775916 0.926520 0.468936
O O2 0.935404 0.775468 0.318262
O O3 0.500000 0.500000 0.522436
O O4 0.259363 0.219588 0.646713
O O5 0.000000 0.500000 0.525952
O O6 0.500000 0.500000 0.287695
O O7 0.500000 0.000000 0.268652
#
# Coordination Sequence:
#
# PCOD9342631 Si02
#       3
#     2   4   4
#     4  12  28  46  88 116 168 220 284 350 416 506
#     4  11  28  51  80 121 172 222 282 350 423 504
#     4  11  28  51  80 121 170 220 281 346 422 504
#
# _framework density 26.713198999999999
#
# number of rings (size 3 to 8) (size 9 to 14) (size 15 to 20)
#    0.000    0.800    2.000    1.200   22.400    0.000 
#    0.000    0.000    0.000    0.000    0.000    0.000 
#    0.000    0.000    0.000    0.000    0.000    0.000 
#
# Total GULP energy -55963.448376 kJ/mol
# GULP energy per Si atom -5596.344838 kJ/mol
# Density = 2.665240 g / cm^3
# Si number density = 26.713199 Si / 1000 Ang^3
#
#
#
# Elastic Constant Matrix: (Units=GPa)
#
#
# Indices 1 2 3 4 5 6 
#
# 1 199.1563 76.9891 52.4617 0.0000 0.0000 0.0000
# 2 76.9891 165.7940 55.4603 0.0000 0.0000 0.0000
# 3 52.4617 55.4603 234.0368 0.0000 0.0000 0.0000
# 4 0.0000 0.0000 0.0000 -22.1730 0.0000 0.0000
# 5 0.0000 0.0000 0.0000 0.0000 18.6915 0.0000
# 6 0.0000 0.0000 0.0000 0.0000 0.0000 65.3697
#
#
#
# Elastic Compliance Matrix: (Units=1/GPa)
#
#
# Indices 1 2 3 4 5 6 
#
# 1 0.006246 -0.002642 -0.000774 0.000000 0.000000 0.000000
# 2 -0.002642 0.007668 -0.001225 0.000000 0.000000 0.000000
# 3 -0.000774 -0.001225 0.004737 0.000000 0.000000 0.000000
# 4 0.000000 0.000000 0.000000 -0.045100 0.000000 0.000000
# 5 0.000000 0.000000 0.000000 0.000000 0.053500 0.000000
# 6 0.000000 0.000000 0.000000 0.000000 0.000000 0.015298
#
#
# Mechanical properties :
#
#
# Convention : Reuss Voigt Hill
#
# Bulk Modulus (GPa) = 106.72957 107.64548 107.18753
# Shear Modulus (GPa) = 91.31840 39.98272 65.65056
#
# Velocity S-wave (km/s) = 5.85312 3.87297 4.96280
# Velocity P-wave (km/s) = 9.25847 7.77072 8.54703
#
# Compressibility (1/GPa) = 0.00936947
#
# Stress axis : x y z
#
# Youngs Moduli (GPa) = 160.09500 130.41189 211.11938
#
# Poissons Ratio (x) = 0.34449 0.16345
# Poissons Ratio (y) = 0.42291 0.25861
# Poissons Ratio (z) = 0.12394 0.15975
#
# Static dielectric constant tensor:
#      x y z
#    x 2.055450 0.000000 0.000000 
#    y 0.000000 2.124560 0.000000 
#    z 0.000000 0.000000 2.040260 
# 
# From -- ./inp_files/2853.got.cif
#   From: 2010.05.17/outbox.cif.g08.bks.cpg/sg30_2_cif.got.tgz:2853.got - 2010.06.03 17:03:02.
