data_PCOD9342824
_publ_section_title
;
Structure prediction by ZEFSAII (Michael W. Deem and Ramdas Pophale) SiO2 
 PCOD9342824
Probable space group: P M N 21
;
_chemical_formula_sum "Si O2"
_cell_formula_units_Z 24
_cell_length_a 7.577233
_cell_length_b 7.881211
_cell_length_c 14.433816
_cell_angle_alpha 90.000000
_cell_angle_beta 90.000000
_cell_angle_gamma 90.000000
_cell_volume 861.955334
_symmetry_space_group_name_H-M "P M N 21"
_symmetry_group_IT_number 31
_symmetry_cell_setting 'orthorhombic'
loop_
_space_group_symop_operation_xyz
x,y,z
1/2-x,-y,1/2+z
-x,y,z
1/2+x,-y,1/2+z
loop_
_atom_site_type_symbol
_atom_site_label
_atom_site_fract_x
_atom_site_fract_y
_atom_site_fract_z
Si Si1 0.787786 0.601869 0.985170
Si Si2 0.295662 0.632366 0.638701
Si Si3 0.794029 0.062747 0.605275
Si Si4 0.209850 0.303962 0.756238
Si Si5 0.287289 0.122949 0.931933
Si Si6 0.210106 0.194820 0.312960
O O1 0.740037 0.644228 0.880103
O O2 0.000000 0.595382 0.991200
O O3 0.715889 0.439699 0.042862
O O4 0.721684 0.767896 0.040915
O O5 0.500000 0.671439 0.624096
O O6 0.292284 0.463920 0.704821
O O7 0.216409 0.770156 0.710141
O O8 0.718077 0.136163 0.701308
O O9 0.723192 0.914590 0.536879
O O10 0.000000 0.031042 0.618555
O O11 0.000000 0.316528 0.740927
O O12 0.236986 0.277442 0.865436
O O13 0.500000 0.115250 0.935399
O O14 0.217431 0.962996 0.871067
O O15 0.000000 0.173921 0.304355
#
# Coordination Sequence:
#
# PCOD9342824 Si02
#       6
#     4   4   4   4   4   4
#     4   9  16  27  47  72  94 119 156 197 231 270
#     4   9  18  33  51  70  95 127 158 189 232 284
#     4   8  16  31  48  65  91 127 160 188 227 282
#     4  10  19  31  49  73  97 121 155 198 236 272
#     4   9  17  31  50  69  92 125 159 189 228 280
#     4   9  18  33  51  69  93 127 160 189 230 284
#
# _framework density 27.843668000000001
#
# number of rings (size 3 to 8) (size 9 to 14) (size 15 to 20)
#    0.000    3.000    0.000    2.000    0.000    4.667 
#    0.000    1.667    0.000    4.000    0.000    0.000 
#    0.000    0.000    0.000    0.000    0.000    0.000 
#
# Total GULP energy -134235.873153 kJ/mol
# GULP energy per Si atom -5593.161381 kJ/mol
# Density = 2.778029 g / cm^3
# Si number density = 27.843668 Si / 1000 Ang^3
#
#
#
# Elastic Constant Matrix: (Units=GPa)
#
#
# Indices 1 2 3 4 5 6 
#
# 1 122.1578 24.8832 25.5480 0.0000 0.0000 0.0000
# 2 24.8832 75.9514 -2.6404 0.0000 0.0000 0.0000
# 3 25.5480 -2.6404 213.6700 0.0000 0.0000 0.0000
# 4 0.0000 0.0000 0.0000 58.2126 0.0000 0.0000
# 5 0.0000 0.0000 0.0000 0.0000 6.3645 0.0000
# 6 0.0000 0.0000 0.0000 0.0000 0.0000 13.4961
#
#
#
# Elastic Compliance Matrix: (Units=1/GPa)
#
#
# Indices 1 2 3 4 5 6 
#
# 1 0.009030 -0.002997 -0.001117 0.000000 0.000000 0.000000
# 2 -0.002997 0.014167 0.000533 0.000000 0.000000 0.000000
# 3 -0.001117 0.000533 0.004820 0.000000 0.000000 0.000000
# 4 0.000000 0.000000 0.000000 0.017178 0.000000 0.000000
# 5 0.000000 0.000000 0.000000 0.000000 0.157121 0.000000
# 6 0.000000 0.000000 0.000000 0.000000 0.000000 0.074095
#
#
# Mechanical properties :
#
#
# Convention : Reuss Voigt Hill
#
# Bulk Modulus (GPa) = 47.94773 56.37343 52.16058
# Shear Modulus (GPa) = 17.21019 39.88053 28.54536
#
# Velocity S-wave (km/s) = 2.48886 3.78868 3.20535
# Velocity P-wave (km/s) = 5.05143 6.27927 5.69851
#
# Compressibility (1/GPa) = 0.02085604
#
# Stress axis : x y z
#
# Youngs Moduli (GPa) = 110.73903 70.58742 207.45876
#
# Poissons Ratio (x) = 0.21157 0.23168
# Poissons Ratio (y) = 0.33192 -0.11067
# Poissons Ratio (z) = 0.12367 -0.03765
#
# Static dielectric constant tensor:
#      x y z
#    x 1.993310 0.000000 0.000000 
#    y 0.000000 2.358410 0.000000 
#    z 0.000000 0.000000 2.204410 
# 
# From -- ./inp_files/3455.got.cif
#   From: 2010.05.17/outbox.cif.g08.bks.cpg/sg31_2_cif.got.tgz:3455.got - 2010.06.03 17:08:30.
