data_PCOD9342115
_publ_section_title
;
Structure prediction by ZEFSAII (Michael W. Deem and Ramdas Pophale) SiO2 
 PCOD9342115
Probable space group: P N C 2
;
_chemical_formula_sum "Si O2"
_cell_formula_units_Z 30
_cell_length_a 11.971404
_cell_length_b 8.587897
_cell_length_c 13.873238
_cell_angle_alpha 90.000000
_cell_angle_beta 90.000000
_cell_angle_gamma 90.000000
_cell_volume 1426.296285
_symmetry_space_group_name_H-M "P N C 2"
_symmetry_group_IT_number 30
_symmetry_cell_setting 'orthorhombic'
loop_
_space_group_symop_operation_xyz
x,y,z
-x,-y,z
-x,1/2+y,1/2+z
x,1/2-y,1/2+z
loop_
_atom_site_type_symbol
_atom_site_label
_atom_site_fract_x
_atom_site_fract_y
_atom_site_fract_z
Si Si1 0.000000 0.000000 0.514331
Si Si2 0.742731 0.322693 0.718193
Si Si3 0.614453 0.895958 0.308344
Si Si4 0.269998 0.809045 0.919425
Si Si5 0.561344 0.150792 0.059061
Si Si6 0.071917 0.656768 0.567294
Si Si7 0.591054 0.871751 0.648612
Si Si8 0.257055 0.460141 0.984254
O O1 0.017225 0.828986 0.562356
O O2 0.876901 0.970236 0.467644
O O3 0.702193 0.487051 0.758802
O O4 0.741300 0.200096 0.805229
O O5 0.654196 0.291285 0.634309
O O6 0.859819 0.340022 0.666475
O O7 0.600747 0.749305 0.236976
O O8 0.678282 0.853217 0.407311
O O9 0.500000 0.000000 0.322550
O O10 0.297163 0.633468 0.955647
O O11 0.376422 0.898525 0.961587
O O12 0.158977 0.855069 0.977316
O O13 0.470730 0.283845 0.060079
O O14 0.500000 0.000000 0.099980
O O15 0.000000 0.500000 0.564086
O O16 0.705128 0.926544 0.594893
O O17 0.500000 0.000000 0.678177
#
# Coordination Sequence:
#
# PCOD9342115 Si02
#       8
#     2   4   4   4   4   4   4   4
#     4  10  24  48  70  96 140 178 236 290 348 404
#     4  10  20  41  67  95 134 179 224 279 356 409
#     4  11  22  41  68  97 133 177 226 270 338 430
#     4   9  21  41  65  93 133 178 219 279 349 411
#     4  11  20  37  63  94 133 174 215 269 335 413
#     4  10  23  44  73  98 131 184 236 295 345 412
#     4  12  22  37  65 100 136 172 219 274 337 409
#     4  10  23  41  69  90 129 180 222 276 343 402
#
# _framework density 21.033498999999999
#
# number of rings (size 3 to 8) (size 9 to 14) (size 15 to 20)
#    0.000    1.600    4.000    0.400    3.733    0.000 
#   12.000    4.667    0.000    0.000    0.000    0.000 
#    0.000    0.000    0.000    0.000    0.000    0.000 
#
# Total GULP energy -167056.717304 kJ/mol
# GULP energy per Si atom -5568.557243 kJ/mol
# Density = 2.098563 g / cm^3
# Si number density = 21.033499 Si / 1000 Ang^3
#
#
#
# Elastic Constant Matrix: (Units=GPa)
#
#
# Indices 1 2 3 4 5 6 
#
# 1 99.7142 40.5408 60.8727 0.0000 0.0000 0.0000
# 2 40.5408 75.1475 34.7857 0.0000 0.0000 0.0000
# 3 60.8727 34.7857 131.4639 0.0000 0.0000 0.0000
# 4 0.0000 0.0000 0.0000 8.7360 0.0000 0.0000
# 5 0.0000 0.0000 0.0000 0.0000 12.5047 0.0000
# 6 0.0000 0.0000 0.0000 0.0000 0.0000 27.4264
#
#
#
# Elastic Compliance Matrix: (Units=1/GPa)
#
#
# Indices 1 2 3 4 5 6 
#
# 1 0.016007 -0.005931 -0.005842 0.000000 0.000000 0.000000
# 2 -0.005931 0.017362 -0.001848 0.000000 0.000000 0.000000
# 3 -0.005842 -0.001848 0.010801 0.000000 0.000000 0.000000
# 4 0.000000 0.000000 0.000000 0.114469 0.000000 0.000000
# 5 0.000000 0.000000 0.000000 0.000000 0.079970 0.000000
# 6 0.000000 0.000000 0.000000 0.000000 0.000000 0.036461
#
#
# Mechanical properties :
#
#
# Convention : Reuss Voigt Hill
#
# Bulk Modulus (GPa) = 59.07570 64.30265 61.68917
# Shear Modulus (GPa) = 16.23621 21.07518 18.65570
#
# Velocity S-wave (km/s) = 2.78136 3.16884 2.98140
# Velocity P-wave (km/s) = 6.20178 6.63526 6.42218
#
# Compressibility (1/GPa) = 0.01692743
#
# Stress axis : x y z
#
# Youngs Moduli (GPa) = 62.47450 57.59668 92.58570
#
# Poissons Ratio (x) = 0.34160 0.54091
# Poissons Ratio (y) = 0.37053 0.17109
# Poissons Ratio (z) = 0.36499 0.10643
#
# Static dielectric constant tensor:
#      x y z
#    x 1.814950 0.000000 0.000000 
#    y 0.000000 1.788320 0.000000 
#    z 0.000000 0.000000 1.855650 
# 
# From -- ./inp_files/5507.got.cif
#   From: 2010.05.17/outbox.cif.g08.bks.cpg/sg30_3_cif.got.tgz:5507.got - 2010.06.03 17:03:02.
