data_PCOD9342601
_publ_section_title
;
Structure prediction by ZEFSAII (Michael W. Deem and Ramdas Pophale) SiO2 
 PCOD9342601
Probable space group: P N C 2
;
_chemical_formula_sum "Si O2"
_cell_formula_units_Z 32
_cell_length_a 10.838748
_cell_length_b 11.576961
_cell_length_c 11.108813
_cell_angle_alpha 90.000000
_cell_angle_beta 90.000000
_cell_angle_gamma 90.000000
_cell_volume 1393.931221
_symmetry_space_group_name_H-M "P N C 2"
_symmetry_group_IT_number 30
_symmetry_cell_setting 'orthorhombic'
loop_
_space_group_symop_operation_xyz
x,y,z
-x,-y,z
-x,1/2+y,1/2+z
x,1/2-y,1/2+z
loop_
_atom_site_type_symbol
_atom_site_label
_atom_site_fract_x
_atom_site_fract_y
_atom_site_fract_z
Si Si1 0.141536 0.036362 0.006320
Si Si2 0.072555 0.275885 0.948779
Si Si3 0.517797 0.803655 0.782668
Si Si4 0.197209 0.645802 0.947116
Si Si5 0.680700 0.022444 0.824157
Si Si6 0.479728 0.857927 0.507450
Si Si7 0.120048 0.045661 0.638068
Si Si8 0.145454 0.468119 0.770778
O O1 0.189754 0.060064 0.138983
O O2 0.133881 0.153795 0.933223
O O3 0.234136 0.954515 0.938299
O O4 0.000000 0.000000 0.015905
O O5 0.142567 0.358900 0.856803
O O6 0.923319 0.272084 0.933257
O O7 0.098668 0.329180 0.081320
O O8 0.591830 0.912337 0.840429
O O9 0.535331 0.804034 0.634382
O O10 0.380466 0.856868 0.790334
O O11 0.529867 0.698359 0.880091
O O12 0.216473 0.579029 0.821415
O O13 0.331718 0.669938 0.001560
O O14 0.134747 0.544014 0.027858
O O15 0.762380 0.976184 0.715550
O O16 0.500000 0.000000 0.511560
O O17 0.000000 0.000000 0.707882
O O18 0.000000 0.500000 0.766903
#
# Coordination Sequence:
#
# PCOD9342601 Si02
#       8
#     4   4   4   4   4   4   4   4
#     4  11  24  37  60 100 140 176 226 289 358 425
#     4   9  20  36  60  99 131 180 222 270 355 431
#     4  11  27  49  77 102 143 191 246 303 363 421
#     4   9  18  40  71  90 135 174 225 282 347 420
#     4  11  23  46  66  97 146 183 229 302 350 426
#     4  12  25  52  76 107 137 193 248 301 366 431
#     4   9  17  36  68  96 124 178 224 268 345 426
#     4   8  18  39  57  88 132 170 214 278 341 423
#
# _framework density 22.956654
#
# number of rings (size 3 to 8) (size 9 to 14) (size 15 to 20)
#    0.000    2.000    2.500    1.875    3.500    4.000 
#    9.000    0.000    0.000    0.000    0.000    0.000 
#    0.000    0.000    0.000    0.000    0.000    0.000 
#
# Total GULP energy -178248.210804 kJ/mol
# GULP energy per Si atom -5570.256588 kJ/mol
# Density = 2.290440 g / cm^3
# Si number density = 22.956654 Si / 1000 Ang^3
#
#
#
# Elastic Constant Matrix: (Units=GPa)
#
#
# Indices 1 2 3 4 5 6 
#
# 1 45.2937 -4.4693 10.8665 0.0000 0.0000 0.0000
# 2 -4.4693 66.3751 35.2424 0.0000 0.0000 0.0000
# 3 10.8665 35.2424 118.5191 0.0000 0.0000 0.0000
# 4 0.0000 0.0000 0.0000 8.3872 0.0000 0.0000
# 5 0.0000 0.0000 0.0000 0.0000 -10.6060 0.0000
# 6 0.0000 0.0000 0.0000 0.0000 0.0000 20.5314
#
#
#
# Elastic Compliance Matrix: (Units=1/GPa)
#
#
# Indices 1 2 3 4 5 6 
#
# 1 0.023129 0.003186 -0.003068 0.000000 0.000000 0.000000
# 2 0.003186 0.018329 -0.005743 0.000000 0.000000 0.000000
# 3 -0.003068 -0.005743 0.010426 0.000000 0.000000 0.000000
# 4 0.000000 0.000000 0.000000 0.119230 0.000000 0.000000
# 5 0.000000 0.000000 0.000000 0.000000 -0.094286 0.000000
# 6 0.000000 0.000000 0.000000 0.000000 0.000000 0.048706
#
#
# Mechanical properties :
#
#
# Convention : Reuss Voigt Hill
#
# Bulk Modulus (GPa) = 24.60876 34.82968 29.71922
# Shear Modulus (GPa) = 33.26074 16.23240 24.74657
#
# Velocity S-wave (km/s) = 3.81051 2.66200 3.28681
# Velocity P-wave (km/s) = 5.48661 4.96520 5.23240
#
# Compressibility (1/GPa) = 0.04063594
#
# Stress axis : x y z
#
# Youngs Moduli (GPa) = 43.23652 54.55691 95.91100
#
# Poissons Ratio (x) = -0.17384 0.29426
# Poissons Ratio (y) = -0.13777 0.55077
# Poissons Ratio (z) = 0.13265 0.31329
#
# Static dielectric constant tensor:
#      x y z
#    x 2.021110 0.000000 0.000000 
#    y 0.000000 1.943630 0.000000 
#    z 0.000000 0.000000 1.909770 
# 
# From -- ./inp_files/4148.got.cif
#   From: 2010.05.17/outbox.cif.g08.bks.cpg/sg30_3_cif.got.tgz:4148.got - 2010.06.03 17:03:02.
