data_PCOD9342128
_publ_section_title
;
Structure prediction by ZEFSAII (Michael W. Deem and Ramdas Pophale) SiO2 
 PCOD9342128
Probable space group: P N C 2
;
_chemical_formula_sum "Si O2"
_cell_formula_units_Z 26
_cell_length_a 10.827448
_cell_length_b 10.971112
_cell_length_c 9.289926
_cell_angle_alpha 90.000000
_cell_angle_beta 90.000000
_cell_angle_gamma 90.000000
_cell_volume 1103.542364
_symmetry_space_group_name_H-M "P N C 2"
_symmetry_group_IT_number 30
_symmetry_cell_setting 'orthorhombic'
loop_
_space_group_symop_operation_xyz
x,y,z
-x,-y,z
-x,1/2+y,1/2+z
x,1/2-y,1/2+z
loop_
_atom_site_type_symbol
_atom_site_label
_atom_site_fract_x
_atom_site_fract_y
_atom_site_fract_z
Si Si1 0.500000 0.000000 0.701320
Si Si2 0.300229 0.656442 0.372013
Si Si3 0.142195 0.982249 0.694767
Si Si4 0.419379 0.240067 0.076416
Si Si5 0.854076 0.529783 0.874506
Si Si6 0.247966 0.277156 0.320939
Si Si7 0.344469 0.616766 0.693573
O O1 0.607942 0.054339 0.803354
O O2 0.465805 0.120372 0.606121
O O3 0.176304 0.638123 0.281028
O O4 0.281224 0.648267 0.540670
O O5 0.350871 0.785390 0.322280
O O6 0.190968 0.981900 0.531566
O O7 0.187162 0.093523 0.794176
O O8 0.000000 0.000000 0.674289
O O9 0.294022 0.233299 0.165975
O O10 0.513124 0.135778 0.133467
O O11 0.373400 0.218239 0.915155
O O12 0.842187 0.675648 0.882267
O O13 0.748474 0.482678 0.763202
O O14 0.000000 0.500000 0.845571
#
# Coordination Sequence:
#
# PCOD9342128 Si02
#       7
#     2   4   4   4   4   4   4
#     4  10  20  42  70 104 146 190 232 298 358 448
#     4  11  23  43  68 102 143 182 241 290 367 430
#     4  11  26  48  74 100 140 195 243 308 361 429
#     4  11  24  42  73 105 148 184 242 296 374 443
#     4  11  27  49  73 106 147 192 253 304 365 445
#     4  12  24  47  72 106 142 193 240 303 372 439
#     4  11  26  43  71 109 144 190 235 305 368 439
#
# _framework density 23.560490999999999
#
# number of rings (size 3 to 8) (size 9 to 14) (size 15 to 20)
#    0.000    0.923    3.077    2.769    4.308    4.923 
#    0.000    0.000    0.000    0.000    0.000    0.000 
#    0.000    0.000    0.000    0.000    0.000    0.000 
#
# Total GULP energy -144962.237668 kJ/mol
# GULP energy per Si atom -5575.470680 kJ/mol
# Density = 2.350687 g / cm^3
# Si number density = 23.560491 Si / 1000 Ang^3
#
#
#
# Elastic Constant Matrix: (Units=GPa)
#
#
# Indices 1 2 3 4 5 6 
#
# 1 62.4364 29.2781 3.9125 0.0000 0.0000 0.0000
# 2 29.2781 96.8730 12.7475 0.0000 0.0000 0.0000
# 3 3.9125 12.7475 107.2564 0.0000 0.0000 0.0000
# 4 0.0000 0.0000 0.0000 20.0742 0.0000 0.0000
# 5 0.0000 0.0000 0.0000 0.0000 24.2581 0.0000
# 6 0.0000 0.0000 0.0000 0.0000 0.0000 31.6520
#
#
#
# Elastic Compliance Matrix: (Units=1/GPa)
#
#
# Indices 1 2 3 4 5 6 
#
# 1 0.018661 -0.005639 -0.000011 0.000000 0.000000 0.000000
# 2 -0.005639 0.012191 -0.001243 0.000000 0.000000 0.000000
# 3 -0.000011 -0.001243 0.009472 0.000000 0.000000 0.000000
# 4 0.000000 0.000000 0.000000 0.049815 0.000000 0.000000
# 5 0.000000 0.000000 0.000000 0.000000 0.041223 0.000000
# 6 0.000000 0.000000 0.000000 0.000000 0.000000 0.031594
#
#
# Mechanical properties :
#
#
# Convention : Reuss Voigt Hill
#
# Bulk Modulus (GPa) = 37.68105 39.82690 38.75398
# Shear Modulus (GPa) = 26.94167 29.90537 28.42352
#
# Velocity S-wave (km/s) = 3.38525 3.56659 3.47710
# Velocity P-wave (km/s) = 5.59535 5.82251 5.71006
#
# Compressibility (1/GPa) = 0.02653854
#
# Stress axis : x y z
#
# Youngs Moduli (GPa) = 53.58759 82.03079 105.57892
#
# Poissons Ratio (x) = 0.46254 0.00112
# Poissons Ratio (y) = 0.30216 0.13125
# Poissons Ratio (z) = 0.00057 0.10198
#
# Static dielectric constant tensor:
#      x y z
#    x 1.987900 0.000000 0.000000 
#    y 0.000000 1.965510 0.000000 
#    z 0.000000 0.000000 1.837200 
# 
# From -- ./inp_files/2389.got.cif
#   From: 2010.05.17/outbox.cif.g08.bks.cpg/sg30_2_cif.got.tgz:2389.got - 2010.06.03 17:03:02.
