data_PCOD9342591
_publ_section_title
;
Structure prediction by ZEFSAII (Michael W. Deem and Ramdas Pophale) SiO2 
 PCOD9342591
Probable space group: P N C 2
;
_chemical_formula_sum "Si O2"
_cell_formula_units_Z 16
_cell_length_a 8.261330
_cell_length_b 5.235622
_cell_length_c 13.937573
_cell_angle_alpha 90.000000
_cell_angle_beta 90.000000
_cell_angle_gamma 90.000000
_cell_volume 602.844648
_symmetry_space_group_name_H-M "P N C 2"
_symmetry_group_IT_number 30
_symmetry_cell_setting 'orthorhombic'
loop_
_space_group_symop_operation_xyz
x,y,z
-x,-y,z
-x,1/2+y,1/2+z
x,1/2-y,1/2+z
loop_
_atom_site_type_symbol
_atom_site_label
_atom_site_fract_x
_atom_site_fract_y
_atom_site_fract_z
Si Si1 0.344621 0.351796 0.116720
Si Si2 0.462208 0.745351 0.314128
Si Si3 0.899703 0.256641 0.333345
Si Si4 0.838092 0.147497 0.059321
O O1 0.500000 0.500000 0.075170
O O2 0.412958 0.281372 0.224479
O O3 0.207767 0.572881 0.102030
O O4 0.292520 0.079313 0.074549
O O5 0.500000 0.500000 0.375799
O O6 0.275976 0.760306 0.286096
O O7 0.500000 0.000000 0.367786
O O8 0.865484 0.298913 0.446470
O O9 0.000000 0.500000 0.299063
O O10 0.000000 0.000000 0.320926
O O11 0.000000 0.000000 0.096424
#
# Coordination Sequence:
#
# PCOD9342591 Si02
#       4
#     4   4   4   4
#     4  11  23  43  66  98 139 177 225 275 336 410
#     4  11  24  45  66  98 140 180 228 273 336 411
#     4  11  24  45  72 101 135 177 227 283 341 402
#     4  11  23  43  70 101 134 174 226 283 341 399
#
# _framework density 26.540835000000001
#
# number of rings (size 3 to 8) (size 9 to 14) (size 15 to 20)
#    0.000    1.000    0.000    9.000    0.000    3.000 
#    0.000   31.250    0.000    0.000    0.000    0.000 
#    0.000    0.000    0.000    0.000    0.000    0.000 
#
# Total GULP energy -89498.976365 kJ/mol
# GULP energy per Si atom -5593.686023 kJ/mol
# Density = 2.648043 g / cm^3
# Si number density = 26.540835 Si / 1000 Ang^3
#
#
#
# Elastic Constant Matrix: (Units=GPa)
#
#
# Indices 1 2 3 4 5 6 
#
# 1 143.2757 82.3309 15.7345 0.0000 0.0000 0.0000
# 2 82.3309 287.9514 31.9626 0.0000 0.0000 0.0000
# 3 15.7345 31.9626 124.0153 0.0000 0.0000 0.0000
# 4 0.0000 0.0000 0.0000 105.5008 0.0000 0.0000
# 5 0.0000 0.0000 0.0000 0.0000 12.5519 0.0000
# 6 0.0000 0.0000 0.0000 0.0000 0.0000 73.3710
#
#
#
# Elastic Compliance Matrix: (Units=1/GPa)
#
#
# Indices 1 2 3 4 5 6 
#
# 1 0.008377 -0.002344 -0.000459 0.000000 0.000000 0.000000
# 2 -0.002344 0.004231 -0.000793 0.000000 0.000000 0.000000
# 3 -0.000459 -0.000793 0.008326 0.000000 0.000000 0.000000
# 4 0.000000 0.000000 0.000000 0.009479 0.000000 0.000000
# 5 0.000000 0.000000 0.000000 0.000000 0.079669 0.000000
# 6 0.000000 0.000000 0.000000 0.000000 0.000000 0.013629
#
#
# Mechanical properties :
#
#
# Convention : Reuss Voigt Hill
#
# Bulk Modulus (GPa) = 72.76796 90.58869 81.67833
# Shear Modulus (GPa) = 36.90477 66.63238 51.76858
#
# Velocity S-wave (km/s) = 3.73297 5.01599 4.42127
# Velocity P-wave (km/s) = 6.78653 8.23120 7.54353
#
# Compressibility (1/GPa) = 0.01374231
#
# Stress axis : x y z
#
# Youngs Moduli (GPa) = 119.37460 236.34522 120.10411
#
# Poissons Ratio (x) = 0.55405 0.05509
# Poissons Ratio (y) = 0.27984 0.09525
# Poissons Ratio (z) = 0.05475 0.18744
#
# Static dielectric constant tensor:
#      x y z
#    x 2.264900 0.000000 0.000000 
#    y 0.000000 2.157720 0.000000 
#    z 0.000000 0.000000 2.074080 
# 
# From -- ./inp_files/4839.got.cif
#   From: 2010.05.17/outbox.cif.g08.bks.cpg/sg30_3_cif.got.tgz:4839.got - 2010.06.03 17:03:02.
