data_PCOD9342899
_publ_section_title
;
Structure prediction by ZEFSAII (Michael W. Deem and Ramdas Pophale) SiO2 
 PCOD9342899
Probable space group: P M N 21
;
_chemical_formula_sum "Si O2"
_cell_formula_units_Z 32
_cell_length_a 7.990989
_cell_length_b 11.092201
_cell_length_c 14.539213
_cell_angle_alpha 90.000000
_cell_angle_beta 90.000000
_cell_angle_gamma 90.000000
_cell_volume 1288.721763
_symmetry_space_group_name_H-M "P M N 21"
_symmetry_group_IT_number 31
_symmetry_cell_setting 'orthorhombic'
loop_
_space_group_symop_operation_xyz
x,y,z
1/2-x,-y,1/2+z
-x,y,z
1/2+x,-y,1/2+z
loop_
_atom_site_type_symbol
_atom_site_label
_atom_site_fract_x
_atom_site_fract_y
_atom_site_fract_z
Si Si1 0.801155 0.202272 0.321880
Si Si2 0.699198 0.306379 0.932511
Si Si3 0.804605 0.071975 0.155543
Si Si4 0.306547 0.062229 0.487711
Si Si5 0.301278 0.562579 0.608209
Si Si6 0.695044 0.846315 0.269795
Si Si7 0.795624 0.460332 0.320395
Si Si8 0.302466 0.703003 0.093050
O O1 0.770893 0.092750 0.390448
O O2 0.744142 0.330370 0.360826
O O3 0.000000 0.212926 0.310148
O O4 0.728638 0.172844 0.221436
O O5 0.500000 0.300821 0.924759
O O6 0.767266 0.193647 0.873762
O O7 0.765178 0.425005 0.877157
O O8 0.741942 0.333138 0.038686
O O9 0.727851 0.034235 0.058027
O O10 0.796114 0.953216 0.220795
O O11 0.000000 0.099989 0.138390
O O12 0.500000 0.033395 0.473395
O O13 0.291187 0.189676 0.541337
O O14 0.500000 0.573407 0.612738
O O15 0.241371 0.552726 0.713937
O O16 0.250996 0.431486 0.569031
O O17 0.500000 0.879385 0.262087
O O18 0.724508 0.731938 0.201559
O O19 0.000000 0.469267 0.321745
O O20 0.500000 0.716819 0.072850
#
# Coordination Sequence:
#
# PCOD9342899 Si02
#       8
#     4   4   4   4   4   4   4   4
#     4  10  20  39  62  84 114 156 197 237 288 353
#     4  11  21  36  57  84 118 155 192 233 288 352
#     4   9  20  38  60  83 114 153 193 237 292 350
#     4  10  20  35  57  88 116 150 196 245 292 341
#     4  11  21  35  54  83 117 154 193 234 287 348
#     4  10  20  35  57  82 109 143 190 244 288 334
#     4   9  20  37  58  82 115 155 191 230 285 348
#     4  10  19  33  55  82 111 148 192 240 286 336
#
# _framework density 24.830805999999999
#
# number of rings (size 3 to 8) (size 9 to 14) (size 15 to 20)
#    0.000    2.000    1.250    2.625    0.000    3.000 
#    2.250    1.875    0.000    0.000    0.000    0.000 
#    0.000    0.000    0.000    0.000    0.000    0.000 
#
# Total GULP energy -178848.102386 kJ/mol
# GULP energy per Si atom -5589.003200 kJ/mol
# Density = 2.477429 g / cm^3
# Si number density = 24.830806 Si / 1000 Ang^3
#
#
#
# Elastic Constant Matrix: (Units=GPa)
#
#
# Indices 1 2 3 4 5 6 
#
# 1 32.7598 -6.9771 1.3269 0.0000 0.0000 0.0000
# 2 -6.9771 64.3911 12.9822 0.0000 0.0000 0.0000
# 3 1.3269 12.9822 122.5352 0.0000 0.0000 0.0000
# 4 0.0000 0.0000 0.0000 48.9881 0.0000 0.0000
# 5 0.0000 0.0000 0.0000 0.0000 24.5366 0.0000
# 6 0.0000 0.0000 0.0000 0.0000 0.0000 9.1286
#
#
#
# Elastic Compliance Matrix: (Units=1/GPa)
#
#
# Indices 1 2 3 4 5 6 
#
# 1 0.031307 0.003536 -0.000714 0.000000 0.000000 0.000000
# 2 0.003536 0.016268 -0.001762 0.000000 0.000000 0.000000
# 3 -0.000714 -0.001762 0.008355 0.000000 0.000000 0.000000
# 4 0.000000 0.000000 0.000000 0.020413 0.000000 0.000000
# 5 0.000000 0.000000 0.000000 0.000000 0.040755 0.000000
# 6 0.000000 0.000000 0.000000 0.000000 0.000000 0.109546
#
#
# Mechanical properties :
#
#
# Convention : Reuss Voigt Hill
#
# Bulk Modulus (GPa) = 17.22583 26.03888 21.63236
# Shear Modulus (GPa) = 20.50233 30.68761 25.59497
#
# Velocity S-wave (km/s) = 2.87658 3.51931 3.21405
# Velocity P-wave (km/s) = 4.24091 5.19839 4.74387
#
# Compressibility (1/GPa) = 0.05805236
#
# Stress axis : x y z
#
# Youngs Moduli (GPa) = 31.94149 61.46853 119.68434
#
# Poissons Ratio (x) = -0.21736 0.08541
# Poissons Ratio (y) = -0.11295 0.21087
# Poissons Ratio (z) = 0.02280 0.10830
#
# Static dielectric constant tensor:
#      x y z
#    x 1.873850 0.000000 0.000000 
#    y 0.000000 2.008390 0.000000 
#    z 0.000000 0.000000 2.030780 
# 
# From -- ./inp_files/5090.got.cif
#   From: 2010.05.17/outbox.cif.g08.bks.cpg/sg31_3_cif.got.tgz:5090.got - 2010.06.03 17:08:30.
