data_PCOD9342034
_publ_section_title
;
Structure prediction by ZEFSAII (Michael W. Deem and Ramdas Pophale) SiO2 
 PCOD9342034
Probable space group: P N C 2
;
_chemical_formula_sum "Si O2"
_cell_formula_units_Z 32
_cell_length_a 11.600423
_cell_length_b 13.571028
_cell_length_c 11.127767
_cell_angle_alpha 90.000000
_cell_angle_beta 90.000000
_cell_angle_gamma 90.000000
_cell_volume 1751.840635
_symmetry_space_group_name_H-M "P N C 2"
_symmetry_group_IT_number 30
_symmetry_cell_setting 'orthorhombic'
loop_
_space_group_symop_operation_xyz
x,y,z
-x,-y,z
-x,1/2+y,1/2+z
x,1/2-y,1/2+z
loop_
_atom_site_type_symbol
_atom_site_label
_atom_site_fract_x
_atom_site_fract_y
_atom_site_fract_z
Si Si1 0.186819 0.881239 0.905850
Si Si2 0.531244 0.167106 0.267545
Si Si3 0.883561 0.548784 0.959078
Si Si4 0.995709 0.750000 0.517545
Si Si5 0.813181 0.118760 0.629241
Si Si6 0.116439 0.048784 0.076012
Si Si7 0.620590 0.250000 0.017545
Si Si8 0.686656 0.527455 0.767545
O O1 0.219573 0.886504 0.767545
O O2 0.083145 0.802294 0.923960
O O3 0.293761 0.840165 0.983338
O O4 0.141624 0.985360 0.956007
O O5 0.552180 0.224961 0.141174
O O6 0.552180 0.224961 0.393916
O O7 0.407602 0.113927 0.267545
O O8 0.622975 0.077382 0.267545
O O9 0.915896 0.662225 0.972354
O O10 0.771571 0.535609 0.879663
O O11 0.000000 0.500000 0.906693
O O12 0.858376 0.485360 0.079083
O O13 0.915896 0.662225 0.562737
O O14 0.083145 0.802294 0.611130
O O15 0.706239 0.159835 0.551752
O O16 0.228429 0.035609 0.155427
O O17 0.000000 0.000000 0.128397
#
# Coordination Sequence:
#
# PCOD9342034 Si02
#       8
#     4   4   4   4   4   4   4   4
#     4  10  20  36  61  90 123 161 209 256 302 367
#     4  11  24  40  68  90 121 159 217 259 300 360
#     4  10  21  38  60  91 124 161 201 252 309 370
#     4   9  22  33  56  94 126 161 201 248 320 372
#     4  10  20  36  61  90 123 161 209 256 302 367
#     4  10  21  38  60  91 124 161 201 252 309 370
#     4  11  20  39  66  94 118 163 211 256 302 358
#     4  11  23  40  62  87 123 162 203 256 306 363
#
# _framework density 18.266503
#
# number of rings (size 3 to 8) (size 9 to 14) (size 15 to 20)
#    0.000    1.750    3.750    0.375    1.750    5.500 
#    0.000    0.000    2.750    3.000    0.000    0.000 
#    0.000    0.000    0.000    0.000    0.000    0.000 
#
# Total GULP energy -178375.555650 kJ/mol
# GULP energy per Si atom -5574.236114 kJ/mol
# Density = 1.822493 g / cm^3
# Si number density = 18.266503 Si / 1000 Ang^3
#
#
#
# Elastic Constant Matrix: (Units=GPa)
#
#
# Indices 1 2 3 4 5 6 
#
# 1 97.1569 35.0409 38.7500 0.0000 0.0000 0.0000
# 2 35.0409 114.1048 34.0882 0.0000 0.0000 0.0000
# 3 38.7500 34.0882 119.3690 0.0000 0.0000 0.0000
# 4 0.0000 0.0000 0.0000 1295.6952 0.0000 0.0000
# 5 0.0000 0.0000 0.0000 0.0000 21.0174 0.0000
# 6 0.0000 0.0000 0.0000 0.0000 0.0000 19.4821
#
#
#
# Elastic Compliance Matrix: (Units=1/GPa)
#
#
# Indices 1 2 3 4 5 6 
#
# 1 0.012647 -0.002905 -0.003276 0.000000 0.000000 0.000000
# 2 -0.002905 0.010249 -0.001984 0.000000 0.000000 0.000000
# 3 -0.003276 -0.001984 0.010007 0.000000 0.000000 0.000000
# 4 0.000000 0.000000 0.000000 0.000772 0.000000 0.000000
# 5 0.000000 0.000000 0.000000 0.000000 0.047580 0.000000
# 6 0.000000 0.000000 0.000000 0.000000 0.000000 0.051329
#
#
# Mechanical properties :
#
#
# Convention : Reuss Voigt Hill
#
# Bulk Modulus (GPa) = 60.33707 60.70988 60.52348
# Shear Modulus (GPa) = 32.37561 282.08905 157.23233
#
# Velocity S-wave (km/s) = 4.21456 12.44046 9.28783
# Velocity P-wave (km/s) = 7.53569 15.48099 12.17472
#
# Compressibility (1/GPa) = 0.01657356
#
# Stress axis : x y z
#
# Youngs Moduli (GPa) = 79.07038 97.57408 99.92736
#
# Poissons Ratio (x) = 0.28347 0.32735
# Poissons Ratio (y) = 0.22971 0.19822
# Poissons Ratio (z) = 0.25902 0.19355
#
# Static dielectric constant tensor:
#      x y z
#    x 1.611620 0.000000 0.000000 
#    y 0.000000 1.313300 0.000000 
#    z 0.000000 0.000000 1.646240 
# 
# From -- ./inp_files/4144.got.cif
#   From: 2010.05.17/outbox.cif.g08.bks.cpg/sg30_3_cif.got.tgz:4144.got - 2010.06.03 17:03:02.
