data_PCOD9342598
_publ_section_title
;
Structure prediction by ZEFSAII (Michael W. Deem and Ramdas Pophale) SiO2 
 PCOD9342598
Probable space group: P N C 2
;
_chemical_formula_sum "Si O2"
_cell_formula_units_Z 30
_cell_length_a 14.032677
_cell_length_b 8.641729
_cell_length_c 11.223441
_cell_angle_alpha 90.000000
_cell_angle_beta 90.000000
_cell_angle_gamma 90.000000
_cell_volume 1361.028438
_symmetry_space_group_name_H-M "P N C 2"
_symmetry_group_IT_number 30
_symmetry_cell_setting 'orthorhombic'
loop_
_space_group_symop_operation_xyz
x,y,z
-x,-y,z
-x,1/2+y,1/2+z
x,1/2-y,1/2+z
loop_
_atom_site_type_symbol
_atom_site_label
_atom_site_fract_x
_atom_site_fract_y
_atom_site_fract_z
Si Si1 0.000000 0.000000 0.128750
Si Si2 0.467640 0.180374 0.063166
Si Si3 0.140703 0.053791 0.643627
Si Si4 0.105819 0.194883 0.302435
Si Si5 0.249556 0.298788 0.484595
Si Si6 0.458337 0.675637 0.312416
Si Si7 0.930399 0.287228 0.972800
Si Si8 0.238286 0.883279 0.851497
O O1 0.087089 0.057716 0.210931
O O2 0.961188 0.139523 0.050361
O O3 0.355170 0.201953 0.039379
O O4 0.507054 0.248857 0.937874
O O5 0.500000 0.000000 0.066110
O O6 0.505415 0.250852 0.187957
O O7 0.075612 0.144123 0.738279
O O8 0.189029 0.199571 0.578292
O O9 0.098721 0.929460 0.555129
O O10 0.212538 0.959795 0.725978
O O11 0.210098 0.216003 0.361701
O O12 0.024886 0.174730 0.400262
O O13 0.233290 0.478535 0.450149
O O14 0.500000 0.500000 0.310467
O O15 0.344939 0.675092 0.331324
O O16 0.840831 0.240541 0.890404
#
# Coordination Sequence:
#
# PCOD9342598 Si02
#       8
#     2   4   4   4   4   4   4   4
#     4  12  24  44  70 102 152 198 234 312 366 448
#     4  11  25  48  76 108 149 195 253 320 388 463
#     4  11  25  43  71 103 139 192 243 302 362 452
#     4  11  25  44  68 103 143 191 246 300 373 451
#     4  11  23  44  73 101 136 193 249 301 379 450
#     4  11  24  49  73 106 150 195 249 324 384 455
#     4  12  26  45  68 107 149 195 245 301 373 454
#     4  11  24  44  70  99 145 190 242 304 382 446
#
# _framework density 22.042157
#
# number of rings (size 3 to 8) (size 9 to 14) (size 15 to 20)
#    0.000    0.800    2.667    5.600    3.733    5.333 
#    2.400    0.000    0.000    0.000    0.000    0.000 
#    0.000    0.000    0.000    0.000    0.000    0.000 
#
# Total GULP energy -167457.603289 kJ/mol
# GULP energy per Si atom -5581.920110 kJ/mol
# Density = 2.199199 g / cm^3
# Si number density = 22.042157 Si / 1000 Ang^3
#
#
#
# Elastic Constant Matrix: (Units=GPa)
#
#
# Indices 1 2 3 4 5 6 
#
# 1 125.4354 42.1677 48.6299 0.0000 0.0000 0.0000
# 2 42.1677 83.7104 57.3157 0.0000 0.0000 0.0000
# 3 48.6299 57.3157 143.3569 0.0000 0.0000 0.0000
# 4 0.0000 0.0000 0.0000 57.1462 0.0000 0.0000
# 5 0.0000 0.0000 0.0000 0.0000 24.7875 0.0000
# 6 0.0000 0.0000 0.0000 0.0000 0.0000 21.4837
#
#
#
# Elastic Compliance Matrix: (Units=1/GPa)
#
#
# Indices 1 2 3 4 5 6 
#
# 1 0.009956 -0.003721 -0.001889 0.000000 0.000000 0.000000
# 2 -0.003721 0.017840 -0.005870 0.000000 0.000000 0.000000
# 3 -0.001889 -0.005870 0.009963 0.000000 0.000000 0.000000
# 4 0.000000 0.000000 0.000000 0.017499 0.000000 0.000000
# 5 0.000000 0.000000 0.000000 0.000000 0.040343 0.000000
# 6 0.000000 0.000000 0.000000 0.000000 0.000000 0.046547
#
#
# Mechanical properties :
#
#
# Convention : Reuss Voigt Hill
#
# Bulk Modulus (GPa) = 67.58062 72.08104 69.83083
# Shear Modulus (GPa) = 29.40449 34.30945 31.85697
#
# Velocity S-wave (km/s) = 3.65637 3.94958 3.80580
# Velocity P-wave (km/s) = 6.96791 7.31924 7.14573
#
# Compressibility (1/GPa) = 0.01479714
#
# Stress axis : x y z
#
# Youngs Moduli (GPa) = 100.44460 56.05451 100.36671
#
# Poissons Ratio (x) = 0.20860 0.18963
# Poissons Ratio (y) = 0.37380 0.58917
# Poissons Ratio (z) = 0.18978 0.32905
#
# Static dielectric constant tensor:
#      x y z
#    x 1.826430 0.000000 0.000000 
#    y 0.000000 1.800110 0.000000 
#    z 0.000000 0.000000 1.897620 
# 
# From -- ./inp_files/4352.got.cif
#   From: 2010.05.17/outbox.cif.g08.bks.cpg/sg30_3_cif.got.tgz:4352.got - 2010.06.03 17:03:02.
