data_PCOD9342690
_publ_section_title
;
Structure prediction by ZEFSAII (Michael W. Deem and Ramdas Pophale) SiO2 
 PCOD9342690
Probable space group: P M N 21
;
_chemical_formula_sum "Si O2"
_cell_formula_units_Z 28
_cell_length_a 13.729575
_cell_length_b 23.809289
_cell_length_c 5.122855
_cell_angle_alpha 90.000000
_cell_angle_beta 90.000000
_cell_angle_gamma 90.000000
_cell_volume 1674.617340
_symmetry_space_group_name_H-M "P M N 21"
_symmetry_group_IT_number 31
_symmetry_cell_setting 'orthorhombic'
loop_
_space_group_symop_operation_xyz
x,y,z
1/2-x,-y,1/2+z
-x,y,z
1/2+x,-y,1/2+z
loop_
_atom_site_type_symbol
_atom_site_label
_atom_site_fract_x
_atom_site_fract_y
_atom_site_fract_z
Si Si1 0.104278 0.914718 0.438720
Si Si2 0.805085 0.020636 0.308861
Si Si3 0.114963 0.504595 0.920093
Si Si4 0.197181 0.567715 0.420416
Si Si5 0.386269 0.238557 0.325137
Si Si6 0.612824 0.313834 0.825006
Si Si7 0.291789 0.124307 0.439567
O O1 0.105278 0.980896 0.376392
O O2 0.132164 0.904736 0.737570
O O3 0.000000 0.888909 0.383117
O O4 0.180096 0.886919 0.238730
O O5 0.726577 0.993582 0.514057
O O6 0.803324 0.086892 0.369599
O O7 0.149673 0.546021 0.688947
O O8 0.190140 0.452157 0.907652
O O9 0.000000 0.491862 0.899634
O O10 0.139573 0.535803 0.190073
O O11 0.181182 0.633588 0.382546
O O12 0.500000 0.218693 0.350258
O O13 0.373478 0.286888 0.541216
O O14 0.309076 0.189214 0.377596
O O15 0.374472 0.265323 0.040527
O O16 0.500000 0.333313 0.845517
#
# Coordination Sequence:
#
# PCOD9342690 Si02
#       7
#     4   4   4   4   4   4   4
#     4  10  17  26  42  61  81 105 133 170 214 257
#     4   8  16  27  39  56  78 103 130 160 204 251
#     4  10  19  32  51  74  97 123 156 191 230 275
#     4  10  20  32  49  72  98 127 155 187 232 277
#     4  10  19  28  41  61  84 115 148 174 207 252
#     4  10  19  30  43  62  90 119 147 178 212 257
#     4  10  18  29  41  58  84 110 137 172 209 253
#
# _framework density 16.720237999999998
#
# number of rings (size 3 to 8) (size 9 to 14) (size 15 to 20)
#    0.000    2.286    0.000    4.286    0.000    2.286 
#    0.000    0.000    0.000    0.000    0.000    2.000 
#    0.000    0.000    0.000    0.000    0.000    0.000 
#
# Total GULP energy -155888.876399 kJ/mol
# GULP energy per Si atom -5567.459871 kJ/mol
# Density = 1.668218 g / cm^3
# Si number density = 16.720238 Si / 1000 Ang^3
#
#
#
# Elastic Constant Matrix: (Units=GPa)
#
#
# Indices 1 2 3 4 5 6 
#
# 1 58.0468 14.5258 -2.4570 0.0000 0.0000 0.0000
# 2 14.5258 60.6393 -18.7159 0.0000 0.0000 0.0000
# 3 -2.4570 -18.7159 53.0865 0.0000 0.0000 0.0000
# 4 0.0000 0.0000 0.0000 11.8470 0.0000 0.0000
# 5 0.0000 0.0000 0.0000 0.0000 9.7909 0.0000
# 6 0.0000 0.0000 0.0000 0.0000 0.0000 13.2642
#
#
#
# Elastic Compliance Matrix: (Units=1/GPa)
#
#
# Indices 1 2 3 4 5 6 
#
# 1 0.018355 -0.004640 -0.000786 0.000000 0.000000 0.000000
# 2 -0.004640 0.019677 0.006723 0.000000 0.000000 0.000000
# 3 -0.000786 0.006723 0.021171 0.000000 0.000000 0.000000
# 4 0.000000 0.000000 0.000000 0.084410 0.000000 0.000000
# 5 0.000000 0.000000 0.000000 0.000000 0.102136 0.000000
# 6 0.000000 0.000000 0.000000 0.000000 0.000000 0.075391
#
#
# Mechanical properties :
#
#
# Convention : Reuss Voigt Hill
#
# Bulk Modulus (GPa) = 16.18200 17.60870 16.89535
# Shear Modulus (GPa) = 14.74294 18.87505 16.80900
#
# Velocity S-wave (km/s) = 2.97264 3.36352 3.17410
# Velocity P-wave (km/s) = 4.63478 5.06345 4.85385
#
# Compressibility (1/GPa) = 0.06179705
#
# Stress axis : x y z
#
# Youngs Moduli (GPa) = 54.48045 50.82027 47.23471
#
# Poissons Ratio (x) = 0.23578 0.03713
# Poissons Ratio (y) = 0.25276 -0.31754
# Poissons Ratio (z) = 0.04283 -0.34164
#
# Static dielectric constant tensor:
#      x y z
#    x 1.597610 0.000000 0.000000 
#    y 0.000000 1.598740 0.000000 
#    z 0.000000 0.000000 1.564460 
# 
# From -- ./inp_files/413.got.cif
#   From: 2010.05.17/outbox.cif.g08.bks.cpg/sg31_1_cif.got.tgz:413.got - 2010.06.03 17:08:30.
