data_PCOD9342513
_publ_section_title
;
Structure prediction by ZEFSAII (Michael W. Deem and Ramdas Pophale) SiO2 
 PCOD9342513
Probable space group: P N C 2
;
_chemical_formula_sum "Si O2"
_cell_formula_units_Z 28
_cell_length_a 13.789537
_cell_length_b 7.089031
_cell_length_c 12.687295
_cell_angle_alpha 90.000000
_cell_angle_beta 90.000000
_cell_angle_gamma 90.000000
_cell_volume 1240.239612
_symmetry_space_group_name_H-M "P N C 2"
_symmetry_group_IT_number 30
_symmetry_cell_setting 'orthorhombic'
loop_
_space_group_symop_operation_xyz
x,y,z
-x,-y,z
-x,1/2+y,1/2+z
x,1/2-y,1/2+z
loop_
_atom_site_type_symbol
_atom_site_label
_atom_site_fract_x
_atom_site_fract_y
_atom_site_fract_z
Si Si1 0.114372 0.245807 0.824190
Si Si2 0.238834 0.515842 0.691820
Si Si3 0.546411 0.791979 0.973799
Si Si4 0.385627 0.745807 0.810166
Si Si5 0.261166 0.015843 0.942536
Si Si6 0.000000 0.000000 0.482209
Si Si7 0.046411 0.791979 0.160556
Si Si8 0.500000 0.500000 0.152147
O O1 0.195360 0.330960 0.746090
O O2 0.162121 0.077609 0.888311
O O3 0.022394 0.207849 0.750811
O O4 0.080074 0.404283 0.907554
O O5 0.337879 0.577609 0.746044
O O6 0.250000 0.499999 0.567178
O O7 0.154129 0.673121 0.703255
O O8 0.477606 0.707848 0.883544
O O9 0.654130 0.826878 0.931100
O O10 0.500000 0.000000 0.996740
O O11 0.542930 0.661347 0.076121
O O12 0.419925 0.904282 0.726802
O O13 0.304640 0.830961 0.888266
O O14 0.042930 0.838654 0.558235
O O15 0.000000 0.000000 0.137615
#
# Coordination Sequence:
#
# PCOD9342513 Si02
#       8
#     4   4   4   4   4   2   4   2
#     4  11  24  46  68 107 137 182 233 285 357 418
#     4  11  25  44  72 104 139 181 237 291 344 424
#     4  10  24  47  66 106 142 179 233 286 347 412
#     4  11  24  46  68 107 137 182 233 285 357 418
#     4  11  25  44  72 104 139 181 237 291 344 424
#     4  12  24  46  74  94 144 182 226 286 352 414
#     4  10  24  47  66 106 142 179 233 286 347 412
#     4  12  24  46  74  94 144 182 226 286 352 414
#
# _framework density 22.576283
#
# number of rings (size 3 to 8) (size 9 to 14) (size 15 to 20)
#    0.000    1.143    4.286    3.429    8.000    1.143 
#    2.571    0.000    0.000    0.000    0.000    0.000 
#    0.000    0.000    0.000    0.000    0.000    0.000 
#
# Total GULP energy -156716.826032 kJ/mol
# GULP energy per Si atom -5597.029501 kJ/mol
# Density = 2.252490 g / cm^3
# Si number density = 22.576283 Si / 1000 Ang^3
#
#
#
# Elastic Constant Matrix: (Units=GPa)
#
#
# Indices 1 2 3 4 5 6 
#
# 1 81.2173 0.5522 27.2838 0.0000 0.0000 0.0000
# 2 0.5522 55.6863 18.9702 0.0000 0.0000 0.0000
# 3 27.2838 18.9702 133.6295 0.0000 0.0000 0.0000
# 4 0.0000 0.0000 0.0000 50.2960 0.0000 0.0000
# 5 0.0000 0.0000 0.0000 0.0000 27.7143 0.0000
# 6 0.0000 0.0000 0.0000 0.0000 0.0000 26.0971
#
#
#
# Elastic Compliance Matrix: (Units=1/GPa)
#
#
# Indices 1 2 3 4 5 6 
#
# 1 0.013256 0.000831 -0.002824 0.000000 0.000000 0.000000
# 2 0.000831 0.018922 -0.002856 0.000000 0.000000 0.000000
# 3 -0.002824 -0.002856 0.008465 0.000000 0.000000 0.000000
# 4 0.000000 0.000000 0.000000 0.019882 0.000000 0.000000
# 5 0.000000 0.000000 0.000000 0.000000 0.036082 0.000000
# 6 0.000000 0.000000 0.000000 0.000000 0.000000 0.038319
#
#
# Mechanical properties :
#
#
# Convention : Reuss Voigt Hill
#
# Bulk Modulus (GPa) = 32.31587 40.46061 36.38824
# Shear Modulus (GPa) = 32.27036 35.73660 34.00348
#
# Velocity S-wave (km/s) = 3.78483 3.98292 3.88514
# Velocity P-wave (km/s) = 5.78317 6.25397 6.02317
#
# Compressibility (1/GPa) = 0.03094455
#
# Stress axis : x y z
#
# Youngs Moduli (GPa) = 75.43851 52.84743 118.12681
#
# Poissons Ratio (x) = -0.04390 0.33364
# Poissons Ratio (y) = -0.06267 0.33735
# Poissons Ratio (z) = 0.21307 0.15092
#
# Static dielectric constant tensor:
#      x y z
#    x 1.828920 0.000000 0.000000 
#    y 0.000000 1.869090 0.000000 
#    z 0.000000 0.000000 1.802290 
# 
# From -- ./inp_files/4348.got.cif
#   From: 2010.05.17/outbox.cif.g08.bks.cpg/sg30_3_cif.got.tgz:4348.got - 2010.06.03 17:03:02.
