data_PCOD9342124
_publ_section_title
;
Structure prediction by ZEFSAII (Michael W. Deem and Ramdas Pophale) SiO2 
 PCOD9342124
Probable space group: P N C 2
;
_chemical_formula_sum "Si O2"
_cell_formula_units_Z 22
_cell_length_a 15.504422
_cell_length_b 7.242933
_cell_length_c 6.992722
_cell_angle_alpha 90.000000
_cell_angle_beta 90.000000
_cell_angle_gamma 90.000000
_cell_volume 785.265127
_symmetry_space_group_name_H-M "P N C 2"
_symmetry_group_IT_number 30
_symmetry_cell_setting 'orthorhombic'
loop_
_space_group_symop_operation_xyz
x,y,z
-x,-y,z
-x,1/2+y,1/2+z
x,1/2-y,1/2+z
loop_
_atom_site_type_symbol
_atom_site_label
_atom_site_fract_x
_atom_site_fract_y
_atom_site_fract_z
Si Si1 0.669735 0.913350 0.686790
Si Si2 0.260540 0.647553 0.536025
Si Si3 0.000000 0.000000 0.330165
Si Si4 0.838835 0.961181 0.546531
Si Si5 0.597384 0.971605 0.302058
Si Si6 0.919440 0.409299 0.439716
O O1 0.757627 0.830205 0.592770
O O2 0.610224 0.008212 0.526983
O O3 0.619665 0.743406 0.777248
O O4 0.701407 0.056814 0.844938
O O5 0.165396 0.561294 0.562194
O O6 0.220972 0.854590 0.508677
O O7 0.333019 0.909099 0.186259
O O8 0.948563 0.204706 0.385585
O O9 0.093459 0.103552 0.392411
O O10 0.897016 0.000129 0.736527
O O11 0.500000 0.000000 0.237938
O O12 0.000000 0.500000 0.568211
#
# Coordination Sequence:
#
# PCOD9342124 Si02
#       6
#     4   4   2   4   4   4
#     4  11  27  52  80 120 159 214 271 342 424 502
#     4  11  26  50  81 120 166 214 278 342 421 492
#     4  10  20  42  68 114 168 226 274 322 388 482
#     4  11  24  46  77 120 167 221 278 342 404 492
#     4  12  28  55  83 117 162 213 272 354 430 520
#     4   9  22  40  67 113 160 215 271 321 385 482
#
# _framework density 28.016017999999999
#
# number of rings (size 3 to 8) (size 9 to 14) (size 15 to 20)
#    0.545    0.727    2.727    1.091   10.182    2.182 
#    3.273    1.818    0.000    0.000    0.000    0.000 
#    0.000    0.000    0.000    0.000    0.000    0.000 
#
# Total GULP energy -122865.484645 kJ/mol
# GULP energy per Si atom -5584.794757 kJ/mol
# Density = 2.795225 g / cm^3
# Si number density = 28.016018 Si / 1000 Ang^3
#
#
#
# Elastic Constant Matrix: (Units=GPa)
#
#
# Indices 1 2 3 4 5 6 
#
# 1 234.5084 72.9500 98.2461 0.0000 0.0000 0.0000
# 2 72.9500 138.2482 43.2761 0.0000 0.0000 0.0000
# 3 98.2461 43.2761 161.3719 0.0000 0.0000 0.0000
# 4 0.0000 0.0000 0.0000 41.1178 0.0000 0.0000
# 5 0.0000 0.0000 0.0000 0.0000 44.4918 0.0000
# 6 0.0000 0.0000 0.0000 0.0000 0.0000 34.1914
#
#
#
# Elastic Compliance Matrix: (Units=1/GPa)
#
#
# Indices 1 2 3 4 5 6 
#
# 1 0.006347 -0.002336 -0.003238 0.000000 0.000000 0.000000
# 2 -0.002336 0.008756 -0.000926 0.000000 0.000000 0.000000
# 3 -0.003238 -0.000926 0.008417 0.000000 0.000000 0.000000
# 4 0.000000 0.000000 0.000000 0.024320 0.000000 0.000000
# 5 0.000000 0.000000 0.000000 0.000000 0.022476 0.000000
# 6 0.000000 0.000000 0.000000 0.000000 0.000000 0.029247
#
#
# Mechanical properties :
#
#
# Convention : Reuss Voigt Hill
#
# Bulk Modulus (GPa) = 95.05600 107.00809 101.03205
# Shear Modulus (GPa) = 43.07761 45.27061 44.17411
#
# Velocity S-wave (km/s) = 3.92549 4.02417 3.97513
# Velocity P-wave (km/s) = 7.38571 7.73758 7.56369
#
# Compressibility (1/GPa) = 0.01052011
#
# Stress axis : x y z
#
# Youngs Moduli (GPa) = 157.54519 114.21051 118.81333
#
# Poissons Ratio (x) = 0.26677 0.38472
# Poissons Ratio (y) = 0.36799 0.11003
# Poissons Ratio (z) = 0.51013 0.10576
#
# Static dielectric constant tensor:
#      x y z
#    x 2.252790 0.000000 0.000000 
#    y 0.000000 2.452890 0.000000 
#    z 0.000000 0.000000 2.393220 
# 
# From -- ./inp_files/2625.got.cif
#   From: 2010.05.17/outbox.cif.g08.bks.cpg/sg30_2_cif.got.tgz:2625.got - 2010.06.03 17:03:02.
