data_PCOD9342095
_publ_section_title
;
Structure prediction by ZEFSAII (Michael W. Deem and Ramdas Pophale) SiO2 
 PCOD9342095
Probable space group: P N C 2
;
_chemical_formula_sum "Si O2"
_cell_formula_units_Z 28
_cell_length_a 8.594953
_cell_length_b 25.585171
_cell_length_c 5.355130
_cell_angle_alpha 90.000000
_cell_angle_beta 90.000000
_cell_angle_gamma 90.000000
_cell_volume 1177.610985
_symmetry_space_group_name_H-M "P N C 2"
_symmetry_group_IT_number 30
_symmetry_cell_setting 'orthorhombic'
loop_
_space_group_symop_operation_xyz
x,y,z
-x,-y,z
-x,1/2+y,1/2+z
x,1/2-y,1/2+z
loop_
_atom_site_type_symbol
_atom_site_label
_atom_site_fract_x
_atom_site_fract_y
_atom_site_fract_z
Si Si1 0.000000 0.500000 0.437480
Si Si2 0.031964 0.739920 0.806023
Si Si3 0.376803 0.780294 0.788555
Si Si4 0.019588 0.873234 0.447169
Si Si5 0.500000 0.000000 0.576111
Si Si6 0.514669 0.104545 0.906871
Si Si7 0.257890 0.948637 0.286800
Si Si8 0.849912 0.896600 0.926923
O O1 0.868688 0.470277 0.595693
O O2 0.898278 0.545986 0.317513
O O3 0.940224 0.744204 0.551158
O O4 0.188283 0.774422 0.797192
O O5 0.087234 0.680804 0.843262
O O6 0.430654 0.750139 0.539032
O O7 0.421448 0.841118 0.796608
O O8 0.158193 0.914742 0.482180
O O9 0.928450 0.862889 0.705031
O O10 0.916374 0.891115 0.208234
O O11 0.482444 0.947259 0.733538
O O12 0.349280 0.997412 0.400878
O O13 0.332099 0.112135 0.952444
O O14 0.618255 0.088227 0.145962
#
# Coordination Sequence:
#
# PCOD9342095 Si02
#       8
#     2   4   4   4   2   4   4   4
#     4  10  24  46  68 106 148 202 254 302 380 452
#     4  10  20  39  70 100 134 178 242 303 361 434
#     4  10  24  44  74 107 144 193 248 312 366 452
#     4  11  26  45  73 105 141 195 249 307 373 450
#     4  12  28  40  78 110 156 204 244 330 378 474
#     4  12  28  48  74 117 153 201 260 313 396 459
#     4  11  26  45  72 107 152 198 255 307 384 457
#     4  11  27  45  72 105 154 196 246 316 374 456
#
# _framework density 23.776951
#
# number of rings (size 3 to 8) (size 9 to 14) (size 15 to 20)
#    0.000    1.143    0.000    4.714   18.000    0.571 
#    0.000    4.286    0.000    0.000    0.000    0.000 
#    0.000    0.000    0.000    0.000    0.000    0.000 
#
# Total GULP energy -156462.086410 kJ/mol
# GULP energy per Si atom -5587.931658 kJ/mol
# Density = 2.372283 g / cm^3
# Si number density = 23.776951 Si / 1000 Ang^3
#
#
#
# Elastic Constant Matrix: (Units=GPa)
#
#
# Indices 1 2 3 4 5 6 
#
# 1 129.5759 26.2132 31.7053 0.0000 0.0000 0.0000
# 2 26.2132 114.1318 20.7879 0.0000 0.0000 0.0000
# 3 31.7053 20.7879 125.1668 0.0000 0.0000 0.0000
# 4 0.0000 0.0000 0.0000 5.5645 0.0000 0.0000
# 5 0.0000 0.0000 0.0000 0.0000 -765.5719 0.0000
# 6 0.0000 0.0000 0.0000 0.0000 0.0000 22.2587
#
#
#
# Elastic Compliance Matrix: (Units=1/GPa)
#
#
# Indices 1 2 3 4 5 6 
#
# 1 0.008505 -0.001610 -0.001887 0.000000 0.000000 0.000000
# 2 -0.001610 0.009340 -0.001143 0.000000 0.000000 0.000000
# 3 -0.001887 -0.001143 0.008657 0.000000 0.000000 0.000000
# 4 0.000000 0.000000 0.000000 0.179711 0.000000 0.000000
# 5 0.000000 0.000000 0.000000 0.000000 -0.001306 0.000000
# 6 0.000000 0.000000 0.000000 0.000000 0.000000 0.044926
#
#
# Mechanical properties :
#
#
# Convention : Reuss Voigt Hill
#
# Bulk Modulus (GPa) = 58.06629 58.47636 58.27133
# Shear Modulus (GPa) = 18.87835 -128.20520 -54.66343
#
# Velocity S-wave (km/s) = 2.82082 -7.35099 -4.80000
# Velocity P-wave (km/s) = 5.92314 6.88493 2.48180
#
# Compressibility (1/GPa) = 0.01722170
#
# Stress axis : x y z
#
# Youngs Moduli (GPa) = 117.58019 107.06911 115.51051
#
# Poissons Ratio (x) = 0.17234 0.21797
# Poissons Ratio (y) = 0.18926 0.13208
# Poissons Ratio (z) = 0.22187 0.12243
#
# Static dielectric constant tensor:
#      x y z
#    x 2.916810 0.000000 0.000000 
#    y 0.000000 1.995050 0.000000 
#    z 0.000000 0.000000 2.037290 
# 
# From -- ./inp_files/538.got.cif
#   From: 2010.05.17/outbox.cif.g08.bks.cpg/sg30_1_cif.got.tgz:538.got - 2010.06.03 17:03:02.
