data_PCOD9342840
_publ_section_title
;
Structure prediction by ZEFSAII (Michael W. Deem and Ramdas Pophale) SiO2 
 PCOD9342840
Probable space group: P M N 21
;
_chemical_formula_sum "Si O2"
_cell_formula_units_Z 32
_cell_length_a 7.445716
_cell_length_b 11.930497
_cell_length_c 16.677130
_cell_angle_alpha 90.000000
_cell_angle_beta 90.000000
_cell_angle_gamma 90.000000
_cell_volume 1481.447676
_symmetry_space_group_name_H-M "P M N 21"
_symmetry_group_IT_number 31
_symmetry_cell_setting 'orthorhombic'
loop_
_space_group_symop_operation_xyz
x,y,z
1/2-x,-y,1/2+z
-x,y,z
1/2+x,-y,1/2+z
loop_
_atom_site_type_symbol
_atom_site_label
_atom_site_fract_x
_atom_site_fract_y
_atom_site_fract_z
Si Si1 0.279740 0.431163 0.121140
Si Si2 0.217787 0.406490 0.869310
Si Si3 0.291320 0.817880 0.913587
Si Si4 0.286259 0.770774 0.237526
Si Si5 0.783901 0.933278 0.382959
Si Si6 0.283823 0.370876 0.299571
Si Si7 0.700692 0.246057 0.007585
Si Si8 0.280061 0.680344 0.068245
O O1 0.500000 0.430607 0.117272
O O2 0.227224 0.416549 0.213435
O O3 0.223116 0.550320 0.082683
O O4 0.214350 0.316259 0.079332
O O5 0.268469 0.337368 0.789813
O O6 0.271848 0.534331 0.862674
O O7 0.307985 0.344219 0.941878
O O8 0.000000 0.399368 0.877425
O O9 0.500000 0.835268 0.934044
O O10 0.280509 0.746921 0.832055
O O11 0.215571 0.941335 0.896821
O O12 0.217424 0.742711 0.987142
O O13 0.500000 0.766541 0.231227
O O14 0.249215 0.876525 0.295918
O O15 0.221862 0.753105 0.146603
O O16 0.714923 0.853874 0.455507
O O17 0.000000 0.932003 0.389807
O O18 0.500000 0.367319 0.298067
O O19 0.500000 0.210028 0.032752
O O20 0.500000 0.677032 0.066561
#
# Coordination Sequence:
#
# PCOD9342840 Si02
#       8
#     4   4   4   4   4   4   4   4
#     4   9  16  29  50  77 104 126 158 207 255 299
#     4   9  16  28  48  73 103 129 153 197 256 300
#     4  10  21  36  52  72 103 139 172 209 251 297
#     4   9  16  30  54  78  97 127 169 206 242 295
#     4   9  19  35  50  70 103 135 167 207 250 291
#     4  10  19  32  50  74 105 133 160 204 256 303
#     4   9  17  30  51  74  96 128 167 203 242 292
#     4   9  16  30  53  78 101 129 168 209 252 301
#
# _framework density 21.600491999999999
#
# number of rings (size 3 to 8) (size 9 to 14) (size 15 to 20)
#    0.000    2.750    1.250    0.750    0.000    2.000 
#    2.250    1.250    0.000    1.500    0.000    0.000 
#    0.000    0.000    0.000    0.000    0.000    0.000 
#
# Total GULP energy -178332.624964 kJ/mol
# GULP energy per Si atom -5572.894530 kJ/mol
# Density = 2.155133 g / cm^3
# Si number density = 21.600492 Si / 1000 Ang^3
#
#
#
# Elastic Constant Matrix: (Units=GPa)
#
#
# Indices 1 2 3 4 5 6 
#
# 1 57.4372 -9.0580 -6.6715 0.0000 0.0000 0.0000
# 2 -9.0580 147.5865 41.1527 0.0000 0.0000 0.0000
# 3 -6.6715 41.1527 67.8584 0.0000 0.0000 0.0000
# 4 0.0000 0.0000 0.0000 26.0949 0.0000 0.0000
# 5 0.0000 0.0000 0.0000 0.0000 14.1212 0.0000
# 6 0.0000 0.0000 0.0000 0.0000 0.0000 -20.2269
#
#
#
# Elastic Compliance Matrix: (Units=1/GPa)
#
#
# Indices 1 2 3 4 5 6 
#
# 1 0.017675 0.000722 0.001300 0.000000 0.000000 0.000000
# 2 0.000722 0.008184 -0.004892 0.000000 0.000000 0.000000
# 3 0.001300 -0.004892 0.017831 0.000000 0.000000 0.000000
# 4 0.000000 0.000000 0.000000 0.038322 0.000000 0.000000
# 5 0.000000 0.000000 0.000000 0.000000 0.070815 0.000000
# 6 0.000000 0.000000 0.000000 0.000000 0.000000 -0.049439
#
#
# Mechanical properties :
#
#
# Convention : Reuss Voigt Hill
#
# Bulk Modulus (GPa) = 26.35033 35.96984 31.16008
# Shear Modulus (GPa) = 41.05801 20.49511 30.77656
#
# Velocity S-wave (km/s) = 4.36454 3.08364 3.77876
# Velocity P-wave (km/s) = 6.13387 5.41913 5.78754
#
# Compressibility (1/GPa) = 0.03795019
#
# Stress axis : x y z
#
# Youngs Moduli (GPa) = 56.57642 122.18717 56.08137
#
# Poissons Ratio (x) = -0.08827 -0.07289
# Poissons Ratio (y) = -0.04087 0.27436
# Poissons Ratio (z) = -0.07353 0.59777
#
# Static dielectric constant tensor:
#      x y z
#    x 1.862160 0.000000 0.000000 
#    y 0.000000 1.774580 0.000000 
#    z 0.000000 0.000000 1.853440 
# 
# From -- ./inp_files/5051.got.cif
#   From: 2010.05.17/outbox.cif.g08.bks.cpg/sg31_3_cif.got.tgz:5051.got - 2010.06.03 17:08:30.
