data_PCOD9343229
_publ_section_title
;
Structure prediction by ZEFSAII (Michael W. Deem and Ramdas Pophale) SiO2 
 PCOD9343229
Probable space group: P M N 21
;
_chemical_formula_sum "Si O2"
_cell_formula_units_Z 32
_cell_length_a 8.888395
_cell_length_b 5.457967
_cell_length_c 31.637143
_cell_angle_alpha 90.000000
_cell_angle_beta 90.000000
_cell_angle_gamma 90.000000
_cell_volume 1534.799007
_symmetry_space_group_name_H-M "P M N 21"
_symmetry_group_IT_number 31
_symmetry_cell_setting 'orthorhombic'
loop_
_space_group_symop_operation_xyz
x,y,z
1/2-x,-y,1/2+z
-x,y,z
1/2+x,-y,1/2+z
loop_
_atom_site_type_symbol
_atom_site_label
_atom_site_fract_x
_atom_site_fract_y
_atom_site_fract_z
Si Si1 0.327472 0.400322 0.394740
Si Si2 0.337890 0.790312 0.330777
Si Si3 0.166156 0.543262 0.748460
Si Si4 0.317688 0.850495 0.523594
Si Si5 0.164784 0.195591 0.311894
Si Si6 0.681774 0.818585 0.622501
Si Si7 0.180105 0.349958 0.484325
Si Si8 0.817583 0.684164 0.169043
O O1 0.500000 0.326874 0.403471
O O2 0.332581 0.679141 0.377543
O O3 0.260379 0.272854 0.353154
O O4 0.225723 0.357532 0.435031
O O5 0.500000 0.928850 0.326702
O O6 0.349467 0.594465 0.293145
O O7 0.179809 0.909228 0.319688
O O8 0.268445 0.764104 0.765102
O O9 0.245165 0.375493 0.714107
O O10 0.000000 0.618519 0.734010
O O11 0.500000 0.850709 0.518842
O O12 0.250314 0.099935 0.503665
O O13 0.278957 0.848532 0.573437
O O14 0.251591 0.598806 0.504017
O O15 0.000000 0.300738 0.314202
O O16 0.500000 0.821734 0.624631
O O17 0.727073 0.552934 0.640570
O O18 0.732644 0.056135 0.649297
O O19 0.000000 0.350401 0.489731
O O20 0.000000 0.687091 0.171982
#
# Coordination Sequence:
#
# PCOD9343229 Si02
#       8
#     4   4   4   4   4   4   4   4
#     4  10  22  41  62  87 120 165 214 256 313 387
#     4   9  20  38  59  81 116 160 207 255 304 369
#     4  10  22  39  56  83 120 162 209 254 307 376
#     4  11  23  45  73  98 129 176 225 267 329 406
#     4  11  22  36  59  87 120 159 203 260 319 368
#     4   9  20  39  65  93 124 161 210 265 316 382
#     4  12  26  43  66 101 140 172 216 278 333 386
#     4  10  20  37  62  94 125 159 208 265 319 372
#
# _framework density 20.849636
#
# number of rings (size 3 to 8) (size 9 to 14) (size 15 to 20)
#    0.000    1.750    0.000    4.875    3.500    5.000 
#    0.000    3.750    0.000    0.000    0.000    0.000 
#    0.000    0.000    0.000    0.000    0.000    0.000 
#
# Total GULP energy -178248.780863 kJ/mol
# GULP energy per Si atom -5570.274402 kJ/mol
# Density = 2.080218 g / cm^3
# Si number density = 20.849636 Si / 1000 Ang^3
#
#
#
# Elastic Constant Matrix: (Units=GPa)
#
#
# Indices 1 2 3 4 5 6 
#
# 1 87.3593 20.3769 10.6081 0.0000 0.0000 0.0000
# 2 20.3769 76.1134 12.5976 0.0000 0.0000 0.0000
# 3 10.6081 12.5976 78.6075 0.0000 0.0000 0.0000
# 4 0.0000 0.0000 0.0000 24.9569 0.0000 0.0000
# 5 0.0000 0.0000 0.0000 0.0000 9.2276 0.0000
# 6 0.0000 0.0000 0.0000 0.0000 0.0000 17.5349
#
#
#
# Elastic Compliance Matrix: (Units=1/GPa)
#
#
# Indices 1 2 3 4 5 6 
#
# 1 0.012312 -0.003104 -0.001164 0.000000 0.000000 0.000000
# 2 -0.003104 0.014279 -0.001869 0.000000 0.000000 0.000000
# 3 -0.001164 -0.001869 0.013178 0.000000 0.000000 0.000000
# 4 0.000000 0.000000 0.000000 0.040069 0.000000 0.000000
# 5 0.000000 0.000000 0.000000 0.000000 0.108370 0.000000
# 6 0.000000 0.000000 0.000000 0.000000 0.000000 0.057029
#
#
# Mechanical properties :
#
#
# Convention : Reuss Voigt Hill
#
# Bulk Modulus (GPa) = 36.37069 36.58282 36.47676
# Shear Modulus (GPa) = 18.74931 23.57706 21.16318
#
# Velocity S-wave (km/s) = 3.00202 3.36641 3.18942
# Velocity P-wave (km/s) = 5.43124 5.71790 5.57641
#
# Compressibility (1/GPa) = 0.02749466
#
# Stress axis : x y z
#
# Youngs Moduli (GPa) = 81.21989 70.03501 75.88325
#
# Poissons Ratio (x) = 0.21736 0.08834
# Poissons Ratio (y) = 0.25207 0.14186
# Poissons Ratio (z) = 0.09455 0.13093
#
# Static dielectric constant tensor:
#      x y z
#    x 1.908680 0.000000 0.000000 
#    y 0.000000 1.963130 0.000000 
#    z 0.000000 0.000000 1.703930 
# 
# From -- ./inp_files/6614.got.cif
#   From: 2010.05.17/outbox.cif.g08.bks.cpg/sg31_4_cif.got.tgz:6614.got - 2010.06.03 17:08:30.
