data_PCOD9343227
_publ_section_title
;
Structure prediction by ZEFSAII (Michael W. Deem and Ramdas Pophale) SiO2 
 PCOD9343227
Probable space group: P M N 21
;
_chemical_formula_sum "Si O2"
_cell_formula_units_Z 32
_cell_length_a 13.486503
_cell_length_b 7.122507
_cell_length_c 17.085844
_cell_angle_alpha 90.000000
_cell_angle_beta 90.000000
_cell_angle_gamma 90.000000
_cell_volume 1641.227083
_symmetry_space_group_name_H-M "P M N 21"
_symmetry_group_IT_number 31
_symmetry_cell_setting 'orthorhombic'
loop_
_space_group_symop_operation_xyz
x,y,z
1/2-x,-y,1/2+z
-x,y,z
1/2+x,-y,1/2+z
loop_
_atom_site_type_symbol
_atom_site_label
_atom_site_fract_x
_atom_site_fract_y
_atom_site_fract_z
Si Si1 0.108049 0.456778 0.662720
Si Si2 0.268613 0.117843 0.023425
Si Si3 0.317128 0.543548 0.591284
Si Si4 0.112476 0.765341 0.795686
Si Si5 0.885844 0.679568 0.231819
Si Si6 0.782500 0.716222 0.955957
Si Si7 0.618310 0.414046 0.914871
Si Si8 0.701509 0.932054 0.187947
O O1 0.199817 0.516787 0.609672
O O2 0.113962 0.586528 0.738730
O O3 0.126176 0.242026 0.685781
O O4 0.000000 0.482552 0.625756
O O5 0.178132 0.254070 0.050679
O O6 0.310549 0.042086 0.106188
O O7 0.339678 0.243163 0.968174
O O8 0.238888 0.930488 0.977822
O O9 0.370275 0.497589 0.672888
O O10 0.338774 0.384481 0.527663
O O11 0.151804 0.708091 0.879262
O O12 0.000000 0.835643 0.799165
O O13 0.179803 0.924853 0.757102
O O14 0.863390 0.628667 0.322256
O O15 0.808709 0.835209 0.200313
O O16 0.000000 0.740460 0.227557
O O17 0.682185 0.597312 0.938768
O O18 0.500000 0.437166 0.924905
#
# Coordination Sequence:
#
# PCOD9343227 Si02
#       8
#     4   4   4   4   4   4   4   4
#     4  10  20  37  62  91 120 159 205 251 308 367
#     4  11  22  39  62  94 124 166 201 260 319 366
#     4  10  21  39  62  88 122 164 206 257 306 368
#     4  11  24  40  65  93 123 165 211 260 310 376
#     4  10  21  43  68  89 124 171 214 259 310 378
#     4  11  22  41  60  89 130 168 201 257 321 375
#     4  10  24  41  62  94 128 167 213 260 314 378
#     4  11  21  40  64  94 129 160 208 258 315 370
#
# _framework density 19.497608
#
# number of rings (size 3 to 8) (size 9 to 14) (size 15 to 20)
#    0.000    1.500    3.750    2.625    0.000    5.000 
#    0.000    1.875    0.000    0.750    0.000    0.000 
#    0.000    0.000    0.000    0.000    0.000    0.000 
#
# Total GULP energy -178597.483252 kJ/mol
# GULP energy per Si atom -5581.171352 kJ/mol
# Density = 1.945323 g / cm^3
# Si number density = 19.497608 Si / 1000 Ang^3
#
#
#
# Elastic Constant Matrix: (Units=GPa)
#
#
# Indices 1 2 3 4 5 6 
#
# 1 57.5795 21.6952 27.8025 0.0000 0.0000 0.0000
# 2 21.6952 111.3423 43.6909 0.0000 0.0000 0.0000
# 3 27.8025 43.6909 106.7671 0.0000 0.0000 0.0000
# 4 0.0000 0.0000 0.0000 10.4173 0.0000 0.0000
# 5 0.0000 0.0000 0.0000 0.0000 20.6038 0.0000
# 6 0.0000 0.0000 0.0000 0.0000 0.0000 5.9355
#
#
#
# Elastic Compliance Matrix: (Units=1/GPa)
#
#
# Indices 1 2 3 4 5 6 
#
# 1 0.020325 -0.002244 -0.004374 0.000000 0.000000 0.000000
# 2 -0.002244 0.010947 -0.003895 0.000000 0.000000 0.000000
# 3 -0.004374 -0.003895 0.012099 0.000000 0.000000 0.000000
# 4 0.000000 0.000000 0.000000 0.095995 0.000000 0.000000
# 5 0.000000 0.000000 0.000000 0.000000 0.048535 0.000000
# 6 0.000000 0.000000 0.000000 0.000000 0.000000 0.168478
#
#
# Mechanical properties :
#
#
# Convention : Reuss Voigt Hill
#
# Bulk Modulus (GPa) = 44.75473 51.34067 48.04770
# Shear Modulus (GPa) = 12.99194 19.55800 16.27497
#
# Velocity S-wave (km/s) = 2.58415 3.17061 2.89228
# Velocity P-wave (km/s) = 5.64868 6.30814 5.98749
#
# Compressibility (1/GPa) = 0.02234401
#
# Stress axis : x y z
#
# Youngs Moduli (GPa) = 49.20054 91.34842 82.64879
#
# Poissons Ratio (x) = 0.20497 0.36155
# Poissons Ratio (y) = 0.11040 0.32195
# Poissons Ratio (z) = 0.21523 0.35584
#
# Static dielectric constant tensor:
#      x y z
#    x 1.658490 0.000000 0.000000 
#    y 0.000000 1.746340 0.000000 
#    z 0.000000 0.000000 1.692410 
# 
# From -- ./inp_files/6109.got.cif
#   From: 2010.05.17/outbox.cif.g08.bks.cpg/sg31_4_cif.got.tgz:6109.got - 2010.06.03 17:08:30.
