data_PCOD9343761
_publ_section_title
;
Structure prediction by ZEFSAII (Michael W. Deem and Ramdas Pophale) SiO2 
 PCOD9343761
Probable space group: P B A 2
;
_chemical_formula_sum "Si O2"
_cell_formula_units_Z 22
_cell_length_a 6.035257
_cell_length_b 24.535179
_cell_length_c 7.195662
_cell_angle_alpha 90.000000
_cell_angle_beta 90.000000
_cell_angle_gamma 90.000000
_cell_volume 1065.505644
_symmetry_space_group_name_H-M "P B A 2"
_symmetry_group_IT_number 32
_symmetry_cell_setting 'orthorhombic'
loop_
_space_group_symop_operation_xyz
x,y,z
-x,-y,z
1/2-x,1/2+y,z
1/2+x,1/2-y,z
loop_
_atom_site_type_symbol
_atom_site_label
_atom_site_fract_x
_atom_site_fract_y
_atom_site_fract_z
Si Si1 0.866251 0.618818 0.168410
Si Si2 0.356775 0.074005 0.874121
Si Si3 0.000000 0.000000 0.718446
Si Si4 0.741903 0.100711 0.593241
Si Si5 0.498782 0.759413 0.172033
Si Si6 0.485173 0.339729 0.896629
O O1 0.822832 0.613151 0.384364
O O2 0.983278 0.676904 0.132278
O O3 0.639464 0.623639 0.052656
O O4 0.018755 0.574299 0.070555
O O5 0.534352 0.078931 0.710231
O O6 0.212253 0.129254 0.859938
O O7 0.198065 0.023122 0.843131
O O8 0.080843 0.948343 0.600660
O O9 0.841034 0.151957 0.709517
O O10 0.248440 0.748836 0.260097
O O11 0.499070 0.719531 0.991108
#
# Coordination Sequence:
#
# PCOD9343761 Si02
#       6
#     4   4   2   4   4   4
#     4  10  21  39  65  93 132 172 220 274 333 402
#     4  10  20  41  64  89 128 167 218 278 335 402
#     4  10  22  42  62  88 128 172 216 282 352 402
#     4  10  22  41  64  93 127 170 225 281 335 406
#     4  10  19  38  65  94 136 179 217 270 334 407
#     4   9  20  39  63  89 130 171 212 268 330 403
#
# _framework density 20.647473000000002
#
# number of rings (size 3 to 8) (size 9 to 14) (size 15 to 20)
#    0.000    2.182    1.818    0.545    0.000    2.909 
#    0.000   32.727    0.000    0.000    0.000    0.000 
#    0.000    0.000    0.000    0.000    0.000    0.000 
#
# Total GULP energy -122558.180556 kJ/mol
# GULP energy per Si atom -5570.826389 kJ/mol
# Density = 2.060048 g / cm^3
# Si number density = 20.647473 Si / 1000 Ang^3
#
#
#
# Elastic Constant Matrix: (Units=GPa)
#
#
# Indices 1 2 3 4 5 6 
#
# 1 112.7185 20.3836 36.2248 0.0000 0.0000 0.0000
# 2 20.3836 91.2150 34.4963 0.0000 0.0000 0.0000
# 3 36.2248 34.4963 140.4533 0.0000 0.0000 0.0000
# 4 0.0000 0.0000 0.0000 10.1081 0.0000 0.0000
# 5 0.0000 0.0000 0.0000 0.0000 5.1890 0.0000
# 6 0.0000 0.0000 0.0000 0.0000 0.0000 40.0054
#
#
#
# Elastic Compliance Matrix: (Units=1/GPa)
#
#
# Indices 1 2 3 4 5 6 
#
# 1 0.009825 -0.001364 -0.002199 0.000000 0.000000 0.000000
# 2 -0.001364 0.012275 -0.002663 0.000000 0.000000 0.000000
# 3 -0.002199 -0.002663 0.008341 0.000000 0.000000 0.000000
# 4 0.000000 0.000000 0.000000 0.098931 0.000000 0.000000
# 5 0.000000 0.000000 0.000000 0.000000 0.192717 0.000000
# 6 0.000000 0.000000 0.000000 0.000000 0.000000 0.024997
#
#
# Mechanical properties :
#
#
# Convention : Reuss Voigt Hill
#
# Bulk Modulus (GPa) = 55.58933 58.51070 57.05001
# Shear Modulus (GPa) = 13.67863 27.94596 20.81229
#
# Velocity S-wave (km/s) = 2.57667 3.68296 3.17832
# Velocity P-wave (km/s) = 5.98614 6.81799 6.41556
#
# Compressibility (1/GPa) = 0.01798906
#
# Stress axis : x y z
#
# Youngs Moduli (GPa) = 101.78106 81.46616 119.88937
#
# Poissons Ratio (x) = 0.11112 0.26364
# Poissons Ratio (y) = 0.13882 0.31927
# Poissons Ratio (z) = 0.22382 0.21695
#
# Static dielectric constant tensor:
#      x y z
#    x 1.846730 0.000000 0.000000 
#    y 0.000000 1.761190 0.000000 
#    z 0.000000 0.000000 1.687810 
# 
# From -- ./inp_files/230.got.cif
#   From: 2010.05.17/outbox.cif.g08.bks.cpg/sg32_1_cif.got.tgz:230.got - 2010.06.03 17:12:27.
