data_PCOD9343667
_publ_section_title
;
Structure prediction by ZEFSAII (Michael W. Deem and Ramdas Pophale) SiO2 
 PCOD9343667
Probable space group: P B A 2
;
_chemical_formula_sum "Si O2"
_cell_formula_units_Z 26
_cell_length_a 15.410907
_cell_length_b 12.835414
_cell_length_c 5.680913
_cell_angle_alpha 90.000000
_cell_angle_beta 90.000000
_cell_angle_gamma 90.000000
_cell_volume 1123.715106
_symmetry_space_group_name_H-M "P B A 2"
_symmetry_group_IT_number 32
_symmetry_cell_setting 'orthorhombic'
loop_
_space_group_symop_operation_xyz
x,y,z
-x,-y,z
1/2-x,1/2+y,z
1/2+x,1/2-y,z
loop_
_atom_site_type_symbol
_atom_site_label
_atom_site_fract_x
_atom_site_fract_y
_atom_site_fract_z
Si Si1 0.472036 0.379284 0.978360
Si Si2 0.000000 0.500000 0.326184
Si Si3 0.534955 0.380591 0.471972
Si Si4 0.297254 0.343770 0.752062
Si Si5 0.212836 0.018675 0.393032
Si Si6 0.845520 0.542907 0.017513
Si Si7 0.371723 0.116451 0.653891
O O1 0.500000 0.500000 0.995271
O O2 0.514915 0.335547 0.733874
O O3 0.369573 0.380950 0.937989
O O4 0.494828 0.331839 0.233590
O O5 0.922579 0.566724 0.199551
O O6 0.948799 0.412349 0.477910
O O7 0.500000 0.500000 0.491359
O O8 0.635616 0.399215 0.411602
O O9 0.311927 0.409046 0.512283
O O10 0.332924 0.229352 0.698503
O O11 0.200701 0.367025 0.857927
O O12 0.262190 0.006149 0.148927
O O13 0.287910 0.056250 0.563225
O O14 0.892601 0.446634 0.888289
#
# Coordination Sequence:
#
# PCOD9343667 Si02
#       7
#     4   2   4   4   4   4   4
#     4  10  19  34  60  95 136 178 219 285 365 433
#     4  10  22  48  70  94 142 194 232 304 364 438
#     4  10  18  33  60  91 131 177 215 274 364 428
#     4  11  22  41  69 102 134 182 237 300 359 437
#     4  10  21  40  66  93 138 179 224 294 361 427
#     4  10  22  42  74  92 136 186 237 295 361 429
#     4  10  24  43  71  99 137 182 245 293 362 434
#
# _framework density 23.137535
#
# number of rings (size 3 to 8) (size 9 to 14) (size 15 to 20)
#    0.000    1.846    3.077    2.308    2.154    2.462 
#    0.000    7.692    6.769    0.000    0.000    0.000 
#    0.000    0.000    0.000    0.000    0.000    0.000 
#
# Total GULP energy -144768.833034 kJ/mol
# GULP energy per Si atom -5568.032040 kJ/mol
# Density = 2.308487 g / cm^3
# Si number density = 23.137535 Si / 1000 Ang^3
#
#
#
# Elastic Constant Matrix: (Units=GPa)
#
#
# Indices 1 2 3 4 5 6 
#
# 1 123.1008 22.7047 33.9082 0.0000 0.0000 0.0000
# 2 22.7047 88.0158 11.4254 0.0000 0.0000 0.0000
# 3 33.9082 11.4254 115.1222 0.0000 0.0000 0.0000
# 4 0.0000 0.0000 0.0000 88.4294 0.0000 0.0000
# 5 0.0000 0.0000 0.0000 0.0000 24.2271 0.0000
# 6 0.0000 0.0000 0.0000 0.0000 0.0000 5.1663
#
#
#
# Elastic Compliance Matrix: (Units=1/GPa)
#
#
# Indices 1 2 3 4 5 6 
#
# 1 0.009190 -0.002046 -0.002504 0.000000 0.000000 0.000000
# 2 -0.002046 0.011965 -0.000585 0.000000 0.000000 0.000000
# 3 -0.002504 -0.000585 0.009482 0.000000 0.000000 0.000000
# 4 0.000000 0.000000 0.000000 0.011308 0.000000 0.000000
# 5 0.000000 0.000000 0.000000 0.000000 0.041276 0.000000
# 6 0.000000 0.000000 0.000000 0.000000 0.000000 0.193562
#
#
# Mechanical properties :
#
#
# Convention : Reuss Voigt Hill
#
# Bulk Modulus (GPa) = 49.09556 51.36838 50.23197
# Shear Modulus (GPa) = 17.01590 40.77792 28.89691
#
# Velocity S-wave (km/s) = 2.71481 4.20267 3.53784
# Velocity P-wave (km/s) = 5.57602 6.76752 6.20046
#
# Compressibility (1/GPa) = 0.02036844
#
# Stress axis : x y z
#
# Youngs Moduli (GPa) = 108.80852 83.57529 105.46315
#
# Poissons Ratio (x) = 0.17097 0.26407
# Poissons Ratio (y) = 0.22260 0.06169
# Poissons Ratio (z) = 0.27245 0.04889
#
# Static dielectric constant tensor:
#      x y z
#    x 1.874500 0.000000 0.000000 
#    y 0.000000 1.373120 0.000000 
#    z 0.000000 0.000000 2.090090 
# 
# From -- ./inp_files/1233.got.cif
#   From: 2010.05.17/outbox.cif.g08.bks.cpg/sg32_1_cif.got.tgz:1233.got - 2010.06.03 17:12:27.
