data_PCOD9343565
_publ_section_title
;
Structure prediction by ZEFSAII (Michael W. Deem and Ramdas Pophale) SiO2 
 PCOD9343565
Probable space group: P M N 21
;
_chemical_formula_sum "Si O2"
_cell_formula_units_Z 24
_cell_length_a 23.203823
_cell_length_b 8.262381
_cell_length_c 5.032917
_cell_angle_alpha 90.000000
_cell_angle_beta 90.000000
_cell_angle_gamma 90.000000
_cell_volume 964.904940
_symmetry_space_group_name_H-M "P M N 21"
_symmetry_group_IT_number 31
_symmetry_cell_setting 'orthorhombic'
loop_
_space_group_symop_operation_xyz
x,y,z
1/2-x,-y,1/2+z
-x,y,z
1/2+x,-y,1/2+z
loop_
_atom_site_type_symbol
_atom_site_label
_atom_site_fract_x
_atom_site_fract_y
_atom_site_fract_z
Si Si1 0.122477 0.259011 0.833140
Si Si2 0.347447 0.077962 0.512924
Si Si3 0.500000 0.615989 0.211184
Si Si4 0.000000 0.605191 0.233537
Si Si5 0.616614 0.272446 0.000955
Si Si6 0.816799 0.486182 0.189225
Si Si7 0.234844 0.230564 0.477419
O O1 0.057829 0.281209 0.736875
O O2 0.173971 0.220273 0.625080
O O3 0.124769 0.096978 0.007102
O O4 0.134953 0.427226 0.986396
O O5 0.352707 0.143517 0.809844
O O6 0.278982 0.084413 0.448147
O O7 0.377764 0.199028 0.296556
O O8 0.500000 0.463328 0.427791
O O9 0.500000 0.554360 0.911387
O O10 0.055509 0.700446 0.352618
O O11 0.651167 0.440666 0.947426
O O12 0.781456 0.319018 0.205124
O O13 0.773340 0.625201 0.104147
#
# Coordination Sequence:
#
# PCOD9343565 Si02
#       7
#     4   4   2   2   4   4   4
#     4  12  28  46  72 112 156 199 249 313 384 458
#     4  11  29  45  72 109 157 193 245 313 396 449
#     4  12  28  48  76 116 146 201 253 318 372 460
#     4  12  24  46  82 104 144 199 271 306 370 450
#     4  11  25  47  71 107 143 200 256 310 368 457
#     4  11  22  41  71 103 141 193 252 314 358 440
#     4  11  24  41  73 104 146 192 251 310 373 439
#
# _framework density 24.872917999999999
#
# number of rings (size 3 to 8) (size 9 to 14) (size 15 to 20)
#    0.000    0.667    3.333    3.000   11.667    1.333 
#    0.000    0.000    0.000    0.000    0.000    0.000 
#    0.000    0.000    0.000    0.000    0.000    0.000 
#
# Total GULP energy -134062.330238 kJ/mol
# GULP energy per Si atom -5585.930427 kJ/mol
# Density = 2.481631 g / cm^3
# Si number density = 24.872918 Si / 1000 Ang^3
#
#
#
# Elastic Constant Matrix: (Units=GPa)
#
#
# Indices 1 2 3 4 5 6 
#
# 1 121.4550 18.1012 -17.7533 0.0000 0.0000 0.0000
# 2 18.1012 74.5043 18.9858 0.0000 0.0000 0.0000
# 3 -17.7533 18.9858 70.0373 0.0000 0.0000 0.0000
# 4 0.0000 0.0000 0.0000 39.9586 0.0000 0.0000
# 5 0.0000 0.0000 0.0000 0.0000 25.8241 0.0000
# 6 0.0000 0.0000 0.0000 0.0000 0.0000 11.5082
#
#
#
# Elastic Compliance Matrix: (Units=1/GPa)
#
#
# Indices 1 2 3 4 5 6 
#
# 1 0.009142 -0.003020 0.003136 0.000000 0.000000 0.000000
# 2 -0.003020 0.015416 -0.004945 0.000000 0.000000 0.000000
# 3 0.003136 -0.004945 0.016413 0.000000 0.000000 0.000000
# 4 0.000000 0.000000 0.000000 0.025026 0.000000 0.000000
# 5 0.000000 0.000000 0.000000 0.000000 0.038723 0.000000
# 6 0.000000 0.000000 0.000000 0.000000 0.000000 0.086894
#
#
# Mechanical properties :
#
#
# Convention : Reuss Voigt Hill
#
# Bulk Modulus (GPa) = 31.93471 33.85156 32.89313
# Shear Modulus (GPa) = 23.61718 31.90239 27.75978
#
# Velocity S-wave (km/s) = 3.08476 3.58525 3.34438
# Velocity P-wave (km/s) = 5.05516 5.54779 5.30720
#
# Compressibility (1/GPa) = 0.03131389
#
# Stress axis : x y z
#
# Youngs Moduli (GPa) = 109.38469 64.86837 60.92578
#
# Poissons Ratio (x) = 0.19592 -0.19107
# Poissons Ratio (y) = 0.33037 0.30125
# Poissons Ratio (z) = -0.34304 0.32074
#
# Static dielectric constant tensor:
#      x y z
#    x 2.081070 0.000000 0.000000 
#    y 0.000000 2.031110 0.000000 
#    z 0.000000 0.000000 2.028940 
# 
# From -- ./inp_files/1091.got.cif
#   From: 2010.05.17/outbox.cif.g08.bks.cpg/sg31_1_cif.got.tgz:1091.got - 2010.06.03 17:08:30.
