data_PCOD9343155
_publ_section_title
;
Structure prediction by ZEFSAII (Michael W. Deem and Ramdas Pophale) SiO2 
 PCOD9343155
Probable space group: P M N 21
;
_chemical_formula_sum "Si O2"
_cell_formula_units_Z 32
_cell_length_a 11.387119
_cell_length_b 11.155933
_cell_length_c 13.242100
_cell_angle_alpha 90.000000
_cell_angle_beta 90.000000
_cell_angle_gamma 90.000000
_cell_volume 1682.196092
_symmetry_space_group_name_H-M "P M N 21"
_symmetry_group_IT_number 31
_symmetry_cell_setting 'orthorhombic'
loop_
_space_group_symop_operation_xyz
x,y,z
1/2-x,-y,1/2+z
-x,y,z
1/2+x,-y,1/2+z
loop_
_atom_site_type_symbol
_atom_site_label
_atom_site_fract_x
_atom_site_fract_y
_atom_site_fract_z
Si Si1 0.134805 0.188103 0.017850
Si Si2 0.637646 0.585940 0.649447
Si Si3 0.624469 0.962557 0.928079
Si Si4 0.320665 0.062426 0.144487
Si Si5 0.628594 0.314737 0.248396
Si Si6 0.131201 0.822142 0.946075
Si Si7 0.632922 0.306918 0.658635
Si Si8 0.752219 0.134924 0.802254
O O1 0.151923 0.325115 0.054179
O O2 0.193878 0.103695 0.102324
O O3 0.000000 0.161034 0.017055
O O4 0.183494 0.165176 0.906545
O O5 0.500000 0.604826 0.684983
O O6 0.749497 0.621639 0.718696
O O7 0.650795 0.445085 0.629407
O O8 0.500000 0.896163 0.913073
O O9 0.749384 0.894037 0.922314
O O10 0.637946 0.063514 0.842376
O O11 0.621890 0.019376 0.040082
O O12 0.369763 0.183604 0.194258
O O13 0.317253 0.956641 0.226142
O O14 0.500000 0.370664 0.223073
O O15 0.630527 0.286765 0.367073
O O16 0.000000 0.880360 0.934572
O O17 0.141370 0.774965 0.059449
O O18 0.500000 0.297761 0.698256
O O19 0.720106 0.253606 0.741111
#
# Coordination Sequence:
#
# PCOD9343155 Si02
#       8
#     4   4   4   4   4   4   4   4
#     4   9  21  37  59  85 116 158 200 249 298 352
#     4   9  20  41  63  85 114 154 204 253 296 346
#     4  11  22  35  53  85 122 150 188 241 291 343
#     4  10  20  36  54  83 119 158 192 235 291 360
#     4  10  20  37  61  86 114 154 198 240 294 354
#     4  10  21  37  57  83 115 156 194 230 289 359
#     4  10  21  39  61  83 116 157 202 246 293 357
#     4  11  21  36  56  88 120 157 196 242 298 365
#
# _framework density 19.022752000000001
#
# number of rings (size 3 to 8) (size 9 to 14) (size 15 to 20)
#    0.000    2.000    2.500    0.750    0.000    5.500 
#    0.000    3.125    0.000    0.000    0.000    0.000 
#    0.000    0.000    0.000    0.000    0.000    0.000 
#
# Total GULP energy -178160.803387 kJ/mol
# GULP energy per Si atom -5567.525106 kJ/mol
# Density = 1.897946 g / cm^3
# Si number density = 19.022752 Si / 1000 Ang^3
#
#
#
# Elastic Constant Matrix: (Units=GPa)
#
#
# Indices 1 2 3 4 5 6 
#
# 1 138.8020 33.3813 17.5807 0.0000 0.0000 0.0000
# 2 33.3813 67.2067 1.6729 0.0000 0.0000 0.0000
# 3 17.5807 1.6729 61.6902 0.0000 0.0000 0.0000
# 4 0.0000 0.0000 0.0000 16.5279 0.0000 0.0000
# 5 0.0000 0.0000 0.0000 0.0000 -1.6891 0.0000
# 6 0.0000 0.0000 0.0000 0.0000 0.0000 20.0048
#
#
#
# Elastic Compliance Matrix: (Units=1/GPa)
#
#
# Indices 1 2 3 4 5 6 
#
# 1 0.008498 -0.004164 -0.002309 0.000000 0.000000 0.000000
# 2 -0.004164 0.016929 0.000727 0.000000 0.000000 0.000000
# 3 -0.002309 0.000727 0.016848 0.000000 0.000000 0.000000
# 4 0.000000 0.000000 0.000000 0.060504 0.000000 0.000000
# 5 0.000000 0.000000 0.000000 0.000000 -0.592036 0.000000
# 6 0.000000 0.000000 0.000000 0.000000 0.000000 0.049988
#
#
# Mechanical properties :
#
#
# Convention : Reuss Voigt Hill
#
# Bulk Modulus (GPa) = 32.48247 41.44097 36.96172
# Shear Modulus (GPa) = -11.97558 21.30631 4.66536
#
# Velocity S-wave (km/s) = -2.51179 3.35034 1.56775
# Velocity P-wave (km/s) = 2.94967 6.06618 4.76965
#
# Compressibility (1/GPa) = 0.03078583
#
# Stress axis : x y z
#
# Youngs Moduli (GPa) = 117.67074 59.06878 59.35308
#
# Poissons Ratio (x) = 0.24594 0.13704
# Poissons Ratio (y) = 0.48993 -0.04318
# Poissons Ratio (z) = 0.27170 -0.04297
#
# Static dielectric constant tensor:
#      x y z
#    x 1.717460 0.000000 0.000000 
#    y 0.000000 1.675210 0.000000 
#    z 0.000000 0.000000 1.638320 
# 
# From -- ./inp_files/4072.got.cif
#   From: 2010.05.17/outbox.cif.g08.bks.cpg/sg31_3_cif.got.tgz:4072.got - 2010.06.03 17:08:30.
