data_PCOD9343744
_publ_section_title
;
Structure prediction by ZEFSAII (Michael W. Deem and Ramdas Pophale) SiO2 
 PCOD9343744
Probable space group: P B A 2
;
_chemical_formula_sum "Si O2"
_cell_formula_units_Z 28
_cell_length_a 20.978843
_cell_length_b 5.574137
_cell_length_c 10.731120
_cell_angle_alpha 90.000000
_cell_angle_beta 90.000000
_cell_angle_gamma 90.000000
_cell_volume 1254.885851
_symmetry_space_group_name_H-M "P B A 2"
_symmetry_group_IT_number 32
_symmetry_cell_setting 'orthorhombic'
loop_
_space_group_symop_operation_xyz
x,y,z
-x,-y,z
1/2-x,1/2+y,z
1/2+x,1/2-y,z
loop_
_atom_site_type_symbol
_atom_site_label
_atom_site_fract_x
_atom_site_fract_y
_atom_site_fract_z
Si Si1 0.718163 0.276478 0.902940
Si Si2 0.234152 0.718518 0.621256
Si Si3 0.093244 0.873851 0.661807
Si Si4 0.572725 0.963941 0.308977
Si Si5 0.423561 0.536823 0.407783
Si Si6 0.500000 0.000000 0.687574
Si Si7 0.000000 0.500000 0.071295
Si Si8 0.427055 0.706093 0.882873
O O1 0.747567 0.531126 0.944710
O O2 0.725208 0.284579 0.750843
O O3 0.643863 0.263673 0.932793
O O4 0.247019 0.466625 0.555645
O O5 0.160639 0.743425 0.661051
O O6 0.035688 0.706817 0.616234
O O7 0.094498 0.071613 0.553033
O O8 0.074314 0.965511 0.799055
O O9 0.603398 0.723565 0.364533
O O10 0.500000 0.000000 0.360131
O O11 0.600827 0.226555 0.336720
O O12 0.557979 0.929223 0.162426
O O13 0.500000 0.500000 0.385308
O O14 0.555033 0.100854 0.777099
O O15 0.022809 0.274629 0.989369
#
# Coordination Sequence:
#
# PCOD9343744 Si02
#       8
#     4   4   4   4   4   2   2   4
#     4  10  19  37  57  78 118 162 206 240 292 381
#     4  10  20  37  58  78 124 166 209 245 295 397
#     4  12  24  35  59  93 131 165 203 256 339 386
#     4   8  19  40  57  79 115 160 218 243 289 369
#     4  10  20  36  61  82 119 160 202 257 298 371
#     4  11  24  35  46  90 137 160 191 242 320 409
#     4   9  22  43  62  86 123 170 205 258 316 373
#     4  11  22  38  57  89 128 163 197 255 322 389
#
# _framework density 22.312785999999999
#
# number of rings (size 3 to 8) (size 9 to 14) (size 15 to 20)
#    0.429    1.429    2.857    3.000    5.000    0.000 
#   11.571    0.000    0.000    0.000    0.000    6.000 
#    0.000    0.000    0.000    0.000    0.000    0.000 
#
# Total GULP energy -156102.135173 kJ/mol
# GULP energy per Si atom -5575.076256 kJ/mol
# Density = 2.226200 g / cm^3
# Si number density = 22.312786 Si / 1000 Ang^3
#
#
#
# Elastic Constant Matrix: (Units=GPa)
#
#
# Indices 1 2 3 4 5 6 
#
# 1 76.1156 44.3062 16.1911 0.0000 0.0000 0.0000
# 2 44.3062 185.2340 33.1214 0.0000 0.0000 0.0000
# 3 16.1911 33.1214 87.1589 0.0000 0.0000 0.0000
# 4 0.0000 0.0000 0.0000 19.3540 0.0000 0.0000
# 5 0.0000 0.0000 0.0000 0.0000 1.7642 0.0000
# 6 0.0000 0.0000 0.0000 0.0000 0.0000 25.6311
#
#
#
# Elastic Compliance Matrix: (Units=1/GPa)
#
#
# Indices 1 2 3 4 5 6 
#
# 1 0.015462 -0.003417 -0.001574 0.000000 0.000000 0.000000
# 2 -0.003417 0.006547 -0.001853 0.000000 0.000000 0.000000
# 3 -0.001574 -0.001853 0.012470 0.000000 0.000000 0.000000
# 4 0.000000 0.000000 0.000000 0.051669 0.000000 0.000000
# 5 0.000000 0.000000 0.000000 0.000000 0.566815 0.000000
# 6 0.000000 0.000000 0.000000 0.000000 0.000000 0.039015
#
#
# Mechanical properties :
#
#
# Convention : Reuss Voigt Hill
#
# Bulk Modulus (GPa) = 48.09798 59.52733 53.81266
# Shear Modulus (GPa) = 7.01660 26.34251 16.67956
#
# Velocity S-wave (km/s) = 1.77524 3.43972 2.73707
# Velocity P-wave (km/s) = 5.07986 6.52012 5.84453
#
# Compressibility (1/GPa) = 0.02079089
#
# Stress axis : x y z
#
# Youngs Moduli (GPa) = 64.67628 152.73598 80.19299
#
# Poissons Ratio (x) = 0.52188 0.12621
# Poissons Ratio (y) = 0.22099 0.14862
# Poissons Ratio (z) = 0.10179 0.28306
#
# Static dielectric constant tensor:
#      x y z
#    x 1.834260 0.000000 0.000000 
#    y 0.000000 1.972950 0.000000 
#    z 0.000000 0.000000 1.830840 
# 
# From -- ./inp_files/4024.got.cif
#   From: 2010.05.17/outbox.cif.g08.bks.cpg/sg32_3_cif.got.tgz:4024.got - 2010.06.03 17:12:27.
