data_PCOD9343204
_publ_section_title
;
Structure prediction by ZEFSAII (Michael W. Deem and Ramdas Pophale) SiO2 
 PCOD9343204
Probable space group: P M N 21
;
_chemical_formula_sum "Si O2"
_cell_formula_units_Z 32
_cell_length_a 18.989064
_cell_length_b 4.857688
_cell_length_c 13.984592
_cell_angle_alpha 90.000000
_cell_angle_beta 90.000000
_cell_angle_gamma 90.000000
_cell_volume 1289.979997
_symmetry_space_group_name_H-M "P M N 21"
_symmetry_group_IT_number 31
_symmetry_cell_setting 'orthorhombic'
loop_
_space_group_symop_operation_xyz
x,y,z
1/2-x,-y,1/2+z
-x,y,z
1/2+x,-y,1/2+z
loop_
_atom_site_type_symbol
_atom_site_label
_atom_site_fract_x
_atom_site_fract_y
_atom_site_fract_z
Si Si1 0.179205 0.729542 0.399430
Si Si2 0.323615 0.280426 0.516067
Si Si3 0.719394 0.148208 0.314012
Si Si4 0.418194 0.753819 0.490366
Si Si5 0.281756 0.115936 0.108658
Si Si6 0.419216 0.740359 0.900928
Si Si7 0.423400 0.386129 0.300387
Si Si8 0.576838 0.774883 0.118726
O O1 0.208952 0.720628 0.509022
O O2 0.139282 0.464097 0.358299
O O3 0.241113 0.863517 0.335220
O O4 0.116560 0.960476 0.399491
O O5 0.386009 0.056940 0.497490
O O6 0.272311 0.131976 0.589303
O O7 0.277991 0.303085 0.416796
O O8 0.362959 0.557266 0.546265
O O9 0.739794 0.256056 0.208769
O O10 0.635213 0.155302 0.304825
O O11 0.500000 0.747773 0.520384
O O12 0.414893 0.607111 0.386078
O O13 0.357449 0.974327 0.121774
O O14 0.500000 0.736265 0.864656
O O15 0.422364 0.648738 0.012314
O O16 0.500000 0.259816 0.312833
O O17 0.418145 0.549350 0.201267
O O18 0.500000 0.914548 0.127884
#
# Coordination Sequence:
#
# PCOD9343204 Si02
#       8
#     4   4   4   4   4   4   4   4
#     4  10  22  37  58  86 112 148 191 227 279 339
#     4  10  22  37  58  86 112 148 191 227 279 339
#     4  10  21  35  55  82 118 152 186 231 277 331
#     4  10  20  37  59  82 112 147 186 236 284 329
#     4  10  21  35  55  82 118 152 186 231 277 331
#     4  10  20  37  59  82 112 147 186 236 284 329
#     4   9  18  32  54  85 118 151 186 226 281 346
#     4   9  18  32  54  85 118 151 186 226 281 346
#
# _framework density 24.806585999999999
#
# number of rings (size 3 to 8) (size 9 to 14) (size 15 to 20)
#    0.000    2.250    0.000    2.250    0.000   11.500 
#    0.000    0.000    0.000    4.500    0.000    0.000 
#    0.000    0.000    0.000    0.000    0.000    0.000 
#
# Total GULP energy -178811.013563 kJ/mol
# GULP energy per Si atom -5587.844174 kJ/mol
# Density = 2.475013 g / cm^3
# Si number density = 24.806586 Si / 1000 Ang^3
#
#
#
# Elastic Constant Matrix: (Units=GPa)
#
#
# Indices 1 2 3 4 5 6 
#
# 1 149.7109 33.7690 45.6877 0.0000 0.0000 0.0000
# 2 33.7690 76.5426 13.4504 0.0000 0.0000 0.0000
# 3 45.6877 13.4504 62.9092 0.0000 0.0000 0.0000
# 4 0.0000 0.0000 0.0000 25.4698 0.0000 0.0000
# 5 0.0000 0.0000 0.0000 0.0000 17.7029 0.0000
# 6 0.0000 0.0000 0.0000 0.0000 0.0000 34.6487
#
#
#
# Elastic Compliance Matrix: (Units=1/GPa)
#
#
# Indices 1 2 3 4 5 6 
#
# 1 0.009199 -0.002997 -0.006040 0.000000 0.000000 0.000000
# 2 -0.002997 0.014551 -0.000935 0.000000 0.000000 0.000000
# 3 -0.006040 -0.000935 0.020482 0.000000 0.000000 0.000000
# 4 0.000000 0.000000 0.000000 0.039262 0.000000 0.000000
# 5 0.000000 0.000000 0.000000 0.000000 0.056488 0.000000
# 6 0.000000 0.000000 0.000000 0.000000 0.000000 0.028861
#
#
# Mechanical properties :
#
#
# Convention : Reuss Voigt Hill
#
# Bulk Modulus (GPa) = 41.17046 52.77521 46.97284
# Shear Modulus (GPa) = 25.39589 28.64798 27.02193
#
# Velocity S-wave (km/s) = 3.20309 3.40200 3.30404
# Velocity P-wave (km/s) = 5.50566 6.06237 5.79071
#
# Compressibility (1/GPa) = 0.02428926
#
# Stress axis : x y z
#
# Youngs Moduli (GPa) = 108.71079 68.72358 48.82303
#
# Poissons Ratio (x) = 0.20596 0.29488
# Poissons Ratio (y) = 0.32580 0.04563
# Poissons Ratio (z) = 0.65659 0.06423
#
# Static dielectric constant tensor:
#      x y z
#    x 2.001140 0.000000 0.000000 
#    y 0.000000 1.971370 0.000000 
#    z 0.000000 0.000000 2.004150 
# 
# From -- ./inp_files/5526.got.cif
#   From: 2010.05.17/outbox.cif.g08.bks.cpg/sg31_3_cif.got.tgz:5526.got - 2010.06.03 17:08:30.
