data_PCOD9343177
_publ_section_title
;
Structure prediction by ZEFSAII (Michael W. Deem and Ramdas Pophale) SiO2 
 PCOD9343177
Probable space group: P M N 21
;
_chemical_formula_sum "Si O2"
_cell_formula_units_Z 32
_cell_length_a 7.827083
_cell_length_b 16.405567
_cell_length_c 11.449844
_cell_angle_alpha 90.000000
_cell_angle_beta 90.000000
_cell_angle_gamma 90.000000
_cell_volume 1470.248529
_symmetry_space_group_name_H-M "P M N 21"
_symmetry_group_IT_number 31
_symmetry_cell_setting 'orthorhombic'
loop_
_space_group_symop_operation_xyz
x,y,z
1/2-x,-y,1/2+z
-x,y,z
1/2+x,-y,1/2+z
loop_
_atom_site_type_symbol
_atom_site_label
_atom_site_fract_x
_atom_site_fract_y
_atom_site_fract_z
Si Si1 0.705689 0.454238 0.013140
Si Si2 0.298156 0.267168 0.700094
Si Si3 0.707297 0.837654 0.004716
Si Si4 0.197015 0.725697 0.578460
Si Si5 0.302770 0.140215 0.873049
Si Si6 0.695463 0.859988 0.744516
Si Si7 0.706548 0.448741 0.750793
Si Si8 0.797717 0.986483 0.551307
O O1 0.500000 0.452762 0.006070
O O2 0.764618 0.361341 0.037655
O O3 0.748260 0.504680 0.130507
O O4 0.764213 0.479098 0.880848
O O5 0.500000 0.268625 0.729490
O O6 0.276344 0.242891 0.566222
O O7 0.218907 0.189315 0.767343
O O8 0.231106 0.355241 0.735603
O O9 0.500000 0.831747 0.006439
O O10 0.766355 0.922073 0.065493
O O11 0.768059 0.848616 0.872497
O O12 0.193860 0.789228 0.471682
O O13 0.294417 0.773441 0.679172
O O14 0.000000 0.714789 0.616442
O O15 0.500000 0.119299 0.842312
O O16 0.225044 0.061958 0.938152
O O17 0.500000 0.885619 0.757569
O O18 0.776676 0.928454 0.662448
O O19 0.500000 0.448156 0.753787
O O20 0.000000 0.993235 0.530076
#
# Coordination Sequence:
#
# PCOD9343177 Si02
#       8
#     4   4   4   4   4   4   4   4
#     4  10  21  39  63  89 118 157 198 244 300 359
#     4  10  20  36  60  83 107 147 193 232 276 338
#     4  10  23  38  52  78 117 151 181 230 292 341
#     4   9  17  35  61  81 104 142 186 226 275 338
#     4   8  14  30  58  80  97 133 182 224 262 315
#     4  10  21  36  54  80 113 145 183 232 285 338
#     4  10  22  40  61  89 122 154 199 250 299 358
#     4   9  19  36  57  78 106 147 188 228 277 333
#
# _framework density 21.765027
#
# number of rings (size 3 to 8) (size 9 to 14) (size 15 to 20)
#    0.000    2.500    1.250    1.125    1.750    4.000 
#    0.000    7.500    0.000    0.000    0.000    0.000 
#    0.000    0.000    0.000    0.000    0.000    0.000 
#
# Total GULP energy -178341.968746 kJ/mol
# GULP energy per Si atom -5573.186523 kJ/mol
# Density = 2.171549 g / cm^3
# Si number density = 21.765027 Si / 1000 Ang^3
#
#
#
# Elastic Constant Matrix: (Units=GPa)
#
#
# Indices 1 2 3 4 5 6 
#
# 1 23.6072 5.8996 3.1292 0.0000 0.0000 0.0000
# 2 5.8996 75.5513 57.5099 0.0000 0.0000 0.0000
# 3 3.1292 57.5099 138.1250 0.0000 0.0000 0.0000
# 4 0.0000 0.0000 0.0000 26.4494 0.0000 0.0000
# 5 0.0000 0.0000 0.0000 0.0000 24.1153 0.0000
# 6 0.0000 0.0000 0.0000 0.0000 0.0000 17.4941
#
#
#
# Elastic Compliance Matrix: (Units=1/GPa)
#
#
# Indices 1 2 3 4 5 6 
#
# 1 0.043240 -0.003851 0.000624 0.000000 0.000000 0.000000
# 2 -0.003851 0.019721 -0.008124 0.000000 0.000000 0.000000
# 3 0.000624 -0.008124 0.010608 0.000000 0.000000 0.000000
# 4 0.000000 0.000000 0.000000 0.037808 0.000000 0.000000
# 5 0.000000 0.000000 0.000000 0.000000 0.041468 0.000000
# 6 0.000000 0.000000 0.000000 0.000000 0.000000 0.057162
#
#
# Mechanical properties :
#
#
# Convention : Reuss Voigt Hill
#
# Bulk Modulus (GPa) = 19.65945 41.15122 30.40534
# Shear Modulus (GPa) = 20.02697 24.99475 22.51086
#
# Velocity S-wave (km/s) = 3.03668 3.39247 3.21949
# Velocity P-wave (km/s) = 4.62033 5.85604 5.27450
#
# Compressibility (1/GPa) = 0.05086611
#
# Stress axis : x y z
#
# Youngs Moduli (GPa) = 23.12690 50.70862 94.26816
#
# Poissons Ratio (x) = 0.19530 -0.05882
# Poissons Ratio (y) = 0.08907 0.76580
# Poissons Ratio (z) = -0.01443 0.41194
#
# Static dielectric constant tensor:
#      x y z
#    x 1.799230 0.000000 0.000000 
#    y 0.000000 1.788000 0.000000 
#    z 0.000000 0.000000 1.858630 
# 
# From -- ./inp_files/3720.got.cif
#   From: 2010.05.17/outbox.cif.g08.bks.cpg/sg31_2_cif.got.tgz:3720.got - 2010.06.03 17:08:30.
