data_PCOD9343583
_publ_section_title
;
Structure prediction by ZEFSAII (Michael W. Deem and Ramdas Pophale) SiO2 
 PCOD9343583
Probable space group: P M N 21
;
_chemical_formula_sum "Si O2"
_cell_formula_units_Z 20
_cell_length_a 11.546887
_cell_length_b 14.146003
_cell_length_c 5.196496
_cell_angle_alpha 90.000000
_cell_angle_beta 90.000000
_cell_angle_gamma 90.000000
_cell_volume 848.807599
_symmetry_space_group_name_H-M "P M N 21"
_symmetry_group_IT_number 31
_symmetry_cell_setting 'orthorhombic'
loop_
_space_group_symop_operation_xyz
x,y,z
1/2-x,-y,1/2+z
-x,y,z
1/2+x,-y,1/2+z
loop_
_atom_site_type_symbol
_atom_site_label
_atom_site_fract_x
_atom_site_fract_y
_atom_site_fract_z
Si Si1 0.500000 0.042693 0.150841
Si Si2 0.500000 0.173585 0.641576
Si Si3 0.869259 0.389832 0.611962
Si Si4 0.371923 0.394565 0.308625
Si Si5 0.283331 0.956241 0.397544
Si Si6 0.287101 0.254178 0.892152
O O1 0.500000 0.121400 0.372432
O O2 0.392866 0.975344 0.213798
O O3 0.500000 0.102871 0.889729
O O4 0.379310 0.231080 0.665859
O O5 0.872598 0.497470 0.707630
O O6 0.827538 0.314152 0.824471
O O7 0.000000 0.367867 0.514795
O O8 0.754388 0.386107 0.437674
O O9 0.500000 0.386525 0.437264
O O10 0.362239 0.316893 0.085405
O O11 0.254453 0.849459 0.475702
O O12 0.304568 0.008264 0.670654
#
# Coordination Sequence:
#
# PCOD9343583 Si02
#       6
#     2   2   4   4   4   4
#     4  12  24  50  68 106 146 196 248 326 374 454
#     4  12  26  44  82 104 144 192 270 314 374 454
#     4  11  27  48  69 108 153 195 248 319 392 458
#     4  11  25  46  75 104 144 196 259 314 379 458
#     4  12  26  46  70 103 147 190 245 312 378 446
#     4  12  26  44  72 109 139 198 247 315 382 458
#
# _framework density 23.562466000000001
#
# number of rings (size 3 to 8) (size 9 to 14) (size 15 to 20)
#    0.000    0.400    7.000    0.000    8.400    1.600 
#    0.000    0.000    0.000    0.000    0.000    0.000 
#    0.000    0.000    0.000    0.000    0.000    0.000 
#
# Total GULP energy -111467.033766 kJ/mol
# GULP energy per Si atom -5573.351688 kJ/mol
# Density = 2.350884 g / cm^3
# Si number density = 23.562466 Si / 1000 Ang^3
#
#
#
# Elastic Constant Matrix: (Units=GPa)
#
#
# Indices 1 2 3 4 5 6 
#
# 1 197.9810 37.7706 35.0434 0.0000 0.0000 0.0000
# 2 37.7706 156.6565 32.7337 0.0000 0.0000 0.0000
# 3 35.0434 32.7337 72.3174 0.0000 0.0000 0.0000
# 4 0.0000 0.0000 0.0000 33.7837 0.0000 0.0000
# 5 0.0000 0.0000 0.0000 0.0000 40.9377 0.0000
# 6 0.0000 0.0000 0.0000 0.0000 0.0000 -30.2236
#
#
#
# Elastic Compliance Matrix: (Units=1/GPa)
#
#
# Indices 1 2 3 4 5 6 
#
# 1 0.005630 -0.000870 -0.002335 0.000000 0.000000 0.000000
# 2 -0.000870 0.007185 -0.002831 0.000000 0.000000 0.000000
# 3 -0.002335 -0.002831 0.016240 0.000000 0.000000 0.000000
# 4 0.000000 0.000000 0.000000 0.029600 0.000000 0.000000
# 5 0.000000 0.000000 0.000000 0.000000 0.024427 0.000000
# 6 0.000000 0.000000 0.000000 0.000000 0.000000 -0.033087
#
#
# Mechanical properties :
#
#
# Convention : Reuss Voigt Hill
#
# Bulk Modulus (GPa) = 58.87390 70.89450 64.88420
# Shear Modulus (GPa) = 73.82542 30.32669 52.07606
#
# Velocity S-wave (km/s) = 5.60355 3.59148 4.70630
# Velocity P-wave (km/s) = 8.17967 6.88124 7.55839
#
# Compressibility (1/GPa) = 0.01698546
#
# Stress axis : x y z
#
# Youngs Moduli (GPa) = 177.61574 139.18802 61.57454
#
# Poissons Ratio (x) = 0.12104 0.14375
# Poissons Ratio (y) = 0.15446 0.17429
# Poissons Ratio (z) = 0.41466 0.39399
#
# Static dielectric constant tensor:
#      x y z
#    x 2.017290 0.000000 0.000000 
#    y 0.000000 1.910380 0.000000 
#    z 0.000000 0.000000 2.038790 
# 
# From -- ./inp_files/367.got.cif
#   From: 2010.05.17/outbox.cif.g08.bks.cpg/sg31_1_cif.got.tgz:367.got - 2010.06.03 17:08:30.
