data_PCOD9343539
_publ_section_title
;
Structure prediction by ZEFSAII (Michael W. Deem and Ramdas Pophale) SiO2 
 PCOD9343539
Probable space group: P M N 21
;
_chemical_formula_sum "Si O2"
_cell_formula_units_Z 30
_cell_length_a 21.174133
_cell_length_b 4.841472
_cell_length_c 11.930317
_cell_angle_alpha 90.000000
_cell_angle_beta 90.000000
_cell_angle_gamma 90.000000
_cell_volume 1223.024183
_symmetry_space_group_name_H-M "P M N 21"
_symmetry_group_IT_number 31
_symmetry_cell_setting 'orthorhombic'
loop_
_space_group_symop_operation_xyz
x,y,z
1/2-x,-y,1/2+z
-x,y,z
1/2+x,-y,1/2+z
loop_
_atom_site_type_symbol
_atom_site_label
_atom_site_fract_x
_atom_site_fract_y
_atom_site_fract_z
Si Si1 0.197572 0.552368 0.776700
Si Si2 0.431089 0.121000 0.266562
Si Si3 0.111860 0.794281 0.364947
Si Si4 0.929067 0.233013 0.982111
Si Si5 0.000000 0.944864 0.537668
Si Si6 0.739109 0.949587 0.151019
Si Si7 0.307917 0.719767 0.927354
Si Si8 0.620531 0.274206 0.614527
O O1 0.126781 0.668139 0.774713
O O2 0.209568 0.232018 0.752097
O O3 0.238932 0.637449 0.883467
O O4 0.232518 0.728945 0.678336
O O5 0.500000 0.249449 0.298379
O O6 0.445478 0.026099 0.139174
O O7 0.420009 0.876667 0.355540
O O8 0.054671 0.891910 0.442136
O O9 0.149124 0.550282 0.427272
O O10 0.096080 0.678038 0.241278
O O11 0.158304 0.055307 0.348339
O O12 0.883147 0.460671 0.034253
O O13 0.000000 0.339711 0.994777
O O14 0.920436 0.961187 0.056497
O O15 0.808937 0.843113 0.126424
O O16 0.697670 0.867340 0.045108
#
# Coordination Sequence:
#
# PCOD9343539 Si02
#       8
#     4   4   4   4   2   4   4   4
#     4  12  23  46  69 106 145 192 245 315 371 446
#     4   9  23  47  73 108 148 193 257 302 387 462
#     4  12  26  48  69 110 145 199 251 311 383 459
#     4  11  25  45  73 104 140 193 243 316 372 453
#     4  10  24  48  74 104 152 202 248 310 378 472
#     4  12  25  41  72 104 141 194 238 310 377 441
#     4  12  24  45  72 104 148 188 251 308 380 444
#     4  12  24  46  70 108 147 186 255 314 381 451
#
# _framework density 24.529361000000002
#
# number of rings (size 3 to 8) (size 9 to 14) (size 15 to 20)
#    0.400    0.267    2.667    5.200    1.867    3.733 
#    0.000    6.000    0.000    0.000    0.000    0.000 
#    0.000    0.000    0.000    0.000    0.000    0.000 
#
# Total GULP energy -167479.333230 kJ/mol
# GULP energy per Si atom -5582.644441 kJ/mol
# Density = 2.447353 g / cm^3
# Si number density = 24.529361 Si / 1000 Ang^3
#
#
#
# Elastic Constant Matrix: (Units=GPa)
#
#
# Indices 1 2 3 4 5 6 
#
# 1 129.4807 -0.3868 40.1820 0.0000 0.0000 0.0000
# 2 -0.3868 61.6159 7.1458 0.0000 0.0000 0.0000
# 3 40.1820 7.1458 124.6530 0.0000 0.0000 0.0000
# 4 0.0000 0.0000 0.0000 33.7786 0.0000 0.0000
# 5 0.0000 0.0000 0.0000 0.0000 33.3651 0.0000
# 6 0.0000 0.0000 0.0000 0.0000 0.0000 18.8754
#
#
#
# Elastic Compliance Matrix: (Units=1/GPa)
#
#
# Indices 1 2 3 4 5 6 
#
# 1 0.008590 0.000378 -0.002791 0.000000 0.000000 0.000000
# 2 0.000378 0.016355 -0.001059 0.000000 0.000000 0.000000
# 3 -0.002791 -0.001059 0.008983 0.000000 0.000000 0.000000
# 4 0.000000 0.000000 0.000000 0.029605 0.000000 0.000000
# 5 0.000000 0.000000 0.000000 0.000000 0.029971 0.000000
# 6 0.000000 0.000000 0.000000 0.000000 0.000000 0.052979
#
#
# Mechanical properties :
#
#
# Convention : Reuss Voigt Hill
#
# Bulk Modulus (GPa) = 37.06055 45.51462 41.28758
# Shear Modulus (GPa) = 30.78405 35.12441 32.95423
#
# Velocity S-wave (km/s) = 3.54642 3.78819 3.66930
# Velocity P-wave (km/s) = 5.64898 6.14242 5.90086
#
# Compressibility (1/GPa) = 0.02698287
#
# Stress axis : x y z
#
# Youngs Moduli (GPa) = 116.40981 61.14414 111.32645
#
# Poissons Ratio (x) = -0.02309 0.31068
# Poissons Ratio (y) = -0.04395 0.11792
# Poissons Ratio (z) = 0.32487 0.06477
#
# Static dielectric constant tensor:
#      x y z
#    x 1.958640 0.000000 0.000000 
#    y 0.000000 1.904190 0.000000 
#    z 0.000000 0.000000 1.982030 
# 
# From -- ./inp_files/4494.got.cif
#   From: 2010.05.17/outbox.cif.g08.bks.cpg/sg31_3_cif.got.tgz:4494.got - 2010.06.03 17:08:30.
