data_PCOD9343388
_publ_section_title
;
Structure prediction by ZEFSAII (Michael W. Deem and Ramdas Pophale) SiO2 
 PCOD9343388
Probable space group: P M N 21
;
_chemical_formula_sum "Si O2"
_cell_formula_units_Z 32
_cell_length_a 18.048768
_cell_length_b 5.614831
_cell_length_c 14.130000
_cell_angle_alpha 90.000000
_cell_angle_beta 90.000000
_cell_angle_gamma 90.000000
_cell_volume 1431.945251
_symmetry_space_group_name_H-M "P M N 21"
_symmetry_group_IT_number 31
_symmetry_cell_setting 'orthorhombic'
loop_
_space_group_symop_operation_xyz
x,y,z
1/2-x,-y,1/2+z
-x,y,z
1/2+x,-y,1/2+z
loop_
_atom_site_type_symbol
_atom_site_label
_atom_site_fract_x
_atom_site_fract_y
_atom_site_fract_z
Si Si1 0.418119 0.843226 0.175270
Si Si2 0.291424 0.504106 0.911224
Si Si3 0.583529 0.160153 0.356818
Si Si4 0.182030 0.791849 0.028480
Si Si5 0.584699 0.786752 0.826437
Si Si6 0.685985 0.152054 0.066907
Si Si7 0.194954 0.522794 0.736933
Si Si8 0.914998 0.717659 0.211231
O O1 0.500000 0.749324 0.153282
O O2 0.349684 0.665657 0.175307
O O3 0.419019 0.945062 0.282065
O O4 0.391735 0.048073 0.104463
O O5 0.220782 0.572389 0.975118
O O6 0.347938 0.724205 0.896954
O O7 0.258092 0.434019 0.808525
O O8 0.330037 0.304333 0.973383
O O9 0.500000 0.245775 0.372145
O O10 0.623160 0.099417 0.454602
O O11 0.633406 0.353802 0.303198
O O12 0.141743 0.723318 0.124620
O O13 0.249538 0.968921 0.043704
O O14 0.500000 0.796824 0.864754
O O15 0.587123 0.541689 0.762754
O O16 0.597743 0.040811 0.774111
O O17 0.719621 0.289190 0.158701
O O18 0.000000 0.743086 0.176377
#
# Coordination Sequence:
#
# PCOD9343388 Si02
#       8
#     4   4   4   4   4   4   4   4
#     4  10  21  39  62  87 121 169 212 261 326 391
#     4  11  25  39  64  98 129 178 222 277 340 401
#     4   9  19  37  61  90 123 160 203 260 323 394
#     4  11  23  38  62  95 131 163 220 274 343 403
#     4  10  24  46  70  96 133 185 234 281 339 406
#     4  11  24  39  60  93 126 167 217 269 334 391
#     4  10  21  40  62  89 129 163 210 266 329 396
#     4  10  23  44  71  98 132 179 228 286 346 406
#
# _framework density 22.347221000000001
#
# number of rings (size 3 to 8) (size 9 to 14) (size 15 to 20)
#    0.000    1.750    0.000    3.000    7.000    1.000 
#    0.000    1.875    0.000    0.000    0.000    0.000 
#    0.000    0.000    0.000    0.000    0.000    0.000 
#
# Total GULP energy -178662.007263 kJ/mol
# GULP energy per Si atom -5583.187727 kJ/mol
# Density = 2.229636 g / cm^3
# Si number density = 22.347221 Si / 1000 Ang^3
#
#
#
# Elastic Constant Matrix: (Units=GPa)
#
#
# Indices 1 2 3 4 5 6 
#
# 1 84.7081 5.8534 49.0134 0.0000 0.0000 0.0000
# 2 5.8534 64.5210 30.0152 0.0000 0.0000 0.0000
# 3 49.0134 30.0152 92.4352 0.0000 0.0000 0.0000
# 4 0.0000 0.0000 0.0000 20.1738 0.0000 0.0000
# 5 0.0000 0.0000 0.0000 0.0000 9.0158 0.0000
# 6 0.0000 0.0000 0.0000 0.0000 0.0000 13.0451
#
#
#
# Elastic Compliance Matrix: (Units=1/GPa)
#
#
# Indices 1 2 3 4 5 6 
#
# 1 0.017584 0.003230 -0.010373 0.000000 0.000000 0.000000
# 2 0.003230 0.018850 -0.007834 0.000000 0.000000 0.000000
# 3 -0.010373 -0.007834 0.018862 0.000000 0.000000 0.000000
# 4 0.000000 0.000000 0.000000 0.049569 0.000000 0.000000
# 5 0.000000 0.000000 0.000000 0.000000 0.110917 0.000000
# 6 0.000000 0.000000 0.000000 0.000000 0.000000 0.076657
#
#
# Mechanical properties :
#
#
# Convention : Reuss Voigt Hill
#
# Bulk Modulus (GPa) = 39.45758 45.71423 42.58590
# Shear Modulus (GPa) = 15.11310 18.89911 17.00611
#
# Velocity S-wave (km/s) = 2.60337 2.91125 2.76161
# Velocity P-wave (km/s) = 5.17027 5.63926 5.40985
#
# Compressibility (1/GPa) = 0.02534367
#
# Stress axis : x y z
#
# Youngs Moduli (GPa) = 56.87054 53.05035 53.01627
#
# Poissons Ratio (x) = -0.17136 0.54992
# Poissons Ratio (y) = -0.18370 0.41531
# Poissons Ratio (z) = 0.58990 0.41558
#
# Static dielectric constant tensor:
#      x y z
#    x 1.895430 0.000000 0.000000 
#    y 0.000000 1.938590 0.000000 
#    z 0.000000 0.000000 1.820650 
# 
# From -- ./inp_files/5510.got.cif
#   From: 2010.05.17/outbox.cif.g08.bks.cpg/sg31_3_cif.got.tgz:5510.got - 2010.06.03 17:08:30.
