data_PCOD9343868
_publ_section_title
;
Structure prediction by ZEFSAII (Michael W. Deem and Ramdas Pophale) SiO2 
 PCOD9343868
Probable space group: P B A 2
;
_chemical_formula_sum "Si O2"
_cell_formula_units_Z 18
_cell_length_a 14.162447
_cell_length_b 9.165534
_cell_length_c 5.050664
_cell_angle_alpha 90.000000
_cell_angle_beta 90.000000
_cell_angle_gamma 90.000000
_cell_volume 655.608458
_symmetry_space_group_name_H-M "P B A 2"
_symmetry_group_IT_number 32
_symmetry_cell_setting 'orthorhombic'
loop_
_space_group_symop_operation_xyz
x,y,z
-x,-y,z
1/2-x,1/2+y,z
1/2+x,1/2-y,z
loop_
_atom_site_type_symbol
_atom_site_label
_atom_site_fract_x
_atom_site_fract_y
_atom_site_fract_z
Si Si1 0.000000 0.500000 0.726030
Si Si2 0.075056 0.218529 0.011007
Si Si3 0.871844 0.926145 0.488720
Si Si4 0.816504 0.362899 0.720376
Si Si5 0.272385 0.380277 0.074275
O O1 0.021783 0.359630 0.905190
O O2 0.095567 0.553472 0.582703
O O3 0.083561 0.098497 0.778843
O O4 0.052283 0.146560 0.290787
O O5 0.178813 0.282176 0.078027
O O6 0.772132 0.839375 0.530827
O O7 0.830493 0.067037 0.331268
O O8 0.772617 0.478987 0.928625
O O9 0.838621 0.214610 0.877594
#
# Coordination Sequence:
#
# PCOD9343868 Si02
#       5
#     2   4   4   4   4
#     4  10  24  48  68 112 148 192 244 336 382 432
#     4  10  24  40  70 101 143 182 243 296 369 434
#     4  11  21  42  68 100 133 190 242 294 347 464
#     4  10  23  41  73 101 142 187 252 299 374 438
#     4  10  20  40  68  99 132 187 239 291 352 454
#
# _framework density 27.455413
#
# number of rings (size 3 to 8) (size 9 to 14) (size 15 to 20)
#    0.000    1.778    4.444    0.000    9.333    0.889 
#    4.000    1.111    4.889    0.000    0.000    0.000 
#    0.000    0.000    0.000    0.000    0.000    0.000 
#
# Total GULP energy -100437.056571 kJ/mol
# GULP energy per Si atom -5579.836476 kJ/mol
# Density = 2.739292 g / cm^3
# Si number density = 27.455413 Si / 1000 Ang^3
#
#
#
# Elastic Constant Matrix: (Units=GPa)
#
#
# Indices 1 2 3 4 5 6 
#
# 1 96.1173 26.8566 12.7999 0.0000 0.0000 0.0000
# 2 26.8566 139.8117 46.1794 0.0000 0.0000 0.0000
# 3 12.7999 46.1794 164.5973 0.0000 0.0000 0.0000
# 4 0.0000 0.0000 0.0000 23.3446 0.0000 0.0000
# 5 0.0000 0.0000 0.0000 0.0000 4.1525 0.0000
# 6 0.0000 0.0000 0.0000 0.0000 0.0000 57.6887
#
#
#
# Elastic Compliance Matrix: (Units=1/GPa)
#
#
# Indices 1 2 3 4 5 6 
#
# 1 0.011007 -0.002019 -0.000290 0.000000 0.000000 0.000000
# 2 -0.002019 0.008253 -0.002159 0.000000 0.000000 0.000000
# 3 -0.000290 -0.002159 0.006704 0.000000 0.000000 0.000000
# 4 0.000000 0.000000 0.000000 0.042837 0.000000 0.000000
# 5 0.000000 0.000000 0.000000 0.000000 0.240821 0.000000
# 6 0.000000 0.000000 0.000000 0.000000 0.000000 0.017334
#
#
# Mechanical properties :
#
#
# Convention : Reuss Voigt Hill
#
# Bulk Modulus (GPa) = 58.72053 63.57759 61.14906
# Shear Modulus (GPa) = 14.63848 38.01650 26.32749
#
# Velocity S-wave (km/s) = 2.31156 3.72514 3.10000
# Velocity P-wave (km/s) = 5.34401 6.45827 5.92738
#
# Compressibility (1/GPa) = 0.01702982
#
# Stress axis : x y z
#
# Youngs Moduli (GPa) = 90.85502 121.16520 149.17467
#
# Poissons Ratio (x) = 0.24459 0.04320
# Poissons Ratio (y) = 0.18340 0.32200
# Poissons Ratio (z) = 0.02631 0.26154
#
# Static dielectric constant tensor:
#      x y z
#    x 2.194430 0.000000 0.000000 
#    y 0.000000 2.268490 0.000000 
#    z 0.000000 0.000000 2.204470 
# 
# From -- ./inp_files/1106.got.cif
#   From: 2010.05.17/outbox.cif.g08.bks.cpg/sg32_1_cif.got.tgz:1106.got - 2010.06.03 17:12:27.
