data_PCOD9343845
_publ_section_title
;
Structure prediction by ZEFSAII (Michael W. Deem and Ramdas Pophale) SiO2 
 PCOD9343845
Probable space group: P B A 2
;
_chemical_formula_sum "Si O2"
_cell_formula_units_Z 32
_cell_length_a 14.191865
_cell_length_b 11.698019
_cell_length_c 9.464713
_cell_angle_alpha 90.000000
_cell_angle_beta 90.000000
_cell_angle_gamma 90.000000
_cell_volume 1571.300479
_symmetry_space_group_name_H-M "P B A 2"
_symmetry_group_IT_number 32
_symmetry_cell_setting 'orthorhombic'
loop_
_space_group_symop_operation_xyz
x,y,z
-x,-y,z
1/2-x,1/2+y,z
1/2+x,1/2-y,z
loop_
_atom_site_type_symbol
_atom_site_label
_atom_site_fract_x
_atom_site_fract_y
_atom_site_fract_z
Si Si1 0.889794 0.010388 0.185750
Si Si2 0.232618 0.403531 0.400348
Si Si3 0.246126 0.264714 0.676139
Si Si4 0.185253 0.801020 0.986382
Si Si5 0.048334 0.345605 0.707343
Si Si6 0.026692 0.633004 0.021428
Si Si7 0.860094 0.746093 0.170992
Si Si8 0.626695 0.930773 0.579054
O O1 0.821544 0.059496 0.307556
O O2 0.874555 0.094544 0.051841
O O3 0.856207 0.881615 0.159061
O O4 0.000000 0.000000 0.223216
O O5 0.265302 0.352788 0.549502
O O6 0.175845 0.304355 0.318915
O O7 0.159754 0.506631 0.436381
O O8 0.133229 0.257987 0.690949
O O9 0.288104 0.143746 0.633617
O O10 0.296148 0.303678 0.820007
O O11 0.132463 0.682577 0.029830
O O12 0.287542 0.805894 0.057682
O O13 0.100367 0.468157 0.688435
O O14 0.966812 0.351658 0.587921
O O15 0.003941 0.335734 0.861271
O O16 0.000000 0.500000 0.040888
O O17 0.963353 0.702158 0.132142
#
# Coordination Sequence:
#
# PCOD9343845 Si02
#       8
#     4   4   4   4   4   4   4   4
#     4  11  24  49  66  96 144 178 229 287 344 424
#     4  10  25  44  65  97 131 191 224 277 349 407
#     4  11  21  41  66  99 135 171 225 281 348 401
#     4  11  24  40  73 101 134 181 221 293 350 412
#     4  10  20  38  65  97 130 168 217 281 344 397
#     4  12  22  41  66 103 129 173 232 284 344 408
#     4  11  25  45  67  96 136 180 229 280 351 413
#     4  10  20  42  65  92 140 168 226 285 331 414
#
# _framework density 20.365297999999999
#
# number of rings (size 3 to 8) (size 9 to 14) (size 15 to 20)
#    0.000    1.250    5.000    0.750    3.500    2.000 
#   13.500    0.625    0.000    0.000    0.000    0.000 
#    0.000    0.000    0.000    0.000    0.000    0.000 
#
# Total GULP energy -178583.957620 kJ/mol
# GULP energy per Si atom -5580.748676 kJ/mol
# Density = 2.031895 g / cm^3
# Si number density = 20.365298 Si / 1000 Ang^3
#
#
#
# Elastic Constant Matrix: (Units=GPa)
#
#
# Indices 1 2 3 4 5 6 
#
# 1 79.2041 20.0844 9.8628 0.0000 0.0000 0.0000
# 2 20.0844 65.8361 26.7764 0.0000 0.0000 0.0000
# 3 9.8628 26.7764 79.3347 0.0000 0.0000 0.0000
# 4 0.0000 0.0000 0.0000 25.5517 0.0000 0.0000
# 5 0.0000 0.0000 0.0000 0.0000 20.2633 0.0000
# 6 0.0000 0.0000 0.0000 0.0000 0.0000 43.6373
#
#
#
# Elastic Compliance Matrix: (Units=1/GPa)
#
#
# Indices 1 2 3 4 5 6 
#
# 1 0.013692 -0.004039 -0.000339 0.000000 0.000000 0.000000
# 2 -0.004039 0.018798 -0.005842 0.000000 0.000000 0.000000
# 3 -0.000339 -0.005842 0.014619 0.000000 0.000000 0.000000
# 4 0.000000 0.000000 0.000000 0.039136 0.000000 0.000000
# 5 0.000000 0.000000 0.000000 0.000000 0.049350 0.000000
# 6 0.000000 0.000000 0.000000 0.000000 0.000000 0.022916
#
#
# Mechanical properties :
#
#
# Convention : Reuss Voigt Hill
#
# Bulk Modulus (GPa) = 37.49848 37.53581 37.51715
# Shear Modulus (GPa) = 26.61823 29.06721 27.84272
#
# Velocity S-wave (km/s) = 3.61922 3.78205 3.70153
# Velocity P-wave (km/s) = 5.99316 6.12724 6.06057
#
# Compressibility (1/GPa) = 0.02666774
#
# Stress axis : x y z
#
# Youngs Moduli (GPa) = 73.03509 53.19831 68.40509
#
# Poissons Ratio (x) = 0.21488 0.02318
# Poissons Ratio (y) = 0.29500 0.39964
# Poissons Ratio (z) = 0.02475 0.31080
#
# Static dielectric constant tensor:
#      x y z
#    x 1.757560 0.000000 0.000000 
#    y 0.000000 1.748790 0.000000 
#    z 0.000000 0.000000 1.719540 
# 
# From -- ./inp_files/3099.got.cif
#   From: 2010.05.17/outbox.cif.g08.bks.cpg/sg32_2_cif.got.tgz:3099.got - 2010.06.03 17:12:27.
