data_PCOD9343470
_publ_section_title
;
Structure prediction by ZEFSAII (Michael W. Deem and Ramdas Pophale) SiO2 
 PCOD9343470
Probable space group: P M N 21
;
_chemical_formula_sum "Si O2"
_cell_formula_units_Z 24
_cell_length_a 16.879969
_cell_length_b 9.793221
_cell_length_c 7.599219
_cell_angle_alpha 90.000000
_cell_angle_beta 90.000000
_cell_angle_gamma 90.000000
_cell_volume 1256.221322
_symmetry_space_group_name_H-M "P M N 21"
_symmetry_group_IT_number 31
_symmetry_cell_setting 'orthorhombic'
loop_
_space_group_symop_operation_xyz
x,y,z
1/2-x,-y,1/2+z
-x,y,z
1/2+x,-y,1/2+z
loop_
_atom_site_type_symbol
_atom_site_label
_atom_site_fract_x
_atom_site_fract_y
_atom_site_fract_z
Si Si1 0.095609 0.342914 0.321830
Si Si2 0.404390 0.342920 0.819537
Si Si3 0.406262 0.158252 0.491000
Si Si4 0.658132 0.865298 0.534802
Si Si5 0.158132 0.865293 0.606564
Si Si6 0.406263 0.841754 0.150367
O O1 0.121767 0.499997 0.320684
O O2 0.129644 0.254088 0.162701
O O3 0.116519 0.268304 0.504261
O O4 0.000000 0.340501 0.307757
O O5 0.500000 0.340506 0.833612
O O6 0.383482 0.268311 0.637104
O O7 0.370355 0.254094 0.978664
O O8 0.500000 0.170132 0.452553
O O9 0.358568 0.172168 0.309621
O O10 0.389116 0.006556 0.564592
O O11 0.750001 0.892489 0.570682
O O12 0.641432 0.827838 0.331745
O O13 0.110882 0.006550 0.576776
O O14 0.500000 0.829871 0.188814
#
# Coordination Sequence:
#
# PCOD9343470 Si02
#       6
#     4   4   4   4   4   4
#     4  10  22  41  63  88 121 162 203 244 296 362
#     4  10  22  41  63  88 121 162 203 244 296 362
#     4  10  22  40  65  90 120 159 205 251 296 357
#     4  11  23  37  60  92 123 159 200 254 301 353
#     4  11  23  37  60  92 123 159 200 254 301 353
#     4  10  22  40  65  90 120 159 205 251 296 357
#
# _framework density 19.104914999999998
#
# number of rings (size 3 to 8) (size 9 to 14) (size 15 to 20)
#    0.000    1.667    0.000    5.000    9.333    4.000 
#    6.000    5.000    0.000    0.000    0.000    0.000 
#    0.000    0.000    0.000    0.000    0.000    0.000 
#
# Total GULP energy -134149.821764 kJ/mol
# GULP energy per Si atom -5589.575907 kJ/mol
# Density = 1.906143 g / cm^3
# Si number density = 19.104915 Si / 1000 Ang^3
#
#
#
# Elastic Constant Matrix: (Units=GPa)
#
#
# Indices 1 2 3 4 5 6 
#
# 1 39.0188 20.6710 38.4645 0.0000 0.0000 0.0000
# 2 20.6710 126.8165 84.2653 0.0000 0.0000 0.0000
# 3 38.4645 84.2653 109.1972 0.0000 0.0000 0.0000
# 4 0.0000 0.0000 0.0000 -1.9772 0.0000 0.0000
# 5 0.0000 0.0000 0.0000 0.0000 -29.7159 0.0000
# 6 0.0000 0.0000 0.0000 0.0000 0.0000 -33.9758
#
#
#
# Elastic Compliance Matrix: (Units=1/GPa)
#
#
# Indices 1 2 3 4 5 6 
#
# 1 0.041398 0.006037 -0.019241 0.000000 0.000000 0.000000
# 2 0.006037 0.017064 -0.015295 0.000000 0.000000 0.000000
# 3 -0.019241 -0.015295 0.027738 0.000000 0.000000 0.000000
# 4 0.000000 0.000000 0.000000 -0.505772 0.000000 0.000000
# 5 0.000000 0.000000 0.000000 0.000000 -0.033652 0.000000
# 6 0.000000 0.000000 0.000000 0.000000 0.000000 -0.029433
#
#
# Mechanical properties :
#
#
# Convention : Reuss Voigt Hill
#
# Bulk Modulus (GPa) = 34.24292 62.42601 48.33446
# Shear Modulus (GPa) = -12.02141 -4.35832 -8.18987
#
# Velocity S-wave (km/s) = -2.51117 -1.51202 -2.07270
# Velocity P-wave (km/s) = 3.09105 5.44959 4.43016
#
# Compressibility (1/GPa) = 0.02920312
#
# Stress axis : x y z
#
# Youngs Moduli (GPa) = 24.15553 58.60243 36.05143
#
# Poissons Ratio (x) = -0.35381 0.69368
# Poissons Ratio (y) = -0.14584 0.55140
# Poissons Ratio (z) = 0.46479 0.89631
#
# Static dielectric constant tensor:
#      x y z
#    x 1.649520 0.000000 0.000000 
#    y 0.000000 1.643090 0.000000 
#    z 0.000000 0.000000 1.653120 
# 
# From -- ./inp_files/2783.got.cif
#   From: 2010.05.17/outbox.cif.g08.bks.cpg/sg31_2_cif.got.tgz:2783.got - 2010.06.03 17:08:30.
