data_PCOD9343299
_publ_section_title
;
Structure prediction by ZEFSAII (Michael W. Deem and Ramdas Pophale) SiO2 
 PCOD9343299
Probable space group: P M N 21
;
_chemical_formula_sum "Si O2"
_cell_formula_units_Z 32
_cell_length_a 30.953395
_cell_length_b 7.647607
_cell_length_c 5.274472
_cell_angle_alpha 90.000000
_cell_angle_beta 90.000000
_cell_angle_gamma 90.000000
_cell_volume 1248.569849
_symmetry_space_group_name_H-M "P M N 21"
_symmetry_group_IT_number 31
_symmetry_cell_setting 'orthorhombic'
loop_
_space_group_symop_operation_xyz
x,y,z
1/2-x,-y,1/2+z
-x,y,z
1/2+x,-y,1/2+z
loop_
_atom_site_type_symbol
_atom_site_label
_atom_site_fract_x
_atom_site_fract_y
_atom_site_fract_z
Si Si1 0.293554 0.842279 0.289350
Si Si2 0.332489 0.392022 0.040213
Si Si3 0.949768 0.285386 0.799396
Si Si4 0.869825 0.266732 0.442935
Si Si5 0.087422 0.619410 0.923561
Si Si6 0.757627 0.767872 0.788308
Si Si7 0.124531 0.904460 0.299927
Si Si8 0.953761 0.915591 0.684089
O O1 0.341237 0.797235 0.187060
O O2 0.277137 0.779777 0.561976
O O3 0.285042 0.050938 0.290206
O O4 0.263640 0.762779 0.063921
O O5 0.345431 0.554937 0.863149
O O6 0.372484 0.396726 0.233912
O O7 0.289700 0.387403 0.207525
O O8 0.334407 0.208327 0.890574
O O9 0.918284 0.297225 0.552130
O O10 0.949619 0.080448 0.875207
O O11 0.000000 0.327475 0.749323
O O12 0.929174 0.426708 0.990519
O O13 0.865714 0.106115 0.245652
O O14 0.102561 0.766580 0.116185
O O15 0.048051 0.721371 0.791702
O O16 0.088825 0.925619 0.517722
O O17 0.000000 0.942669 0.550981
#
# Coordination Sequence:
#
# PCOD9343299 Si02
#       8
#     4   4   4   4   4   4   4   4
#     4  10  22  41  65 100 132 184 223 288 338 412
#     4  10  22  39  60  90 128 171 213 269 329 400
#     4   9  19  38  61  89 127 165 212 273 333 407
#     4  10  21  41  62  94 126 173 220 272 344 401
#     4  10  21  35  61  89 121 168 211 268 330 400
#     4  10  22  40  66  95 139 177 233 277 346 405
#     4  10  21  38  59  89 121 163 215 272 327 404
#     4   9  19  36  56  82 118 159 207 265 332 401
#
# _framework density 25.629322999999999
#
# number of rings (size 3 to 8) (size 9 to 14) (size 15 to 20)
#    0.000    2.250    1.250    0.375    1.750    4.000 
#    4.500    0.000    0.000    6.000    0.000    0.000 
#    0.000    0.000    0.000    0.000    0.000    0.000 
#
# Total GULP energy -178680.870810 kJ/mol
# GULP energy per Si atom -5583.777213 kJ/mol
# Density = 2.557099 g / cm^3
# Si number density = 25.629323 Si / 1000 Ang^3
#
#
#
# Elastic Constant Matrix: (Units=GPa)
#
#
# Indices 1 2 3 4 5 6 
#
# 1 110.8814 36.0621 19.6668 0.0000 0.0000 0.0000
# 2 36.0621 158.0228 32.4162 0.0000 0.0000 0.0000
# 3 19.6668 32.4162 50.9015 0.0000 0.0000 0.0000
# 4 0.0000 0.0000 0.0000 31.0773 0.0000 0.0000
# 5 0.0000 0.0000 0.0000 0.0000 6.1809 0.0000
# 6 0.0000 0.0000 0.0000 0.0000 0.0000 26.8631
#
#
#
# Elastic Compliance Matrix: (Units=1/GPa)
#
#
# Indices 1 2 3 4 5 6 
#
# 1 0.010076 -0.001726 -0.002794 0.000000 0.000000 0.000000
# 2 -0.001726 0.007575 -0.004157 0.000000 0.000000 0.000000
# 3 -0.002794 -0.004157 0.023372 0.000000 0.000000 0.000000
# 4 0.000000 0.000000 0.000000 0.032178 0.000000 0.000000
# 5 0.000000 0.000000 0.000000 0.000000 0.161790 0.000000
# 6 0.000000 0.000000 0.000000 0.000000 0.000000 0.037226
#
#
# Mechanical properties :
#
#
# Convention : Reuss Voigt Hill
#
# Bulk Modulus (GPa) = 42.24885 55.12175 48.68530
# Shear Modulus (GPa) = 16.80900 28.26829 22.53864
#
# Velocity S-wave (km/s) = 2.56374 3.32470 2.96870
# Velocity P-wave (km/s) = 5.02832 6.02430 5.54870
#
# Compressibility (1/GPa) = 0.02366929
#
# Stress axis : x y z
#
# Youngs Moduli (GPa) = 99.25001 132.01480 42.78537
#
# Poissons Ratio (x) = 0.22789 0.11952
# Poissons Ratio (y) = 0.17133 0.17786
# Poissons Ratio (z) = 0.27726 0.54879
#
# Static dielectric constant tensor:
#      x y z
#    x 2.009220 0.000000 0.000000 
#    y 0.000000 2.170100 0.000000 
#    z 0.000000 0.000000 2.069280 
# 
# From -- ./inp_files/1367.got.cif
#   From: 2010.05.17/outbox.cif.g08.bks.cpg/sg31_1_cif.got.tgz:1367.got - 2010.06.03 17:08:30.
