data_PCOD9343630
_publ_section_title
;
Structure prediction by ZEFSAII (Michael W. Deem and Ramdas Pophale) SiO2 
 PCOD9343630
Probable space group: P B A 2
;
_chemical_formula_sum "Si O2"
_cell_formula_units_Z 28
_cell_length_a 13.994840
_cell_length_b 5.295756
_cell_length_c 17.121235
_cell_angle_alpha 90.000000
_cell_angle_beta 90.000000
_cell_angle_gamma 90.000000
_cell_volume 1268.910505
_symmetry_space_group_name_H-M "P B A 2"
_symmetry_group_IT_number 32
_symmetry_cell_setting 'orthorhombic'
loop_
_space_group_symop_operation_xyz
x,y,z
-x,-y,z
1/2-x,1/2+y,z
1/2+x,1/2-y,z
loop_
_atom_site_type_symbol
_atom_site_label
_atom_site_fract_x
_atom_site_fract_y
_atom_site_fract_z
Si Si1 0.649722 0.112668 0.376300
Si Si2 0.309797 0.400342 0.940184
Si Si3 0.633666 0.611846 0.440367
Si Si4 0.616186 0.994389 0.201604
Si Si5 0.686148 0.480765 0.776939
Si Si6 0.315060 0.433006 0.609501
Si Si7 0.386237 0.505360 0.111334
O O1 0.596393 0.883406 0.417509
O O2 0.752686 0.137817 0.418833
O O3 0.660487 0.045375 0.285991
O O4 0.600309 0.380837 0.387779
O O5 0.275391 0.110013 0.937810
O O6 0.358492 0.453112 0.022381
O O7 0.364819 0.464450 0.859382
O O8 0.623583 0.549145 0.531172
O O9 0.645190 0.724866 0.166674
O O10 0.500000 0.000000 0.211007
O O11 0.642891 0.219917 0.142501
O O12 0.770383 0.697103 0.776851
O O13 0.636049 0.530467 0.693943
O O14 0.237290 0.660540 0.606218
O O15 0.500000 0.500000 0.115242
#
# Coordination Sequence:
#
# PCOD9343630 Si02
#       7
#     4   4   4   4   4   4   4
#     4  10  18  30  43  66  93 120 152 202 234 280
#     4  10  19  35  50  78 106 124 163 208 254 296
#     4  10  17  28  43  68 100 117 150 190 242 288
#     4  10  21  37  52  67  91 129 174 206 239 290
#     4   8  16  25  44  66  97 124 149 188 237 289
#     4  10  14  25  41  64  96 126 152 180 230 293
#     4  10  21  38  55  71  96 136 174 202 244 308
#
# _framework density 22.066175000000001
#
# number of rings (size 3 to 8) (size 9 to 14) (size 15 to 20)
#    0.000    2.286    2.857    1.714    0.000    0.000 
#   15.429    0.000    0.000    0.000    0.000    2.000 
#    0.000    0.000    0.000    0.000    0.000    0.000 
#
# Total GULP energy -156230.592663 kJ/mol
# GULP energy per Si atom -5579.664024 kJ/mol
# Density = 2.201595 g / cm^3
# Si number density = 22.066175 Si / 1000 Ang^3
#
#
#
# Elastic Constant Matrix: (Units=GPa)
#
#
# Indices 1 2 3 4 5 6 
#
# 1 56.2003 7.3129 2.8121 0.0000 0.0000 0.0000
# 2 7.3129 142.0950 13.6062 0.0000 0.0000 0.0000
# 3 2.8121 13.6062 175.1664 0.0000 0.0000 0.0000
# 4 0.0000 0.0000 0.0000 39.0486 0.0000 0.0000
# 5 0.0000 0.0000 0.0000 0.0000 -40.7599 0.0000
# 6 0.0000 0.0000 0.0000 0.0000 0.0000 3.7558
#
#
#
# Elastic Compliance Matrix: (Units=1/GPa)
#
#
# Indices 1 2 3 4 5 6 
#
# 1 0.017922 -0.000901 -0.000218 0.000000 0.000000 0.000000
# 2 -0.000901 0.007136 -0.000540 0.000000 0.000000 0.000000
# 3 -0.000218 -0.000540 0.005754 0.000000 0.000000 0.000000
# 4 0.000000 0.000000 0.000000 0.025609 0.000000 0.000000
# 5 0.000000 0.000000 0.000000 0.000000 -0.024534 0.000000
# 6 0.000000 0.000000 0.000000 0.000000 0.000000 0.266253
#
#
# Mechanical properties :
#
#
# Convention : Reuss Voigt Hill
#
# Bulk Modulus (GPa) = 36.37202 46.76933 41.57068
# Shear Modulus (GPa) = 16.09669 23.72427 19.91048
#
# Velocity S-wave (km/s) = 2.70381 3.28249 3.00710
# Velocity P-wave (km/s) = 5.12507 5.96719 5.56209
#
# Compressibility (1/GPa) = 0.02749366
#
# Stress axis : x y z
#
# Youngs Moduli (GPa) = 55.79828 140.14184 173.78367
#
# Poissons Ratio (x) = 0.12634 0.03783
# Poissons Ratio (y) = 0.05030 0.09381
# Poissons Ratio (z) = 0.01215 0.07565
#
# Static dielectric constant tensor:
#      x y z
#    x 1.815390 0.000000 0.000000 
#    y 0.000000 1.840630 0.000000 
#    z 0.000000 0.000000 1.832390 
# 
# From -- ./inp_files/4190.got.cif
#   From: 2010.05.17/outbox.cif.g08.bks.cpg/sg32_3_cif.got.tgz:4190.got - 2010.06.03 17:12:27.
