data_PCOD9343276
_publ_section_title
;
Structure prediction by ZEFSAII (Michael W. Deem and Ramdas Pophale) SiO2 
 PCOD9343276
Probable space group: P M N 21
;
_chemical_formula_sum "Si O2"
_cell_formula_units_Z 32
_cell_length_a 8.002104
_cell_length_b 13.537459
_cell_length_c 13.290827
_cell_angle_alpha 90.000000
_cell_angle_beta 90.000000
_cell_angle_gamma 90.000000
_cell_volume 1439.770765
_symmetry_space_group_name_H-M "P M N 21"
_symmetry_group_IT_number 31
_symmetry_cell_setting 'orthorhombic'
loop_
_space_group_symop_operation_xyz
x,y,z
1/2-x,-y,1/2+z
-x,y,z
1/2+x,-y,1/2+z
loop_
_atom_site_type_symbol
_atom_site_label
_atom_site_fract_x
_atom_site_fract_y
_atom_site_fract_z
Si Si1 0.306535 0.929297 0.080760
Si Si2 0.306752 0.111439 0.974093
Si Si3 0.800881 0.390807 0.111095
Si Si4 0.199514 0.680534 0.402469
Si Si5 0.799814 0.767501 0.774515
Si Si6 0.294970 0.397075 0.686093
Si Si7 0.190321 0.005000 0.268168
Si Si8 0.305153 0.273122 0.494213
O O1 0.500000 0.923365 0.048338
O O2 0.210816 0.840656 0.028835
O O3 0.296598 0.930100 0.200405
O O4 0.235290 0.038976 0.057909
O O5 0.500000 0.132760 0.004985
O O6 0.229328 0.214362 0.940773
O O7 0.305636 0.038679 0.879492
O O8 0.753132 0.295778 0.177792
O O9 0.746631 0.489289 0.169824
O O10 0.000000 0.393128 0.101440
O O11 0.728571 0.389431 0.998247
O O12 0.263230 0.644327 0.294163
O O13 0.000000 0.693993 0.388883
O O14 0.745238 0.881428 0.769312
O O15 0.000000 0.766886 0.778350
O O16 0.734460 0.721430 0.880685
O O17 0.500000 0.391872 0.686836
O O18 0.235145 0.336204 0.587790
O O19 0.000000 0.996730 0.233402
O O20 0.500000 0.300684 0.486673
#
# Coordination Sequence:
#
# PCOD9343276 Si02
#       8
#     4   4   4   4   4   4   4   4
#     4  11  21  35  56  89 127 161 199 248 301 361
#     4   9  19  35  57  82 115 155 193 235 292 355
#     4  11  24  41  63  91 123 161 206 261 317 372
#     4  10  20  40  65  88 118 160 207 252 307 377
#     4  11  23  39  62  93 127 164 207 255 308 373
#     4   9  21  41  65  90 119 160 208 258 318 375
#     4  11  21  37  60  87 121 164 205 247 300 359
#     4  10  21  40  64  90 122 165 209 254 309 372
#
# _framework density 22.225760999999999
#
# number of rings (size 3 to 8) (size 9 to 14) (size 15 to 20)
#    0.000    1.750    1.250    3.000    1.750    3.500 
#    0.000    5.625    0.000    0.000    0.000    0.000 
#    0.000    0.000    0.000    0.000    0.000    0.000 
#
# Total GULP energy -178623.174365 kJ/mol
# GULP energy per Si atom -5581.974199 kJ/mol
# Density = 2.217517 g / cm^3
# Si number density = 22.225761 Si / 1000 Ang^3
#
#
#
# Elastic Constant Matrix: (Units=GPa)
#
#
# Indices 1 2 3 4 5 6 
#
# 1 19.9366 -3.9008 -1.2369 0.0000 0.0000 0.0000
# 2 -3.9008 64.8153 7.5308 0.0000 0.0000 0.0000
# 3 -1.2369 7.5308 111.6042 0.0000 0.0000 0.0000
# 4 0.0000 0.0000 0.0000 35.9126 0.0000 0.0000
# 5 0.0000 0.0000 0.0000 0.0000 19.5858 0.0000
# 6 0.0000 0.0000 0.0000 0.0000 0.0000 17.4216
#
#
#
# Elastic Compliance Matrix: (Units=1/GPa)
#
#
# Indices 1 2 3 4 5 6 
#
# 1 0.050771 0.003014 0.000359 0.000000 0.000000 0.000000
# 2 0.003014 0.015729 -0.001028 0.000000 0.000000 0.000000
# 3 0.000359 -0.001028 0.009034 0.000000 0.000000 0.000000
# 4 0.000000 0.000000 0.000000 0.027845 0.000000 0.000000
# 5 0.000000 0.000000 0.000000 0.000000 0.051057 0.000000
# 6 0.000000 0.000000 0.000000 0.000000 0.000000 0.057400
#
#
# Mechanical properties :
#
#
# Convention : Reuss Voigt Hill
#
# Bulk Modulus (GPa) = 12.46506 22.34913 17.40710
# Shear Modulus (GPa) = 21.37777 27.51486 24.44632
#
# Velocity S-wave (km/s) = 3.10473 3.52230 3.32009
# Velocity P-wave (km/s) = 4.29803 5.15941 4.74829
#
# Compressibility (1/GPa) = 0.08022426
#
# Stress axis : x y z
#
# Youngs Moduli (GPa) = 19.69630 63.57566 110.69804
#
# Poissons Ratio (x) = -0.19161 -0.03978
# Poissons Ratio (y) = -0.05936 0.11380
# Poissons Ratio (z) = -0.00708 0.06535
#
# Static dielectric constant tensor:
#      x y z
#    x 1.829040 0.000000 0.000000 
#    y 0.000000 1.826460 0.000000 
#    z 0.000000 0.000000 1.836550 
# 
# From -- ./inp_files/3739.got.cif
#   From: 2010.05.17/outbox.cif.g08.bks.cpg/sg31_2_cif.got.tgz:3739.got - 2010.06.03 17:08:30.
