data_PCOD9343034
_publ_section_title
;
Structure prediction by ZEFSAII (Michael W. Deem and Ramdas Pophale) SiO2 
 PCOD9343034
Probable space group: P M N 21
;
_chemical_formula_sum "Si O2"
_cell_formula_units_Z 32
_cell_length_a 8.489377
_cell_length_b 12.393001
_cell_length_c 15.788972
_cell_angle_alpha 90.000000
_cell_angle_beta 90.000000
_cell_angle_gamma 90.000000
_cell_volume 1661.139708
_symmetry_space_group_name_H-M "P M N 21"
_symmetry_group_IT_number 31
_symmetry_cell_setting 'orthorhombic'
loop_
_space_group_symop_operation_xyz
x,y,z
1/2-x,-y,1/2+z
-x,y,z
1/2+x,-y,1/2+z
loop_
_atom_site_type_symbol
_atom_site_label
_atom_site_fract_x
_atom_site_fract_y
_atom_site_fract_z
Si Si1 0.687362 0.990073 0.665890
Si Si2 0.688268 0.618848 0.016017
Si Si3 0.181629 0.748502 0.415813
Si Si4 0.808979 0.986670 0.358857
Si Si5 0.807423 0.528514 0.673658
Si Si6 0.181961 0.761671 0.617377
Si Si7 0.811003 0.863035 0.009438
Si Si8 0.314487 0.525138 0.363005
O O1 0.500000 0.007553 0.669845
O O2 0.747284 0.002078 0.761998
O O3 0.748265 0.071681 0.593138
O O4 0.722921 0.868408 0.638280
O O5 0.500000 0.627291 0.020908
O O6 0.744520 0.552425 0.099170
O O7 0.757004 0.739111 0.011655
O O8 0.732092 0.548929 0.933398
O O9 0.236460 0.866936 0.389162
O O10 0.181069 0.744368 0.517003
O O11 0.283074 0.650002 0.382567
O O12 0.000000 0.734694 0.386565
O O13 0.000000 0.993267 0.360625
O O14 0.746939 0.074835 0.425252
O O15 0.755808 0.651053 0.656887
O O16 0.758169 0.495808 0.767507
O O17 0.000000 0.529085 0.670260
O O18 0.000000 0.778147 0.644825
O O19 0.000000 0.866365 0.009668
O O20 0.500000 0.501392 0.366817
#
# Coordination Sequence:
#
# PCOD9343034 Si02
#       8
#     4   4   4   4   4   4   4   4
#     4  10  23  40  59  88 123 154 196 250 299 347
#     4  11  23  43  64  85 119 163 203 240 292 364
#     4  10  20  38  64  87 114 155 202 245 292 353
#     4  10  22  41  62  87 120 161 203 242 292 360
#     4   9  21  40  60  86 120 156 196 241 292 354
#     4  10  19  38  64  85 112 154 201 245 292 352
#     4  11  24  41  60  89 125 157 195 252 304 348
#     4  11  23  39  61  91 123 154 196 251 301 346
#
# _framework density 19.263884000000001
#
# number of rings (size 3 to 8) (size 9 to 14) (size 15 to 20)
#    0.000    1.750    2.500    1.125    3.500    2.000 
#    0.000    2.500    0.000    0.000    0.000    0.000 
#    0.000    0.000    0.000    0.000    0.000    0.000 
#
# Total GULP energy -178675.997079 kJ/mol
# GULP energy per Si atom -5583.624909 kJ/mol
# Density = 1.922004 g / cm^3
# Si number density = 19.263884 Si / 1000 Ang^3
#
#
#
# Elastic Constant Matrix: (Units=GPa)
#
#
# Indices 1 2 3 4 5 6 
#
# 1 17.2442 7.6560 17.1589 0.0000 0.0000 0.0000
# 2 7.6560 110.4895 41.5502 0.0000 0.0000 0.0000
# 3 17.1589 41.5502 115.3805 0.0000 0.0000 0.0000
# 4 0.0000 0.0000 0.0000 33.9905 0.0000 0.0000
# 5 0.0000 0.0000 0.0000 0.0000 32.1332 0.0000
# 6 0.0000 0.0000 0.0000 0.0000 0.0000 18.8372
#
#
#
# Elastic Compliance Matrix: (Units=1/GPa)
#
#
# Indices 1 2 3 4 5 6 
#
# 1 0.068168 -0.001054 -0.009758 0.000000 0.000000 0.000000
# 2 -0.001054 0.010485 -0.003619 0.000000 0.000000 0.000000
# 3 -0.009758 -0.003619 0.011421 0.000000 0.000000 0.000000
# 4 0.000000 0.000000 0.000000 0.029420 0.000000 0.000000
# 5 0.000000 0.000000 0.000000 0.000000 0.031120 0.000000
# 6 0.000000 0.000000 0.000000 0.000000 0.000000 0.053087
#
#
# Mechanical properties :
#
#
# Convention : Reuss Voigt Hill
#
# Bulk Modulus (GPa) = 16.33659 41.76049 29.04854
# Shear Modulus (GPa) = 19.76540 28.77546 24.27043
#
# Velocity S-wave (km/s) = 3.20665 3.86910 3.55335
# Velocity P-wave (km/s) = 4.71264 6.45640 5.65217
#
# Compressibility (1/GPa) = 0.06121228
#
# Stress axis : x y z
#
# Youngs Moduli (GPa) = 14.66958 95.37827 87.55506
#
# Poissons Ratio (x) = 0.10052 0.85438
# Poissons Ratio (y) = 0.01546 0.31685
# Poissons Ratio (z) = 0.14315 0.34517
#
# Static dielectric constant tensor:
#      x y z
#    x 1.680810 0.000000 0.000000 
#    y 0.000000 1.585850 0.000000 
#    z 0.000000 0.000000 1.676190 
# 
# From -- ./inp_files/4956.got.cif
#   From: 2010.05.17/outbox.cif.g08.bks.cpg/sg31_3_cif.got.tgz:4956.got - 2010.06.03 17:08:30.
