data_PCOD9343912
_publ_section_title
;
Structure prediction by ZEFSAII (Michael W. Deem and Ramdas Pophale) SiO2 
 PCOD9343912
Probable space group: P B A 2
;
_chemical_formula_sum "Si O2"
_cell_formula_units_Z 32
_cell_length_a 5.381872
_cell_length_b 30.962505
_cell_length_c 8.599529
_cell_angle_alpha 90.000000
_cell_angle_beta 90.000000
_cell_angle_gamma 90.000000
_cell_volume 1432.993167
_symmetry_space_group_name_H-M "P B A 2"
_symmetry_group_IT_number 32
_symmetry_cell_setting 'orthorhombic'
loop_
_space_group_symop_operation_xyz
x,y,z
-x,-y,z
1/2-x,1/2+y,z
1/2+x,1/2-y,z
loop_
_atom_site_type_symbol
_atom_site_label
_atom_site_fract_x
_atom_site_fract_y
_atom_site_fract_z
Si Si1 0.241720 0.026072 0.449920
Si Si2 0.974284 0.599053 0.608172
Si Si3 0.644483 0.644268 0.382675
Si Si4 0.855804 0.109393 0.881659
Si Si5 0.835716 0.917354 0.163031
Si Si6 0.170650 0.170831 0.661157
Si Si7 0.287325 0.724491 0.955299
Si Si8 0.520297 0.152803 0.110222
O O1 0.306598 0.067928 0.554093
O O2 0.187816 0.041954 0.274290
O O3 0.500000 0.000000 0.454038
O O4 0.000000 0.000000 0.505117
O O5 0.772967 0.603989 0.472218
O O6 0.842778 0.586649 0.768724
O O7 0.070237 0.648415 0.618655
O O8 0.452704 0.620804 0.268609
O O9 0.500837 0.673509 0.508213
O O10 0.847761 0.666075 0.270092
O O11 0.046123 0.133870 0.769146
O O12 0.717909 0.148419 0.972049
O O13 0.999790 0.080559 0.007633
O O14 0.569326 0.896895 0.124348
O O15 0.208612 0.211306 0.772937
O O16 0.558224 0.743279 0.989988
O O17 0.203970 0.682597 0.053559
#
# Coordination Sequence:
#
# PCOD9343912 Si02
#       8
#     4   4   4   4   4   4   4   4
#     4  12  27  44  70 105 146 180 220 292 365 412
#     4  11  21  41  70 102 128 185 236 282 334 427
#     4  10  21  36  72  99 130 164 258 276 329 398
#     4  10  21  36  74  99 130 168 256 280 327 396
#     4  11  21  41  70 102 128 185 236 282 334 427
#     4  11  21  41  68 100 130 186 235 287 335 431
#     4  12  27  44  66 103 144 184 228 298 375 412
#     4  11  21  41  68 100 130 186 235 287 335 431
#
# _framework density 22.330881999999999
#
# number of rings (size 3 to 8) (size 9 to 14) (size 15 to 20)
#    0.000    1.000    5.000    1.500    7.000    0.000 
#    0.000    1.250    5.500    0.000    0.000    0.000 
#    0.000    0.000    0.000    0.000    0.000    0.000 
#
# Total GULP energy -178761.407296 kJ/mol
# GULP energy per Si atom -5586.293978 kJ/mol
# Density = 2.228006 g / cm^3
# Si number density = 22.330882 Si / 1000 Ang^3
#
#
#
# Elastic Constant Matrix: (Units=GPa)
#
#
# Indices 1 2 3 4 5 6 
#
# 1 92.3399 12.1061 37.0923 0.0000 0.0000 0.0000
# 2 12.1061 29.7296 6.1664 0.0000 0.0000 0.0000
# 3 37.0923 6.1664 130.3811 0.0000 0.0000 0.0000
# 4 0.0000 0.0000 0.0000 31.1392 0.0000 0.0000
# 5 0.0000 0.0000 0.0000 0.0000 53.9258 0.0000
# 6 0.0000 0.0000 0.0000 0.0000 0.0000 40.8536
#
#
#
# Elastic Compliance Matrix: (Units=1/GPa)
#
#
# Indices 1 2 3 4 5 6 
#
# 1 0.012796 -0.004500 -0.003428 0.000000 0.000000 0.000000
# 2 -0.004500 0.035552 -0.000401 0.000000 0.000000 0.000000
# 3 -0.003428 -0.000401 0.008664 0.000000 0.000000 0.000000
# 4 0.000000 0.000000 0.000000 0.032114 0.000000 0.000000
# 5 0.000000 0.000000 0.000000 0.000000 0.018544 0.000000
# 6 0.000000 0.000000 0.000000 0.000000 0.000000 0.024478
#
#
# Mechanical properties :
#
#
# Convention : Reuss Voigt Hill
#
# Bulk Modulus (GPa) = 24.78013 40.35334 32.56673
# Shear Modulus (GPa) = 30.81533 38.32278 34.56905
#
# Velocity S-wave (km/s) = 3.71879 4.14712 3.93878
# Velocity P-wave (km/s) = 5.43692 6.40635 5.94144
#
# Compressibility (1/GPa) = 0.04035491
#
# Stress axis : x y z
#
# Youngs Moduli (GPa) = 78.14727 28.12777 115.42107
#
# Poissons Ratio (x) = 0.12657 0.39562
# Poissons Ratio (y) = 0.35165 0.04632
# Poissons Ratio (z) = 0.26786 0.01129
#
# Static dielectric constant tensor:
#      x y z
#    x 1.868760 0.000000 0.000000 
#    y 0.000000 1.810510 0.000000 
#    z 0.000000 0.000000 1.816370 
# 
# From -- ./inp_files/2072.got.cif
#   From: 2010.05.17/outbox.cif.g08.bks.cpg/sg32_2_cif.got.tgz:2072.got - 2010.06.03 17:12:27.
