data_PCOD9343931
_publ_section_title
;
Structure prediction by ZEFSAII (Michael W. Deem and Ramdas Pophale) SiO2 
 PCOD9343931
Probable space group: P B A 2
;
_chemical_formula_sum "Si O2"
_cell_formula_units_Z 32
_cell_length_a 8.357627
_cell_length_b 10.552972
_cell_length_c 15.157923
_cell_angle_alpha 90.000000
_cell_angle_beta 90.000000
_cell_angle_gamma 90.000000
_cell_volume 1336.895518
_symmetry_space_group_name_H-M "P B A 2"
_symmetry_group_IT_number 32
_symmetry_cell_setting 'orthorhombic'
loop_
_space_group_symop_operation_xyz
x,y,z
-x,-y,z
1/2-x,1/2+y,z
1/2+x,1/2-y,z
loop_
_atom_site_type_symbol
_atom_site_label
_atom_site_fract_x
_atom_site_fract_y
_atom_site_fract_z
Si Si1 0.813112 0.836672 0.088940
Si Si2 0.385221 0.887063 0.788756
Si Si3 0.893658 0.884943 0.560014
Si Si4 0.422579 0.155242 0.466465
Si Si5 0.814042 0.678687 0.344213
Si Si6 0.538028 0.630412 0.751044
Si Si7 0.670791 0.064596 0.991165
Si Si8 0.578301 0.704158 0.215099
O O1 0.814359 0.701705 0.037131
O O2 0.681054 0.814744 0.166825
O O3 0.980588 0.855267 0.136801
O O4 0.784700 0.955428 0.027038
O O5 0.488002 0.759520 0.797026
O O6 0.226893 0.866976 0.730312
O O7 0.500000 0.000000 0.757362
O O8 0.321604 0.918960 0.886218
O O9 0.708026 0.902557 0.534072
O O10 0.980052 0.761523 0.521154
O O11 0.927662 0.878623 0.664029
O O12 0.000000 0.000000 0.523005
O O13 0.298907 0.222472 0.397078
O O14 0.579442 0.101544 0.413422
O O15 0.695976 0.615869 0.272855
O O16 0.945969 0.744860 0.282911
O O17 0.500000 0.500000 0.801318
O O18 0.500000 0.000000 0.011167
#
# Coordination Sequence:
#
# PCOD9343931 Si02
#       8
#     4   4   4   4   4   4   4   4
#     4  11  22  42  68  92 139 179 239 299 360 431
#     4  11  26  45  68 100 143 180 248 309 370 446
#     4  10  21  38  63  99 134 177 234 278 349 424
#     4   9  17  35  65  90 139 176 219 290 329 413
#     4   8  16  33  63  94 133 178 223 280 345 411
#     4  11  24  43  70 101 144 193 238 300 373 445
#     4  11  26  44  66 103 133 184 241 308 368 439
#     4   9  18  35  66  91 131 181 228 290 349 430
#
# _framework density 23.936053000000001
#
# number of rings (size 3 to 8) (size 9 to 14) (size 15 to 20)
#    0.000    2.000    1.250    1.500    5.250    1.500 
#    0.000    2.500   77.000    0.000    0.000    0.000 
#    0.000    0.000    0.000    0.000    0.000    0.000 
#
# Total GULP energy -178553.570420 kJ/mol
# GULP energy per Si atom -5579.799076 kJ/mol
# Density = 2.388157 g / cm^3
# Si number density = 23.936053 Si / 1000 Ang^3
#
#
#
# Elastic Constant Matrix: (Units=GPa)
#
#
# Indices 1 2 3 4 5 6 
#
# 1 152.9027 33.6660 44.9648 0.0000 0.0000 0.0000
# 2 33.6660 106.4980 21.2250 0.0000 0.0000 0.0000
# 3 44.9648 21.2250 80.6909 0.0000 0.0000 0.0000
# 4 0.0000 0.0000 0.0000 -35.5061 0.0000 0.0000
# 5 0.0000 0.0000 0.0000 0.0000 45.8988 0.0000
# 6 0.0000 0.0000 0.0000 0.0000 0.0000 27.8714
#
#
#
# Elastic Compliance Matrix: (Units=1/GPa)
#
#
# Indices 1 2 3 4 5 6 
#
# 1 0.008122 -0.001758 -0.004064 0.000000 0.000000 0.000000
# 2 -0.001758 0.010290 -0.001727 0.000000 0.000000 0.000000
# 3 -0.004064 -0.001727 0.015112 0.000000 0.000000 0.000000
# 4 0.000000 0.000000 0.000000 -0.028164 0.000000 0.000000
# 5 0.000000 0.000000 0.000000 0.000000 0.021787 0.000000
# 6 0.000000 0.000000 0.000000 0.000000 0.000000 0.035879
#
#
# Mechanical properties :
#
#
# Convention : Reuss Voigt Hill
#
# Bulk Modulus (GPa) = 54.26948 59.97813 57.12381
# Shear Modulus (GPa) = 59.33676 23.66855 41.50265
#
# Velocity S-wave (km/s) = 4.98433 3.14797 4.16853
# Velocity P-wave (km/s) = 7.47306 6.19072 6.86191
#
# Compressibility (1/GPa) = 0.01842656
#
# Stress axis : x y z
#
# Youngs Moduli (GPa) = 123.12023 97.18458 66.17357
#
# Poissons Ratio (x) = 0.17082 0.26891
# Poissons Ratio (y) = 0.21640 0.11429
# Poissons Ratio (z) = 0.50032 0.16785
#
# Static dielectric constant tensor:
#      x y z
#    x 1.984990 0.000000 0.000000 
#    y 0.000000 2.046070 0.000000 
#    z 0.000000 0.000000 1.957160 
# 
# From -- ./inp_files/4139.got.cif
#   From: 2010.05.17/outbox.cif.g08.bks.cpg/sg32_3_cif.got.tgz:4139.got - 2010.06.03 17:12:27.
