data_PCOD9343459
_publ_section_title
;
Structure prediction by ZEFSAII (Michael W. Deem and Ramdas Pophale) SiO2 
 PCOD9343459
Probable space group: P M N 21
;
_chemical_formula_sum "Si O2"
_cell_formula_units_Z 24
_cell_length_a 8.082704
_cell_length_b 14.875832
_cell_length_c 8.517521
_cell_angle_alpha 90.000000
_cell_angle_beta 90.000000
_cell_angle_gamma 90.000000
_cell_volume 1024.120719
_symmetry_space_group_name_H-M "P M N 21"
_symmetry_group_IT_number 31
_symmetry_cell_setting 'orthorhombic'
loop_
_space_group_symop_operation_xyz
x,y,z
1/2-x,-y,1/2+z
-x,y,z
1/2+x,-y,1/2+z
loop_
_atom_site_type_symbol
_atom_site_label
_atom_site_fract_x
_atom_site_fract_y
_atom_site_fract_z
Si Si1 0.799526 0.200243 0.930970
Si Si2 0.306600 0.131871 0.420039
Si Si3 0.307918 0.704612 0.106515
Si Si4 0.696515 0.626289 0.597056
Si Si5 0.806023 0.967593 0.606167
Si Si6 0.807520 0.543996 0.920084
O O1 0.755209 0.245273 0.765256
O O2 0.000000 0.188145 0.934090
O O3 0.743303 0.273631 0.060533
O O4 0.719493 0.105150 0.968471
O O5 0.500000 0.153297 0.399361
O O6 0.213806 0.222082 0.468872
O O7 0.244137 0.082627 0.262754
O O8 0.284020 0.058468 0.557448
O O9 0.500000 0.680146 0.123757
O O10 0.211663 0.614869 0.061790
O O11 0.500000 0.630293 0.570414
O O12 0.725476 0.589085 0.769824
O O13 0.763142 0.551529 0.475666
O O14 0.000000 0.988461 0.628381
O O15 0.000000 0.532539 0.882053
#
# Coordination Sequence:
#
# PCOD9343459 Si02
#       6
#     4   4   4   4   4   4
#     4  10  22  40  61  86 117 155 198 242 290 349
#     4  11  24  41  61  88 120 154 197 244 291 350
#     4  11  23  40  62  88 120 157 197 242 294 350
#     4  10  22  40  61  86 119 158 197 242 296 348
#     4  11  24  40  60  88 119 153 194 242 296 350
#     4  11  23  39  61  90 121 155 199 246 293 349
#
# _framework density 23.434737999999999
#
# number of rings (size 3 to 8) (size 9 to 14) (size 15 to 20)
#    0.000    1.333    0.000    5.000    0.000   14.000 
#    0.000    0.000    0.000    0.000    0.000    0.000 
#    0.000    0.000    0.000    0.000    0.000    0.000 
#
# Total GULP energy -134366.104180 kJ/mol
# GULP energy per Si atom -5598.587674 kJ/mol
# Density = 2.338140 g / cm^3
# Si number density = 23.434738 Si / 1000 Ang^3
#
#
#
# Elastic Constant Matrix: (Units=GPa)
#
#
# Indices 1 2 3 4 5 6 
#
# 1 19.0759 -3.3533 -7.4392 0.0000 0.0000 0.0000
# 2 -3.3533 93.1014 -10.3311 0.0000 0.0000 0.0000
# 3 -7.4392 -10.3311 59.9672 0.0000 0.0000 0.0000
# 4 0.0000 0.0000 0.0000 39.1073 0.0000 0.0000
# 5 0.0000 0.0000 0.0000 0.0000 47.7186 0.0000
# 6 0.0000 0.0000 0.0000 0.0000 0.0000 27.8154
#
#
#
# Elastic Compliance Matrix: (Units=1/GPa)
#
#
# Indices 1 2 3 4 5 6 
#
# 1 0.055811 0.002833 0.007412 0.000000 0.000000 0.000000
# 2 0.002833 0.011094 0.002263 0.000000 0.000000 0.000000
# 3 0.007412 0.002263 0.017985 0.000000 0.000000 0.000000
# 4 0.000000 0.000000 0.000000 0.025571 0.000000 0.000000
# 5 0.000000 0.000000 0.000000 0.000000 0.020956 0.000000
# 6 0.000000 0.000000 0.000000 0.000000 0.000000 0.035951
#
#
# Mechanical properties :
#
#
# Convention : Reuss Voigt Hill
#
# Bulk Modulus (GPa) = 9.09890 14.43302 11.76596
# Shear Modulus (GPa) = 27.93474 35.81280 31.87377
#
# Velocity S-wave (km/s) = 3.45631 3.91345 3.69196
# Velocity P-wave (km/s) = 4.45188 5.15677 4.81724
#
# Compressibility (1/GPa) = 0.10990336
#
# Stress axis : x y z
#
# Youngs Moduli (GPa) = 17.91777 90.13818 55.60173
#
# Poissons Ratio (x) = -0.25533 -0.41210
# Poissons Ratio (y) = -0.05075 -0.12581
# Poissons Ratio (z) = -0.13280 -0.20395
#
# Static dielectric constant tensor:
#      x y z
#    x 1.801990 0.000000 0.000000 
#    y 0.000000 1.861330 0.000000 
#    z 0.000000 0.000000 1.927890 
# 
# From -- ./inp_files/1669.got.cif
#   From: 2010.05.17/outbox.cif.g08.bks.cpg/sg31_1_cif.got.tgz:1669.got - 2010.06.03 17:08:30.
