data_PCOD9343486
_publ_section_title
;
Structure prediction by ZEFSAII (Michael W. Deem and Ramdas Pophale) SiO2 
 PCOD9343486
Probable space group: P M N 21
;
_chemical_formula_sum "Si O2"
_cell_formula_units_Z 20
_cell_length_a 18.917399
_cell_length_b 5.489187
_cell_length_c 8.476337
_cell_angle_alpha 90.000000
_cell_angle_beta 90.000000
_cell_angle_gamma 90.000000
_cell_volume 880.192503
_symmetry_space_group_name_H-M "P M N 21"
_symmetry_group_IT_number 31
_symmetry_cell_setting 'orthorhombic'
loop_
_space_group_symop_operation_xyz
x,y,z
1/2-x,-y,1/2+z
-x,y,z
1/2+x,-y,1/2+z
loop_
_atom_site_type_symbol
_atom_site_label
_atom_site_fract_x
_atom_site_fract_y
_atom_site_fract_z
Si Si1 0.119557 0.831738 0.760240
Si Si2 0.267272 0.839760 0.360893
Si Si3 0.120023 0.105547 0.440731
Si Si4 0.000000 0.110915 0.176397
Si Si5 0.712424 0.527647 0.078754
Si Si6 0.500000 0.385920 0.469385
O O1 0.184484 0.674629 0.696715
O O2 0.066136 0.659098 0.851954
O O3 0.158497 0.023087 0.874303
O O4 0.092272 0.975383 0.602739
O O5 0.260896 0.751708 0.180618
O O6 0.268153 0.602782 0.470046
O O7 0.194938 0.979850 0.397712
O O8 0.066837 0.107549 0.295785
O O9 0.144128 0.379604 0.483099
O O10 0.000000 0.355911 0.064437
O O11 0.000000 0.855403 0.081073
#
# Coordination Sequence:
#
# PCOD9343486 Si02
#       6
#     4   4   4   2   4   2
#     4  10  24  47  71 102 143 193 242 296 371 441
#     4  10  22  42  70 106 136 182 238 300 360 426
#     4  10  24  47  71 102 143 193 242 296 371 441
#     4  12  31  49  72 110 146 195 246 310 358 431
#     4  10  22  41  72 103 138 188 232 302 358 435
#     4  12  31  49  72 110 146 195 246 310 358 431
#
# _framework density 22.722304999999999
#
# number of rings (size 3 to 8) (size 9 to 14) (size 15 to 20)
#    0.000    1.600    0.000    1.800   11.200    8.800 
#    3.600    0.000    0.000    0.000    0.000    0.000 
#    0.000    0.000    0.000    0.000    0.000    0.000 
#
# Total GULP energy -111684.988022 kJ/mol
# GULP energy per Si atom -5584.249401 kJ/mol
# Density = 2.267059 g / cm^3
# Si number density = 22.722305 Si / 1000 Ang^3
#
#
#
# Elastic Constant Matrix: (Units=GPa)
#
#
# Indices 1 2 3 4 5 6 
#
# 1 55.9057 4.6129 34.4843 0.0000 0.0000 0.0000
# 2 4.6129 76.6659 24.1994 0.0000 0.0000 0.0000
# 3 34.4843 24.1994 89.1569 0.0000 0.0000 0.0000
# 4 0.0000 0.0000 0.0000 46.7818 0.0000 0.0000
# 5 0.0000 0.0000 0.0000 0.0000 52.4126 0.0000
# 6 0.0000 0.0000 0.0000 0.0000 0.0000 21.2251
#
#
#
# Elastic Compliance Matrix: (Units=1/GPa)
#
#
# Indices 1 2 3 4 5 6 
#
# 1 0.023671 0.001603 -0.009590 0.000000 0.000000 0.000000
# 2 0.001603 0.014374 -0.004522 0.000000 0.000000 0.000000
# 3 -0.009590 -0.004522 0.016153 0.000000 0.000000 0.000000
# 4 0.000000 0.000000 0.000000 0.021376 0.000000 0.000000
# 5 0.000000 0.000000 0.000000 0.000000 0.019079 0.000000
# 6 0.000000 0.000000 0.000000 0.000000 0.000000 0.047114
#
#
# Mechanical properties :
#
#
# Convention : Reuss Voigt Hill
#
# Bulk Modulus (GPa) = 34.27030 38.70241 36.48636
# Shear Modulus (GPa) = 28.32670 34.64603 31.48637
#
# Velocity S-wave (km/s) = 3.53462 3.90905 3.72654
# Velocity P-wave (km/s) = 5.63676 6.11915 5.88290
#
# Compressibility (1/GPa) = 0.02917978
#
# Stress axis : x y z
#
# Youngs Moduli (GPa) = 42.24638 69.56824 61.90854
#
# Poissons Ratio (x) = -0.11152 0.59373
# Poissons Ratio (y) = -0.06772 0.27992
# Poissons Ratio (z) = 0.40516 0.31456
#
# Static dielectric constant tensor:
#      x y z
#    x 1.811000 0.000000 0.000000 
#    y 0.000000 1.903790 0.000000 
#    z 0.000000 0.000000 1.893420 
# 
# From -- ./inp_files/2709.got.cif
#   From: 2010.05.17/outbox.cif.g08.bks.cpg/sg31_2_cif.got.tgz:2709.got - 2010.06.03 17:08:30.
