data_PCOD9343734
_publ_section_title
;
Structure prediction by ZEFSAII (Michael W. Deem and Ramdas Pophale) SiO2 
 PCOD9343734
Probable space group: P B A 2
;
_chemical_formula_sum "Si O2"
_cell_formula_units_Z 32
_cell_length_a 14.618713
_cell_length_b 7.932309
_cell_length_c 12.214545
_cell_angle_alpha 90.000000
_cell_angle_beta 90.000000
_cell_angle_gamma 90.000000
_cell_volume 1416.400454
_symmetry_space_group_name_H-M "P B A 2"
_symmetry_group_IT_number 32
_symmetry_cell_setting 'orthorhombic'
loop_
_space_group_symop_operation_xyz
x,y,z
-x,-y,z
1/2-x,1/2+y,z
1/2+x,1/2-y,z
loop_
_atom_site_type_symbol
_atom_site_label
_atom_site_fract_x
_atom_site_fract_y
_atom_site_fract_z
Si Si1 0.608572 0.858667 0.870700
Si Si2 0.700270 0.224005 0.881653
Si Si3 0.390061 0.170035 0.338326
Si Si4 0.542813 0.313786 0.727355
Si Si5 0.950853 0.815306 0.477186
Si Si6 0.708965 0.465108 0.342866
Si Si7 0.144740 0.107628 0.108743
Si Si8 0.444657 0.243627 0.105926
O O1 0.692941 0.730265 0.855208
O O2 0.529725 0.811084 0.785332
O O3 0.658615 0.038015 0.870987
O O4 0.563801 0.843839 0.990091
O O5 0.635861 0.322337 0.796711
O O6 0.688540 0.305971 0.002555
O O7 0.481482 0.195892 0.408258
O O8 0.337330 0.351233 0.342188
O O9 0.314222 0.039259 0.378510
O O10 0.413777 0.140303 0.211428
O O11 0.500000 0.500000 0.728897
O O12 0.559395 0.260783 0.602437
O O13 0.854974 0.850150 0.418630
O O14 0.000000 0.000000 0.477679
O O15 0.703329 0.391319 0.219212
O O16 0.047902 0.198203 0.128405
O O17 0.116913 0.912430 0.092164
#
# Coordination Sequence:
#
# PCOD9343734 Si02
#       8
#     4   4   4   4   4   4   4   4
#     4  12  25  41  62  90 123 159 201 249 300 360
#     4  12  25  41  62  90 123 159 201 249 300 360
#     4  10  20  37  60  89 120 156 195 238 291 352
#     4  11  23  42  65  88 118 159 204 253 302 353
#     4   9  20  40  63  84 114 157 200 239 294 355
#     4  10  20  37  60  89 120 156 195 238 291 352
#     4  10  19  35  62  90 122 160 195 238 298 361
#     4  10  19  35  62  90 122 160 195 238 298 361
#
# _framework density 22.592478
#
# number of rings (size 3 to 8) (size 9 to 14) (size 15 to 20)
#    0.000    1.500    2.500    3.375    0.000    4.000 
#    0.000    5.625    0.000    0.000    0.000    0.000 
#    0.000    0.000    0.000    0.000    0.000    0.000 
#
# Total GULP energy -179094.691312 kJ/mol
# GULP energy per Si atom -5596.709103 kJ/mol
# Density = 2.254106 g / cm^3
# Si number density = 22.592478 Si / 1000 Ang^3
#
#
#
# Elastic Constant Matrix: (Units=GPa)
#
#
# Indices 1 2 3 4 5 6 
#
# 1 63.0292 4.2293 8.4381 0.0000 0.0000 0.0000
# 2 4.2293 68.8748 15.1345 0.0000 0.0000 0.0000
# 3 8.4381 15.1345 113.1051 0.0000 0.0000 0.0000
# 4 0.0000 0.0000 0.0000 -7.9060 0.0000 0.0000
# 5 0.0000 0.0000 0.0000 0.0000 -0.0929 0.0000
# 6 0.0000 0.0000 0.0000 0.0000 0.0000 39.9407
#
#
#
# Elastic Compliance Matrix: (Units=1/GPa)
#
#
# Indices 1 2 3 4 5 6 
#
# 1 0.016063 -0.000745 -0.001099 0.000000 0.000000 0.000000
# 2 -0.000745 0.014993 -0.001951 0.000000 0.000000 0.000000
# 3 -0.001099 -0.001951 0.009184 0.000000 0.000000 0.000000
# 4 0.000000 0.000000 0.000000 -0.126486 0.000000 0.000000
# 5 0.000000 0.000000 0.000000 0.000000-10.762231 0.000000
# 6 0.000000 0.000000 0.000000 0.000000 0.000000 0.025037
#
#
# Mechanical properties :
#
#
# Convention : Reuss Voigt Hill
#
# Bulk Modulus (GPa) = 30.62601 33.40143 32.01372
# Shear Modulus (GPa) = -0.46275 20.86884 10.20304
#
# Velocity S-wave (km/s) = -0.45307 3.04255 2.12742
# Velocity P-wave (km/s) = 3.64850 5.21145 4.49838
#
# Compressibility (1/GPa) = 0.03265198
#
# Stress axis : x y z
#
# Youngs Moduli (GPa) = 62.25591 66.69569 108.88120
#
# Poissons Ratio (x) = 0.04968 0.11963
# Poissons Ratio (y) = 0.04637 0.21239
# Poissons Ratio (z) = 0.06840 0.13010
#
# Static dielectric constant tensor:
#      x y z
#    x 1.818010 0.000000 0.000000 
#    y 0.000000 1.912930 0.000000 
#    z 0.000000 0.000000 1.793210 
# 
# From -- ./inp_files/3792.got.cif
#   From: 2010.05.17/outbox.cif.g08.bks.cpg/sg32_2_cif.got.tgz:3792.got - 2010.06.03 17:12:27.
