data_PCOD9343451
_publ_section_title
;
Structure prediction by ZEFSAII (Michael W. Deem and Ramdas Pophale) SiO2 
 PCOD9343451
Probable space group: P M N 21
;
_chemical_formula_sum "Si O2"
_cell_formula_units_Z 20
_cell_length_a 11.229169
_cell_length_b 11.513005
_cell_length_c 7.643099
_cell_angle_alpha 90.000000
_cell_angle_beta 90.000000
_cell_angle_gamma 90.000000
_cell_volume 988.111142
_symmetry_space_group_name_H-M "P M N 21"
_symmetry_group_IT_number 31
_symmetry_cell_setting 'orthorhombic'
loop_
_space_group_symop_operation_xyz
x,y,z
1/2-x,-y,1/2+z
-x,y,z
1/2+x,-y,1/2+z
loop_
_atom_site_type_symbol
_atom_site_label
_atom_site_fract_x
_atom_site_fract_y
_atom_site_fract_z
Si Si1 0.633119 0.463363 0.363160
Si Si2 0.862199 0.769089 0.072176
Si Si3 0.291096 0.869956 0.757325
Si Si4 0.864635 0.891118 0.411638
Si Si5 0.131126 0.382643 0.167652
O O1 0.500000 0.449464 0.280692
O O2 0.640383 0.365129 0.515515
O O3 0.749142 0.438881 0.248272
O O4 0.636638 0.585455 0.462871
O O5 0.790357 0.836375 0.923415
O O6 0.000000 0.806785 0.067112
O O7 0.819147 0.799276 0.266647
O O8 0.212584 0.894877 0.586033
O O9 0.362671 0.753366 0.711240
O O10 0.360465 0.984681 0.814401
O O11 0.000000 0.860950 0.459860
O O12 0.000000 0.426098 0.229722
#
# Coordination Sequence:
#
# PCOD9343451 Si02
#       5
#     4   4   4   4   4
#     4   9  20  38  60  85 118 157 198 243 299 361
#     4   9  19  37  57  81 114 152 202 250 287 354
#     4  11  21  38  59  85 120 156 198 248 302 355
#     4  11  22  36  59  85 114 158 203 246 304 359
#     4  10  22  39  61  90 123 155 196 251 303 351
#
# _framework density 20.240639000000002
#
# number of rings (size 3 to 8) (size 9 to 14) (size 15 to 20)
#    0.000    2.000    2.000    1.200    2.800    1.600 
#    0.000    0.000    0.000    0.000    0.000    0.000 
#    0.000    0.000    0.000    0.000    0.000    0.000 
#
# Total GULP energy -111493.129198 kJ/mol
# GULP energy per Si atom -5574.656460 kJ/mol
# Density = 2.019457 g / cm^3
# Si number density = 20.240639 Si / 1000 Ang^3
#
#
#
# Elastic Constant Matrix: (Units=GPa)
#
#
# Indices 1 2 3 4 5 6 
#
# 1 136.1622 26.7613 48.2906 0.0000 0.0000 0.0000
# 2 26.7613 26.6582 4.7202 0.0000 0.0000 0.0000
# 3 48.2906 4.7202 67.8647 0.0000 0.0000 0.0000
# 4 0.0000 0.0000 0.0000 35.4609 0.0000 0.0000
# 5 0.0000 0.0000 0.0000 0.0000 1.4498 0.0000
# 6 0.0000 0.0000 0.0000 0.0000 0.0000 15.4001
#
#
#
# Elastic Compliance Matrix: (Units=1/GPa)
#
#
# Indices 1 2 3 4 5 6 
#
# 1 0.012346 -0.010973 -0.008022 0.000000 0.000000 0.000000
# 2 -0.010973 0.047733 0.004488 0.000000 0.000000 0.000000
# 3 -0.008022 0.004488 0.020131 0.000000 0.000000 0.000000
# 4 0.000000 0.000000 0.000000 0.028200 0.000000 0.000000
# 5 0.000000 0.000000 0.000000 0.000000 0.689770 0.000000
# 6 0.000000 0.000000 0.000000 0.000000 0.000000 0.064935
#
#
# Mechanical properties :
#
#
# Convention : Reuss Voigt Hill
#
# Bulk Modulus (GPa) = 19.53261 43.35880 31.44571
# Shear Modulus (GPa) = 5.49938 20.52301 13.01120
#
# Velocity S-wave (km/s) = 1.65012 3.18771 2.53815
# Velocity P-wave (km/s) = 3.64715 5.91750 4.91521
#
# Compressibility (1/GPa) = 0.05119643
#
# Stress axis : x y z
#
# Youngs Moduli (GPa) = 80.99938 20.94992 49.67457
#
# Poissons Ratio (x) = 0.22989 0.39847
# Poissons Ratio (y) = 0.88882 -0.22295
# Poissons Ratio (z) = 0.64975 -0.09403
#
# Static dielectric constant tensor:
#      x y z
#    x 1.740540 0.000000 0.000000 
#    y 0.000000 1.745970 0.000000 
#    z 0.000000 0.000000 1.691930 
# 
# From -- ./inp_files/2060.got.cif
#   From: 2010.05.17/outbox.cif.g08.bks.cpg/sg31_2_cif.got.tgz:2060.got - 2010.06.03 17:08:30.
