data_PCOD9343834
_publ_section_title
;
Structure prediction by ZEFSAII (Michael W. Deem and Ramdas Pophale) SiO2 
 PCOD9343834
Probable space group: P B A 2
;
_chemical_formula_sum "Si O2"
_cell_formula_units_Z 24
_cell_length_a 16.421050
_cell_length_b 8.994838
_cell_length_c 8.028213
_cell_angle_alpha 90.000000
_cell_angle_beta 90.000000
_cell_angle_gamma 90.000000
_cell_volume 1185.804669
_symmetry_space_group_name_H-M "P B A 2"
_symmetry_group_IT_number 32
_symmetry_cell_setting 'orthorhombic'
loop_
_space_group_symop_operation_xyz
x,y,z
-x,-y,z
1/2-x,1/2+y,z
1/2+x,1/2-y,z
loop_
_atom_site_type_symbol
_atom_site_label
_atom_site_fract_x
_atom_site_fract_y
_atom_site_fract_z
Si Si1 0.082262 0.778916 0.014140
Si Si2 0.219542 0.729414 0.749056
Si Si3 0.665795 0.499036 0.572016
Si Si4 0.000000 0.000000 0.770308
Si Si5 0.668725 0.139444 0.017692
Si Si6 0.000000 0.500000 0.069721
Si Si7 0.312874 0.536692 0.183889
O O1 0.126070 0.912112 0.111336
O O2 0.043596 0.652767 0.133318
O O3 0.149127 0.708328 0.887220
O O4 0.019020 0.860978 0.891008
O O5 0.267133 0.590944 0.676627
O O6 0.182508 0.826761 0.600494
O O7 0.285819 0.827820 0.846435
O O8 0.578359 0.469222 0.655787
O O9 0.674957 0.457106 0.380825
O O10 0.669799 0.300834 0.108249
O O11 0.724371 0.026053 0.126929
O O12 0.578830 0.076990 0.988297
#
# Coordination Sequence:
#
# PCOD9343834 Si02
#       7
#     4   4   4   2   4   2   4
#     4  10  21  38  60  88 120 160 205 249 300 368
#     4  10  20  38  61  84 118 162 203 242 299 372
#     4  11  22  38  61  89 119 156 200 254 308 355
#     4  10  22  38  60  86 118 158 204 252 308 356
#     4  11  22  39  63  89 120 162 207 251 301 371
#     4  12  22  34  62  92 114 148 208 260 294 342
#     4  11  23  41  62  88 125 164 203 251 309 368
#
# _framework density 20.239422000000001
#
# number of rings (size 3 to 8) (size 9 to 14) (size 15 to 20)
#    0.000    1.333    0.000    9.000    0.000    2.000 
#    0.000    1.667    0.000    6.000    0.000    0.000 
#    0.000    0.000    0.000    0.000    0.000    0.000 
#
# Total GULP energy -133791.542782 kJ/mol
# GULP energy per Si atom -5574.647616 kJ/mol
# Density = 2.019336 g / cm^3
# Si number density = 20.239422 Si / 1000 Ang^3
#
#
#
# Elastic Constant Matrix: (Units=GPa)
#
#
# Indices 1 2 3 4 5 6 
#
# 1 87.2249 69.0039 16.9912 0.0000 0.0000 0.0000
# 2 69.0039 124.5478 44.2074 0.0000 0.0000 0.0000
# 3 16.9912 44.2074 93.3000 0.0000 0.0000 0.0000
# 4 0.0000 0.0000 0.0000 7.0889 0.0000 0.0000
# 5 0.0000 0.0000 0.0000 0.0000 7.8699 0.0000
# 6 0.0000 0.0000 0.0000 0.0000 0.0000 43.0809
#
#
#
# Elastic Compliance Matrix: (Units=1/GPa)
#
#
# Indices 1 2 3 4 5 6 
#
# 1 0.020717 -0.012189 0.002002 0.000000 0.000000 0.000000
# 2 -0.012189 0.016824 -0.005752 0.000000 0.000000 0.000000
# 3 0.002002 -0.005752 0.013079 0.000000 0.000000 0.000000
# 4 0.000000 0.000000 0.000000 0.141065 0.000000 0.000000
# 5 0.000000 0.000000 0.000000 0.000000 0.127067 0.000000
# 6 0.000000 0.000000 0.000000 0.000000 0.000000 0.023212
#
#
# Mechanical properties :
#
#
# Convention : Reuss Voigt Hill
#
# Bulk Modulus (GPa) = 53.35201 62.83086 58.09143
# Shear Modulus (GPa) = 13.15489 23.26596 18.21042
#
# Velocity S-wave (km/s) = 2.55220 3.39416 3.00284
# Velocity P-wave (km/s) = 5.92475 6.81701 6.38648
#
# Compressibility (1/GPa) = 0.01874344
#
# Stress axis : x y z
#
# Youngs Moduli (GPa) = 48.26929 59.44052 76.46037
#
# Poissons Ratio (x) = 0.72451 -0.15310
# Poissons Ratio (y) = 0.58834 0.43977
# Poissons Ratio (z) = -0.09665 0.34188
#
# Static dielectric constant tensor:
#      x y z
#    x 1.757270 0.000000 0.000000 
#    y 0.000000 1.793800 0.000000 
#    z 0.000000 0.000000 1.670990 
# 
# From -- ./inp_files/2342.got.cif
#   From: 2010.05.17/outbox.cif.g08.bks.cpg/sg32_2_cif.got.tgz:2342.got - 2010.06.03 17:12:27.
