data_PCOD9343589
_publ_section_title
;
Structure prediction by ZEFSAII (Michael W. Deem and Ramdas Pophale) SiO2 
 PCOD9343589
Probable space group: P M N 21
;
_chemical_formula_sum "Si O2"
_cell_formula_units_Z 28
_cell_length_a 23.006217
_cell_length_b 4.970662
_cell_length_c 12.068817
_cell_angle_alpha 90.000000
_cell_angle_beta 90.000000
_cell_angle_gamma 90.000000
_cell_volume 1380.143189
_symmetry_space_group_name_H-M "P M N 21"
_symmetry_group_IT_number 31
_symmetry_cell_setting 'orthorhombic'
loop_
_space_group_symop_operation_xyz
x,y,z
1/2-x,-y,1/2+z
-x,y,z
1/2+x,-y,1/2+z
loop_
_atom_site_type_symbol
_atom_site_label
_atom_site_fract_x
_atom_site_fract_y
_atom_site_fract_z
Si Si1 0.333564 0.981082 0.692200
Si Si2 0.615253 0.089997 0.459504
Si Si3 0.500000 0.179647 0.599102
Si Si4 0.159706 0.387574 0.843878
Si Si5 0.622858 0.478179 0.815673
Si Si6 0.716457 0.824737 0.136278
Si Si7 0.222175 0.662289 0.484228
Si Si8 0.000000 0.330035 0.262725
O O1 0.341993 0.041349 0.563371
O O2 0.374375 0.183395 0.760942
O O3 0.266619 0.046822 0.713353
O O4 0.349091 0.681756 0.726558
O O5 0.555689 0.160327 0.520124
O O6 0.640643 0.311069 0.375143
O O7 0.612383 0.806509 0.398692
O O8 0.500000 0.461622 0.661040
O O9 0.500000 0.954170 0.697496
O O10 0.167061 0.290505 0.717576
O O11 0.221927 0.332287 0.903862
O O12 0.665954 0.453968 0.919577
O O13 0.558321 0.596642 0.831085
O O14 0.738656 0.556437 0.076508
O O15 0.705651 0.055947 0.043991
#
# Coordination Sequence:
#
# PCOD9343589 Si02
#       8
#     4   4   2   4   4   4   4   2
#     4  12  21  37  63  93 125 162 202 254 309 397
#     4  12  23  40  60  95 127 163 202 256 323 382
#     4  12  24  38  66  91 128 161 206 260 326 372
#     4  12  24  39  63  90 128 167 206 257 317 376
#     4  12  24  38  62  93 130 163 204 254 323 381
#     4  12  25  39  61  91 130 164 209 253 313 386
#     4  12  24  39  61  92 126 170 205 256 318 376
#     4  12  22  40  62  95 124 165 202 264 320 376
#
# _framework density 20.287749000000002
#
# number of rings (size 3 to 8) (size 9 to 14) (size 15 to 20)
#    0.000    0.000    7.143    4.286    2.000    0.000 
#    0.000    0.000    0.000    5.143    0.000    0.000 
#    0.000    0.000    0.000    0.000    0.000    0.000 
#
# Total GULP energy -156390.363037 kJ/mol
# GULP energy per Si atom -5585.370108 kJ/mol
# Density = 2.024157 g / cm^3
# Si number density = 20.287749 Si / 1000 Ang^3
#
#
#
# Elastic Constant Matrix: (Units=GPa)
#
#
# Indices 1 2 3 4 5 6 
#
# 1 82.2064 1.9034 16.3823 0.0000 0.0000 0.0000
# 2 1.9034 92.6916 15.3024 0.0000 0.0000 0.0000
# 3 16.3823 15.3024 24.2297 0.0000 0.0000 0.0000
# 4 0.0000 0.0000 0.0000 31.5020 0.0000 0.0000
# 5 0.0000 0.0000 0.0000 0.0000 27.3906 0.0000
# 6 0.0000 0.0000 0.0000 0.0000 0.0000 18.9282
#
#
#
# Elastic Compliance Matrix: (Units=1/GPa)
#
#
# Indices 1 2 3 4 5 6 
#
# 1 0.014231 0.001447 -0.010536 0.000000 0.000000 0.000000
# 2 0.001447 0.012191 -0.008678 0.000000 0.000000 0.000000
# 3 -0.010536 -0.008678 0.053876 0.000000 0.000000 0.000000
# 4 0.000000 0.000000 0.000000 0.031744 0.000000 0.000000
# 5 0.000000 0.000000 0.000000 0.000000 0.036509 0.000000
# 6 0.000000 0.000000 0.000000 0.000000 0.000000 0.052831
#
#
# Mechanical properties :
#
#
# Convention : Reuss Voigt Hill
#
# Bulk Modulus (GPa) = 22.33900 29.58932 25.96416
# Shear Modulus (GPa) = 19.85417 26.60013 23.22715
#
# Velocity S-wave (km/s) = 3.13170 3.62490 3.38729
# Velocity P-wave (km/s) = 4.91037 5.66889 5.30321
#
# Compressibility (1/GPa) = 0.04476476
#
# Stress axis : x y z
#
# Youngs Moduli (GPa) = 70.27133 82.02509 18.56124
#
# Poissons Ratio (x) = -0.11870 0.19555
# Poissons Ratio (y) = -0.10169 0.16107
# Poissons Ratio (z) = 0.74035 0.71181
#
# Static dielectric constant tensor:
#      x y z
#    x 1.766530 0.000000 0.000000 
#    y 0.000000 1.718010 0.000000 
#    z 0.000000 0.000000 1.760770 
# 
# From -- ./inp_files/4551.got.cif
#   From: 2010.05.17/outbox.cif.g08.bks.cpg/sg31_3_cif.got.tgz:4551.got - 2010.06.03 17:08:30.
