data_PCOD9344086
_publ_section_title
;
Structure prediction by ZEFSAII (Michael W. Deem and Ramdas Pophale) SiO2 
 PCOD9344086
Probable space group: P B A 2
;
_chemical_formula_sum "Si O2"
_cell_formula_units_Z 24
_cell_length_a 20.490061
_cell_length_b 8.604087
_cell_length_c 5.994622
_cell_angle_alpha 90.000000
_cell_angle_beta 90.000000
_cell_angle_gamma 90.000000
_cell_volume 1056.841473
_symmetry_space_group_name_H-M "P B A 2"
_symmetry_group_IT_number 32
_symmetry_cell_setting 'orthorhombic'
loop_
_space_group_symop_operation_xyz
x,y,z
-x,-y,z
1/2-x,1/2+y,z
1/2+x,1/2-y,z
loop_
_atom_site_type_symbol
_atom_site_label
_atom_site_fract_x
_atom_site_fract_y
_atom_site_fract_z
Si Si1 0.945890 0.585494 0.319380
Si Si2 0.525756 0.671557 0.539696
Si Si3 0.168618 0.404109 0.630379
Si Si4 0.912387 0.357925 0.924058
Si Si5 0.338517 0.334704 0.268783
Si Si6 0.724318 0.384269 0.471895
O O1 0.871876 0.585059 0.400655
O O2 0.000000 0.500000 0.475749
O O3 0.974004 0.757832 0.358207
O O4 0.942771 0.457747 0.124005
O O5 0.500000 0.500000 0.588970
O O6 0.536127 0.765366 0.771511
O O7 0.597920 0.677691 0.429351
O O8 0.125569 0.505987 0.794268
O O9 0.236826 0.490562 0.616439
O O10 0.181737 0.221288 0.639153
O O11 0.863131 0.231918 0.032683
O O12 0.314754 0.512715 0.291898
O O13 0.278968 0.225081 0.354492
#
# Coordination Sequence:
#
# PCOD9344086 Si02
#       6
#     4   4   4   4   4   4
#     4  12  23  45  73  99 138 182 229 285 351 413
#     4  12  27  48  70 103 145 180 230 295 349 414
#     4  11  23  44  70 101 138 188 229 285 352 411
#     4  12  24  44  73 106 133 184 242 277 352 420
#     4  11  23  46  68 103 140 185 227 289 349 410
#     4  10  22  46  69  96 148 184 225 290 348 410
#
# _framework density 22.709178000000001
#
# number of rings (size 3 to 8) (size 9 to 14) (size 15 to 20)
#    0.000    0.667    6.667    1.000    2.333    2.000 
#    3.000    0.000    0.000    0.000    0.000    0.000 
#    0.000    0.000    0.000    0.000    0.000    0.000 
#
# Total GULP energy -133625.086170 kJ/mol
# GULP energy per Si atom -5567.711924 kJ/mol
# Density = 2.265749 g / cm^3
# Si number density = 22.709178 Si / 1000 Ang^3
#
#
#
# Elastic Constant Matrix: (Units=GPa)
#
#
# Indices 1 2 3 4 5 6 
#
# 1 62.8047 61.0948 24.4341 0.0000 0.0000 0.0000
# 2 61.0948 185.5700 72.6573 0.0000 0.0000 0.0000
# 3 24.4341 72.6573 68.3267 0.0000 0.0000 0.0000
# 4 0.0000 0.0000 0.0000 23.8239 0.0000 0.0000
# 5 0.0000 0.0000 0.0000 0.0000 20.6128 0.0000
# 6 0.0000 0.0000 0.0000 0.0000 0.0000 39.4897
#
#
#
# Elastic Compliance Matrix: (Units=1/GPa)
#
#
# Indices 1 2 3 4 5 6 
#
# 1 0.023428 -0.007595 -0.000302 0.000000 0.000000 0.000000
# 2 -0.007595 0.011695 -0.009720 0.000000 0.000000 0.000000
# 3 -0.000302 -0.009720 0.025080 0.000000 0.000000 0.000000
# 4 0.000000 0.000000 0.000000 0.041975 0.000000 0.000000
# 5 0.000000 0.000000 0.000000 0.000000 0.048513 0.000000
# 6 0.000000 0.000000 0.000000 0.000000 0.000000 0.025323
#
#
# Mechanical properties :
#
#
# Convention : Reuss Voigt Hill
#
# Bulk Modulus (GPa) = 40.04957 70.34151 55.19554
# Shear Modulus (GPa) = 22.77164 27.35296 25.06230
#
# Velocity S-wave (km/s) = 3.17006 3.47434 3.32568
# Velocity P-wave (km/s) = 5.57433 6.86563 6.25340
#
# Compressibility (1/GPa) = 0.02496906
#
# Stress axis : x y z
#
# Youngs Moduli (GPa) = 42.68396 85.50509 39.87254
#
# Poissons Ratio (x) = 0.64942 0.01202
# Poissons Ratio (y) = 0.32419 0.38758
# Poissons Ratio (z) = 0.01287 0.83115
#
# Static dielectric constant tensor:
#      x y z
#    x 1.996060 0.000000 0.000000 
#    y 0.000000 1.959650 0.000000 
#    z 0.000000 0.000000 1.981440 
# 
# From -- ./inp_files/1645.got.cif
#   From: 2010.05.17/outbox.cif.g08.bks.cpg/sg32_1_cif.got.tgz:1645.got - 2010.06.03 17:12:27.
