data_PCOD9344541
_publ_section_title
;
Structure prediction by ZEFSAII (Michael W. Deem and Ramdas Pophale) SiO2 
 PCOD9344541
Probable space group: P N A 21
;
_chemical_formula_sum "Si O2"
_cell_formula_units_Z 28
_cell_length_a 5.156807
_cell_length_b 17.689598
_cell_length_c 14.509240
_cell_angle_alpha 90.000000
_cell_angle_beta 90.000000
_cell_angle_gamma 90.000000
_cell_volume 1323.559610
_symmetry_space_group_name_H-M "P N A 21"
_symmetry_group_IT_number 33
_symmetry_cell_setting 'orthorhombic'
loop_
_space_group_symop_operation_xyz
x,y,z
-x,-y,1/2+z
1/2-x,1/2+y,1/2+z
1/2+x,1/2-y,z
loop_
_atom_site_type_symbol
_atom_site_label
_atom_site_fract_x
_atom_site_fract_y
_atom_site_fract_z
Si Si1 0.313600 0.592528 0.924320
Si Si2 0.748785 0.457883 0.716307
Si Si3 0.250778 0.542663 0.631061
Si Si4 0.706690 0.304043 0.605946
Si Si5 0.073100 0.720153 0.831634
Si Si6 0.311459 0.999189 0.922627
Si Si7 0.095434 0.717332 0.622444
O O1 0.193275 0.637932 0.838775
O O2 0.606548 0.568857 0.908711
O O3 0.110827 0.524493 0.936178
O O4 0.290288 0.648758 0.010475
O O5 0.505869 0.510463 0.683209
O O6 0.709556 0.372690 0.679495
O O7 0.781455 0.456417 0.826940
O O8 0.006540 0.495409 0.671400
O O9 0.279579 0.529739 0.521315
O O10 0.187202 0.631726 0.633649
O O11 0.455446 0.250550 0.612432
O O12 0.292696 0.772728 0.876001
O O13 0.034590 0.745398 0.726782
O O14 0.316710 0.768722 0.576930
#
# Coordination Sequence:
#
# PCOD9344541 Si02
#       7
#     4   4   4   4   4   4   4
#     4  12  22  40  61  97 127 169 221 283 338 404
#     4  12  25  44  69 100 134 185 230 285 345 412
#     4  12  23  45  66  96 133 172 229 287 338 408
#     4  12  24  42  66  97 142 185 228 289 351 411
#     4  10  19  32  51  83 120 154 193 244 322 396
#     4  12  24  41  67  95 127 172 234 274 339 405
#     4  10  21  36  58  88 123 165 205 262 335 394
#
# _framework density 21.155075
#
# number of rings (size 3 to 8) (size 9 to 14) (size 15 to 20)
#    0.000    0.571    2.857    6.857    0.000    2.286 
#    0.000    1.429    0.000    0.000    0.000    0.000 
#    0.000    0.000    0.000    0.000    0.000    0.000 
#
# Total GULP energy -156264.401656 kJ/mol
# GULP energy per Si atom -5580.871488 kJ/mol
# Density = 2.110693 g / cm^3
# Si number density = 21.155075 Si / 1000 Ang^3
#
#
#
# Elastic Constant Matrix: (Units=GPa)
#
#
# Indices 1 2 3 4 5 6 
#
# 1 97.6196 21.1301 18.1383 0.0000 0.0000 0.0000
# 2 21.1301 79.3303 13.2141 0.0000 0.0000 0.0000
# 3 18.1383 13.2141 91.7696 0.0000 0.0000 0.0000
# 4 0.0000 0.0000 0.0000 36.6741 0.0000 0.0000
# 5 0.0000 0.0000 0.0000 0.0000 16.9631 0.0000
# 6 0.0000 0.0000 0.0000 0.0000 0.0000 34.4652
#
#
#
# Elastic Compliance Matrix: (Units=1/GPa)
#
#
# Indices 1 2 3 4 5 6 
#
# 1 0.011160 -0.002669 -0.001821 0.000000 0.000000 0.000000
# 2 -0.002669 0.013554 -0.001424 0.000000 0.000000 0.000000
# 3 -0.001821 -0.001424 0.011462 0.000000 0.000000 0.000000
# 4 0.000000 0.000000 0.000000 0.027267 0.000000 0.000000
# 5 0.000000 0.000000 0.000000 0.000000 0.058951 0.000000
# 6 0.000000 0.000000 0.000000 0.000000 0.000000 0.029015
#
#
# Mechanical properties :
#
#
# Convention : Reuss Voigt Hill
#
# Bulk Modulus (GPa) = 41.07399 41.52050 41.29724
# Shear Modulus (GPa) = 29.17939 32.03627 30.60783
#
# Velocity S-wave (km/s) = 3.71793 3.89569 3.80785
# Velocity P-wave (km/s) = 6.15537 6.31701 6.23671
#
# Compressibility (1/GPa) = 0.02434631
#
# Stress axis : x y z
#
# Youngs Moduli (GPa) = 89.60552 73.78074 87.24540
#
# Poissons Ratio (x) = 0.19693 0.15891
# Poissons Ratio (y) = 0.23917 0.12424
# Poissons Ratio (z) = 0.16321 0.10507
#
# Static dielectric constant tensor:
#      x y z
#    x 1.849930 0.000000 0.000000 
#    y 0.000000 1.790170 0.000000 
#    z 0.000000 0.000000 1.809500 
# 
# From -- ./inp_files/7402.got.cif
#   From: 2010.05.17/outbox.cif.g08.bks.cpg/sg33_4_cif.got.tgz:7402.got - 2010.06.03 17:15:25.
