data_PCOD9344688
_publ_section_title
;
Structure prediction by ZEFSAII (Michael W. Deem and Ramdas Pophale) SiO2 
 PCOD9344688
Probable space group: P N A 21
;
_chemical_formula_sum "Si O2"
_cell_formula_units_Z 32
_cell_length_a 5.269778
_cell_length_b 16.346411
_cell_length_c 17.541469
_cell_angle_alpha 90.000000
_cell_angle_beta 90.000000
_cell_angle_gamma 90.000000
_cell_volume 1511.056469
_symmetry_space_group_name_H-M "P N A 21"
_symmetry_group_IT_number 33
_symmetry_cell_setting 'orthorhombic'
loop_
_space_group_symop_operation_xyz
x,y,z
-x,-y,1/2+z
1/2-x,1/2+y,1/2+z
1/2+x,1/2-y,z
loop_
_atom_site_type_symbol
_atom_site_label
_atom_site_fract_x
_atom_site_fract_y
_atom_site_fract_z
Si Si1 0.396269 0.466291 0.168390
Si Si2 0.425463 0.989218 0.432436
Si Si3 0.600649 0.044292 0.598103
Si Si4 0.281762 0.786149 0.633242
Si Si5 0.065564 0.660574 0.204985
Si Si6 0.066989 0.844310 0.266135
Si Si7 0.626009 0.206335 0.952515
Si Si8 0.072019 0.006794 0.843887
O O1 0.625870 0.505895 0.118507
O O2 0.358219 0.371827 0.145503
O O3 0.460049 0.473324 0.258242
O O4 0.114993 0.501137 0.149865
O O5 0.511593 0.026774 0.512928
O O6 0.406853 0.890498 0.442791
O O7 0.651274 0.011378 0.375106
O O8 0.154025 0.018104 0.400461
O O9 0.566786 0.139694 0.624474
O O10 0.569500 0.777615 0.663968
O O11 0.336158 0.777088 0.542631
O O12 0.102181 0.749661 0.243650
O O13 0.852027 0.620584 0.259343
O O14 0.354988 0.631430 0.203399
O O15 0.949240 0.893812 0.335962
O O16 0.881403 0.246854 0.919175
#
# Coordination Sequence:
#
# PCOD9344688 Si02
#       8
#     4   4   4   4   4   4   4   4
#     4  12  23  40  66  92 118 163 218 273 301 374
#     4  12  26  40  57  91 133 174 202 252 337 379
#     4  12  22  40  65  91 123 168 223 266 300 376
#     4  10  21  37  64  91 114 150 204 266 313 360
#     4  10  19  37  61  90 114 163 212 264 293 357
#     4  10  20  37  59  87 127 150 210 260 309 376
#     4  10  21  39  55  84 125 160 204 244 295 386
#     4  12  24  42  59  94 132 166 209 259 326 394
#
# _framework density 21.177236000000001
#
# number of rings (size 3 to 8) (size 9 to 14) (size 15 to 20)
#    0.000    1.000    3.750    3.750    3.500    0.000 
#   13.500    0.000    0.000    0.000   19.500    0.000 
#    0.000    0.000    0.000    0.000    0.000    0.000 
#
# Total GULP energy -178140.352641 kJ/mol
# GULP energy per Si atom -5566.886020 kJ/mol
# Density = 2.112904 g / cm^3
# Si number density = 21.177236 Si / 1000 Ang^3
#
#
#
# Elastic Constant Matrix: (Units=GPa)
#
#
# Indices 1 2 3 4 5 6 
#
# 1 163.4252 13.1832 21.3841 0.0000 0.0000 0.0000
# 2 13.1832 32.9627 13.2829 0.0000 0.0000 0.0000
# 3 21.3841 13.2829 68.4871 0.0000 0.0000 0.0000
# 4 0.0000 0.0000 0.0000 30.9127 0.0000 0.0000
# 5 0.0000 0.0000 0.0000 0.0000 33.4315 0.0000
# 6 0.0000 0.0000 0.0000 0.0000 0.0000 20.1679
#
#
#
# Elastic Compliance Matrix: (Units=1/GPa)
#
#
# Indices 1 2 3 4 5 6 
#
# 1 0.006491 -0.001930 -0.001652 0.000000 0.000000 0.000000
# 2 -0.001930 0.033483 -0.005891 0.000000 0.000000 0.000000
# 3 -0.001652 -0.005891 0.016260 0.000000 0.000000 0.000000
# 4 0.000000 0.000000 0.000000 0.032349 0.000000 0.000000
# 5 0.000000 0.000000 0.000000 0.000000 0.029912 0.000000
# 6 0.000000 0.000000 0.000000 0.000000 0.000000 0.049584
#
#
# Mechanical properties :
#
#
# Convention : Reuss Voigt Hill
#
# Bulk Modulus (GPa) = 26.81947 40.06394 33.44171
# Shear Modulus (GPa) = 25.06829 31.37075 28.21952
#
# Velocity S-wave (km/s) = 3.44428 3.85300 3.65436
# Velocity P-wave (km/s) = 5.33940 6.22524 5.79926
#
# Compressibility (1/GPa) = 0.03728635
#
# Stress axis : x y z
#
# Youngs Moduli (GPa) = 154.06145 29.86567 61.50131
#
# Poissons Ratio (x) = 0.05765 0.10162
# Poissons Ratio (y) = 0.29736 0.36232
# Poissons Ratio (z) = 0.25456 0.17595
#
# Static dielectric constant tensor:
#      x y z
#    x 1.852660 0.000000 0.000000 
#    y 0.000000 2.222450 0.000000 
#    z 0.000000 0.000000 1.804230 
# 
# From -- ./inp_files/7455.got.cif
#   From: 2010.05.17/outbox.cif.g08.bks.cpg/sg33_4_cif.got.tgz:7455.got - 2010.06.03 17:15:25.
