data_PCOD9344424
_publ_section_title
;
Structure prediction by ZEFSAII (Michael W. Deem and Ramdas Pophale) SiO2 
 PCOD9344424
Probable space group: P N A 21
;
_chemical_formula_sum "Si O2"
_cell_formula_units_Z 32
_cell_length_a 7.893905
_cell_length_b 20.721175
_cell_length_c 7.244060
_cell_angle_alpha 90.000000
_cell_angle_beta 90.000000
_cell_angle_gamma 90.000000
_cell_volume 1184.918044
_symmetry_space_group_name_H-M "P N A 21"
_symmetry_group_IT_number 33
_symmetry_cell_setting 'orthorhombic'
loop_
_space_group_symop_operation_xyz
x,y,z
-x,-y,1/2+z
1/2-x,1/2+y,1/2+z
1/2+x,1/2-y,z
loop_
_atom_site_type_symbol
_atom_site_label
_atom_site_fract_x
_atom_site_fract_y
_atom_site_fract_z
Si Si1 0.850467 0.782529 0.229990
Si Si2 0.480435 0.845399 0.208531
Si Si3 0.017010 0.217224 0.312837
Si Si4 0.667483 0.028449 0.741707
Si Si5 0.875214 0.916333 0.771503
Si Si6 0.775711 0.027371 0.335536
Si Si7 0.352309 0.845493 0.787293
Si Si8 0.974813 0.913686 0.355158
O O1 0.664837 0.813239 0.213797
O O2 0.859721 0.709245 0.301194
O O3 0.951137 0.837799 0.336514
O O4 0.939861 0.776967 0.029940
O O5 0.470586 0.917577 0.290562
O O6 0.411505 0.853778 0.999764
O O7 0.147613 0.160047 0.263999
O O8 0.032646 0.286647 0.216720
O O9 0.831913 0.188270 0.285095
O O10 0.668545 0.017168 0.521069
O O11 0.841698 0.065401 0.791262
O O12 0.709326 0.957338 0.821258
O O13 0.939281 0.932649 0.565880
O O14 0.043102 0.937164 0.885475
O O15 0.676021 0.081434 0.215811
O O16 0.837011 0.959503 0.252231
#
# Coordination Sequence:
#
# PCOD9344424 Si02
#       8
#     4   4   4   4   4   4   4   4
#     4  11  20  32  52  75  96 129 168 210 248 294
#     4  10  19  33  53  75  96 126 173 215 247 285
#     4  10  18  32  53  77 100 128 170 209 248 294
#     4   9  17  34  56  76  98 130 172 212 241 288
#     4   9  18  31  51  77 105 134 162 200 252 304
#     4   8  16  31  53  74  96 128 171 207 241 288
#     4   9  16  30  52  75  95 125 166 210 241 281
#     4  10  18  31  52  75 102 132 164 203 250 300
#
# _framework density 27.006087000000001
#
# number of rings (size 3 to 8) (size 9 to 14) (size 15 to 20)
#    0.000    2.500    0.000    6.000    0.000    1.000 
#    0.000   10.000    0.000    4.500    0.000    0.000 
#    0.000    0.000    0.000    0.000    0.000    0.000 
#
# Total GULP energy -178659.763925 kJ/mol
# GULP energy per Si atom -5583.117623 kJ/mol
# Density = 2.694462 g / cm^3
# Si number density = 27.006087 Si / 1000 Ang^3
#
#
#
# Elastic Constant Matrix: (Units=GPa)
#
#
# Indices 1 2 3 4 5 6 
#
# 1 112.1279 6.1800 -2.0546 0.0000 0.0000 0.0000
# 2 6.1800 87.2578 10.1723 0.0000 0.0000 0.0000
# 3 -2.0546 10.1723 66.3446 0.0000 0.0000 0.0000
# 4 0.0000 0.0000 0.0000 2.7312 0.0000 0.0000
# 5 0.0000 0.0000 0.0000 0.0000 9.2280 0.0000
# 6 0.0000 0.0000 0.0000 0.0000 0.0000 43.2508
#
#
#
# Elastic Compliance Matrix: (Units=1/GPa)
#
#
# Indices 1 2 3 4 5 6 
#
# 1 0.008963 -0.000679 0.000382 0.000000 0.000000 0.000000
# 2 -0.000679 0.011720 -0.001818 0.000000 0.000000 0.000000
# 3 0.000382 -0.001818 0.015363 0.000000 0.000000 0.000000
# 4 0.000000 0.000000 0.000000 0.366133 0.000000 0.000000
# 5 0.000000 0.000000 0.000000 0.000000 0.108366 0.000000
# 6 0.000000 0.000000 0.000000 0.000000 0.000000 0.023121
#
#
# Mechanical properties :
#
#
# Convention : Reuss Voigt Hill
#
# Bulk Modulus (GPa) = 31.43143 32.70286 32.06715
# Shear Modulus (GPa) = 9.11572 27.80417 18.45994
#
# Velocity S-wave (km/s) = 1.83923 3.21214 2.61731
# Velocity P-wave (km/s) = 4.02172 5.08851 4.58624
#
# Compressibility (1/GPa) = 0.03181529
#
# Stress axis : x y z
#
# Youngs Moduli (GPa) = 111.57199 85.32169 65.08974
#
# Poissons Ratio (x) = 0.05796 -0.02485
# Poissons Ratio (y) = 0.07579 0.11834
# Poissons Ratio (z) = -0.04259 0.15512
#
# Static dielectric constant tensor:
#      x y z
#    x 2.138760 0.000000 0.000000 
#    y 0.000000 2.284850 0.000000 
#    z 0.000000 0.000000 2.192230 
# 
# From -- ./inp_files/3586.got.cif
#   From: 2010.05.17/outbox.cif.g08.bks.cpg/sg33_2_cif.got.tgz:3586.got - 2010.06.03 17:15:25.
