data_PCOD9344625
_publ_section_title
;
Structure prediction by ZEFSAII (Michael W. Deem and Ramdas Pophale) SiO2 
 PCOD9344625
Probable space group: P N A 21
;
_chemical_formula_sum "Si O2"
_cell_formula_units_Z 20
_cell_length_a 21.018605
_cell_length_b 7.147457
_cell_length_c 5.000625
_cell_angle_alpha 90.000000
_cell_angle_beta 90.000000
_cell_angle_gamma 90.000000
_cell_volume 751.241771
_symmetry_space_group_name_H-M "P N A 21"
_symmetry_group_IT_number 33
_symmetry_cell_setting 'orthorhombic'
loop_
_space_group_symop_operation_xyz
x,y,z
-x,-y,1/2+z
1/2-x,1/2+y,1/2+z
1/2+x,1/2-y,z
loop_
_atom_site_type_symbol
_atom_site_label
_atom_site_fract_x
_atom_site_fract_y
_atom_site_fract_z
Si Si1 0.479555 0.392275 0.808610
Si Si2 0.093423 0.347759 0.923979
Si Si3 0.235369 0.749823 0.782811
Si Si4 0.842330 0.021593 0.691705
Si Si5 0.845529 0.471600 0.892339
O O1 0.495056 0.442572 0.502526
O O2 0.520188 0.212153 0.889260
O O3 0.404089 0.400761 0.844466
O O4 0.124024 0.421580 0.649511
O O5 0.103383 0.501460 0.155502
O O6 0.128730 0.153738 0.015503
O O7 0.185717 0.818249 0.002771
O O8 0.282475 0.574718 0.837296
O O9 0.193253 0.697756 0.528241
O O10 0.713385 0.087067 0.269757
#
# Coordination Sequence:
#
# PCOD9344625 Si02
#       5
#     4   4   4   4   4
#     4  10  19  35  60  89 118 161 222 275 321 387
#     4  10  20  37  59  87 120 165 222 271 315 381
#     4   9  19  37  58  92 132 167 209 260 327 393
#     4   9  19  35  61  92 127 169 213 266 323 392
#     4  10  21  36  58  88 127 168 208 264 322 385
#
# _framework density 26.622585000000001
#
# number of rings (size 3 to 8) (size 9 to 14) (size 15 to 20)
#    0.000    2.400    0.000    3.600    0.000    6.400 
#    0.000   14.000    0.000   12.000    0.000    0.000 
#    0.000    0.000    0.000    0.000    0.000    7.800 
#
# Total GULP energy -111909.720735 kJ/mol
# GULP energy per Si atom -5595.486037 kJ/mol
# Density = 2.656199 g / cm^3
# Si number density = 26.622585 Si / 1000 Ang^3
#
#
#
# Elastic Constant Matrix: (Units=GPa)
#
#
# Indices 1 2 3 4 5 6 
#
# 1 193.5578 52.5435 46.5486 0.0000 0.0000 0.0000
# 2 52.5435 99.6208 22.3041 0.0000 0.0000 0.0000
# 3 46.5486 22.3041 96.7364 0.0000 0.0000 0.0000
# 4 0.0000 0.0000 0.0000 48.1874 0.0000 0.0000
# 5 0.0000 0.0000 0.0000 0.0000 50.3458 0.0000
# 6 0.0000 0.0000 0.0000 0.0000 0.0000 56.7334
#
#
#
# Elastic Compliance Matrix: (Units=1/GPa)
#
#
# Indices 1 2 3 4 5 6 
#
# 1 0.006551 -0.002899 -0.002484 0.000000 0.000000 0.000000
# 2 -0.002899 0.011867 -0.001341 0.000000 0.000000 0.000000
# 3 -0.002484 -0.001341 0.011842 0.000000 0.000000 0.000000
# 4 0.000000 0.000000 0.000000 0.020752 0.000000 0.000000
# 5 0.000000 0.000000 0.000000 0.000000 0.019863 0.000000
# 6 0.000000 0.000000 0.000000 0.000000 0.000000 0.017626
#
#
# Mechanical properties :
#
#
# Convention : Reuss Voigt Hill
#
# Bulk Modulus (GPa) = 59.48159 70.30083 64.89121
# Shear Modulus (GPa) = 46.48875 48.95459 47.72167
#
# Velocity S-wave (km/s) = 4.18331 4.29282 4.23842
# Velocity P-wave (km/s) = 6.76198 7.14387 6.95555
#
# Compressibility (1/GPa) = 0.01681192
#
# Stress axis : x y z
#
# Youngs Moduli (GPa) = 152.65576 84.26460 84.44694
#
# Poissons Ratio (x) = 0.24428 0.20974
# Poissons Ratio (y) = 0.44255 0.11326
# Poissons Ratio (z) = 0.37915 0.11302
#
# Static dielectric constant tensor:
#      x y z
#    x 2.064870 0.000000 0.000000 
#    y 0.000000 2.361340 0.000000 
#    z 0.000000 0.000000 2.109590 
# 
# From -- ./inp_files/1220.got.cif
#   From: 2010.05.17/outbox.cif.g08.bks.cpg/sg33_1_cif.got.tgz:1220.got - 2010.06.03 17:15:25.
