data_PCOD9344411
_publ_section_title
;
Structure prediction by ZEFSAII (Michael W. Deem and Ramdas Pophale) SiO2 
 PCOD9344411
Probable space group: P N A 21
;
_chemical_formula_sum "Si O2"
_cell_formula_units_Z 32
_cell_length_a 7.861752
_cell_length_b 8.796841
_cell_length_c 20.167244
_cell_angle_alpha 90.000000
_cell_angle_beta 90.000000
_cell_angle_gamma 90.000000
_cell_volume 1394.738004
_symmetry_space_group_name_H-M "P N A 21"
_symmetry_group_IT_number 33
_symmetry_cell_setting 'orthorhombic'
loop_
_space_group_symop_operation_xyz
x,y,z
-x,-y,1/2+z
1/2-x,1/2+y,1/2+z
1/2+x,1/2-y,z
loop_
_atom_site_type_symbol
_atom_site_label
_atom_site_fract_x
_atom_site_fract_y
_atom_site_fract_z
Si Si1 0.475817 0.949267 0.878420
Si Si2 0.510025 0.131895 0.234824
Si Si3 0.373925 0.802338 0.455670
Si Si4 0.562628 0.487712 0.101404
Si Si5 0.836186 0.060024 0.463584
Si Si6 0.352948 0.516828 0.886610
Si Si7 0.120606 0.026299 0.240547
Si Si8 0.186050 0.347874 0.098123
O O1 0.509914 0.125816 0.898331
O O2 0.343369 0.895043 0.933363
O O3 0.673015 0.894430 0.880893
O O4 0.409305 0.925268 0.804072
O O5 0.319183 0.069879 0.234733
O O6 0.515166 0.315429 0.239028
O O7 0.602310 0.092436 0.165879
O O8 0.345762 0.624545 0.458323
O O9 0.195688 0.884064 0.437615
O O10 0.416277 0.867343 0.528998
O O11 0.570301 0.561984 0.174122
O O12 0.372943 0.419934 0.090835
O O13 0.683569 0.336665 0.104943
O O14 0.623224 0.590516 0.040361
O O15 0.991129 0.107872 0.416442
O O16 0.400255 0.458456 0.813516
#
# Coordination Sequence:
#
# PCOD9344411 Si02
#       8
#     4   4   4   4   4   4   4   4
#     4   9  21  31  48  73 101 129 166 188 247 296
#     4  10  20  33  48  73  98 133 159 204 245 285
#     4   9  19  34  46  76 102 123 159 201 240 294
#     4  10  19  28  46  75  94 130 155 196 254 292
#     4  11  19  31  54  73 101 129 157 199 247 293
#     4   9  20  33  45  74 101 129 161 198 239 293
#     4  10  20  32  49  69 104 125 165 203 240 293
#     4  10  18  28  48  69 101 124 156 199 252 292
#
# _framework density 22.943377000000002
#
# number of rings (size 3 to 8) (size 9 to 14) (size 15 to 20)
#    0.750    1.500    1.250    3.750   10.500    0.000 
#    0.000    0.000    0.000    0.000    0.000   10.500 
#    0.000    0.000    0.000    0.000    0.000    0.000 
#
# Total GULP energy -178363.144613 kJ/mol
# GULP energy per Si atom -5573.848269 kJ/mol
# Density = 2.289116 g / cm^3
# Si number density = 22.943377 Si / 1000 Ang^3
#
#
#
# Elastic Constant Matrix: (Units=GPa)
#
#
# Indices 1 2 3 4 5 6 
#
# 1 77.1045 1.7163 32.2093 0.0000 0.0000 0.0000
# 2 1.7163 24.8757 12.1277 0.0000 0.0000 0.0000
# 3 32.2093 12.1277 208.2527 0.0000 0.0000 0.0000
# 4 0.0000 0.0000 0.0000 13.6729 0.0000 0.0000
# 5 0.0000 0.0000 0.0000 0.0000 39.8149 0.0000
# 6 0.0000 0.0000 0.0000 0.0000 0.0000 22.1754
#
#
#
# Elastic Compliance Matrix: (Units=1/GPa)
#
#
# Indices 1 2 3 4 5 6 
#
# 1 0.013865 0.000091 -0.002150 0.000000 0.000000 0.000000
# 2 0.000091 0.041375 -0.002424 0.000000 0.000000 0.000000
# 3 -0.002150 -0.002424 0.005276 0.000000 0.000000 0.000000
# 4 0.000000 0.000000 0.000000 0.073138 0.000000 0.000000
# 5 0.000000 0.000000 0.000000 0.000000 0.025116 0.000000
# 6 0.000000 0.000000 0.000000 0.000000 0.000000 0.045095
#
#
# Mechanical properties :
#
#
# Convention : Reuss Voigt Hill
#
# Bulk Modulus (GPa) = 19.39785 44.70440 32.05112
# Shear Modulus (GPa) = 21.73789 32.74458 27.24124
#
# Velocity S-wave (km/s) = 3.08142 3.78192 3.44950
# Velocity P-wave (km/s) = 4.59709 6.21269 5.46492
#
# Compressibility (1/GPa) = 0.05155211
#
# Stress axis : x y z
#
# Youngs Moduli (GPa) = 72.12181 24.16904 189.55538
#
# Poissons Ratio (x) = -0.00221 0.40751
# Poissons Ratio (y) = -0.00659 0.45942
# Poissons Ratio (z) = 0.15505 0.05858
#
# Static dielectric constant tensor:
#      x y z
#    x 1.919280 0.000000 0.000000 
#    y 0.000000 1.866520 0.000000 
#    z 0.000000 0.000000 1.933810 
# 
# From -- ./inp_files/8587.got.cif
#   From: 2010.05.17/outbox.cif.g08.bks.cpg/sg33_5_cif.got.tgz:8587.got - 2010.06.03 17:15:25.
