data_PCOD9344418
_publ_section_title
;
Structure prediction by ZEFSAII (Michael W. Deem and Ramdas Pophale) SiO2 
 PCOD9344418
Probable space group: P N A 21
;
_chemical_formula_sum "Si O2"
_cell_formula_units_Z 32
_cell_length_a 16.954768
_cell_length_b 5.547132
_cell_length_c 12.612705
_cell_angle_alpha 90.000000
_cell_angle_beta 90.000000
_cell_angle_gamma 90.000000
_cell_volume 1186.229145
_symmetry_space_group_name_H-M "P N A 21"
_symmetry_group_IT_number 33
_symmetry_cell_setting 'orthorhombic'
loop_
_space_group_symop_operation_xyz
x,y,z
-x,-y,1/2+z
1/2-x,1/2+y,1/2+z
1/2+x,1/2-y,z
loop_
_atom_site_type_symbol
_atom_site_label
_atom_site_fract_x
_atom_site_fract_y
_atom_site_fract_z
Si Si1 0.953295 0.127139 0.190990
Si Si2 0.452904 0.126833 0.484951
Si Si3 0.820735 0.408323 0.664298
Si Si4 0.358821 0.604600 0.678489
Si Si5 0.821153 0.091548 0.011513
Si Si6 0.859224 0.604482 0.997344
Si Si7 0.122357 0.133002 0.934775
Si Si8 0.621982 0.133408 0.741076
O O1 0.901015 0.115524 0.083781
O O2 0.921100 0.373178 0.246181
O O3 0.046595 0.127965 0.179470
O O4 0.936767 0.861903 0.237126
O O5 0.400696 0.115408 0.592206
O O6 0.546193 0.127579 0.496401
O O7 0.420694 0.372790 0.429742
O O8 0.436319 0.861670 0.438806
O O9 0.829960 0.649410 0.732119
O O10 0.749851 0.499792 0.587763
O O11 0.822697 0.146131 0.716267
O O12 0.338641 0.611212 0.551066
O O13 0.823049 0.353785 0.959557
O O14 0.830562 0.850617 0.943627
O O15 0.839062 0.611380 0.124750
O O16 0.173367 0.249541 0.837711
#
# Coordination Sequence:
#
# PCOD9344418 Si02
#       8
#     4   4   4   4   4   4   4   4
#     4  10  19  33  50  73 102 132 164 211 255 294
#     4  10  19  33  50  73 102 132 164 211 255 294
#     4  10  18  29  48  75  98 123 165 209 246 294
#     4  10  19  33  50  73 103 133 164 210 257 293
#     4  10  18  29  48  75  98 123 165 209 246 294
#     4  10  19  33  50  73 103 133 164 210 257 293
#     4  10  18  29  48  75 100 128 166 208 248 297
#     4  10  18  29  48  75 100 128 166 208 248 297
#
# _framework density 26.976240000000001
#
# number of rings (size 3 to 8) (size 9 to 14) (size 15 to 20)
#    0.000    2.000    0.000    9.000    0.000    0.000 
#    0.000    0.000    0.000    0.000    0.000  168.000 
#    0.000    0.000    0.000    0.000    0.000    0.000 
#
# Total GULP energy -178234.130149 kJ/mol
# GULP energy per Si atom -5569.816567 kJ/mol
# Density = 2.691484 g / cm^3
# Si number density = 26.976240 Si / 1000 Ang^3
#
#
#
# Elastic Constant Matrix: (Units=GPa)
#
#
# Indices 1 2 3 4 5 6 
#
# 1 124.7668 57.6105 8.5366 0.0000 0.0000 0.0000
# 2 57.6105 361.2390 74.8774 0.0000 0.0000 0.0000
# 3 8.5366 74.8774 94.5637 0.0000 0.0000 0.0000
# 4 0.0000 0.0000 0.0000 52.9085 0.0000 0.0000
# 5 0.0000 0.0000 0.0000 0.0000 -1.0679 0.0000
# 6 0.0000 0.0000 0.0000 0.0000 0.0000 9.4209
#
#
#
# Elastic Compliance Matrix: (Units=1/GPa)
#
#
# Indices 1 2 3 4 5 6 
#
# 1 0.008663 -0.001459 0.000373 0.000000 0.000000 0.000000
# 2 -0.001459 0.003558 -0.002685 0.000000 0.000000 0.000000
# 3 0.000373 -0.002685 0.012667 0.000000 0.000000 0.000000
# 4 0.000000 0.000000 0.000000 0.018901 0.000000 0.000000
# 5 0.000000 0.000000 0.000000 0.000000 -0.936375 0.000000
# 6 0.000000 0.000000 0.000000 0.000000 0.000000 0.106147
#
#
# Mechanical properties :
#
#
# Convention : Reuss Voigt Hill
#
# Bulk Modulus (GPa) = 57.65003 95.84648 76.74825
# Shear Modulus (GPa) = -6.46734 41.55530 17.54398
#
# Velocity S-wave (km/s) = -1.55004 3.92910 2.55296
# Velocity P-wave (km/s) = 4.26773 7.49606 6.09936
#
# Compressibility (1/GPa) = 0.01734605
#
# Stress axis : x y z
#
# Youngs Moduli (GPa) = 115.43240 281.09548 78.94282
#
# Poissons Ratio (x) = 0.41010 -0.02946
# Poissons Ratio (y) = 0.16841 0.21198
# Poissons Ratio (z) = -0.04308 0.75480
#
# Static dielectric constant tensor:
#      x y z
#    x 2.136160 0.000000 0.000000 
#    y 0.000000 2.191890 0.000000 
#    z 0.000000 0.000000 0.507030 
# 
# From -- ./inp_files/8845.got.cif
#   From: 2010.05.17/outbox.cif.g08.bks.cpg/sg33_5_cif.got.tgz:8845.got - 2010.06.03 17:15:25.
