data_PCOD9344906
_publ_section_title
;
Structure prediction by ZEFSAII (Michael W. Deem and Ramdas Pophale) SiO2 
 PCOD9344906
Probable space group: P N A 21
;
_chemical_formula_sum "Si O2"
_cell_formula_units_Z 32
_cell_length_a 8.057234
_cell_length_b 19.214655
_cell_length_c 8.245509
_cell_angle_alpha 90.000000
_cell_angle_beta 90.000000
_cell_angle_gamma 90.000000
_cell_volume 1276.544732
_symmetry_space_group_name_H-M "P N A 21"
_symmetry_group_IT_number 33
_symmetry_cell_setting 'orthorhombic'
loop_
_space_group_symop_operation_xyz
x,y,z
-x,-y,1/2+z
1/2-x,1/2+y,1/2+z
1/2+x,1/2-y,z
loop_
_atom_site_type_symbol
_atom_site_label
_atom_site_fract_x
_atom_site_fract_y
_atom_site_fract_z
Si Si1 0.645766 0.084666 0.095570
Si Si2 0.526748 0.029555 0.424165
Si Si3 0.659274 0.418141 0.327837
Si Si4 0.248688 0.710566 0.989062
Si Si5 0.492683 0.536759 0.494409
Si Si6 0.858080 0.837936 0.336201
Si Si7 0.387387 0.840802 0.095734
Si Si8 0.007540 0.297178 0.943261
O O1 0.631304 0.044623 0.264814
O O2 0.827322 0.070738 0.028161
O O3 0.590313 0.164939 0.096509
O O4 0.506258 0.047744 0.983079
O O5 0.341152 0.056875 0.384526
O O6 0.608387 0.077535 0.562423
O O7 0.671905 0.334604 0.344547
O O8 0.527290 0.457602 0.443591
O O9 0.617171 0.447257 0.151434
O O10 0.346768 0.684070 0.149298
O O11 0.256928 0.793863 0.998145
O O12 0.060993 0.687771 0.023332
O O13 0.409316 0.582454 0.353383
O O14 0.679577 0.821059 0.413552
O O15 0.981217 0.785756 0.430479
O O16 0.387230 0.824319 0.286246
#
# Coordination Sequence:
#
# PCOD9344906 Si02
#       8
#     4   4   4   4   4   4   4   4
#     4  11  23  38  58  84 112 147 191 235 283 336
#     4  10  22  39  57  80 113 149 186 232 284 337
#     4  10  22  39  57  80 113 149 186 232 284 337
#     4   9  19  36  58  83 111 145 184 227 276 331
#     4  11  23  38  58  84 112 147 191 235 283 336
#     4  10  20  37  60  85 115 149 186 230 280 334
#     4   9  19  36  58  83 111 145 184 227 276 331
#     4  10  20  37  60  85 115 149 186 230 280 334
#
# _framework density 25.067668000000001
#
# number of rings (size 3 to 8) (size 9 to 14) (size 15 to 20)
#    0.000    2.000    0.000    3.000    0.000    7.000 
#    0.000    2.500    0.000    0.000    0.000    0.000 
#    0.000    0.000    0.000    0.000    0.000    0.000 
#
# Total GULP energy -179039.479149 kJ/mol
# GULP energy per Si atom -5594.983723 kJ/mol
# Density = 2.501061 g / cm^3
# Si number density = 25.067668 Si / 1000 Ang^3
#
#
#
# Elastic Constant Matrix: (Units=GPa)
#
#
# Indices 1 2 3 4 5 6 
#
# 1 67.7249 18.3715 -6.0062 0.0000 0.0000 0.0000
# 2 18.3715 68.5529 -12.0987 0.0000 0.0000 0.0000
# 3 -6.0062 -12.0987 48.9988 0.0000 0.0000 0.0000
# 4 0.0000 0.0000 0.0000 32.0690 0.0000 0.0000
# 5 0.0000 0.0000 0.0000 0.0000 21.2380 0.0000
# 6 0.0000 0.0000 0.0000 0.0000 0.0000 28.5470
#
#
#
# Elastic Compliance Matrix: (Units=1/GPa)
#
#
# Indices 1 2 3 4 5 6 
#
# 1 0.015965 -0.004112 0.000942 0.000000 0.000000 0.000000
# 2 -0.004112 0.016311 0.003523 0.000000 0.000000 0.000000
# 3 0.000942 0.003523 0.021394 0.000000 0.000000 0.000000
# 4 0.000000 0.000000 0.000000 0.031183 0.000000 0.000000
# 5 0.000000 0.000000 0.000000 0.000000 0.047085 0.000000
# 6 0.000000 0.000000 0.000000 0.000000 0.000000 0.035030
#
#
# Mechanical properties :
#
#
# Convention : Reuss Voigt Hill
#
# Bulk Modulus (GPa) = 18.39066 20.64554 19.51810
# Shear Modulus (GPa) = 27.11682 28.70481 27.91082
#
# Velocity S-wave (km/s) = 3.29256 3.38759 3.34041
# Velocity P-wave (km/s) = 4.66979 4.85333 4.76244
#
# Compressibility (1/GPa) = 0.05437543
#
# Stress axis : x y z
#
# Youngs Moduli (GPa) = 62.63857 61.30780 46.74195
#
# Poissons Ratio (x) = 0.25211 -0.04401
# Poissons Ratio (y) = 0.25758 -0.16469
# Poissons Ratio (z) = -0.05898 -0.21601
#
# Static dielectric constant tensor:
#      x y z
#    x 1.955120 0.000000 0.000000 
#    y 0.000000 1.972940 0.000000 
#    z 0.000000 0.000000 2.001670 
# 
# From -- ./inp_files/3464.got.cif
#   From: 2010.05.17/outbox.cif.g08.bks.cpg/sg33_2_cif.got.tgz:3464.got - 2010.06.03 17:15:25.
