data_PCOD9344044
_publ_section_title
;
Structure prediction by ZEFSAII (Michael W. Deem and Ramdas Pophale) SiO2 
 PCOD9344044
Probable space group: P B A 2
;
_chemical_formula_sum "Si O2"
_cell_formula_units_Z 30
_cell_length_a 7.561142
_cell_length_b 27.346003
_cell_length_c 6.341188
_cell_angle_alpha 90.000000
_cell_angle_beta 90.000000
_cell_angle_gamma 90.000000
_cell_volume 1311.148494
_symmetry_space_group_name_H-M "P B A 2"
_symmetry_group_IT_number 32
_symmetry_cell_setting 'orthorhombic'
loop_
_space_group_symop_operation_xyz
x,y,z
-x,-y,z
1/2-x,1/2+y,z
1/2+x,1/2-y,z
loop_
_atom_site_type_symbol
_atom_site_label
_atom_site_fract_x
_atom_site_fract_y
_atom_site_fract_z
Si Si1 0.766125 0.544923 0.231690
Si Si2 0.488077 0.709193 0.847839
Si Si3 0.072467 0.582280 0.549793
Si Si4 0.537200 0.785829 0.224446
Si Si5 0.313611 0.133304 0.924110
Si Si6 0.861831 0.934014 0.244676
Si Si7 0.265685 0.775609 0.539781
Si Si8 0.500000 0.000000 0.863828
O O1 0.699604 0.489863 0.286625
O O2 0.574097 0.571875 0.225614
O O3 0.909113 0.569048 0.393047
O O4 0.874300 0.533603 0.014124
O O5 0.521046 0.739032 0.065218
O O6 0.358713 0.664547 0.871330
O O7 0.394995 0.748973 0.700338
O O8 0.649149 0.693393 0.699795
O O9 0.059175 0.624460 0.725444
O O10 0.255100 0.593825 0.427975
O O11 0.099087 0.535118 0.699293
O O12 0.593053 0.832059 0.092067
O O13 0.363942 0.802030 0.350980
O O14 0.668009 0.767369 0.407134
O O15 0.236641 0.085045 0.035706
#
# Coordination Sequence:
#
# PCOD9344044 Si02
#       8
#     4   4   4   4   4   4   4   2
#     4  11  23  48  73 103 145 189 239 288 399 427
#     4  11  22  44  69 105 140 193 244 295 378 435
#     4  12  24  46  74 105 145 192 241 309 357 457
#     4  11  22  44  69 101 145 189 237 308 366 437
#     4  12  26  43  73 107 149 184 258 302 361 437
#     4  11  25  45  72 107 143 189 237 309 354 454
#     4  10  22  40  75  96 130 201 231 289 372 436
#     4  12  20  48  74 102 140 194 240 294 390 440
#
# _framework density 22.880701999999999
#
# number of rings (size 3 to 8) (size 9 to 14) (size 15 to 20)
#    0.000    0.800    6.667    0.000    1.867    1.067 
#    0.000   13.333    0.000    0.000    0.000    0.000 
#    0.000    0.000    0.000    0.000    0.000    0.000 
#
# Total GULP energy -167248.666591 kJ/mol
# GULP energy per Si atom -5574.955553 kJ/mol
# Density = 2.282862 g / cm^3
# Si number density = 22.880702 Si / 1000 Ang^3
#
#
#
# Elastic Constant Matrix: (Units=GPa)
#
#
# Indices 1 2 3 4 5 6 
#
# 1 128.7487 24.0444 70.4709 0.0000 0.0000 0.0000
# 2 24.0444 58.7116 26.4765 0.0000 0.0000 0.0000
# 3 70.4709 26.4765 129.7816 0.0000 0.0000 0.0000
# 4 0.0000 0.0000 0.0000 29.1125 0.0000 0.0000
# 5 0.0000 0.0000 0.0000 0.0000 42.2031 0.0000
# 6 0.0000 0.0000 0.0000 0.0000 0.0000 25.6821
#
#
#
# Elastic Compliance Matrix: (Units=1/GPa)
#
#
# Indices 1 2 3 4 5 6 
#
# 1 0.011270 -0.002044 -0.005703 0.000000 0.000000 0.000000
# 2 -0.002044 0.019129 -0.002793 0.000000 0.000000 0.000000
# 3 -0.005703 -0.002793 0.011372 0.000000 0.000000 0.000000
# 4 0.000000 0.000000 0.000000 0.034349 0.000000 0.000000
# 5 0.000000 0.000000 0.000000 0.000000 0.023695 0.000000
# 6 0.000000 0.000000 0.000000 0.000000 0.000000 0.038938
#
#
# Mechanical properties :
#
#
# Convention : Reuss Voigt Hill
#
# Bulk Modulus (GPa) = 48.32754 62.13615 55.23185
# Shear Modulus (GPa) = 29.98893 32.48289 31.23591
#
# Velocity S-wave (km/s) = 3.62424 3.77193 3.69882
# Velocity P-wave (km/s) = 6.21939 6.79599 6.51407
#
# Compressibility (1/GPa) = 0.02069214
#
# Stress axis : x y z
#
# Youngs Moduli (GPa) = 88.73004 52.27724 87.93909
#
# Poissons Ratio (x) = 0.10685 0.50149
# Poissons Ratio (y) = 0.18135 0.24558
# Poissons Ratio (z) = 0.50600 0.14599
#
# Static dielectric constant tensor:
#      x y z
#    x 1.996940 0.000000 0.000000 
#    y 0.000000 1.920040 0.000000 
#    z 0.000000 0.000000 1.855230 
# 
# From -- ./inp_files/614.got.cif
#   From: 2010.05.17/outbox.cif.g08.bks.cpg/sg32_1_cif.got.tgz:614.got - 2010.06.03 17:12:27.
