data_PCOD9344137
_publ_section_title
;
Structure prediction by ZEFSAII (Michael W. Deem and Ramdas Pophale) SiO2 
 PCOD9344137
Probable space group: P B A 2
;
_chemical_formula_sum "Si O2"
_cell_formula_units_Z 32
_cell_length_a 9.087519
_cell_length_b 13.305830
_cell_length_c 10.791472
_cell_angle_alpha 90.000000
_cell_angle_beta 90.000000
_cell_angle_gamma 90.000000
_cell_volume 1304.872236
_symmetry_space_group_name_H-M "P B A 2"
_symmetry_group_IT_number 32
_symmetry_cell_setting 'orthorhombic'
loop_
_space_group_symop_operation_xyz
x,y,z
-x,-y,z
1/2-x,1/2+y,z
1/2+x,1/2-y,z
loop_
_atom_site_type_symbol
_atom_site_label
_atom_site_fract_x
_atom_site_fract_y
_atom_site_fract_z
Si Si1 0.348397 0.280853 0.297800
Si Si2 0.102458 0.169547 0.138080
Si Si3 0.269724 0.855057 0.563563
Si Si4 0.551794 0.894710 0.430576
Si Si5 0.633487 0.447643 0.525341
Si Si6 0.239264 0.544916 0.940177
Si Si7 0.140610 0.194326 0.730859
Si Si8 0.930433 0.655402 0.936463
O O1 0.229230 0.212262 0.228212
O O2 0.446447 0.348408 0.206184
O O3 0.285806 0.332000 0.422990
O O4 0.467800 0.200005 0.344799
O O5 0.161039 0.075829 0.057480
O O6 0.086756 0.263381 0.044086
O O7 0.445360 0.875798 0.547407
O O8 0.242409 0.764484 0.657101
O O9 0.203747 0.961118 0.603170
O O10 0.724973 0.904815 0.456927
O O11 0.500000 0.000000 0.373974
O O12 0.500000 0.500000 0.452716
O O13 0.569099 0.362656 0.614430
O O14 0.304739 0.606209 0.822455
O O15 0.202134 0.426412 0.926453
O O16 0.080473 0.596408 0.958805
O O17 0.058871 0.276053 0.814018
#
# Coordination Sequence:
#
# PCOD9344137 Si02
#       8
#     4   4   4   4   4   4   4   4
#     4  12  23  43  73 104 141 193 239 304 371 448
#     4  11  24  44  72 102 143 185 244 308 373 427
#     4  11  25  43  70 103 151 189 246 289 377 456
#     4  10  24  45  66  97 142 195 241 290 361 451
#     4  11  26  42  65 106 146 188 235 300 366 448
#     4  10  23  46  71 106 137 190 254 307 368 452
#     4  11  24  42  72 103 146 188 237 311 376 446
#     4  10  23  45  75 101 137 191 252 303 380 444
#
# _framework density 24.523472999999999
#
# number of rings (size 3 to 8) (size 9 to 14) (size 15 to 20)
#    0.000    1.250    3.750    0.750    7.000    1.000 
#    0.000    0.625    0.000    0.000    0.000    0.000 
#    0.000    0.000    0.000    0.000    0.000    0.000 
#
# Total GULP energy -178703.924544 kJ/mol
# GULP energy per Si atom -5584.497642 kJ/mol
# Density = 2.446766 g / cm^3
# Si number density = 24.523473 Si / 1000 Ang^3
#
#
#
# Elastic Constant Matrix: (Units=GPa)
#
#
# Indices 1 2 3 4 5 6 
#
# 1 93.8930 18.9243 33.2004 0.0000 0.0000 0.0000
# 2 18.9243 98.8704 39.3732 0.0000 0.0000 0.0000
# 3 33.2004 39.3732 85.9272 0.0000 0.0000 0.0000
# 4 0.0000 0.0000 0.0000 27.2562 0.0000 0.0000
# 5 0.0000 0.0000 0.0000 0.0000 19.1082 0.0000
# 6 0.0000 0.0000 0.0000 0.0000 0.0000 36.6674
#
#
#
# Elastic Compliance Matrix: (Units=1/GPa)
#
#
# Indices 1 2 3 4 5 6 
#
# 1 0.012362 -0.000568 -0.004516 0.000000 0.000000 0.000000
# 2 -0.000568 0.012398 -0.005462 0.000000 0.000000 0.000000
# 3 -0.004516 -0.005462 0.015885 0.000000 0.000000 0.000000
# 4 0.000000 0.000000 0.000000 0.036689 0.000000 0.000000
# 5 0.000000 0.000000 0.000000 0.000000 0.052333 0.000000
# 6 0.000000 0.000000 0.000000 0.000000 0.000000 0.027272
#
#
# Mechanical properties :
#
#
# Convention : Reuss Voigt Hill
#
# Bulk Modulus (GPa) = 51.14017 51.29847 51.21932
# Shear Modulus (GPa) = 27.09318 29.08588 28.08953
#
# Velocity S-wave (km/s) = 3.32744 3.44763 3.38807
# Velocity P-wave (km/s) = 5.97171 6.06727 6.01968
#
# Compressibility (1/GPa) = 0.01955410
#
# Stress axis : x y z
#
# Youngs Moduli (GPa) = 80.89465 80.65912 62.95125
#
# Poissons Ratio (x) = 0.04578 0.28430
# Poissons Ratio (y) = 0.04592 0.34381
# Poissons Ratio (z) = 0.36534 0.44053
#
# Static dielectric constant tensor:
#      x y z
#    x 1.992450 0.000000 0.000000 
#    y 0.000000 1.943240 0.000000 
#    z 0.000000 0.000000 1.977480 
# 
# From -- ./inp_files/3780.got.cif
#   From: 2010.05.17/outbox.cif.g08.bks.cpg/sg32_2_cif.got.tgz:3780.got - 2010.06.03 17:12:27.
