data_PCOD9344207
_publ_section_title
;
Structure prediction by ZEFSAII (Michael W. Deem and Ramdas Pophale) SiO2 
 PCOD9344207
Probable space group: P B A 2
;
_chemical_formula_sum "Si O2"
_cell_formula_units_Z 20
_cell_length_a 8.978498
_cell_length_b 17.393746
_cell_length_c 4.704852
_cell_angle_alpha 90.000000
_cell_angle_beta 90.000000
_cell_angle_gamma 90.000000
_cell_volume 734.755390
_symmetry_space_group_name_H-M "P B A 2"
_symmetry_group_IT_number 32
_symmetry_cell_setting 'orthorhombic'
loop_
_space_group_symop_operation_xyz
x,y,z
-x,-y,z
1/2-x,1/2+y,z
1/2+x,1/2-y,z
loop_
_atom_site_type_symbol
_atom_site_label
_atom_site_fract_x
_atom_site_fract_y
_atom_site_fract_z
Si Si1 0.974190 0.250800 0.652260
Si Si2 0.781818 0.111560 0.628115
Si Si3 0.270811 0.038895 0.913957
Si Si4 0.398810 0.603355 0.410808
Si Si5 0.982079 0.642754 0.180294
O O1 0.845018 0.192142 0.747452
O O2 0.932934 0.077490 0.488176
O O3 0.921058 0.307450 0.405075
O O4 0.037542 0.299464 0.913633
O O5 0.768522 0.933390 0.598658
O O6 0.729558 0.052609 0.870274
O O7 0.656021 0.122229 0.388179
O O8 0.088355 0.193195 0.492920
O O9 0.418285 0.074495 0.050206
O O10 0.137717 0.077693 0.093752
#
# Coordination Sequence:
#
# PCOD9344207 Si02
#       5
#     4   4   4   4   4
#     4  10  27  47  83 122 171 227 299 354 436 527
#     4  10  29  52  83 128 185 228 296 370 452 536
#     4  12  26  52  85 128 170 232 293 368 447 545
#     4  10  26  47  83 118 169 220 302 351 436 526
#     4  12  27  51  87 123 178 227 294 367 461 517
#
# _framework density 27.219943000000001
#
# number of rings (size 3 to 8) (size 9 to 14) (size 15 to 20)
#    1.200    0.000    0.000    3.000    8.400    8.000 
#    0.000   12.000    0.000    0.000    0.000    0.000 
#    0.000    0.000    0.000    0.000    0.000    0.000 
#
# Total GULP energy -111966.419947 kJ/mol
# GULP energy per Si atom -5598.320997 kJ/mol
# Density = 2.715799 g / cm^3
# Si number density = 27.219943 Si / 1000 Ang^3
#
#
#
# Elastic Constant Matrix: (Units=GPa)
#
#
# Indices 1 2 3 4 5 6 
#
# 1 165.2977 65.0595 33.5454 0.0000 0.0000 0.0000
# 2 65.0595 186.0057 68.1812 0.0000 0.0000 0.0000
# 3 33.5454 68.1812 124.3656 0.0000 0.0000 0.0000
# 4 0.0000 0.0000 0.0000 53.6794 0.0000 0.0000
# 5 0.0000 0.0000 0.0000 0.0000 58.4377 0.0000
# 6 0.0000 0.0000 0.0000 0.0000 0.0000 38.9647
#
#
#
# Elastic Compliance Matrix: (Units=1/GPa)
#
#
# Indices 1 2 3 4 5 6 
#
# 1 0.007062 -0.002218 -0.000689 0.000000 0.000000 0.000000
# 2 -0.002218 0.007425 -0.003472 0.000000 0.000000 0.000000
# 3 -0.000689 -0.003472 0.010130 0.000000 0.000000 0.000000
# 4 0.000000 0.000000 0.000000 0.018629 0.000000 0.000000
# 5 0.000000 0.000000 0.000000 0.000000 0.017112 0.000000
# 6 0.000000 0.000000 0.000000 0.000000 0.000000 0.025664
#
#
# Mechanical properties :
#
#
# Convention : Reuss Voigt Hill
#
# Bulk Modulus (GPa) = 84.32266 89.91569 87.11918
# Shear Modulus (GPa) = 48.66939 50.80857 49.73898
#
# Velocity S-wave (km/s) = 4.23307 4.32510 4.27933
# Velocity P-wave (km/s) = 7.41197 7.61884 7.51612
#
# Compressibility (1/GPa) = 0.01185921
#
# Stress axis : x y z
#
# Youngs Moduli (GPa) = 141.59537 134.68744 98.71377
#
# Poissons Ratio (x) = 0.29868 0.06803
# Poissons Ratio (y) = 0.31400 0.34276
# Poissons Ratio (z) = 0.09759 0.46767
#
# Static dielectric constant tensor:
#      x y z
#    x 2.144840 0.000000 0.000000 
#    y 0.000000 2.254150 0.000000 
#    z 0.000000 0.000000 2.012750 
# 
# From -- ./inp_files/761.got.cif
#   From: 2010.05.17/outbox.cif.g08.bks.cpg/sg32_1_cif.got.tgz:761.got - 2010.06.03 17:12:27.
