data_PCOD9344289
_publ_section_title
;
Structure prediction by ZEFSAII (Michael W. Deem and Ramdas Pophale) SiO2 
 PCOD9344289
Probable space group: P B A 2
;
_chemical_formula_sum "Si O2"
_cell_formula_units_Z 16
_cell_length_a 10.141846
_cell_length_b 8.506820
_cell_length_c 7.619048
_cell_angle_alpha 90.000000
_cell_angle_beta 90.000000
_cell_angle_gamma 90.000000
_cell_volume 657.332287
_symmetry_space_group_name_H-M "P B A 2"
_symmetry_group_IT_number 32
_symmetry_cell_setting 'orthorhombic'
loop_
_space_group_symop_operation_xyz
x,y,z
-x,-y,z
1/2-x,1/2+y,z
1/2+x,1/2-y,z
loop_
_atom_site_type_symbol
_atom_site_label
_atom_site_fract_x
_atom_site_fract_y
_atom_site_fract_z
Si Si1 0.930340 0.255129 0.274620
Si Si2 0.857981 0.451862 0.755666
Si Si3 0.109861 0.884649 0.654052
Si Si4 0.818236 0.578987 0.146738
O O1 0.939697 0.188101 0.471141
O O2 0.859432 0.425497 0.259203
O O3 0.829593 0.136616 0.179459
O O4 0.075017 0.285567 0.194600
O O5 0.856518 0.265137 0.771579
O O6 0.741704 0.514491 0.634240
O O7 0.000000 0.500000 0.684819
O O8 0.840089 0.528351 0.946053
O O9 0.000000 0.000000 0.729773
#
# Coordination Sequence:
#
# PCOD9344289 Si02
#       4
#     4   4   4   4
#     4  11  26  48  76 110 150 197 253 309 379 446
#     4  12  26  50  75 111 154 200 251 312 381 449
#     4  12  29  49  77 114 152 201 252 318 381 452
#     4  11  26  50  75 110 154 200 250 313 374 457
#
# _framework density 24.340810999999999
#
# number of rings (size 3 to 8) (size 9 to 14) (size 15 to 20)
#    0.000    0.500    2.500    4.500   14.000    0.000 
#    0.000    1.250    0.000    0.000    0.000    0.000 
#    0.000    0.000    0.000    0.000    0.000    0.000 
#
# Total GULP energy -89695.132428 kJ/mol
# GULP energy per Si atom -5605.945777 kJ/mol
# Density = 2.428541 g / cm^3
# Si number density = 24.340811 Si / 1000 Ang^3
#
#
#
# Elastic Constant Matrix: (Units=GPa)
#
#
# Indices 1 2 3 4 5 6 
#
# 1 72.1268 46.6646 4.0158 0.0000 0.0000 0.0000
# 2 46.6646 124.1782 14.9887 0.0000 0.0000 0.0000
# 3 4.0158 14.9887 87.2004 0.0000 0.0000 0.0000
# 4 0.0000 0.0000 0.0000 44.0394 0.0000 0.0000
# 5 0.0000 0.0000 0.0000 0.0000 -67.8051 0.0000
# 6 0.0000 0.0000 0.0000 0.0000 0.0000 52.5808
#
#
#
# Elastic Compliance Matrix: (Units=1/GPa)
#
#
# Indices 1 2 3 4 5 6 
#
# 1 0.018328 -0.006929 0.000347 0.000000 0.000000 0.000000
# 2 -0.006929 0.010843 -0.001545 0.000000 0.000000 0.000000
# 3 0.000347 -0.001545 0.011717 0.000000 0.000000 0.000000
# 4 0.000000 0.000000 0.000000 0.022707 0.000000 0.000000
# 5 0.000000 0.000000 0.000000 0.000000 -0.014748 0.000000
# 6 0.000000 0.000000 0.000000 0.000000 0.000000 0.019018
#
#
# Mechanical properties :
#
#
# Convention : Reuss Voigt Hill
#
# Bulk Modulus (GPa) = 40.59297 46.09375 43.34336
# Shear Modulus (GPa) = 54.15224 20.28542 37.21883
#
# Velocity S-wave (km/s) = 4.72184 2.88998 3.91458
# Velocity P-wave (km/s) = 6.81475 5.48762 6.18687
#
# Compressibility (1/GPa) = 0.02463481
#
# Stress axis : x y z
#
# Youngs Moduli (GPa) = 54.56020 92.22194 85.34328
#
# Poissons Ratio (x) = 0.63905 -0.02962
# Poissons Ratio (y) = 0.37807 0.13183
# Poissons Ratio (z) = -0.01893 0.14246
#
# Static dielectric constant tensor:
#      x y z
#    x 1.890560 0.000000 0.000000 
#    y 0.000000 1.943690 0.000000 
#    z 0.000000 0.000000 1.951010 
# 
# From -- ./inp_files/2109.got.cif
#   From: 2010.05.17/outbox.cif.g08.bks.cpg/sg32_2_cif.got.tgz:2109.got - 2010.06.03 17:12:27.
