data_PCOD9344314
_publ_section_title
;
Structure prediction by ZEFSAII (Michael W. Deem and Ramdas Pophale) SiO2 
 PCOD9344314
Probable space group: P B A 2
;
_chemical_formula_sum "Si O2"
_cell_formula_units_Z 20
_cell_length_a 9.747823
_cell_length_b 8.635884
_cell_length_c 9.302844
_cell_angle_alpha 90.000000
_cell_angle_beta 90.000000
_cell_angle_gamma 90.000000
_cell_volume 783.123350
_symmetry_space_group_name_H-M "P B A 2"
_symmetry_group_IT_number 32
_symmetry_cell_setting 'orthorhombic'
loop_
_space_group_symop_operation_xyz
x,y,z
-x,-y,z
1/2-x,1/2+y,z
1/2+x,1/2-y,z
loop_
_atom_site_type_symbol
_atom_site_label
_atom_site_fract_x
_atom_site_fract_y
_atom_site_fract_z
Si Si1 0.500000 0.000000 0.576210
Si Si2 0.511199 0.829224 0.016973
Si Si3 0.500000 0.500000 0.313568
Si Si4 0.220756 0.188925 0.195803
Si Si5 0.438444 0.325454 0.726020
Si Si6 0.241777 0.861599 0.481492
O O1 0.501153 0.166697 0.656379
O O2 0.641753 0.005851 0.486306
O O3 0.625586 0.831800 0.142734
O O4 0.364421 0.792829 0.085449
O O5 0.500000 0.000000 0.952188
O O6 0.557163 0.710665 0.894815
O O7 0.375435 0.538987 0.205489
O O8 0.411812 0.394669 0.422162
O O9 0.202818 0.248166 0.359116
O O10 0.500000 0.500000 0.707219
O O11 0.290913 0.325163 0.647372
#
# Coordination Sequence:
#
# PCOD9344314 Si02
#       6
#     2   4   2   4   4   4
#     4  12  30  52  84 126 168 218 284 348 428 506
#     4  12  30  53  82 120 172 227 281 353 433 518
#     4  12  24  50  80 120 154 216 280 346 428 504
#     4  12  28  52  83 121 167 221 289 353 430 515
#     4  12  30  54  85 123 171 224 284 348 428 513
#     4  12  27  52  83 123 167 217 283 355 422 512
#
# _framework density 25.53876
#
# number of rings (size 3 to 8) (size 9 to 14) (size 15 to 20)
#    0.000    0.000    4.000    3.600   11.200    0.000 
#    0.000    0.000    0.000    0.000    0.000    0.000 
#    0.000    0.000    0.000    0.000    0.000    0.000 
#
# Total GULP energy -111582.272258 kJ/mol
# GULP energy per Si atom -5579.113613 kJ/mol
# Density = 2.548063 g / cm^3
# Si number density = 25.538760 Si / 1000 Ang^3
#
#
#
# Elastic Constant Matrix: (Units=GPa)
#
#
# Indices 1 2 3 4 5 6 
#
# 1 146.1237 23.7844 26.9937 0.0000 0.0000 0.0000
# 2 23.7844 118.6296 57.8342 0.0000 0.0000 0.0000
# 3 26.9937 57.8342 108.7368 0.0000 0.0000 0.0000
# 4 0.0000 0.0000 0.0000 49.0978 0.0000 0.0000
# 5 0.0000 0.0000 0.0000 0.0000 27.9368 0.0000
# 6 0.0000 0.0000 0.0000 0.0000 0.0000 31.0756
#
#
#
# Elastic Compliance Matrix: (Units=1/GPa)
#
#
# Indices 1 2 3 4 5 6 
#
# 1 0.007225 -0.000775 -0.001381 0.000000 0.000000 0.000000
# 2 -0.000775 0.011464 -0.005905 0.000000 0.000000 0.000000
# 3 -0.001381 -0.005905 0.012680 0.000000 0.000000 0.000000
# 4 0.000000 0.000000 0.000000 0.020367 0.000000 0.000000
# 5 0.000000 0.000000 0.000000 0.000000 0.035795 0.000000
# 6 0.000000 0.000000 0.000000 0.000000 0.000000 0.032180
#
#
# Mechanical properties :
#
#
# Convention : Reuss Voigt Hill
#
# Bulk Modulus (GPa) = 65.59037 65.63494 65.61266
# Shear Modulus (GPa) = 35.48229 39.28056 37.38142
#
# Velocity S-wave (km/s) = 3.73144 3.92609 3.83000
# Velocity P-wave (km/s) = 6.65607 6.80501 6.73095
#
# Compressibility (1/GPa) = 0.01524614
#
# Stress axis : x y z
#
# Youngs Moduli (GPa) = 138.41114 87.23174 78.86413
#
# Poissons Ratio (x) = 0.06762 0.10893
# Poissons Ratio (y) = 0.10729 0.46568
# Poissons Ratio (z) = 0.19119 0.51509
#
# Static dielectric constant tensor:
#      x y z
#    x 2.087460 0.000000 0.000000 
#    y 0.000000 2.366580 0.000000 
#    z 0.000000 0.000000 2.133220 
# 
# From -- ./inp_files/2696.got.cif
#   From: 2010.05.17/outbox.cif.g08.bks.cpg/sg32_2_cif.got.tgz:2696.got - 2010.06.03 17:12:27.
