data_PCOD9344383
_publ_section_title
;
Structure prediction by ZEFSAII (Michael W. Deem and Ramdas Pophale) SiO2 
 PCOD9344383
Probable space group: P N A 21
;
_chemical_formula_sum "Si O2"
_cell_formula_units_Z 28
_cell_length_a 13.751687
_cell_length_b 13.908210
_cell_length_c 6.980445
_cell_angle_alpha 90.000000
_cell_angle_beta 90.000000
_cell_angle_gamma 90.000000
_cell_volume 1335.089339
_symmetry_space_group_name_H-M "P N A 21"
_symmetry_group_IT_number 33
_symmetry_cell_setting 'orthorhombic'
loop_
_space_group_symop_operation_xyz
x,y,z
-x,-y,1/2+z
1/2-x,1/2+y,1/2+z
1/2+x,1/2-y,z
loop_
_atom_site_type_symbol
_atom_site_label
_atom_site_fract_x
_atom_site_fract_y
_atom_site_fract_z
Si Si1 0.163345 0.821206 0.217950
Si Si2 0.806967 0.727695 0.927368
Si Si3 0.114804 0.083994 0.938342
Si Si4 0.268115 0.567763 0.101162
Si Si5 0.468128 0.776933 0.247496
Si Si6 0.171236 0.366518 0.014950
Si Si7 0.433751 0.518997 0.833974
O O1 0.245836 0.816452 0.381970
O O2 0.104695 0.916635 0.265108
O O3 0.083251 0.736322 0.217292
O O4 0.223826 0.837995 0.024310
O O5 0.826691 0.691882 0.713885
O O6 0.758954 0.831602 0.986346
O O7 0.906714 0.718918 0.050318
O O8 0.068978 0.180552 0.852934
O O9 0.045957 0.993260 0.883319
O O10 0.217920 0.077120 0.830348
O O11 0.101742 0.089827 0.167074
O O12 0.376047 0.540417 0.026392
O O13 0.200051 0.478248 0.048021
O O14 0.428144 0.857986 0.392485
#
# Coordination Sequence:
#
# PCOD9344383 Si02
#       7
#     4   4   4   4   4   4   4
#     4   9  20  35  52  76 111 144 177 227 272 325
#     4  10  20  36  56  80 109 146 183 225 278 328
#     4  10  17  28  47  77 107 134 167 218 278 332
#     4  10  20  32  52  78 108 136 182 226 266 334
#     4   9  20  35  52  76 111 144 177 227 272 325
#     4  10  20  36  56  80 109 146 183 225 278 328
#     4  10  17  28  47  77 107 134 167 218 278 332
#
# _framework density 20.972380999999999
#
# number of rings (size 3 to 8) (size 9 to 14) (size 15 to 20)
#    0.000    2.286    1.429    1.714    0.000    1.143 
#    0.000    0.000    6.286    0.000    0.000    0.000 
#    0.000    0.000    0.000    0.000    0.000    0.000 
#
# Total GULP energy -155887.498661 kJ/mol
# GULP energy per Si atom -5567.410666 kJ/mol
# Density = 2.092465 g / cm^3
# Si number density = 20.972381 Si / 1000 Ang^3
#
#
#
# Elastic Constant Matrix: (Units=GPa)
#
#
# Indices 1 2 3 4 5 6 
#
# 1 33.5126 -22.1387 9.7711 0.0000 0.0000 0.0000
# 2 -22.1387 39.6722 -4.1584 0.0000 0.0000 0.0000
# 3 9.7711 -4.1584 97.3980 0.0000 0.0000 0.0000
# 4 0.0000 0.0000 0.0000 25.0941 0.0000 0.0000
# 5 0.0000 0.0000 0.0000 0.0000 18.5213 0.0000
# 6 0.0000 0.0000 0.0000 0.0000 0.0000 18.1099
#
#
#
# Elastic Compliance Matrix: (Units=1/GPa)
#
#
# Indices 1 2 3 4 5 6 
#
# 1 0.048577 0.026717 -0.003733 0.000000 0.000000 0.000000
# 2 0.026717 0.040014 -0.000972 0.000000 0.000000 0.000000
# 3 -0.003733 -0.000972 0.010600 0.000000 0.000000 0.000000
# 4 0.000000 0.000000 0.000000 0.039850 0.000000 0.000000
# 5 0.000000 0.000000 0.000000 0.000000 0.053992 0.000000
# 6 0.000000 0.000000 0.000000 0.000000 0.000000 0.055218
#
#
# Mechanical properties :
#
#
# Convention : Reuss Voigt Hill
#
# Bulk Modulus (GPa) = 6.98249 15.28119 11.13184
# Shear Modulus (GPa) = 19.84401 24.81897 22.33149
#
# Velocity S-wave (km/s) = 3.07937 3.44381 3.26667
# Velocity P-wave (km/s) = 3.99749 4.80783 4.42127
#
# Compressibility (1/GPa) = 0.14321529
#
# Stress axis : x y z
#
# Youngs Moduli (GPa) = 20.58586 24.99144 94.33854
#
# Poissons Ratio (x) = -0.66769 0.35213
# Poissons Ratio (y) = -0.54999 0.09168
# Poissons Ratio (z) = 0.07684 0.02429
#
# Static dielectric constant tensor:
#      x y z
#    x 1.767440 0.000000 0.000000 
#    y 0.000000 1.829810 0.000000 
#    z 0.000000 0.000000 1.813060 
# 
# From -- ./inp_files/1394.got.cif
#   From: 2010.05.17/outbox.cif.g08.bks.cpg/sg33_1_cif.got.tgz:1394.got - 2010.06.03 17:15:25.
