data_PCOD9345186
_publ_section_title
;
Structure prediction by ZEFSAII (Michael W. Deem and Ramdas Pophale) SiO2 
 PCOD9345186
Probable space group: P N A 21
;
_chemical_formula_sum "Si O2"
_cell_formula_units_Z 28
_cell_length_a 5.478206
_cell_length_b 15.268740
_cell_length_c 12.767420
_cell_angle_alpha 90.000000
_cell_angle_beta 90.000000
_cell_angle_gamma 90.000000
_cell_volume 1067.934715
_symmetry_space_group_name_H-M "P N A 21"
_symmetry_group_IT_number 33
_symmetry_cell_setting 'orthorhombic'
loop_
_space_group_symop_operation_xyz
x,y,z
-x,-y,1/2+z
1/2-x,1/2+y,1/2+z
1/2+x,1/2-y,z
loop_
_atom_site_type_symbol
_atom_site_label
_atom_site_fract_x
_atom_site_fract_y
_atom_site_fract_z
Si Si1 0.213452 0.655467 0.956300
Si Si2 0.933576 0.058247 0.334866
Si Si3 0.690966 0.543605 0.176689
Si Si4 0.684520 0.843806 0.184495
Si Si5 0.085863 0.710288 0.416111
Si Si6 0.705631 0.727325 0.742906
Si Si7 0.398531 0.023822 0.972231
O O1 0.479819 0.615141 0.933747
O O2 0.174824 0.716402 0.853263
O O3 0.049839 0.566958 0.963912
O O4 0.186014 0.701445 0.068638
O O5 0.781097 0.124620 0.265059
O O6 0.163434 0.023070 0.272857
O O7 0.777884 0.978312 0.372627
O O8 0.440328 0.600887 0.179425
O O9 0.940177 0.597010 0.184826
O O10 0.731225 0.484819 0.074196
O O11 0.634231 0.788249 0.289120
O O12 0.367746 0.724772 0.449385
O O13 0.979923 0.617403 0.458804
O O14 0.949074 0.757604 0.688670
#
# Coordination Sequence:
#
# PCOD9345186 Si02
#       7
#     4   4   4   4   4   4   4
#     4  10  22  39  68 101 132 173 210 280 339 408
#     4  11  21  39  67  92 135 170 212 271 337 412
#     4  11  24  40  69 103 123 178 225 274 330 409
#     4  11  23  42  66  99 135 166 226 276 340 396
#     4  12  28  45  68  98 137 188 233 285 334 401
#     4  10  21  35  57  97 125 160 198 253 330 386
#     4  11  23  44  69  92 135 181 228 275 336 408
#
# _framework density 26.218833
#
# number of rings (size 3 to 8) (size 9 to 14) (size 15 to 20)
#    0.000    1.143    4.286    1.714    2.000    2.286 
#    0.000    2.857    0.000    0.000    0.000    0.000 
#    0.000    0.000    0.000    0.000    0.000    0.000 
#
# Total GULP energy -156358.039883 kJ/mol
# GULP energy per Si atom -5584.215710 kJ/mol
# Density = 2.615916 g / cm^3
# Si number density = 26.218833 Si / 1000 Ang^3
#
#
#
# Elastic Constant Matrix: (Units=GPa)
#
#
# Indices 1 2 3 4 5 6 
#
# 1 148.1679 21.9120 7.7472 0.0000 0.0000 0.0000
# 2 21.9120 62.2268 -0.2938 0.0000 0.0000 0.0000
# 3 7.7472 -0.2938 72.6661 0.0000 0.0000 0.0000
# 4 0.0000 0.0000 0.0000 24.2398 0.0000 0.0000
# 5 0.0000 0.0000 0.0000 0.0000 12.1582 0.0000
# 6 0.0000 0.0000 0.0000 0.0000 0.0000 47.3306
#
#
#
# Elastic Compliance Matrix: (Units=1/GPa)
#
#
# Indices 1 2 3 4 5 6 
#
# 1 0.007163 -0.002526 -0.000774 0.000000 0.000000 0.000000
# 2 -0.002526 0.016961 0.000338 0.000000 0.000000 0.000000
# 3 -0.000774 0.000338 0.013845 0.000000 0.000000 0.000000
# 4 0.000000 0.000000 0.000000 0.041254 0.000000 0.000000
# 5 0.000000 0.000000 0.000000 0.000000 0.082249 0.000000
# 6 0.000000 0.000000 0.000000 0.000000 0.000000 0.021128
#
#
# Mechanical properties :
#
#
# Convention : Reuss Voigt Hill
#
# Bulk Modulus (GPa) = 31.20531 37.97686 34.59108
# Shear Modulus (GPa) = 25.09947 33.65876 29.37912
#
# Velocity S-wave (km/s) = 3.09739 3.58685 3.35107
# Velocity P-wave (km/s) = 4.97187 5.62761 5.30987
#
# Compressibility (1/GPa) = 0.03204583
#
# Stress axis : x y z
#
# Youngs Moduli (GPa) = 139.60385 58.95762 72.22590
#
# Poissons Ratio (x) = 0.14893 0.05590
# Poissons Ratio (y) = 0.35264 -0.02440
# Poissons Ratio (z) = 0.10804 -0.01992
#
# Static dielectric constant tensor:
#      x y z
#    x 2.086540 0.000000 0.000000 
#    y 0.000000 2.062350 0.000000 
#    z 0.000000 0.000000 2.107060 
# 
# From -- ./inp_files/7407.got.cif
#   From: 2010.05.17/outbox.cif.g08.bks.cpg/sg33_4_cif.got.tgz:7407.got - 2010.06.03 17:15:25.
