data_PCOD9345696
_publ_section_title
;
Structure prediction by ZEFSAII (Michael W. Deem and Ramdas Pophale) SiO2 
 PCOD9345696
Probable space group: P N A 21
;
_chemical_formula_sum "Si O2"
_cell_formula_units_Z 32
_cell_length_a 19.713723
_cell_length_b 12.961176
_cell_length_c 4.887940
_cell_angle_alpha 90.000000
_cell_angle_beta 90.000000
_cell_angle_gamma 90.000000
_cell_volume 1248.932377
_symmetry_space_group_name_H-M "P N A 21"
_symmetry_group_IT_number 33
_symmetry_cell_setting 'orthorhombic'
loop_
_space_group_symop_operation_xyz
x,y,z
-x,-y,1/2+z
1/2-x,1/2+y,1/2+z
1/2+x,1/2-y,z
loop_
_atom_site_type_symbol
_atom_site_label
_atom_site_fract_x
_atom_site_fract_y
_atom_site_fract_z
Si Si1 0.418568 0.312951 0.528750
Si Si2 0.766346 0.807945 0.327073
Si Si3 0.169681 0.287083 0.335953
Si Si4 0.588901 0.051195 0.662738
Si Si5 0.139502 0.630524 0.670895
Si Si6 0.561879 0.394053 0.334967
Si Si7 0.481867 0.138390 0.830292
Si Si8 0.124631 0.014863 0.833106
O O1 0.388283 0.220945 0.350761
O O2 0.486600 0.362721 0.407893
O O3 0.447021 0.249250 0.790963
O O4 0.366278 0.406481 0.487795
O O5 0.769292 0.758847 0.028567
O O6 0.693957 0.834203 0.455721
O O7 0.808878 0.914461 0.329808
O O8 0.802331 0.728300 0.532980
O O9 0.140212 0.390764 0.458676
O O10 0.110090 0.203171 0.386134
O O11 0.644268 0.975214 0.832912
O O12 0.506406 0.081208 0.555473
O O13 0.559787 0.129107 0.915097
O O14 0.074415 0.576858 0.506049
O O15 0.570638 0.425100 0.022400
O O16 0.592219 0.484116 0.530657
#
# Coordination Sequence:
#
# PCOD9345696 Si02
#       8
#     4   4   4   4   4   4   4   4
#     4  12  23  40  68  98 138 174 218 292 350 399
#     4  10  24  47  63 101 133 183 236 283 318 432
#     4  10  22  43  73  91 136 182 230 272 347 401
#     4  10  22  43  67 100 134 184 222 288 352 412
#     4  10  27  41  64  96 137 174 233 281 340 404
#     4  10  22  40  65 104 128 171 222 280 336 417
#     4  10  24  41  64 101 138 166 234 279 350 414
#     4  10  24  41  70  93 138 176 227 273 347 399
#
# _framework density 25.621886
#
# number of rings (size 3 to 8) (size 9 to 14) (size 15 to 20)
#    0.750    1.000    1.250    1.500    5.250    4.000 
#    0.000    0.000    0.000    0.000    0.000    0.000 
#    0.000    0.000    0.000    0.000    0.000    0.000 
#
# Total GULP energy -178192.482155 kJ/mol
# GULP energy per Si atom -5568.515067 kJ/mol
# Density = 2.556357 g / cm^3
# Si number density = 25.621886 Si / 1000 Ang^3
#
#
#
# Elastic Constant Matrix: (Units=GPa)
#
#
# Indices 1 2 3 4 5 6 
#
# 1 80.8009 9.0494 0.3556 0.0000 0.0000 0.0000
# 2 9.0494 123.9432 6.6234 0.0000 0.0000 0.0000
# 3 0.3556 6.6234 60.0272 0.0000 0.0000 0.0000
# 4 0.0000 0.0000 0.0000 22.9770 0.0000 0.0000
# 5 0.0000 0.0000 0.0000 0.0000 25.8529 0.0000
# 6 0.0000 0.0000 0.0000 0.0000 0.0000 18.6483
#
#
#
# Elastic Compliance Matrix: (Units=1/GPa)
#
#
# Indices 1 2 3 4 5 6 
#
# 1 0.012478 -0.000912 0.000027 0.000000 0.000000 0.000000
# 2 -0.000912 0.008183 -0.000897 0.000000 0.000000 0.000000
# 3 0.000027 -0.000897 0.016758 0.000000 0.000000 0.000000
# 4 0.000000 0.000000 0.000000 0.043522 0.000000 0.000000
# 5 0.000000 0.000000 0.000000 0.000000 0.038680 0.000000
# 6 0.000000 0.000000 0.000000 0.000000 0.000000 0.053624
#
#
# Mechanical properties :
#
#
# Convention : Reuss Voigt Hill
#
# Bulk Modulus (GPa) = 29.53990 32.98091 31.26041
# Shear Modulus (GPa) = 26.58220 30.07850 28.33035
#
# Velocity S-wave (km/s) = 3.22449 3.42999 3.32883
# Velocity P-wave (km/s) = 5.04156 5.34664 5.19634
#
# Compressibility (1/GPa) = 0.03385252
#
# Stress axis : x y z
#
# Youngs Moduli (GPa) = 80.13988 122.20764 59.67309
#
# Poissons Ratio (x) = 0.11151 -0.00160
# Poissons Ratio (y) = 0.07313 0.05356
# Poissons Ratio (z) = -0.00215 0.10968
#
# Static dielectric constant tensor:
#      x y z
#    x 2.006210 0.000000 0.000000 
#    y 0.000000 2.106490 0.000000 
#    z 0.000000 0.000000 2.035710 
# 
# From -- ./inp_files/2068.got.cif
#   From: 2010.05.17/outbox.cif.g08.bks.cpg/sg33_2_cif.got.tgz:2068.got - 2010.06.03 17:15:25.
