data_PCOD9345372
_publ_section_title
;
Structure prediction by ZEFSAII (Michael W. Deem and Ramdas Pophale) SiO2 
 PCOD9345372
Probable space group: P N A 21
;
_chemical_formula_sum "Si O2"
_cell_formula_units_Z 24
_cell_length_a 14.972973
_cell_length_b 11.231079
_cell_length_c 5.371372
_cell_angle_alpha 90.000000
_cell_angle_beta 90.000000
_cell_angle_gamma 90.000000
_cell_volume 903.264110
_symmetry_space_group_name_H-M "P N A 21"
_symmetry_group_IT_number 33
_symmetry_cell_setting 'orthorhombic'
loop_
_space_group_symop_operation_xyz
x,y,z
-x,-y,1/2+z
1/2-x,1/2+y,1/2+z
1/2+x,1/2-y,z
loop_
_atom_site_type_symbol
_atom_site_label
_atom_site_fract_x
_atom_site_fract_y
_atom_site_fract_z
Si Si1 0.508544 0.112387 0.529780
Si Si2 0.870200 0.230778 0.767948
Si Si3 0.783681 0.901307 0.075143
Si Si4 0.083959 0.200308 0.174687
Si Si5 0.862714 0.578751 0.381349
Si Si6 0.407980 0.410005 0.261756
O O1 0.458869 0.187793 0.744512
O O2 0.517518 0.204458 0.308007
O O3 0.610351 0.077678 0.591544
O O4 0.444513 0.002548 0.481932
O O5 0.786003 0.314434 0.709461
O O6 0.867379 0.170179 0.036179
O O7 0.882477 0.142159 0.532164
O O8 0.836383 0.836236 0.856370
O O9 0.724034 0.007435 0.956728
O O10 0.859801 0.962123 0.244007
O O11 0.128812 0.285297 0.967950
O O12 0.012896 0.090254 0.178686
#
# Coordination Sequence:
#
# PCOD9345372 Si02
#       6
#     4   4   4   4   4   4
#     4  10  21  39  72 100 135 194 240 303 363 457
#     4  10  24  47  73 107 148 197 256 310 374 461
#     4  11  27  44  73 113 146 196 254 327 375 446
#     4  11  24  45  70 104 151 196 250 307 386 459
#     4  11  21  44  70 103 138 193 252 302 370 450
#     4  11  25  49  72 107 156 204 248 309 394 457
#
# _framework density 26.570298999999999
#
# number of rings (size 3 to 8) (size 9 to 14) (size 15 to 20)
#    0.000    1.333    3.333    1.000    2.333    4.000 
#    3.000    0.000    0.000    0.000    0.000    0.000 
#    0.000    0.000    0.000    0.000    0.000    0.000 
#
# Total GULP energy -134294.381803 kJ/mol
# GULP energy per Si atom -5595.599242 kJ/mol
# Density = 2.650982 g / cm^3
# Si number density = 26.570299 Si / 1000 Ang^3
#
#
#
# Elastic Constant Matrix: (Units=GPa)
#
#
# Indices 1 2 3 4 5 6 
#
# 1 147.1307 50.0892 33.9124 0.0000 0.0000 0.0000
# 2 50.0892 122.1791 38.3876 0.0000 0.0000 0.0000
# 3 33.9124 38.3876 72.9405 0.0000 0.0000 0.0000
# 4 0.0000 0.0000 0.0000 37.4576 0.0000 0.0000
# 5 0.0000 0.0000 0.0000 0.0000 37.0843 0.0000
# 6 0.0000 0.0000 0.0000 0.0000 0.0000 46.4354
#
#
#
# Elastic Compliance Matrix: (Units=1/GPa)
#
#
# Indices 1 2 3 4 5 6 
#
# 1 0.008253 -0.002609 -0.002464 0.000000 0.000000 0.000000
# 2 -0.002609 0.010631 -0.004382 0.000000 0.000000 0.000000
# 3 -0.002464 -0.004382 0.017161 0.000000 0.000000 0.000000
# 4 0.000000 0.000000 0.000000 0.026697 0.000000 0.000000
# 5 0.000000 0.000000 0.000000 0.000000 0.026966 0.000000
# 6 0.000000 0.000000 0.000000 0.000000 0.000000 0.021535
#
#
# Mechanical properties :
#
#
# Convention : Reuss Voigt Hill
#
# Bulk Modulus (GPa) = 58.35834 65.22542 61.79188
# Shear Modulus (GPa) = 36.80124 38.85287 37.82705
#
# Velocity S-wave (km/s) = 3.72567 3.82811 3.77723
# Velocity P-wave (km/s) = 6.36544 6.64385 6.50614
#
# Compressibility (1/GPa) = 0.01713551
#
# Stress axis : x y z
#
# Youngs Moduli (GPa) = 121.16993 94.06292 58.27022
#
# Poissons Ratio (x) = 0.24544 0.14357
# Poissons Ratio (y) = 0.31617 0.25533
# Poissons Ratio (z) = 0.29854 0.41217
#
# Static dielectric constant tensor:
#      x y z
#    x 2.090220 0.000000 0.000000 
#    y 0.000000 2.168830 0.000000 
#    z 0.000000 0.000000 2.197330 
# 
# From -- ./inp_files/1339.got.cif
#   From: 2010.05.17/outbox.cif.g08.bks.cpg/sg33_1_cif.got.tgz:1339.got - 2010.06.03 17:15:25.
