data_PCOD9345265
_publ_section_title
;
Structure prediction by ZEFSAII (Michael W. Deem and Ramdas Pophale) SiO2 
 PCOD9345265
Probable space group: P N A 21
;
_chemical_formula_sum "Si O2"
_cell_formula_units_Z 24
_cell_length_a 8.962720
_cell_length_b 9.030330
_cell_length_c 13.411841
_cell_angle_alpha 90.000000
_cell_angle_beta 90.000000
_cell_angle_gamma 90.000000
_cell_volume 1085.505046
_symmetry_space_group_name_H-M "P N A 21"
_symmetry_group_IT_number 33
_symmetry_cell_setting 'orthorhombic'
loop_
_space_group_symop_operation_xyz
x,y,z
-x,-y,1/2+z
1/2-x,1/2+y,1/2+z
1/2+x,1/2-y,z
loop_
_atom_site_type_symbol
_atom_site_label
_atom_site_fract_x
_atom_site_fract_y
_atom_site_fract_z
Si Si1 0.428857 0.305686 0.272340
Si Si2 0.080790 0.363982 0.677301
Si Si3 0.412335 0.138760 0.067999
Si Si4 0.742286 0.398425 0.746890
Si Si5 0.679169 0.225529 0.949477
Si Si6 0.237453 0.050930 0.340270
O O1 0.463161 0.214689 0.171004
O O2 0.308455 0.432460 0.246179
O O3 0.352178 0.187754 0.346579
O O4 0.575543 0.384502 0.315299
O O5 0.075965 0.462992 0.578955
O O6 0.142589 0.198714 0.670557
O O7 0.198387 0.451685 0.748313
O O8 0.916235 0.372463 0.724840
O O9 0.509133 0.191963 0.974826
O O10 0.247651 0.192720 0.044198
O O11 0.700042 0.329864 0.854355
O O12 0.756511 0.066577 0.929705
#
# Coordination Sequence:
#
# PCOD9345265 Si02
#       6
#     4   4   4   4   4   4
#     4  11  21  39  64  87 119 164 204 244 303 379
#     4  10  21  38  60  88 121 162 205 243 302 381
#     4  11  22  39  61  89 120 154 201 261 309 355
#     4  11  21  39  64  89 122 166 206 247 304 381
#     4  11  22  39  61  89 121 156 203 261 310 354
#     4  10  21  38  60  88 119 162 205 242 302 378
#
# _framework density 22.109524
#
# number of rings (size 3 to 8) (size 9 to 14) (size 15 to 20)
#    0.000    1.333    0.000   10.000    0.000    0.000 
#    0.000    8.333    0.000    0.000    0.000    0.000 
#    0.000    0.000    0.000    0.000    0.000    0.000 
#
# Total GULP energy -134115.932665 kJ/mol
# GULP energy per Si atom -5588.163861 kJ/mol
# Density = 2.205920 g / cm^3
# Si number density = 22.109524 Si / 1000 Ang^3
#
#
#
# Elastic Constant Matrix: (Units=GPa)
#
#
# Indices 1 2 3 4 5 6 
#
# 1 60.7816 -0.6170 9.4153 0.0000 0.0000 0.0000
# 2 -0.6170 106.0864 19.3140 0.0000 0.0000 0.0000
# 3 9.4153 19.3140 30.2505 0.0000 0.0000 0.0000
# 4 0.0000 0.0000 0.0000 35.0915 0.0000 0.0000
# 5 0.0000 0.0000 0.0000 0.0000 22.1841 0.0000
# 6 0.0000 0.0000 0.0000 0.0000 0.0000 42.8721
#
#
#
# Elastic Compliance Matrix: (Units=1/GPa)
#
#
# Indices 1 2 3 4 5 6 
#
# 1 0.017427 0.001232 -0.006211 0.000000 0.000000 0.000000
# 2 0.001232 0.010753 -0.007249 0.000000 0.000000 0.000000
# 3 -0.006211 -0.007249 0.039619 0.000000 0.000000 0.000000
# 4 0.000000 0.000000 0.000000 0.028497 0.000000 0.000000
# 5 0.000000 0.000000 0.000000 0.000000 0.045077 0.000000
# 6 0.000000 0.000000 0.000000 0.000000 0.000000 0.023325
#
#
# Mechanical properties :
#
#
# Convention : Reuss Voigt Hill
#
# Bulk Modulus (GPa) = 23.07156 28.14924 25.61040
# Shear Modulus (GPa) = 24.55780 31.29662 27.92721
#
# Velocity S-wave (km/s) = 3.33638 3.76643 3.55791
# Velocity P-wave (km/s) = 5.02988 5.62797 5.33731
#
# Compressibility (1/GPa) = 0.04334341
#
# Stress axis : x y z
#
# Youngs Moduli (GPa) = 57.38253 92.99565 25.24064
#
# Poissons Ratio (x) = -0.11458 0.15676
# Poissons Ratio (y) = -0.07070 0.18297
# Poissons Ratio (z) = 0.35639 0.67413
#
# Static dielectric constant tensor:
#      x y z
#    x 1.786510 0.000000 0.000000 
#    y 0.000000 1.828390 0.000000 
#    z 0.000000 0.000000 1.855130 
# 
# From -- ./inp_files/5747.got.cif
#   From: 2010.05.17/outbox.cif.g08.bks.cpg/sg33_3_cif.got.tgz:5747.got - 2010.06.03 17:15:25.
