data_PCOD9345088
_publ_section_title
;
Structure prediction by ZEFSAII (Michael W. Deem and Ramdas Pophale) SiO2 
 PCOD9345088
Probable space group: P N A 21
;
_chemical_formula_sum "Si O2"
_cell_formula_units_Z 24
_cell_length_a 12.755935
_cell_length_b 10.055189
_cell_length_c 9.503586
_cell_angle_alpha 90.000000
_cell_angle_beta 90.000000
_cell_angle_gamma 90.000000
_cell_volume 1218.961657
_symmetry_space_group_name_H-M "P N A 21"
_symmetry_group_IT_number 33
_symmetry_cell_setting 'orthorhombic'
loop_
_space_group_symop_operation_xyz
x,y,z
-x,-y,1/2+z
1/2-x,1/2+y,1/2+z
1/2+x,1/2-y,z
loop_
_atom_site_type_symbol
_atom_site_label
_atom_site_fract_x
_atom_site_fract_y
_atom_site_fract_z
Si Si1 0.841915 0.859841 0.405520
Si Si2 0.556122 0.640553 0.911546
Si Si3 0.732831 0.290184 0.482814
Si Si4 0.658483 0.950381 0.219348
Si Si5 0.052425 0.285779 0.655973
Si Si6 0.381964 0.734958 0.718883
O O1 0.723558 0.893038 0.353087
O O2 0.894688 0.752893 0.302234
O O3 0.852844 0.814760 0.565539
O O4 0.913832 0.989763 0.386112
O O5 0.663042 0.716341 0.939382
O O6 0.498151 0.705146 0.777406
O O7 0.493213 0.665536 0.058112
O O8 0.764857 0.404783 0.591899
O O9 0.652834 0.184300 0.555882
O O10 0.683354 0.341728 0.339019
O O11 0.544891 0.883637 0.186632
O O12 0.643392 0.108122 0.228416
#
# Coordination Sequence:
#
# PCOD9345088 Si02
#       6
#     4   4   4   4   4   4
#     4  11  22  40  63  97 129 166 220 264 325 395
#     4  10  20  41  63  86 131 169 209 268 330 379
#     4   9  20  42  61  89 132 170 206 271 329 376
#     4  10  22  44  63  95 132 166 226 264 322 400
#     4   9  21  39  62  90 129 174 204 270 323 382
#     4  11  23  40  66  95 125 177 215 271 329 386
#
# _framework density 19.688889
#
# number of rings (size 3 to 8) (size 9 to 14) (size 15 to 20)
#    0.000    2.000    1.667    1.000    0.000    5.333 
#   21.000    0.000    0.000    0.000    0.000    0.000 
#    0.000    0.000    0.000    0.000    0.000    0.000 
#
# Total GULP energy -133659.028228 kJ/mol
# GULP energy per Si atom -5569.126176 kJ/mol
# Density = 1.964408 g / cm^3
# Si number density = 19.688889 Si / 1000 Ang^3
#
#
#
# Elastic Constant Matrix: (Units=GPa)
#
#
# Indices 1 2 3 4 5 6 
#
# 1 122.3682 27.1623 61.8154 0.0000 0.0000 0.0000
# 2 27.1623 54.8431 29.1980 0.0000 0.0000 0.0000
# 3 61.8154 29.1980 162.3662 0.0000 0.0000 0.0000
# 4 0.0000 0.0000 0.0000 18.5417 0.0000 0.0000
# 5 0.0000 0.0000 0.0000 0.0000 9.4739 0.0000
# 6 0.0000 0.0000 0.0000 0.0000 0.0000 31.7017
#
#
#
# Elastic Compliance Matrix: (Units=1/GPa)
#
#
# Indices 1 2 3 4 5 6 
#
# 1 0.010679 -0.003455 -0.003444 0.000000 0.000000 0.000000
# 2 -0.003455 0.021282 -0.002512 0.000000 0.000000 0.000000
# 3 -0.003444 -0.002512 0.007922 0.000000 0.000000 0.000000
# 4 0.000000 0.000000 0.000000 0.053933 0.000000 0.000000
# 5 0.000000 0.000000 0.000000 0.000000 0.105554 0.000000
# 6 0.000000 0.000000 0.000000 0.000000 0.000000 0.031544
#
#
# Mechanical properties :
#
#
# Convention : Reuss Voigt Hill
#
# Bulk Modulus (GPa) = 47.48188 63.99210 55.73699
# Shear Modulus (GPa) = 19.47373 26.70357 23.08865
#
# Velocity S-wave (km/s) = 3.14836 3.68676 3.42815
# Velocity P-wave (km/s) = 6.11430 7.12005 6.63626
#
# Compressibility (1/GPa) = 0.02106067
#
# Stress axis : x y z
#
# Youngs Moduli (GPa) = 93.64225 46.98734 126.23257
#
# Poissons Ratio (x) = 0.16235 0.43478
# Poissons Ratio (y) = 0.32356 0.31706
# Poissons Ratio (z) = 0.32253 0.11802
#
# Static dielectric constant tensor:
#      x y z
#    x 1.794290 0.000000 0.000000 
#    y 0.000000 1.686000 0.000000 
#    z 0.000000 0.000000 1.715390 
# 
# From -- ./inp_files/3799.got.cif
#   From: 2010.05.17/outbox.cif.g08.bks.cpg/sg33_2_cif.got.tgz:3799.got - 2010.06.03 17:15:25.
