data_PCOD9345870
_publ_section_title
;
Structure prediction by ZEFSAII (Michael W. Deem and Ramdas Pophale) SiO2 
 PCOD9345870
Probable space group: P N A 21
;
_chemical_formula_sum "Si O2"
_cell_formula_units_Z 28
_cell_length_a 11.813266
_cell_length_b 16.914155
_cell_length_c 5.865963
_cell_angle_alpha 90.000000
_cell_angle_beta 90.000000
_cell_angle_gamma 90.000000
_cell_volume 1172.086351
_symmetry_space_group_name_H-M "P N A 21"
_symmetry_group_IT_number 33
_symmetry_cell_setting 'orthorhombic'
loop_
_space_group_symop_operation_xyz
x,y,z
-x,-y,1/2+z
1/2-x,1/2+y,1/2+z
1/2+x,1/2-y,z
loop_
_atom_site_type_symbol
_atom_site_label
_atom_site_fract_x
_atom_site_fract_y
_atom_site_fract_z
Si Si1 0.453951 0.972668 0.463560
Si Si2 0.605532 0.830606 0.470546
Si Si3 0.421122 0.659967 0.131604
Si Si4 0.379866 0.322701 0.272213
Si Si5 0.237467 0.064128 0.300026
Si Si6 0.889212 0.080983 0.874047
Si Si7 0.756343 0.226053 0.664251
O O1 0.492310 0.881622 0.456941
O O2 0.485627 0.997484 0.725137
O O3 0.330421 0.008268 0.421896
O O4 0.590199 0.750392 0.611272
O O5 0.699375 0.886237 0.601596
O O6 0.656584 0.796310 0.236127
O O7 0.482443 0.606767 0.318979
O O8 0.364887 0.739217 0.227157
O O9 0.523702 0.675350 0.960788
O O10 0.323549 0.619856 0.982268
O O11 0.265171 0.297556 0.400048
O O12 0.375597 0.406361 0.144423
O O13 0.140962 0.999401 0.246361
O O14 0.799415 0.147398 0.788022
#
# Coordination Sequence:
#
# PCOD9345870 Si02
#       7
#     4   4   4   4   4   4   4
#     4  10  23  44  68 107 139 183 237 298 363 435
#     4  10  22  43  74  96 139 180 241 292 365 434
#     4  11  24  41  69  96 134 184 233 288 356 433
#     4  10  23  44  65  98 132 182 238 287 350 438
#     4  11  24  44  68 104 142 188 230 300 374 429
#     4  10  26  43  64 104 138 179 235 287 364 435
#     4  10  22  45  68  95 132 184 238 292 358 428
#
# _framework density 23.889026999999999
#
# number of rings (size 3 to 8) (size 9 to 14) (size 15 to 20)
#    0.000    1.714    1.429    0.857    6.000    4.571 
#   18.000    0.000    0.000    0.000    0.000    0.000 
#    0.000    0.000    0.000    0.000    0.000    0.000 
#
# Total GULP energy -156133.320377 kJ/mol
# GULP energy per Si atom -5576.190013 kJ/mol
# Density = 2.383465 g / cm^3
# Si number density = 23.889027 Si / 1000 Ang^3
#
#
#
# Elastic Constant Matrix: (Units=GPa)
#
#
# Indices 1 2 3 4 5 6 
#
# 1 65.7177 15.4797 17.9790 0.0000 0.0000 0.0000
# 2 15.4797 99.3499 25.7465 0.0000 0.0000 0.0000
# 3 17.9790 25.7465 68.1324 0.0000 0.0000 0.0000
# 4 0.0000 0.0000 0.0000 27.6590 0.0000 0.0000
# 5 0.0000 0.0000 0.0000 0.0000 31.0678 0.0000
# 6 0.0000 0.0000 0.0000 0.0000 0.0000 35.8217
#
#
#
# Elastic Compliance Matrix: (Units=1/GPa)
#
#
# Indices 1 2 3 4 5 6 
#
# 1 0.016630 -0.001612 -0.003779 0.000000 0.000000 0.000000
# 2 -0.001612 0.011314 -0.003850 0.000000 0.000000 0.000000
# 3 -0.003779 -0.003850 0.017130 0.000000 0.000000 0.000000
# 4 0.000000 0.000000 0.000000 0.036155 0.000000 0.000000
# 5 0.000000 0.000000 0.000000 0.000000 0.032188 0.000000
# 6 0.000000 0.000000 0.000000 0.000000 0.000000 0.027916
#
#
# Mechanical properties :
#
#
# Convention : Reuss Voigt Hill
#
# Bulk Modulus (GPa) = 37.60614 39.06783 38.33698
# Shear Modulus (GPa) = 29.64210 30.50935 30.07573
#
# Velocity S-wave (km/s) = 3.52636 3.57757 3.55206
# Velocity P-wave (km/s) = 5.68827 5.78401 5.73634
#
# Compressibility (1/GPa) = 0.02659141
#
# Stress axis : x y z
#
# Youngs Moduli (GPa) = 60.13157 88.38335 58.37849
#
# Poissons Ratio (x) = 0.14245 0.22063
# Poissons Ratio (y) = 0.09692 0.22477
# Poissons Ratio (z) = 0.22726 0.34030
#
# Static dielectric constant tensor:
#      x y z
#    x 1.958580 0.000000 0.000000 
#    y 0.000000 1.935820 0.000000 
#    z 0.000000 0.000000 2.021630 
# 
# From -- ./inp_files/921.got.cif
#   From: 2010.05.17/outbox.cif.g08.bks.cpg/sg33_1_cif.got.tgz:921.got - 2010.06.03 17:15:25.
