data_PCOD9345262
_publ_section_title
;
Structure prediction by ZEFSAII (Michael W. Deem and Ramdas Pophale) SiO2 
 PCOD9345262
Probable space group: P N A 21
;
_chemical_formula_sum "Si O2"
_cell_formula_units_Z 28
_cell_length_a 14.174703
_cell_length_b 11.177982
_cell_length_c 8.465503
_cell_angle_alpha 90.000000
_cell_angle_beta 90.000000
_cell_angle_gamma 90.000000
_cell_volume 1341.313025
_symmetry_space_group_name_H-M "P N A 21"
_symmetry_group_IT_number 33
_symmetry_cell_setting 'orthorhombic'
loop_
_space_group_symop_operation_xyz
x,y,z
-x,-y,1/2+z
1/2-x,1/2+y,1/2+z
1/2+x,1/2-y,z
loop_
_atom_site_type_symbol
_atom_site_label
_atom_site_fract_x
_atom_site_fract_y
_atom_site_fract_z
Si Si1 0.957019 0.719124 0.629470
Si Si2 0.065100 0.533496 0.269810
Si Si3 0.275673 0.590907 0.167663
Si Si4 0.301766 0.726731 0.858894
Si Si5 0.806877 0.666410 0.363767
Si Si6 0.347073 0.345522 0.133908
Si Si7 0.105846 0.430101 0.581314
O O1 0.974505 0.599619 0.733584
O O2 0.883530 0.797799 0.732438
O O3 0.897473 0.677338 0.477680
O O4 0.051150 0.792271 0.601391
O O5 0.169452 0.548134 0.201807
O O6 0.079658 0.537054 0.459580
O O7 0.991510 0.611740 0.167371
O O8 0.296393 0.708100 0.270995
O O9 0.345267 0.480803 0.199527
O O10 0.282774 0.625346 0.984901
O O11 0.210147 0.767048 0.761942
O O12 0.341812 0.836452 0.966249
O O13 0.716996 0.652143 0.476257
O O14 0.825263 0.563071 0.233107
#
# Coordination Sequence:
#
# PCOD9345262 Si02
#       7
#     4   4   4   4   4   4   4
#     4  10  22  42  63  95 131 163 220 269 319 400
#     4  11  22  38  69  97 124 169 223 274 332 377
#     4  11  23  42  64  91 133 172 212 261 339 392
#     4   9  22  42  61  96 132 166 213 270 323 393
#     4  10  23  42  60  95 134 163 220 272 320 394
#     4  11  23  42  66  94 132 172 213 272 328 387
#     4  10  21  38  59  96 130 159 213 278 321 383
#
# _framework density 20.875067999999999
#
# number of rings (size 3 to 8) (size 9 to 14) (size 15 to 20)
#    0.000    1.714    4.286    0.857    8.000    1.143 
#    2.571    0.000    0.000    0.000    0.000    0.000 
#    0.000    0.000    0.000    0.000    0.000    0.000 
#
# Total GULP energy -156159.704915 kJ/mol
# GULP energy per Si atom -5577.132318 kJ/mol
# Density = 2.082756 g / cm^3
# Si number density = 20.875068 Si / 1000 Ang^3
#
#
#
# Elastic Constant Matrix: (Units=GPa)
#
#
# Indices 1 2 3 4 5 6 
#
# 1 67.4321 -0.0156 56.6576 0.0000 0.0000 0.0000
# 2 -0.0156 48.3765 7.4307 0.0000 0.0000 0.0000
# 3 56.6576 7.4307 112.3851 0.0000 0.0000 0.0000
# 4 0.0000 0.0000 0.0000 32.1389 0.0000 0.0000
# 5 0.0000 0.0000 0.0000 0.0000 22.1881 0.0000
# 6 0.0000 0.0000 0.0000 0.0000 0.0000 19.3070
#
#
#
# Elastic Compliance Matrix: (Units=1/GPa)
#
#
# Indices 1 2 3 4 5 6 
#
# 1 0.025925 0.002037 -0.013204 0.000000 0.000000 0.000000
# 2 0.002037 0.021043 -0.002418 0.000000 0.000000 0.000000
# 3 -0.013204 -0.002418 0.015715 0.000000 0.000000 0.000000
# 4 0.000000 0.000000 0.000000 0.031115 0.000000 0.000000
# 5 0.000000 0.000000 0.000000 0.000000 0.045069 0.000000
# 6 0.000000 0.000000 0.000000 0.000000 0.000000 0.051795
#
#
# Mechanical properties :
#
#
# Convention : Reuss Voigt Hill
#
# Bulk Modulus (GPa) = 28.16024 39.59321 33.87673
# Shear Modulus (GPa) = 21.77038 25.66820 23.71929
#
# Velocity S-wave (km/s) = 3.23288 3.51038 3.37449
# Velocity P-wave (km/s) = 5.23971 5.95301 5.60771
#
# Compressibility (1/GPa) = 0.03551106
#
# Stress axis : x y z
#
# Youngs Moduli (GPa) = 38.57338 47.52111 63.63504
#
# Poissons Ratio (x) = -0.09678 0.84025
# Poissons Ratio (y) = -0.07856 0.15387
# Poissons Ratio (z) = 0.50933 0.11491
#
# Static dielectric constant tensor:
#      x y z
#    x 1.741080 0.000000 0.000000 
#    y 0.000000 1.788990 0.000000 
#    z 0.000000 0.000000 1.795960 
# 
# From -- ./inp_files/4342.got.cif
#   From: 2010.05.17/outbox.cif.g08.bks.cpg/sg33_3_cif.got.tgz:4342.got - 2010.06.03 17:15:25.
