data_PCOD9345501
_publ_section_title
;
Structure prediction by ZEFSAII (Michael W. Deem and Ramdas Pophale) SiO2 
 PCOD9345501
Probable space group: P N A 21
;
_chemical_formula_sum "Si O2"
_cell_formula_units_Z 32
_cell_length_a 20.162557
_cell_length_b 11.796270
_cell_length_c 5.599481
_cell_angle_alpha 90.000000
_cell_angle_beta 90.000000
_cell_angle_gamma 90.000000
_cell_volume 1331.797171
_symmetry_space_group_name_H-M "P N A 21"
_symmetry_group_IT_number 33
_symmetry_cell_setting 'orthorhombic'
loop_
_space_group_symop_operation_xyz
x,y,z
-x,-y,1/2+z
1/2-x,1/2+y,1/2+z
1/2+x,1/2-y,z
loop_
_atom_site_type_symbol
_atom_site_label
_atom_site_fract_x
_atom_site_fract_y
_atom_site_fract_z
Si Si1 0.672267 0.042017 0.770170
Si Si2 0.234154 0.242486 0.695601
Si Si3 0.869804 0.779824 0.798136
Si Si4 0.798902 0.959601 0.465417
Si Si5 0.063188 0.436478 0.391419
Si Si6 0.581270 0.881204 0.039700
Si Si7 0.625469 0.653659 0.147722
Si Si8 0.958804 0.984556 0.934424
O O1 0.701387 0.160909 0.868077
O O2 0.606143 0.078604 0.628223
O O3 0.733507 0.997064 0.609445
O O4 0.646017 0.936706 0.922032
O O5 0.194800 0.259811 0.448523
O O6 0.310831 0.271755 0.714865
O O7 0.223634 0.109651 0.738503
O O8 0.842276 0.865479 0.601890
O O9 0.909969 0.666673 0.727367
O O10 0.920550 0.863159 0.944769
O O11 0.846347 0.067117 0.450561
O O12 0.079814 0.561182 0.298639
O O13 0.985436 0.425462 0.417882
O O14 0.576438 0.746635 0.045143
O O15 0.595024 0.581306 0.363029
O O16 0.004537 0.989630 0.688190
#
# Coordination Sequence:
#
# PCOD9345501 Si02
#       8
#     4   4   4   4   4   4   4   4
#     4  10  22  40  64  94 130 167 228 274 348 423
#     4  10  21  43  68  98 135 178 231 302 365 434
#     4  10  23  41  67  98 134 183 238 296 370 431
#     4  10  21  42  66  95 130 173 226 293 361 423
#     4  11  23  39  61  92 127 180 221 283 350 417
#     4  12  22  41  60  93 135 176 227 288 343 434
#     4  10  24  43  67 105 134 185 244 298 372 442
#     4  11  26  49  73 107 151 198 251 310 371 454
#
# _framework density 24.027684000000001
#
# number of rings (size 3 to 8) (size 9 to 14) (size 15 to 20)
#    0.000    1.500    1.250    3.000    3.500    1.000 
#    9.000    6.250    0.000    0.000    0.000    0.000 
#    0.000    0.000    0.000    0.000    0.000    0.000 
#
# Total GULP energy -178581.179035 kJ/mol
# GULP energy per Si atom -5580.661845 kJ/mol
# Density = 2.397300 g / cm^3
# Si number density = 24.027684 Si / 1000 Ang^3
#
#
#
# Elastic Constant Matrix: (Units=GPa)
#
#
# Indices 1 2 3 4 5 6 
#
# 1 95.4411 15.1396 24.7741 0.0000 0.0000 0.0000
# 2 15.1396 125.2065 8.4426 0.0000 0.0000 0.0000
# 3 24.7741 8.4426 38.9764 0.0000 0.0000 0.0000
# 4 0.0000 0.0000 0.0000 31.0282 0.0000 0.0000
# 5 0.0000 0.0000 0.0000 0.0000 30.2562 0.0000
# 6 0.0000 0.0000 0.0000 0.0000 0.0000 47.3152
#
#
#
# Elastic Compliance Matrix: (Units=1/GPa)
#
#
# Indices 1 2 3 4 5 6 
#
# 1 0.012671 -0.001004 -0.007837 0.000000 0.000000 0.000000
# 2 -0.001004 0.008185 -0.001135 0.000000 0.000000 0.000000
# 3 -0.007837 -0.001135 0.030883 0.000000 0.000000 0.000000
# 4 0.000000 0.000000 0.000000 0.032229 0.000000 0.000000
# 5 0.000000 0.000000 0.000000 0.000000 0.033051 0.000000
# 6 0.000000 0.000000 0.000000 0.000000 0.000000 0.021135
#
#
# Mechanical properties :
#
#
# Convention : Reuss Voigt Hill
#
# Bulk Modulus (GPa) = 31.45755 39.59295 35.52525
# Shear Modulus (GPa) = 29.63835 35.80445 32.72140
#
# Velocity S-wave (km/s) = 3.51594 3.86441 3.69429
# Velocity P-wave (km/s) = 5.44087 6.03535 5.74580
#
# Compressibility (1/GPa) = 0.03178887
#
# Stress axis : x y z
#
# Youngs Moduli (GPa) = 78.92006 122.17925 32.37983
#
# Poissons Ratio (x) = 0.12263 0.25375
# Poissons Ratio (y) = 0.07921 0.03675
# Poissons Ratio (z) = 0.61846 0.13866
#
# Static dielectric constant tensor:
#      x y z
#    x 1.937360 0.000000 0.000000 
#    y 0.000000 2.014040 0.000000 
#    z 0.000000 0.000000 2.020390 
# 
# From -- ./inp_files/2058.got.cif
#   From: 2010.05.17/outbox.cif.g08.bks.cpg/sg33_2_cif.got.tgz:2058.got - 2010.06.03 17:15:25.
