data_PCOD9345350
_publ_section_title
;
Structure prediction by ZEFSAII (Michael W. Deem and Ramdas Pophale) SiO2 
 PCOD9345350
Probable space group: P N A 21
;
_chemical_formula_sum "Si O2"
_cell_formula_units_Z 32
_cell_length_a 17.627380
_cell_length_b 10.204695
_cell_length_c 9.129367
_cell_angle_alpha 90.000000
_cell_angle_beta 90.000000
_cell_angle_gamma 90.000000
_cell_volume 1642.209128
_symmetry_space_group_name_H-M "P N A 21"
_symmetry_group_IT_number 33
_symmetry_cell_setting 'orthorhombic'
loop_
_space_group_symop_operation_xyz
x,y,z
-x,-y,1/2+z
1/2-x,1/2+y,1/2+z
1/2+x,1/2-y,z
loop_
_atom_site_type_symbol
_atom_site_label
_atom_site_fract_x
_atom_site_fract_y
_atom_site_fract_z
Si Si1 0.720382 0.555627 0.917550
Si Si2 0.450284 0.376878 0.351698
Si Si3 0.804383 0.754608 0.729183
Si Si4 0.518601 0.622983 0.187753
Si Si5 0.807400 0.044866 0.749371
Si Si6 0.967605 0.647861 0.678016
Si Si7 0.217353 0.709948 0.435453
Si Si8 0.954901 0.381758 0.866363
O O1 0.639385 0.618294 0.881453
O O2 0.783238 0.640712 0.839152
O O3 0.732003 0.554158 0.091621
O O4 0.727796 0.403686 0.873675
O O5 0.469722 0.510039 0.264675
O O6 0.490424 0.373774 0.511831
O O7 0.477199 0.252206 0.258149
O O8 0.886777 0.721961 0.663823
O O9 0.741670 0.764307 0.601944
O O10 0.804557 0.896550 0.804503
O O11 0.605131 0.578940 0.218677
O O12 0.511719 0.764336 0.264950
O O13 0.774135 0.152718 0.854970
O O14 0.999265 0.611896 0.518296
O O15 0.958391 0.517456 0.776644
O O16 0.131754 0.658132 0.409042
#
# Coordination Sequence:
#
# PCOD9345350 Si02
#       8
#     4   4   4   4   4   4   4   4
#     4  10  22  41  63  90 129 162 210 262 318 382
#     4  11  22  41  65  95 128 171 215 261 323 385
#     4  11  22  42  63  95 126 170 209 265 321 381
#     4  10  21  39  66  94 124 163 212 263 314 383
#     4   9  21  41  63  88 123 162 208 261 312 380
#     4  12  24  44  64  94 134 171 219 271 321 392
#     4  10  22  43  64  93 127 165 214 266 324 381
#     4  11  24  43  66  93 131 170 215 271 327 384
#
# _framework density 19.485946999999999
#
# number of rings (size 3 to 8) (size 9 to 14) (size 15 to 20)
#    0.000    1.500    2.500    2.250    3.500    2.000 
#   11.250    0.000    0.000    0.000    0.000    0.000 
#    0.000    0.000    0.000    0.000    0.000    0.000 
#
# Total GULP energy -178671.956811 kJ/mol
# GULP energy per Si atom -5583.498650 kJ/mol
# Density = 1.944160 g / cm^3
# Si number density = 19.485947 Si / 1000 Ang^3
#
#
#
# Elastic Constant Matrix: (Units=GPa)
#
#
# Indices 1 2 3 4 5 6 
#
# 1 38.1449 13.0942 22.6157 0.0000 0.0000 0.0000
# 2 13.0942 142.8565 40.3535 0.0000 0.0000 0.0000
# 3 22.6157 40.3535 65.4580 0.0000 0.0000 0.0000
# 4 0.0000 0.0000 0.0000 34.1587 0.0000 0.0000
# 5 0.0000 0.0000 0.0000 0.0000 18.4717 0.0000
# 6 0.0000 0.0000 0.0000 0.0000 0.0000 26.3584
#
#
#
# Elastic Compliance Matrix: (Units=1/GPa)
#
#
# Indices 1 2 3 4 5 6 
#
# 1 0.032976 0.000237 -0.011539 0.000000 0.000000 0.000000
# 2 0.000237 0.008478 -0.005308 0.000000 0.000000 0.000000
# 3 -0.011539 -0.005308 0.022536 0.000000 0.000000 0.000000
# 4 0.000000 0.000000 0.000000 0.029275 0.000000 0.000000
# 5 0.000000 0.000000 0.000000 0.000000 0.054137 0.000000
# 6 0.000000 0.000000 0.000000 0.000000 0.000000 0.037939
#
#
# Mechanical properties :
#
#
# Convention : Reuss Voigt Hill
#
# Bulk Modulus (GPa) = 32.50036 44.28737 38.39386
# Shear Modulus (GPa) = 21.85143 27.15750 24.50446
#
# Velocity S-wave (km/s) = 3.35236 3.73727 3.55004
# Velocity P-wave (km/s) = 5.63023 6.43430 6.04564
#
# Compressibility (1/GPa) = 0.03076889
#
# Stress axis : x y z
#
# Youngs Moduli (GPa) = 30.32504 117.95570 44.37299
#
# Poissons Ratio (x) = -0.02796 0.51203
# Poissons Ratio (y) = -0.00719 0.23554
# Poissons Ratio (z) = 0.34993 0.62614
#
# Static dielectric constant tensor:
#      x y z
#    x 1.696790 0.000000 0.000000 
#    y 0.000000 1.670110 0.000000 
#    z 0.000000 0.000000 1.667340 
# 
# From -- ./inp_files/5019.got.cif
#   From: 2010.05.17/outbox.cif.g08.bks.cpg/sg33_3_cif.got.tgz:5019.got - 2010.06.03 17:15:25.
