data_PCOD9345364
_publ_section_title
;
Structure prediction by ZEFSAII (Michael W. Deem and Ramdas Pophale) SiO2 
 PCOD9345364
Probable space group: P N A 21
;
_chemical_formula_sum "Si O2"
_cell_formula_units_Z 28
_cell_length_a 10.702988
_cell_length_b 17.850977
_cell_length_c 6.672449
_cell_angle_alpha 90.000000
_cell_angle_beta 90.000000
_cell_angle_gamma 90.000000
_cell_volume 1274.830050
_symmetry_space_group_name_H-M "P N A 21"
_symmetry_group_IT_number 33
_symmetry_cell_setting 'orthorhombic'
loop_
_space_group_symop_operation_xyz
x,y,z
-x,-y,1/2+z
1/2-x,1/2+y,1/2+z
1/2+x,1/2-y,z
loop_
_atom_site_type_symbol
_atom_site_label
_atom_site_fract_x
_atom_site_fract_y
_atom_site_fract_z
Si Si1 0.297238 0.849265 0.547480
Si Si2 0.927047 0.554155 0.882391
Si Si3 0.420389 0.707089 0.328713
Si Si4 0.320343 0.979778 0.271810
Si Si5 0.536645 0.671140 0.721814
Si Si6 0.186414 0.119782 0.478406
Si Si7 0.939671 0.300761 0.492125
O O1 0.387305 0.902603 0.680704
O O2 0.340628 0.770715 0.447792
O O3 0.183677 0.839988 0.704427
O O4 0.270489 0.901539 0.355183
O O5 0.034044 0.495558 0.824764
O O6 0.991186 0.620604 0.010903
O O7 0.821679 0.519343 0.028352
O O8 0.492764 0.662952 0.497347
O O9 0.344612 0.644594 0.204885
O O10 0.517697 0.750497 0.181234
O O11 0.247339 0.043841 0.395815
O O12 0.445742 0.624758 0.864186
O O13 0.512351 0.755027 0.801071
O O14 0.295241 0.182013 0.442751
#
# Coordination Sequence:
#
# PCOD9345364 Si02
#       7
#     4   4   4   4   4   4   4
#     4  12  24  41  72 104 134 184 234 292 360 430
#     4  11  22  42  70  99 133 169 237 293 352 413
#     4  11  22  41  69 102 132 176 232 289 357 417
#     4  11  24  44  69 100 133 182 236 297 354 420
#     4  11  24  41  63  99 138 178 224 279 358 427
#     4  10  25  44  63  98 140 184 231 286 359 427
#     4  10  21  39  68  96 132 169 226 292 340 420
#
# _framework density 21.963712000000001
#
# number of rings (size 3 to 8) (size 9 to 14) (size 15 to 20)
#    0.000    1.143    4.286    1.714    2.000    3.429 
#    5.143    0.000    0.000    0.000    0.000    0.000 
#    0.000    0.000    0.000    0.000    0.000    0.000 
#
# Total GULP energy -155905.538541 kJ/mol
# GULP energy per Si atom -5568.054948 kJ/mol
# Density = 2.191372 g / cm^3
# Si number density = 21.963712 Si / 1000 Ang^3
#
#
#
# Elastic Constant Matrix: (Units=GPa)
#
#
# Indices 1 2 3 4 5 6 
#
# 1 61.6154 18.6658 13.0967 0.0000 0.0000 0.0000
# 2 18.6658 45.5205 17.3746 0.0000 0.0000 0.0000
# 3 13.0967 17.3746 87.8965 0.0000 0.0000 0.0000
# 4 0.0000 0.0000 0.0000 313.2580 0.0000 0.0000
# 5 0.0000 0.0000 0.0000 0.0000 39.2129 0.0000
# 6 0.0000 0.0000 0.0000 0.0000 0.0000 39.1809
#
#
#
# Elastic Compliance Matrix: (Units=1/GPa)
#
#
# Indices 1 2 3 4 5 6 
#
# 1 0.018684 -0.007137 -0.001373 0.000000 0.000000 0.000000
# 2 -0.007137 0.026487 -0.004172 0.000000 0.000000 0.000000
# 3 -0.001373 -0.004172 0.012406 0.000000 0.000000 0.000000
# 4 0.000000 0.000000 0.000000 0.003192 0.000000 0.000000
# 5 0.000000 0.000000 0.000000 0.000000 0.025502 0.000000
# 6 0.000000 0.000000 0.000000 0.000000 0.000000 0.025523
#
#
# Mechanical properties :
#
#
# Convention : Reuss Voigt Hill
#
# Bulk Modulus (GPa) = 31.04420 32.58962 31.81691
# Shear Modulus (GPa) = 33.80740 88.05673 60.93206
#
# Velocity S-wave (km/s) = 3.92757 6.33869 5.27280
# Velocity P-wave (km/s) = 5.89345 8.27297 7.18244
#
# Compressibility (1/GPa) = 0.03221213
#
# Stress axis : x y z
#
# Youngs Moduli (GPa) = 53.52256 37.75397 80.60383
#
# Poissons Ratio (x) = 0.26946 0.11068
# Poissons Ratio (y) = 0.38200 0.33630
# Poissons Ratio (z) = 0.07349 0.15752
#
# Static dielectric constant tensor:
#      x y z
#    x 1.908890 0.000000 0.000000 
#    y 0.000000 1.504320 0.000000 
#    z 0.000000 0.000000 1.851970 
# 
# From -- ./inp_files/920.got.cif
#   From: 2010.05.17/outbox.cif.g08.bks.cpg/sg33_1_cif.got.tgz:920.got - 2010.06.03 17:15:25.
