data_PCOD9345767
_publ_section_title
;
Structure prediction by ZEFSAII (Michael W. Deem and Ramdas Pophale) SiO2 
 PCOD9345767
Probable space group: P N A 21
;
_chemical_formula_sum "Si O2"
_cell_formula_units_Z 32
_cell_length_a 8.690244
_cell_length_b 28.280163
_cell_length_c 6.280467
_cell_angle_alpha 90.000000
_cell_angle_beta 90.000000
_cell_angle_gamma 90.000000
_cell_volume 1543.497096
_symmetry_space_group_name_H-M "P N A 21"
_symmetry_group_IT_number 33
_symmetry_cell_setting 'orthorhombic'
loop_
_space_group_symop_operation_xyz
x,y,z
-x,-y,1/2+z
1/2-x,1/2+y,1/2+z
1/2+x,1/2-y,z
loop_
_atom_site_type_symbol
_atom_site_label
_atom_site_fract_x
_atom_site_fract_y
_atom_site_fract_z
Si Si1 0.139055 0.789717 0.480260
Si Si2 0.397487 0.759511 0.174404
Si Si3 0.152448 0.713273 0.861971
Si Si4 0.269346 0.977712 0.517698
Si Si5 0.828934 0.936619 0.258428
Si Si6 0.057392 0.895894 0.592864
Si Si7 0.378500 0.024865 0.138129
Si Si8 0.746197 0.388730 0.365140
O O1 0.296652 0.788262 0.344966
O O2 0.141379 0.751451 0.672125
O O3 0.104114 0.841639 0.566425
O O4 0.008390 0.773749 0.313227
O O5 0.283851 0.729576 0.026197
O O6 0.499504 0.788638 0.006218
O O7 0.198196 0.661632 0.781590
O O8 0.204366 0.929591 0.614918
O O9 0.444629 0.986017 0.594196
O O10 0.155287 0.019396 0.596582
O O11 0.289706 0.983018 0.262611
O O12 0.711452 0.957682 0.430782
O O13 0.975584 0.917459 0.382434
O O14 0.762834 0.893450 0.119342
O O15 0.924327 0.898644 0.771484
O O16 0.361212 0.070371 0.290537
#
# Coordination Sequence:
#
# PCOD9345767 Si02
#       8
#     4   4   4   4   4   4   4   4
#     4  11  23  43  63  99 136 174 225 275 329 401
#     4  10  23  39  66  94 130 182 216 267 339 386
#     4  11  22  42  68  93 139 172 223 275 331 395
#     4  11  23  40  64  90 126 169 217 267 327 389
#     4  10  23  42  63  88 129 162 218 268 330 390
#     4  11  25  39  66  95 129 169 220 269 329 395
#     4  10  22  42  62  91 126 170 210 269 330 384
#     4  10  23  41  64  96 123 172 215 270 329 392
#
# _framework density 20.732143000000001
#
# number of rings (size 3 to 8) (size 9 to 14) (size 15 to 20)
#    0.000    1.500    1.250    3.000    5.250    7.000 
#    0.000    0.000    0.000    0.000    0.000    0.000 
#    0.000    0.000    0.000    0.000    0.000    0.000 
#
# Total GULP energy -178622.278675 kJ/mol
# GULP energy per Si atom -5581.946209 kJ/mol
# Density = 2.068496 g / cm^3
# Si number density = 20.732143 Si / 1000 Ang^3
#
#
#
# Elastic Constant Matrix: (Units=GPa)
#
#
# Indices 1 2 3 4 5 6 
#
# 1 77.8998 26.1348 28.4874 0.0000 0.0000 0.0000
# 2 26.1348 79.9827 19.5100 0.0000 0.0000 0.0000
# 3 28.4874 19.5100 89.5252 0.0000 0.0000 0.0000
# 4 0.0000 0.0000 0.0000 25.0870 0.0000 0.0000
# 5 0.0000 0.0000 0.0000 0.0000 34.7149 0.0000
# 6 0.0000 0.0000 0.0000 0.0000 0.0000 23.4440
#
#
#
# Elastic Compliance Matrix: (Units=1/GPa)
#
#
# Indices 1 2 3 4 5 6 
#
# 1 0.015725 -0.004138 -0.004102 0.000000 0.000000 0.000000
# 2 -0.004138 0.014293 -0.001798 0.000000 0.000000 0.000000
# 3 -0.004102 -0.001798 0.012867 0.000000 0.000000 0.000000
# 4 0.000000 0.000000 0.000000 0.039861 0.000000 0.000000
# 5 0.000000 0.000000 0.000000 0.000000 0.028806 0.000000
# 6 0.000000 0.000000 0.000000 0.000000 0.000000 0.042655
#
#
# Mechanical properties :
#
#
# Convention : Reuss Voigt Hill
#
# Bulk Modulus (GPa) = 43.84107 43.96356 43.90232
# Shear Modulus (GPa) = 27.48950 28.20087 27.84519
#
# Velocity S-wave (km/s) = 3.64529 3.69216 3.66880
# Velocity P-wave (km/s) = 6.23778 6.27914 6.25849
#
# Compressibility (1/GPa) = 0.02280966
#
# Stress axis : x y z
#
# Youngs Moduli (GPa) = 63.59178 69.96247 77.71658
#
# Poissons Ratio (x) = 0.28948 0.31881
# Poissons Ratio (y) = 0.26312 0.13976
# Poissons Ratio (z) = 0.26086 0.12581
#
# Static dielectric constant tensor:
#      x y z
#    x 1.756140 0.000000 0.000000 
#    y 0.000000 1.730560 0.000000 
#    z 0.000000 0.000000 1.818890 
# 
# From -- ./inp_files/586.got.cif
#   From: 2010.05.17/outbox.cif.g08.bks.cpg/sg33_1_cif.got.tgz:586.got - 2010.06.03 17:15:25.
