data_PCOD9345493
_publ_section_title
;
Structure prediction by ZEFSAII (Michael W. Deem and Ramdas Pophale) SiO2 
 PCOD9345493
Probable space group: P N A 21
;
_chemical_formula_sum "Si O2"
_cell_formula_units_Z 24
_cell_length_a 21.255519
_cell_length_b 6.906618
_cell_length_c 7.177266
_cell_angle_alpha 90.000000
_cell_angle_beta 90.000000
_cell_angle_gamma 90.000000
_cell_volume 1053.649564
_symmetry_space_group_name_H-M "P N A 21"
_symmetry_group_IT_number 33
_symmetry_cell_setting 'orthorhombic'
loop_
_space_group_symop_operation_xyz
x,y,z
-x,-y,1/2+z
1/2-x,1/2+y,1/2+z
1/2+x,1/2-y,z
loop_
_atom_site_type_symbol
_atom_site_label
_atom_site_fract_x
_atom_site_fract_y
_atom_site_fract_z
Si Si1 0.664364 0.459456 0.324480
Si Si2 0.706600 0.492319 0.738648
Si Si3 0.721057 0.920207 0.588045
Si Si4 0.949277 0.221094 0.959335
Si Si5 0.567808 0.445772 0.764680
Si Si6 0.098420 0.371035 0.466967
O O1 0.698826 0.424566 0.524818
O O2 0.717910 0.516322 0.180955
O O3 0.610737 0.620934 0.356704
O O4 0.628628 0.253386 0.297566
O O5 0.715296 0.720850 0.701898
O O6 0.639357 0.445993 0.833572
O O7 0.759664 0.404762 0.870515
O O8 0.655299 0.031056 0.585242
O O9 0.013611 0.121037 0.898976
O O10 0.945808 0.448620 0.920733
O O11 0.941878 0.157390 0.174514
O O12 0.566004 0.290869 0.594768
#
# Coordination Sequence:
#
# PCOD9345493 Si02
#       6
#     4   4   4   4   4   4
#     4  10  24  40  66  97 130 172 217 265 333 393
#     4  10  24  40  65  95 132 170 214 275 325 401
#     4  12  21  42  66  96 135 167 214 276 339 387
#     4  10  22  44  64  87 135 165 217 270 318 387
#     4  10  24  42  64  94 125 170 219 263 326 391
#     4  10  21  42  63  93 127 168 215 271 317 397
#
# _framework density 22.777972999999999
#
# number of rings (size 3 to 8) (size 9 to 14) (size 15 to 20)
#    0.000    2.000    5.000    0.000    7.000    2.667 
#    0.000    0.000    0.000    0.000    0.000    0.000 
#    0.000    0.000    0.000    0.000    0.000    0.000 
#
# Total GULP energy -133910.962473 kJ/mol
# GULP energy per Si atom -5579.623436 kJ/mol
# Density = 2.272613 g / cm^3
# Si number density = 22.777973 Si / 1000 Ang^3
#
#
#
# Elastic Constant Matrix: (Units=GPa)
#
#
# Indices 1 2 3 4 5 6 
#
# 1 52.0954 -2.2614 24.9364 0.0000 0.0000 0.0000
# 2 -2.2614 101.5754 2.9159 0.0000 0.0000 0.0000
# 3 24.9364 2.9159 34.1891 0.0000 0.0000 0.0000
# 4 0.0000 0.0000 0.0000 13.2910 0.0000 0.0000
# 5 0.0000 0.0000 0.0000 0.0000 38.9278 0.0000
# 6 0.0000 0.0000 0.0000 0.0000 0.0000 16.9175
#
#
#
# Elastic Compliance Matrix: (Units=1/GPa)
#
#
# Indices 1 2 3 4 5 6 
#
# 1 0.029658 0.001284 -0.021741 0.000000 0.000000 0.000000
# 2 0.001284 0.009925 -0.001783 0.000000 0.000000 0.000000
# 3 -0.021741 -0.001783 0.045259 0.000000 0.000000 0.000000
# 4 0.000000 0.000000 0.000000 0.075239 0.000000 0.000000
# 5 0.000000 0.000000 0.000000 0.000000 0.025689 0.000000
# 6 0.000000 0.000000 0.000000 0.000000 0.000000 0.059111
#
#
# Mechanical properties :
#
#
# Convention : Reuss Voigt Hill
#
# Bulk Modulus (GPa) = 24.77627 26.56020 25.66824
# Shear Modulus (GPa) = 16.51182 24.64518 20.57850
#
# Velocity S-wave (km/s) = 2.69532 3.29291 3.00899
# Velocity P-wave (km/s) = 4.53732 5.11306 4.83377
#
# Compressibility (1/GPa) = 0.04036119
#
# Stress axis : x y z
#
# Youngs Moduli (GPa) = 33.71754 100.75888 22.09528
#
# Poissons Ratio (x) = -0.12941 0.48038
# Poissons Ratio (y) = -0.04331 0.03940
# Poissons Ratio (z) = 0.73306 0.17968
#
# Static dielectric constant tensor:
#      x y z
#    x 1.872770 0.000000 0.000000 
#    y 0.000000 1.930280 0.000000 
#    z 0.000000 0.000000 1.887720 
# 
# From -- ./inp_files/5125.got.cif
#   From: 2010.05.17/outbox.cif.g08.bks.cpg/sg33_3_cif.got.tgz:5125.got - 2010.06.03 17:15:25.
