data_PCOD9345182
_publ_section_title
;
Structure prediction by ZEFSAII (Michael W. Deem and Ramdas Pophale) SiO2 
 PCOD9345182
Probable space group: P N A 21
;
_chemical_formula_sum "Si O2"
_cell_formula_units_Z 32
_cell_length_a 17.472536
_cell_length_b 18.232297
_cell_length_c 5.113362
_cell_angle_alpha 90.000000
_cell_angle_beta 90.000000
_cell_angle_gamma 90.000000
_cell_volume 1628.935433
_symmetry_space_group_name_H-M "P N A 21"
_symmetry_group_IT_number 33
_symmetry_cell_setting 'orthorhombic'
loop_
_space_group_symop_operation_xyz
x,y,z
-x,-y,1/2+z
1/2-x,1/2+y,1/2+z
1/2+x,1/2-y,z
loop_
_atom_site_type_symbol
_atom_site_label
_atom_site_fract_x
_atom_site_fract_y
_atom_site_fract_z
Si Si1 0.391982 0.323877 0.011490
Si Si2 0.098531 0.723872 0.013664
Si Si3 0.222172 0.944944 0.352345
Si Si4 0.392301 0.970812 0.484512
Si Si5 0.014446 0.048290 0.014039
Si Si6 0.663980 0.896746 0.323913
Si Si7 0.317625 0.535840 0.365101
Si Si8 0.472509 0.105721 0.214930
O O1 0.382078 0.275166 0.269403
O O2 0.414982 0.274643 0.763354
O O3 0.315536 0.368786 0.938253
O O4 0.458159 0.383883 0.055990
O O5 0.162774 0.664139 0.097015
O O6 0.029417 0.669055 0.932289
O O7 0.314454 0.945695 0.346082
O O8 0.195322 0.004265 0.573040
O O9 0.191504 0.969085 0.069900
O O10 0.446116 0.905852 0.582421
O O11 0.362695 0.024133 0.715621
O O12 0.446370 0.026032 0.321554
O O13 0.098976 0.068497 0.913486
O O14 0.981172 0.996766 0.783737
O O15 0.748516 0.908850 0.430672
O O16 0.597488 0.874343 0.522944
#
# Coordination Sequence:
#
# PCOD9345182 Si02
#       8
#     4   4   4   4   4   4   4   4
#     4  12  23  42  63  87 128 173 210 255 311 389
#     4  11  25  41  61  86 129 184 207 234 319 399
#     4  11  22  38  63  93 127 150 209 261 322 363
#     4  10  21  34  65 101 118 159 203 280 309 350
#     4  12  22  40  66  97 123 155 215 277 320 351
#     4  10  21  39  64  89 129 159 210 255 314 378
#     4  11  21  39  63  98 119 153 203 275 319 352
#     4  11  19  39  63  93 129 161 211 255 316 378
#
# _framework density 19.644731
#
# number of rings (size 3 to 8) (size 9 to 14) (size 15 to 20)
#    0.000    1.000    6.250    1.500    0.000    0.000 
#    0.000    2.500    0.000    0.000    0.000    0.000 
#    0.000    0.000    0.000    0.000    0.000    0.000 
#
# Total GULP energy -178649.181231 kJ/mol
# GULP energy per Si atom -5582.786913 kJ/mol
# Density = 1.960002 g / cm^3
# Si number density = 19.644731 Si / 1000 Ang^3
#
#
#
# Elastic Constant Matrix: (Units=GPa)
#
#
# Indices 1 2 3 4 5 6 
#
# 1 90.3389 15.8807 -3.3043 0.0000 0.0000 0.0000
# 2 15.8807 81.8764 19.3260 0.0000 0.0000 0.0000
# 3 -3.3043 19.3260 76.3914 0.0000 0.0000 0.0000
# 4 0.0000 0.0000 0.0000 92.2114 0.0000 0.0000
# 5 0.0000 0.0000 0.0000 0.0000 20.9494 0.0000
# 6 0.0000 0.0000 0.0000 0.0000 0.0000 4.5999
#
#
#
# Elastic Compliance Matrix: (Units=1/GPa)
#
#
# Indices 1 2 3 4 5 6 
#
# 1 0.011552 -0.002508 0.001134 0.000000 0.000000 0.000000
# 2 -0.002508 0.013534 -0.003532 0.000000 0.000000 0.000000
# 3 0.001134 -0.003532 0.014033 0.000000 0.000000 0.000000
# 4 0.000000 0.000000 0.000000 0.010845 0.000000 0.000000
# 5 0.000000 0.000000 0.000000 0.000000 0.047734 0.000000
# 6 0.000000 0.000000 0.000000 0.000000 0.000000 0.217397
#
#
# Mechanical properties :
#
#
# Convention : Reuss Voigt Hill
#
# Bulk Modulus (GPa) = 34.12274 34.71238 34.41756
# Shear Modulus (GPa) = 14.93981 37.99907 26.46944
#
# Velocity S-wave (km/s) = 2.76071 4.40285 3.67469
# Velocity P-wave (km/s) = 5.25068 6.59964 5.96343
#
# Compressibility (1/GPa) = 0.02930597
#
# Stress axis : x y z
#
# Youngs Moduli (GPa) = 86.56618 73.88893 71.25968
#
# Poissons Ratio (x) = 0.18534 -0.08083
# Poissons Ratio (y) = 0.21714 0.25172
# Poissons Ratio (z) = -0.09819 0.26100
#
# Static dielectric constant tensor:
#      x y z
#    x 1.698050 0.000000 0.000000 
#    y 0.000000 1.671780 0.000000 
#    z 0.000000 0.000000 1.750580 
# 
# From -- ./inp_files/1892.got.cif
#   From: 2010.05.17/outbox.cif.g08.bks.cpg/sg33_1_cif.got.tgz:1892.got - 2010.06.03 17:15:25.
