data_PCOD9345700
_publ_section_title
;
Structure prediction by ZEFSAII (Michael W. Deem and Ramdas Pophale) SiO2 
 PCOD9345700
Probable space group: P N A 21
;
_chemical_formula_sum "Si O2"
_cell_formula_units_Z 24
_cell_length_a 23.479090
_cell_length_b 5.515315
_cell_length_c 8.083708
_cell_angle_alpha 90.000000
_cell_angle_beta 90.000000
_cell_angle_gamma 90.000000
_cell_volume 1046.796350
_symmetry_space_group_name_H-M "P N A 21"
_symmetry_group_IT_number 33
_symmetry_cell_setting 'orthorhombic'
loop_
_space_group_symop_operation_xyz
x,y,z
-x,-y,1/2+z
1/2-x,1/2+y,1/2+z
1/2+x,1/2-y,z
loop_
_atom_site_type_symbol
_atom_site_label
_atom_site_fract_x
_atom_site_fract_y
_atom_site_fract_z
Si Si1 0.624928 0.918224 0.056670
Si Si2 0.948435 0.027406 0.414782
Si Si3 0.480237 0.846130 0.685445
Si Si4 0.297814 0.001657 0.079892
Si Si5 0.590473 0.143886 0.701465
Si Si6 0.752166 0.491501 0.711755
O O1 0.689102 0.959082 0.109626
O O2 0.582589 0.044414 0.186978
O O3 0.599483 0.649322 0.030863
O O4 0.612857 0.028715 0.875043
O O5 0.978602 0.823279 0.523582
O O6 0.916026 0.923404 0.252690
O O7 0.997118 0.199710 0.342444
O O8 0.527341 0.052519 0.665114
O O9 0.281001 0.265392 0.153311
O O10 0.365353 0.955592 0.069179
O O11 0.278972 0.766391 0.186630
O O12 0.268000 0.979926 0.903068
#
# Coordination Sequence:
#
# PCOD9345700 Si02
#       6
#     4   4   4   4   4   4
#     4  10  23  42  67  99 139 185 238 294 353 427
#     4  10  22  40  68  96 142 184 228 296 356 430
#     4  10  22  40  66 100 140 178 232 282 360 426
#     4  12  28  49  75 107 144 191 245 300 363 432
#     4  10  23  42  67  99 139 185 238 294 353 427
#     4  12  28  49  75 107 144 191 245 300 363 432
#
# _framework density 22.927097
#
# number of rings (size 3 to 8) (size 9 to 14) (size 15 to 20)
#    0.000    1.333    0.000    4.000   11.667    6.667 
#    0.000    0.000    0.000    0.000    0.000    0.000 
#    0.000    0.000    0.000    0.000    0.000    0.000 
#
# Total GULP energy -134114.032333 kJ/mol
# GULP energy per Si atom -5588.084681 kJ/mol
# Density = 2.287491 g / cm^3
# Si number density = 22.927097 Si / 1000 Ang^3
#
#
#
# Elastic Constant Matrix: (Units=GPa)
#
#
# Indices 1 2 3 4 5 6 
#
# 1 78.8808 26.5452 -1.4701 0.0000 0.0000 0.0000
# 2 26.5452 111.9839 26.4562 0.0000 0.0000 0.0000
# 3 -1.4701 26.4562 84.4749 0.0000 0.0000 0.0000
# 4 0.0000 0.0000 0.0000 32.6838 0.0000 0.0000
# 5 0.0000 0.0000 0.0000 0.0000 35.9652 0.0000
# 6 0.0000 0.0000 0.0000 0.0000 0.0000 24.1967
#
#
#
# Elastic Compliance Matrix: (Units=1/GPa)
#
#
# Indices 1 2 3 4 5 6 
#
# 1 0.013923 -0.003626 0.001378 0.000000 0.000000 0.000000
# 2 -0.003626 0.010588 -0.003379 0.000000 0.000000 0.000000
# 3 0.001378 -0.003379 0.012920 0.000000 0.000000 0.000000
# 4 0.000000 0.000000 0.000000 0.030596 0.000000 0.000000
# 5 0.000000 0.000000 0.000000 0.000000 0.027805 0.000000
# 6 0.000000 0.000000 0.000000 0.000000 0.000000 0.041328
#
#
# Mechanical properties :
#
#
# Convention : Reuss Voigt Hill
#
# Bulk Modulus (GPa) = 38.20166 42.04468 40.12317
# Shear Modulus (GPa) = 31.81886 33.48970 32.65428
#
# Velocity S-wave (km/s) = 3.72940 3.82606 3.77804
# Velocity P-wave (km/s) = 5.93658 6.15602 6.04729
#
# Compressibility (1/GPa) = 0.02617687
#
# Stress axis : x y z
#
# Youngs Moduli (GPa) = 71.82230 94.44958 77.39900
#
# Poissons Ratio (x) = 0.34247 -0.10665
# Poissons Ratio (y) = 0.26043 0.26153
# Poissons Ratio (z) = -0.09896 0.31914
#
# Static dielectric constant tensor:
#      x y z
#    x 1.855450 0.000000 0.000000 
#    y 0.000000 1.940500 0.000000 
#    z 0.000000 0.000000 1.862280 
# 
# From -- ./inp_files/5110.got.cif
#   From: 2010.05.17/outbox.cif.g08.bks.cpg/sg33_3_cif.got.tgz:5110.got - 2010.06.03 17:15:25.
