data_PCOD9345689
_publ_section_title
;
Structure prediction by ZEFSAII (Michael W. Deem and Ramdas Pophale) SiO2 
 PCOD9345689
Probable space group: P N A 21
;
_chemical_formula_sum "Si O2"
_cell_formula_units_Z 28
_cell_length_a 12.298670
_cell_length_b 5.025574
_cell_length_c 19.294156
_cell_angle_alpha 90.000000
_cell_angle_beta 90.000000
_cell_angle_gamma 90.000000
_cell_volume 1192.530805
_symmetry_space_group_name_H-M "P N A 21"
_symmetry_group_IT_number 33
_symmetry_cell_setting 'orthorhombic'
loop_
_space_group_symop_operation_xyz
x,y,z
-x,-y,1/2+z
1/2-x,1/2+y,1/2+z
1/2+x,1/2-y,z
loop_
_atom_site_type_symbol
_atom_site_label
_atom_site_fract_x
_atom_site_fract_y
_atom_site_fract_z
Si Si1 0.500000 0.293871 0.263070
Si Si2 0.188033 0.576598 0.323342
Si Si3 0.600644 0.406378 0.131656
Si Si4 0.521214 0.121350 0.585393
Si Si5 0.521214 0.878647 0.440747
Si Si6 0.688033 0.076598 0.702798
Si Si7 0.399356 0.406375 0.394484
O O1 0.537241 0.480299 0.201799
O O2 0.462759 0.480296 0.324342
O O3 0.602561 0.114325 0.284561
O O4 0.397440 0.114325 0.241578
O O5 0.117019 0.698225 0.387092
O O6 0.250000 0.750000 0.263070
O O7 0.276507 0.414388 0.368717
O O8 0.554286 0.117579 0.114187
O O9 0.723493 0.414388 0.157423
O O10 0.560657 0.630661 0.078929
O O11 0.564581 0.999999 0.513070
O O12 0.617019 0.198225 0.639048
O O13 0.439343 0.630657 0.447211
O O14 0.445713 0.117575 0.411953
#
# Coordination Sequence:
#
# PCOD9345689 Si02
#       7
#     4   4   4   4   4   4   4
#     4  10  22  40  64 104 136 166 222 290 344 408
#     4  11  22  42  71 102 135 177 228 287 349 407
#     4  11  23  42  66  93 130 174 219 274 340 406
#     4  11  26  44  64  96 137 180 231 284 340 414
#     4  11  26  44  64  96 137 180 231 284 340 414
#     4  11  22  42  71 102 135 177 228 287 349 407
#     4  11  23  42  66  93 130 174 219 274 340 406
#
# _framework density 23.479478
#
# number of rings (size 3 to 8) (size 9 to 14) (size 15 to 20)
#    0.000    1.143    0.000    6.857    0.000   10.286 
#    0.000    0.000    0.000    0.000    0.000    0.000 
#    0.000    0.000    0.000    0.000    0.000    0.000 
#
# Total GULP energy -156182.754678 kJ/mol
# GULP energy per Si atom -5577.955524 kJ/mol
# Density = 2.342604 g / cm^3
# Si number density = 23.479478 Si / 1000 Ang^3
#
#
#
# Elastic Constant Matrix: (Units=GPa)
#
#
# Indices 1 2 3 4 5 6 
#
# 1 147.4537 35.0589 42.5567 0.0000 0.0000 0.0000
# 2 35.0589 54.3895 7.1747 0.0000 0.0000 0.0000
# 3 42.5567 7.1747 112.0896 0.0000 0.0000 0.0000
# 4 0.0000 0.0000 0.0000 30.5025 0.0000 0.0000
# 5 0.0000 0.0000 0.0000 0.0000 21.4372 0.0000
# 6 0.0000 0.0000 0.0000 0.0000 0.0000 20.9909
#
#
#
# Elastic Compliance Matrix: (Units=1/GPa)
#
#
# Indices 1 2 3 4 5 6 
#
# 1 0.008936 -0.005358 -0.003050 0.000000 0.000000 0.000000
# 2 -0.005358 0.021755 0.000642 0.000000 0.000000 0.000000
# 3 -0.003050 0.000642 0.010038 0.000000 0.000000 0.000000
# 4 0.000000 0.000000 0.000000 0.032784 0.000000 0.000000
# 5 0.000000 0.000000 0.000000 0.000000 0.046648 0.000000
# 6 0.000000 0.000000 0.000000 0.000000 0.000000 0.047640
#
#
# Mechanical properties :
#
#
# Convention : Reuss Voigt Hill
#
# Bulk Modulus (GPa) = 39.68671 53.72371 46.70521
# Shear Modulus (GPa) = 26.07819 29.86228 27.97023
#
# Velocity S-wave (km/s) = 3.33630 3.57016 3.45521
# Velocity P-wave (km/s) = 5.63743 6.31867 5.98775
#
# Compressibility (1/GPa) = 0.02519735
#
# Stress axis : x y z
#
# Youngs Moduli (GPa) = 111.90947 45.96704 99.61921
#
# Poissons Ratio (x) = 0.24627 0.30381
# Poissons Ratio (y) = 0.59957 -0.06392
# Poissons Ratio (z) = 0.34129 -0.02949
#
# Static dielectric constant tensor:
#      x y z
#    x 1.951600 0.000000 0.000000 
#    y 0.000000 1.890220 0.000000 
#    z 0.000000 0.000000 2.142620 
# 
# From -- ./inp_files/9057.got.cif
#   From: 2010.05.17/outbox.cif.g08.bks.cpg/sg33_5_cif.got.tgz:9057.got - 2010.06.03 17:15:25.
