data_PCOD9345763
_publ_section_title
;
Structure prediction by ZEFSAII (Michael W. Deem and Ramdas Pophale) SiO2 
 PCOD9345763
Probable space group: P N A 21
;
_chemical_formula_sum "Si O2"
_cell_formula_units_Z 32
_cell_length_a 11.005011
_cell_length_b 15.086064
_cell_length_c 8.432579
_cell_angle_alpha 90.000000
_cell_angle_beta 90.000000
_cell_angle_gamma 90.000000
_cell_volume 1399.996163
_symmetry_space_group_name_H-M "P N A 21"
_symmetry_group_IT_number 33
_symmetry_cell_setting 'orthorhombic'
loop_
_space_group_symop_operation_xyz
x,y,z
-x,-y,1/2+z
1/2-x,1/2+y,1/2+z
1/2+x,1/2-y,z
loop_
_atom_site_type_symbol
_atom_site_label
_atom_site_fract_x
_atom_site_fract_y
_atom_site_fract_z
Si Si1 0.438795 0.425242 0.787080
Si Si2 0.301181 0.852413 0.414118
Si Si3 0.047541 0.135763 0.237395
Si Si4 0.156743 0.494694 0.360119
Si Si5 0.814384 0.845453 0.438334
Si Si6 0.923127 0.219268 0.516183
Si Si7 0.286747 0.337732 0.240238
Si Si8 0.510824 0.094149 0.646048
O O1 0.317012 0.412778 0.889854
O O2 0.452609 0.529354 0.751589
O O3 0.563311 0.387032 0.861976
O O4 0.409522 0.361617 0.637960
O O5 0.284804 0.749545 0.363540
O O6 0.314760 0.840545 0.604253
O O7 0.405315 0.889891 0.301112
O O8 0.035212 0.186252 0.404231
O O9 0.919638 0.167948 0.159706
O O10 0.157204 0.161088 0.125056
O O11 0.203564 0.588416 0.421220
O O12 0.271459 0.434129 0.318625
O O13 0.083032 0.442185 0.494008
O O14 0.082500 0.519337 0.203037
O O15 0.808501 0.223971 0.394282
O O16 0.950572 0.312396 0.597666
#
# Coordination Sequence:
#
# PCOD9345763 Si02
#       8
#     4   4   4   4   4   4   4   4
#     4  12  20  45  71 104 144 187 253 305 369 435
#     4  12  26  42  74 104 150 195 239 310 375 451
#     4  10  22  41  71 105 137 187 244 313 353 442
#     4  12  27  48  73 107 151 198 246 311 379 462
#     4  12  24  43  71 107 140 192 249 305 373 439
#     4  10  23  43  71 104 145 191 249 305 365 450
#     4  10  23  43  70 104 143 191 245 304 365 436
#     4  12  27  49  73 107 156 201 249 307 393 465
#
# _framework density 22.857206000000001
#
# number of rings (size 3 to 8) (size 9 to 14) (size 15 to 20)
#    0.750    0.000    3.750    4.500    1.750    1.000 
#    0.000    1.250    0.000    0.000    0.000    0.000 
#    0.000    0.000    0.000    0.000    0.000    0.000 
#
# Total GULP energy -178482.438739 kJ/mol
# GULP energy per Si atom -5577.576211 kJ/mol
# Density = 2.280518 g / cm^3
# Si number density = 22.857206 Si / 1000 Ang^3
#
#
#
# Elastic Constant Matrix: (Units=GPa)
#
#
# Indices 1 2 3 4 5 6 
#
# 1 27.0640 16.7281 6.5277 0.0000 0.0000 0.0000
# 2 16.7281 92.0902 5.6646 0.0000 0.0000 0.0000
# 3 6.5277 5.6646 85.6146 0.0000 0.0000 0.0000
# 4 0.0000 0.0000 0.0000 29.9690 0.0000 0.0000
# 5 0.0000 0.0000 0.0000 0.0000 44.9965 0.0000
# 6 0.0000 0.0000 0.0000 0.0000 0.0000 25.7310
#
#
#
# Elastic Compliance Matrix: (Units=1/GPa)
#
#
# Indices 1 2 3 4 5 6 
#
# 1 0.042246 -0.007506 -0.002724 0.000000 0.000000 0.000000
# 2 -0.007506 0.012237 -0.000237 0.000000 0.000000 0.000000
# 3 -0.002724 -0.000237 0.011904 0.000000 0.000000 0.000000
# 4 0.000000 0.000000 0.000000 0.033368 0.000000 0.000000
# 5 0.000000 0.000000 0.000000 0.000000 0.022224 0.000000
# 6 0.000000 0.000000 0.000000 0.000000 0.000000 0.038864
#
#
# Mechanical properties :
#
#
# Convention : Reuss Voigt Hill
#
# Bulk Modulus (GPa) = 22.00185 29.17883 25.59034
# Shear Modulus (GPa) = 25.38985 31.86251 28.62618
#
# Velocity S-wave (km/s) = 3.33649 3.73766 3.54275
# Velocity P-wave (km/s) = 4.94869 5.60537 5.28724
#
# Compressibility (1/GPa) = 0.04545072
#
# Stress axis : x y z
#
# Youngs Moduli (GPa) = 23.67071 81.71909 84.00762
#
# Poissons Ratio (x) = 0.61342 0.22887
# Poissons Ratio (y) = 0.17768 0.01994
# Poissons Ratio (z) = 0.06449 0.01939
#
# Static dielectric constant tensor:
#      x y z
#    x 1.830280 0.000000 0.000000 
#    y 0.000000 1.800350 0.000000 
#    z 0.000000 0.000000 1.937620 
# 
# From -- ./inp_files/3937.got.cif
#   From: 2010.05.17/outbox.cif.g08.bks.cpg/sg33_2_cif.got.tgz:3937.got - 2010.06.03 17:15:25.
