data_PCOD9345451
_publ_section_title
;
Structure prediction by ZEFSAII (Michael W. Deem and Ramdas Pophale) SiO2 
 PCOD9345451
Probable space group: P N A 21
;
_chemical_formula_sum "Si O2"
_cell_formula_units_Z 24
_cell_length_a 9.569462
_cell_length_b 14.113471
_cell_length_c 8.788622
_cell_angle_alpha 90.000000
_cell_angle_beta 90.000000
_cell_angle_gamma 90.000000
_cell_volume 1186.976561
_symmetry_space_group_name_H-M "P N A 21"
_symmetry_group_IT_number 33
_symmetry_cell_setting 'orthorhombic'
loop_
_space_group_symop_operation_xyz
x,y,z
-x,-y,1/2+z
1/2-x,1/2+y,1/2+z
1/2+x,1/2-y,z
loop_
_atom_site_type_symbol
_atom_site_label
_atom_site_fract_x
_atom_site_fract_y
_atom_site_fract_z
Si Si1 0.089972 0.626920 0.742470
Si Si2 0.051107 0.835701 0.793920
Si Si3 0.201090 0.655984 0.412730
Si Si4 0.820397 0.971724 0.920426
Si Si5 0.475898 0.336590 0.923602
Si Si6 0.299984 0.968509 0.739874
O O1 0.072312 0.725600 0.832645
O O2 0.180641 0.649284 0.593718
O O3 0.176028 0.549440 0.835197
O O4 0.937161 0.590427 0.695257
O O5 0.025925 0.837364 0.609844
O O6 0.190170 0.897938 0.820006
O O7 0.924011 0.885219 0.881717
O O8 0.363723 0.668569 0.375798
O O9 0.109576 0.746020 0.366105
O O10 0.155364 0.556262 0.343378
O O11 0.901081 0.067070 0.870649
O O12 0.779812 0.987943 0.095131
#
# Coordination Sequence:
#
# PCOD9345451 Si02
#       6
#     4   4   4   4   4   4
#     4  11  23  40  69  91 122 168 213 253 309 386
#     4  10  21  41  65  89 123 168 212 251 308 380
#     4  11  23  42  64  90 124 167 213 253 309 382
#     4  11  22  42  63  93 127 161 204 268 318 359
#     4  10  23  39  66  89 122 167 211 252 309 380
#     4  11  24  40  61  98 128 157 211 265 313 365
#
# _framework density 20.219438
#
# number of rings (size 3 to 8) (size 9 to 14) (size 15 to 20)
#    0.000    1.333    3.333    2.000   14.000    0.000 
#    3.000    1.667    0.000    0.000    0.000    0.000 
#    0.000    0.000    0.000    0.000    0.000    0.000 
#
# Total GULP energy -134066.701131 kJ/mol
# GULP energy per Si atom -5586.112547 kJ/mol
# Density = 2.017342 g / cm^3
# Si number density = 20.219438 Si / 1000 Ang^3
#
#
#
# Elastic Constant Matrix: (Units=GPa)
#
#
# Indices 1 2 3 4 5 6 
#
# 1 120.7983 53.9659 15.0067 0.0000 0.0000 0.0000
# 2 53.9659 128.3251 22.7997 0.0000 0.0000 0.0000
# 3 15.0067 22.7997 14.9918 0.0000 0.0000 0.0000
# 4 0.0000 0.0000 0.0000 23.0765 0.0000 0.0000
# 5 0.0000 0.0000 0.0000 0.0000 25.4506 0.0000
# 6 0.0000 0.0000 0.0000 0.0000 0.0000 36.2592
#
#
#
# Elastic Compliance Matrix: (Units=1/GPa)
#
#
# Indices 1 2 3 4 5 6 
#
# 1 0.010480 -0.003485 -0.005190 0.000000 0.000000 0.000000
# 2 -0.003485 0.011837 -0.014513 0.000000 0.000000 0.000000
# 3 -0.005190 -0.014513 0.093970 0.000000 0.000000 0.000000
# 4 0.000000 0.000000 0.000000 0.043334 0.000000 0.000000
# 5 0.000000 0.000000 0.000000 0.000000 0.039292 0.000000
# 6 0.000000 0.000000 0.000000 0.000000 0.000000 0.027579
#
#
# Mechanical properties :
#
#
# Convention : Reuss Voigt Hill
#
# Bulk Modulus (GPa) = 14.30406 49.73998 32.02202
# Shear Modulus (GPa) = 16.88205 28.44679 22.66442
#
# Velocity S-wave (km/s) = 2.89267 3.75494 3.35165
# Velocity P-wave (km/s) = 4.27159 6.59188 5.55425
#
# Compressibility (1/GPa) = 0.06991022
#
# Stress axis : x y z
#
# Youngs Moduli (GPa) = 95.41991 84.48154 10.64166
#
# Poissons Ratio (x) = 0.29443 0.05523
# Poissons Ratio (y) = 0.33255 0.15444
# Poissons Ratio (z) = 0.49525 1.22609
#
# Static dielectric constant tensor:
#      x y z
#    x 1.701390 0.000000 0.000000 
#    y 0.000000 1.716110 0.000000 
#    z 0.000000 0.000000 1.711460 
# 
# From -- ./inp_files/3108.got.cif
#   From: 2010.05.17/outbox.cif.g08.bks.cpg/sg33_2_cif.got.tgz:3108.got - 2010.06.03 17:15:25.
