data_PCOD9345387
_publ_section_title
;
Structure prediction by ZEFSAII (Michael W. Deem and Ramdas Pophale) SiO2 
 PCOD9345387
Probable space group: P N A 21
;
_chemical_formula_sum "Si O2"
_cell_formula_units_Z 20
_cell_length_a 5.508173
_cell_length_b 27.268044
_cell_length_c 4.671141
_cell_angle_alpha 90.000000
_cell_angle_beta 90.000000
_cell_angle_gamma 90.000000
_cell_volume 701.591849
_symmetry_space_group_name_H-M "P N A 21"
_symmetry_group_IT_number 33
_symmetry_cell_setting 'orthorhombic'
loop_
_space_group_symop_operation_xyz
x,y,z
-x,-y,1/2+z
1/2-x,1/2+y,1/2+z
1/2+x,1/2-y,z
loop_
_atom_site_type_symbol
_atom_site_label
_atom_site_fract_x
_atom_site_fract_y
_atom_site_fract_z
Si Si1 0.343107 0.509997 0.693020
Si Si2 0.308394 0.812290 0.857619
Si Si3 0.317340 0.611728 0.417393
Si Si4 0.812158 0.791743 0.801260
Si Si5 0.825549 0.590815 0.080259
O O1 0.595280 0.500114 0.520691
O O2 0.711769 0.433613 0.139902
O O3 0.170505 0.467995 0.563268
O O4 0.570557 0.800863 0.985490
O O5 0.306005 0.762877 0.659287
O O6 0.048826 0.801423 0.995283
O O7 0.308592 0.870829 0.813179
O O8 0.321159 0.663868 0.576949
O O9 0.570699 0.601636 0.248337
O O10 0.073163 0.606206 0.233271
#
# Coordination Sequence:
#
# PCOD9345387 Si02
#       5
#     4   4   4   4   4
#     4  10  24  46  74 108 144 188 236 294 360 428
#     4  10  21  40  63  90 128 179 230 286 345 412
#     4  11  24  42  67 101 139 182 235 292 354 423
#     4  10  21  40  63  90 128 179 230 286 345 412
#     4  11  24  42  67 101 139 182 235 292 354 423
#
# _framework density 28.506599999999999
#
# number of rings (size 3 to 8) (size 9 to 14) (size 15 to 20)
#    0.000    1.600    0.000    3.600    0.000   11.200 
#    0.000   24.000    0.000    2.400    0.000    0.000 
#    0.000    0.000    0.000    0.000    0.000    0.000 
#
# Total GULP energy -111461.608011 kJ/mol
# GULP energy per Si atom -5573.080401 kJ/mol
# Density = 2.844172 g / cm^3
# Si number density = 28.506600 Si / 1000 Ang^3
#
#
#
# Elastic Constant Matrix: (Units=GPa)
#
#
# Indices 1 2 3 4 5 6 
#
# 1 229.9521 9.4960 37.9742 0.0000 0.0000 0.0000
# 2 9.4960 282.7105 63.6967 0.0000 0.0000 0.0000
# 3 37.9742 63.6967 80.6185 0.0000 0.0000 0.0000
# 4 0.0000 0.0000 0.0000 49.1222 0.0000 0.0000
# 5 0.0000 0.0000 0.0000 0.0000 13.0518 0.0000
# 6 0.0000 0.0000 0.0000 0.0000 0.0000 36.4612
#
#
#
# Elastic Compliance Matrix: (Units=1/GPa)
#
#
# Indices 1 2 3 4 5 6 
#
# 1 0.004756 0.000420 -0.002572 0.000000 0.000000 0.000000
# 2 0.000420 0.004340 -0.003627 0.000000 0.000000 0.000000
# 3 -0.002572 -0.003627 0.016481 0.000000 0.000000 0.000000
# 4 0.000000 0.000000 0.000000 0.020357 0.000000 0.000000
# 5 0.000000 0.000000 0.000000 0.000000 0.076618 0.000000
# 6 0.000000 0.000000 0.000000 0.000000 0.000000 0.027426
#
#
# Mechanical properties :
#
#
# Convention : Reuss Voigt Hill
#
# Bulk Modulus (GPa) = 71.33025 90.62390 80.97708
# Shear Modulus (GPa) = 30.08236 51.86801 40.97519
#
# Velocity S-wave (km/s) = 3.25203 4.27020 3.79541
# Velocity P-wave (km/s) = 6.25920 7.49482 6.90470
#
# Compressibility (1/GPa) = 0.01401930
#
# Stress axis : x y z
#
# Youngs Moduli (GPa) = 210.25517 230.40058 60.67513
#
# Poissons Ratio (x) = -0.09670 0.15605
# Poissons Ratio (y) = -0.08825 0.22007
# Poissons Ratio (z) = 0.54076 0.83565
#
# Static dielectric constant tensor:
#      x y z
#    x 2.326320 0.000000 0.000000 
#    y 0.000000 2.282080 0.000000 
#    z 0.000000 0.000000 2.167610 
# 
# From -- ./inp_files/184.got.cif
#   From: 2010.05.17/outbox.cif.g08.bks.cpg/sg33_1_cif.got.tgz:184.got - 2010.06.03 17:15:25.
