data_PCOD9345108
_publ_section_title
;
Structure prediction by ZEFSAII (Michael W. Deem and Ramdas Pophale) SiO2 
 PCOD9345108
Probable space group: P N A 21
;
_chemical_formula_sum "Si O2"
_cell_formula_units_Z 24
_cell_length_a 13.376407
_cell_length_b 12.908529
_cell_length_c 5.194541
_cell_angle_alpha 90.000000
_cell_angle_beta 90.000000
_cell_angle_gamma 90.000000
_cell_volume 896.940032
_symmetry_space_group_name_H-M "P N A 21"
_symmetry_group_IT_number 33
_symmetry_cell_setting 'orthorhombic'
loop_
_space_group_symop_operation_xyz
x,y,z
-x,-y,1/2+z
1/2-x,1/2+y,1/2+z
1/2+x,1/2-y,z
loop_
_atom_site_type_symbol
_atom_site_label
_atom_site_fract_x
_atom_site_fract_y
_atom_site_fract_z
Si Si1 0.324106 0.308962 0.831230
Si Si2 0.518194 0.430861 0.862156
Si Si3 0.326866 0.852408 0.939172
Si Si4 0.194006 0.168347 0.134908
Si Si5 0.233207 0.521655 0.069264
Si Si6 0.014324 0.560636 0.175579
O O1 0.269034 0.296957 0.561027
O O2 0.439034 0.339293 0.818481
O O3 0.295031 0.211893 0.006897
O O4 0.266449 0.412456 0.932875
O O5 0.486333 0.492168 0.120819
O O6 0.628989 0.389226 0.917233
O O7 0.361842 0.773836 0.717560
O O8 0.285754 0.963996 0.846927
O O9 0.422572 0.863505 0.120310
O O10 0.202742 0.096888 0.384600
O O11 0.124845 0.579526 0.064786
O O12 0.985891 0.466597 0.976797
#
# Coordination Sequence:
#
# PCOD9345108 Si02
#       6
#     4   4   4   4   4   4
#     4  11  25  48  76 112 159 204 269 339 405 495
#     4  12  30  53  82 114 164 223 278 336 418 508
#     4  10  24  45  73 112 158 200 268 336 407 503
#     4  11  27  46  75 114 152 211 269 340 408 495
#     4  10  22  45  71 106 152 207 254 326 409 482
#     4  10  20  41  71 102 141 193 246 313 393 469
#
# _framework density 26.757639000000001
#
# number of rings (size 3 to 8) (size 9 to 14) (size 15 to 20)
#    0.000    1.333    3.333    0.000    9.333    1.333 
#    3.000    0.000    0.000    0.000    0.000    0.000 
#    0.000    0.000    0.000    0.000    0.000    0.000 
#
# Total GULP energy -133924.594351 kJ/mol
# GULP energy per Si atom -5580.191431 kJ/mol
# Density = 2.669674 g / cm^3
# Si number density = 26.757639 Si / 1000 Ang^3
#
#
#
# Elastic Constant Matrix: (Units=GPa)
#
#
# Indices 1 2 3 4 5 6 
#
# 1 42.0669 29.3831 -12.1473 0.0000 0.0000 0.0000
# 2 29.3831 122.6281 36.4052 0.0000 0.0000 0.0000
# 3 -12.1473 36.4052 106.8003 0.0000 0.0000 0.0000
# 4 0.0000 0.0000 0.0000 43.8072 0.0000 0.0000
# 5 0.0000 0.0000 0.0000 0.0000 36.0704 0.0000
# 6 0.0000 0.0000 0.0000 0.0000 0.0000 42.4014
#
#
#
# Elastic Compliance Matrix: (Units=1/GPa)
#
#
# Indices 1 2 3 4 5 6 
#
# 1 0.032799 -0.009976 0.007131 0.000000 0.000000 0.000000
# 2 -0.009976 0.012107 -0.005262 0.000000 0.000000 0.000000
# 3 0.007131 -0.005262 0.011968 0.000000 0.000000 0.000000
# 4 0.000000 0.000000 0.000000 0.022827 0.000000 0.000000
# 5 0.000000 0.000000 0.000000 0.000000 0.027724 0.000000
# 6 0.000000 0.000000 0.000000 0.000000 0.000000 0.023584
#
#
# Mechanical properties :
#
#
# Convention : Reuss Voigt Hill
#
# Bulk Modulus (GPa) = 24.59373 42.08637 33.34005
# Shear Modulus (GPa) = 31.09918 38.97941 35.03930
#
# Velocity S-wave (km/s) = 3.41288 3.82089 3.62264
# Velocity P-wave (km/s) = 4.97409 5.93536 5.47586
#
# Compressibility (1/GPa) = 0.04066076
#
# Stress axis : x y z
#
# Youngs Moduli (GPa) = 30.48874 82.59564 83.55686
#
# Poissons Ratio (x) = 0.82398 -0.59585
# Poissons Ratio (y) = 0.30416 0.43965
# Poissons Ratio (z) = -0.21742 0.43459
#
# Static dielectric constant tensor:
#      x y z
#    x 2.131690 0.000000 0.000000 
#    y 0.000000 2.142310 0.000000 
#    z 0.000000 0.000000 2.210980 
# 
# From -- ./inp_files/1334.got.cif
#   From: 2010.05.17/outbox.cif.g08.bks.cpg/sg33_1_cif.got.tgz:1334.got - 2010.06.03 17:15:25.
