data_PCOD9345457
_publ_section_title
;
Structure prediction by ZEFSAII (Michael W. Deem and Ramdas Pophale) SiO2 
 PCOD9345457
Probable space group: P N A 21
;
_chemical_formula_sum "Si O2"
_cell_formula_units_Z 32
_cell_length_a 25.636928
_cell_length_b 5.523994
_cell_length_c 8.847182
_cell_angle_alpha 90.000000
_cell_angle_beta 90.000000
_cell_angle_gamma 90.000000
_cell_volume 1252.922312
_symmetry_space_group_name_H-M "P N A 21"
_symmetry_group_IT_number 33
_symmetry_cell_setting 'orthorhombic'
loop_
_space_group_symop_operation_xyz
x,y,z
-x,-y,1/2+z
1/2-x,1/2+y,1/2+z
1/2+x,1/2-y,z
loop_
_atom_site_type_symbol
_atom_site_label
_atom_site_fract_x
_atom_site_fract_y
_atom_site_fract_z
Si Si1 0.973112 0.456739 0.757040
Si Si2 0.102401 0.913311 0.163084
Si Si3 0.744761 0.033783 0.293082
Si Si4 0.501775 0.671753 0.532748
Si Si5 0.251499 0.466878 0.656093
Si Si6 0.137155 0.954363 0.849096
Si Si7 0.915348 0.815379 0.954918
Si Si8 0.868810 0.547246 0.225410
O O1 0.917768 0.355958 0.697947
O O2 0.004869 0.577635 0.624320
O O3 0.960440 0.675452 0.867219
O O4 0.997726 0.244866 0.856350
O O5 0.050033 0.035243 0.088137
O O6 0.114769 0.043430 0.321298
O O7 0.143554 0.925825 0.029041
O O8 0.724468 0.276440 0.210967
O O9 0.741091 0.041773 0.475467
O O10 0.807364 0.031880 0.264569
O O11 0.724095 0.781973 0.223135
O O12 0.553512 0.512179 0.552971
O O13 0.193762 0.471469 0.733094
O O14 0.110702 0.707201 0.790426
O O15 0.113925 0.219837 0.821847
O O16 0.883723 0.626840 0.055578
#
# Coordination Sequence:
#
# PCOD9345457 Si02
#       8
#     4   4   4   4   4   4   4   4
#     4  10  22  40  58  82 116 152 206 264 306 372
#     4  10  23  41  58  87 120 160 209 260 313 370
#     4  10  21  41  65  98 131 165 210 255 308 376
#     4  10  22  40  58  84 114 152 210 254 312 362
#     4  10  21  41  65  98 131 165 210 255 308 376
#     4  10  24  42  63  93 128 164 208 256 310 373
#     4  10  23  41  58  87 120 160 209 260 313 370
#     4  10  24  42  63  93 128 164 208 256 310 373
#
# _framework density 25.540292000000001
#
# number of rings (size 3 to 8) (size 9 to 14) (size 15 to 20)
#    0.000    2.000    0.000    1.500    7.000    6.000 
#    4.500    0.000    0.000    0.000    0.000    0.000 
#    0.000    0.000    0.000    0.000    0.000    0.000 
#
# Total GULP energy -178863.575446 kJ/mol
# GULP energy per Si atom -5589.486733 kJ/mol
# Density = 2.548216 g / cm^3
# Si number density = 25.540292 Si / 1000 Ang^3
#
#
#
# Elastic Constant Matrix: (Units=GPa)
#
#
# Indices 1 2 3 4 5 6 
#
# 1 34.7689 1.4827 -19.9935 0.0000 0.0000 0.0000
# 2 1.4827 195.0174 71.9566 0.0000 0.0000 0.0000
# 3 -19.9935 71.9566 117.9222 0.0000 0.0000 0.0000
# 4 0.0000 0.0000 0.0000 47.2852 0.0000 0.0000
# 5 0.0000 0.0000 0.0000 0.0000 40.1046 0.0000
# 6 0.0000 0.0000 0.0000 0.0000 0.0000 18.3390
#
#
#
# Elastic Compliance Matrix: (Units=1/GPa)
#
#
# Indices 1 2 3 4 5 6 
#
# 1 0.033178 -0.003004 0.007459 0.000000 0.000000 0.000000
# 2 -0.003004 0.006890 -0.004714 0.000000 0.000000 0.000000
# 3 0.007459 -0.004714 0.012621 0.000000 0.000000 0.000000
# 4 0.000000 0.000000 0.000000 0.021148 0.000000 0.000000
# 5 0.000000 0.000000 0.000000 0.000000 0.024935 0.000000
# 6 0.000000 0.000000 0.000000 0.000000 0.000000 0.054529
#
#
# Mechanical properties :
#
#
# Convention : Reuss Voigt Hill
#
# Bulk Modulus (GPa) = 19.16789 50.51114 34.83952
# Shear Modulus (GPa) = 29.20398 40.76326 34.98362
#
# Velocity S-wave (km/s) = 3.38516 3.99938 3.70502
# Velocity P-wave (km/s) = 4.77497 6.41457 5.65451
#
# Compressibility (1/GPa) = 0.05217058
#
# Stress axis : x y z
#
# Youngs Moduli (GPa) = 30.14010 145.14290 79.23333
#
# Poissons Ratio (x) = 0.43605 -0.59097
# Poissons Ratio (y) = 0.09055 0.37347
# Poissons Ratio (z) = -0.22480 0.68413
#
# Static dielectric constant tensor:
#      x y z
#    x 2.042890 0.000000 0.000000 
#    y 0.000000 2.021880 0.000000 
#    z 0.000000 0.000000 1.997390 
# 
# From -- ./inp_files/5354.got.cif
#   From: 2010.05.17/outbox.cif.g08.bks.cpg/sg33_3_cif.got.tgz:5354.got - 2010.06.03 17:15:25.
