data_PCOD9345666
_publ_section_title
;
Structure prediction by ZEFSAII (Michael W. Deem and Ramdas Pophale) SiO2 
 PCOD9345666
Probable space group: P N A 21
;
_chemical_formula_sum "Si O2"
_cell_formula_units_Z 32
_cell_length_a 8.967694
_cell_length_b 11.809576
_cell_length_c 14.946479
_cell_angle_alpha 90.000000
_cell_angle_beta 90.000000
_cell_angle_gamma 90.000000
_cell_volume 1582.901834
_symmetry_space_group_name_H-M "P N A 21"
_symmetry_group_IT_number 33
_symmetry_cell_setting 'orthorhombic'
loop_
_space_group_symop_operation_xyz
x,y,z
-x,-y,1/2+z
1/2-x,1/2+y,1/2+z
1/2+x,1/2-y,z
loop_
_atom_site_type_symbol
_atom_site_label
_atom_site_fract_x
_atom_site_fract_y
_atom_site_fract_z
Si Si1 0.933952 0.721939 0.516710
Si Si2 0.759810 0.503695 0.224932
Si Si3 0.431802 0.551046 0.432223
Si Si4 0.713702 0.014431 0.924440
Si Si5 0.313039 0.225142 0.142197
Si Si6 0.044733 0.883868 0.785990
Si Si7 0.728920 0.621042 0.046815
Si Si8 0.975863 0.290118 0.449723
O O1 0.913904 0.815200 0.439545
O O2 0.872944 0.601407 0.487254
O O3 0.604312 0.774223 0.546804
O O4 0.855447 0.758067 0.609915
O O5 0.810749 0.547025 0.320993
O O6 0.848402 0.394584 0.188421
O O7 0.597885 0.446823 0.243969
O O8 0.760863 0.600371 0.150444
O O9 0.608276 0.520498 0.442796
O O10 0.378743 0.483312 0.344458
O O11 0.335984 0.498174 0.512165
O O12 0.643164 0.890013 0.933262
O O13 0.357654 0.324233 0.210318
O O14 0.496855 0.286661 0.360072
O O15 0.598691 0.709211 0.023828
O O16 0.871652 0.658731 0.988686
#
# Coordination Sequence:
#
# PCOD9345666 Si02
#       8
#     4   4   4   4   4   4   4   4
#     4  12  24  41  64  94 132 171 214 262 325 385
#     4  11  22  42  63  94 127 166 214 268 313 371
#     4  10  22  40  64  93 125 171 209 258 332 368
#     4  11  24  43  65  92 130 170 213 264 320 387
#     4  12  21  39  65  95 123 165 220 260 306 380
#     4  10  22  39  68  93 124 164 217 268 311 382
#     4  11  22  41  67  94 128 165 212 267 314 381
#     4  11  23  41  68  97 127 170 213 257 327 382
#
# _framework density 20.216035999999999
#
# number of rings (size 3 to 8) (size 9 to 14) (size 15 to 20)
#    0.000    1.000    5.000    3.000    1.750    0.000 
#    4.500    0.000    0.000    0.000    0.000    0.000 
#    0.000    0.000    0.000    0.000    0.000    0.000 
#
# Total GULP energy -178584.727464 kJ/mol
# GULP energy per Si atom -5580.772733 kJ/mol
# Density = 2.017002 g / cm^3
# Si number density = 20.216036 Si / 1000 Ang^3
#
#
#
# Elastic Constant Matrix: (Units=GPa)
#
#
# Indices 1 2 3 4 5 6 
#
# 1 37.2568 9.7144 -1.0782 0.0000 0.0000 0.0000
# 2 9.7144 51.3474 10.9963 0.0000 0.0000 0.0000
# 3 -1.0782 10.9963 76.9463 0.0000 0.0000 0.0000
# 4 0.0000 0.0000 0.0000 41.4543 0.0000 0.0000
# 5 0.0000 0.0000 0.0000 0.0000 21.2793 0.0000
# 6 0.0000 0.0000 0.0000 0.0000 0.0000 24.2134
#
#
#
# Elastic Compliance Matrix: (Units=1/GPa)
#
#
# Indices 1 2 3 4 5 6 
#
# 1 0.028340 -0.005619 0.001200 0.000000 0.000000 0.000000
# 2 -0.005619 0.021204 -0.003109 0.000000 0.000000 0.000000
# 3 0.001200 -0.003109 0.013457 0.000000 0.000000 0.000000
# 4 0.000000 0.000000 0.000000 0.024123 0.000000 0.000000
# 5 0.000000 0.000000 0.000000 0.000000 0.046994 0.000000
# 6 0.000000 0.000000 0.000000 0.000000 0.000000 0.041300
#
#
# Mechanical properties :
#
#
# Convention : Reuss Voigt Hill
#
# Bulk Modulus (GPa) = 20.85659 22.75726 21.80693
# Shear Modulus (GPa) = 24.21830 27.11726 25.66778
#
# Velocity S-wave (km/s) = 3.46493 3.66645 3.56711
# Velocity P-wave (km/s) = 5.13293 5.40419 5.27030
#
# Compressibility (1/GPa) = 0.04794647
#
# Stress axis : x y z
#
# Youngs Moduli (GPa) = 35.28522 47.16095 74.30970
#
# Poissons Ratio (x) = 0.26498 -0.08918
# Poissons Ratio (y) = 0.19826 0.23103
# Poissons Ratio (z) = -0.04235 0.14662
#
# Static dielectric constant tensor:
#      x y z
#    x 1.721190 0.000000 0.000000 
#    y 0.000000 1.712360 0.000000 
#    z 0.000000 0.000000 1.735680 
# 
# From -- ./inp_files/7706.got.cif
#   From: 2010.05.17/outbox.cif.g08.bks.cpg/sg33_4_cif.got.tgz:7706.got - 2010.06.03 17:15:25.
