data_PCOD9345931
_publ_section_title
;
Structure prediction by ZEFSAII (Michael W. Deem and Ramdas Pophale) SiO2 
 PCOD9345931
Probable space group: P N A 21
;
_chemical_formula_sum "Si O2"
_cell_formula_units_Z 28
_cell_length_a 10.818962
_cell_length_b 18.820847
_cell_length_c 5.204636
_cell_angle_alpha 90.000000
_cell_angle_beta 90.000000
_cell_angle_gamma 90.000000
_cell_volume 1059.778540
_symmetry_space_group_name_H-M "P N A 21"
_symmetry_group_IT_number 33
_symmetry_cell_setting 'orthorhombic'
loop_
_space_group_symop_operation_xyz
x,y,z
-x,-y,1/2+z
1/2-x,1/2+y,1/2+z
1/2+x,1/2-y,z
loop_
_atom_site_type_symbol
_atom_site_label
_atom_site_fract_x
_atom_site_fract_y
_atom_site_fract_z
Si Si1 0.737736 0.299657 0.031360
Si Si2 0.968504 0.325079 0.324666
Si Si3 0.862309 0.928615 0.354568
Si Si4 0.329504 0.846907 0.372054
Si Si5 0.385276 0.422225 0.149414
Si Si6 0.501860 0.047095 0.579548
Si Si7 0.524349 0.316137 0.460052
O O1 0.866656 0.283387 0.160940
O O2 0.622417 0.302879 0.229145
O O3 0.749708 0.382622 0.960296
O O4 0.709274 0.235571 0.836259
O O5 0.909516 0.394895 0.455034
O O6 0.995051 0.264430 0.539076
O O7 0.077115 0.346149 0.121682
O O8 0.976955 0.941656 0.548498
O O9 0.915836 0.869610 0.160583
O O10 0.828383 0.004242 0.244019
O O11 0.204672 0.888232 0.443858
O O12 0.391210 0.895602 0.153176
O O13 0.408459 0.361762 0.359896
O O14 0.527051 0.994138 0.341955
#
# Coordination Sequence:
#
# PCOD9345931 Si02
#       7
#     4   4   4   4   4   4   4
#     4  10  24  44  74 110 146 202 262 324 389 479
#     4  11  24  48  78 109 154 206 268 321 400 473
#     4  11  23  44  71 106 152 196 256 325 392 464
#     4  11  25  48  76 111 156 211 261 329 400 472
#     4  11  23  43  73 108 148 200 254 320 398 463
#     4  12  27  52  75 112 164 209 265 330 396 481
#     4  10  22  45  69 104 146 196 256 323 387 466
#
# _framework density 26.420614
#
# number of rings (size 3 to 8) (size 9 to 14) (size 15 to 20)
#    0.000    1.143    4.286    0.857    0.000    5.714 
#    2.571    0.000    0.000    0.000    0.000    0.000 
#    0.000    0.000    0.000    0.000    0.000    0.000 
#
# Total GULP energy -156521.459196 kJ/mol
# GULP energy per Si atom -5590.052114 kJ/mol
# Density = 2.636048 g / cm^3
# Si number density = 26.420614 Si / 1000 Ang^3
#
#
#
# Elastic Constant Matrix: (Units=GPa)
#
#
# Indices 1 2 3 4 5 6 
#
# 1 51.5493 12.5535 9.9230 0.0000 0.0000 0.0000
# 2 12.5535 201.0991 46.0051 0.0000 0.0000 0.0000
# 3 9.9230 46.0051 93.3939 0.0000 0.0000 0.0000
# 4 0.0000 0.0000 0.0000 43.9243 0.0000 0.0000
# 5 0.0000 0.0000 0.0000 0.0000 45.8130 0.0000
# 6 0.0000 0.0000 0.0000 0.0000 0.0000 25.3178
#
#
#
# Elastic Compliance Matrix: (Units=1/GPa)
#
#
# Indices 1 2 3 4 5 6 
#
# 1 0.019934 -0.000856 -0.001696 0.000000 0.000000 0.000000
# 2 -0.000856 0.005641 -0.002688 0.000000 0.000000 0.000000
# 3 -0.001696 -0.002688 0.012212 0.000000 0.000000 0.000000
# 4 0.000000 0.000000 0.000000 0.022766 0.000000 0.000000
# 5 0.000000 0.000000 0.000000 0.000000 0.021828 0.000000
# 6 0.000000 0.000000 0.000000 0.000000 0.000000 0.039498
#
#
# Mechanical properties :
#
#
# Convention : Reuss Voigt Hill
#
# Bulk Modulus (GPa) = 36.62192 53.66728 45.14460
# Shear Modulus (GPa) = 35.34539 41.51505 38.43022
#
# Velocity S-wave (km/s) = 3.66156 3.96828 3.81800
# Velocity P-wave (km/s) = 5.63624 6.43064 6.04650
#
# Compressibility (1/GPa) = 0.02730605
#
# Stress axis : x y z
#
# Youngs Moduli (GPa) = 50.16568 177.27369 81.89001
#
# Poissons Ratio (x) = 0.15181 0.13890
# Poissons Ratio (y) = 0.04296 0.22010
# Poissons Ratio (z) = 0.08509 0.47646
#
# Static dielectric constant tensor:
#      x y z
#    x 2.165320 0.000000 0.000000 
#    y 0.000000 2.046640 0.000000 
#    z 0.000000 0.000000 2.342660 
# 
# From -- ./inp_files/911.got.cif
#   From: 2010.05.17/outbox.cif.g08.bks.cpg/sg33_1_cif.got.tgz:911.got - 2010.06.03 17:15:25.
