data_PCOD9345122
_publ_section_title
;
Structure prediction by ZEFSAII (Michael W. Deem and Ramdas Pophale) SiO2 
 PCOD9345122
Probable space group: P N A 21
;
_chemical_formula_sum "Si O2"
_cell_formula_units_Z 28
_cell_length_a 22.108552
_cell_length_b 7.884471
_cell_length_c 7.127209
_cell_angle_alpha 90.000000
_cell_angle_beta 90.000000
_cell_angle_gamma 90.000000
_cell_volume 1242.373999
_symmetry_space_group_name_H-M "P N A 21"
_symmetry_group_IT_number 33
_symmetry_cell_setting 'orthorhombic'
loop_
_space_group_symop_operation_xyz
x,y,z
-x,-y,1/2+z
1/2-x,1/2+y,1/2+z
1/2+x,1/2-y,z
loop_
_atom_site_type_symbol
_atom_site_label
_atom_site_fract_x
_atom_site_fract_y
_atom_site_fract_z
Si Si1 0.228175 0.189781 0.024450
Si Si2 0.602606 0.462482 0.141797
Si Si3 0.266558 0.808618 0.931927
Si Si4 0.964736 0.736321 0.403108
Si Si5 0.067246 0.508721 0.246097
Si Si6 0.319302 0.212894 0.698636
Si Si7 0.096376 0.219604 0.510089
O O1 0.155107 0.163650 0.053764
O O2 0.243673 0.291922 0.211425
O O3 0.269277 0.264997 0.855052
O O4 0.249251 0.993189 0.010170
O O5 0.633202 0.644601 0.129629
O O6 0.591958 0.434716 0.363495
O O7 0.542362 0.404470 0.032854
O O8 0.332949 0.763145 0.999971
O O9 0.221246 0.671232 0.020749
O O10 0.945880 0.582159 0.546234
O O11 0.026154 0.667084 0.308380
O O12 0.924391 0.782546 0.222381
O O13 0.137240 0.562459 0.259179
O O14 0.058928 0.365527 0.403577
#
# Coordination Sequence:
#
# PCOD9345122 Si02
#       7
#     4   4   4   4   4   4   4
#     4  10  21  39  62  92 133 162 207 258 326 392
#     4   9  23  41  59  94 127 167 205 259 331 384
#     4  10  22  37  63  96 128 170 203 261 330 389
#     4  11  22  42  64  86 125 165 216 268 310 377
#     4  11  23  39  66  94 116 168 223 262 317 380
#     4  11  23  40  63  97 128 158 220 262 326 397
#     4  10  20  42  65  89 125 164 206 258 318 379
#
# _framework density 22.537496999999998
#
# number of rings (size 3 to 8) (size 9 to 14) (size 15 to 20)
#    0.000    1.714    2.857    0.857    2.000    5.714 
#    2.571    0.000    0.000    0.000    0.000    0.000 
#    0.000    0.000    0.000    0.000    0.000    0.000 
#
# Total GULP energy -155926.637286 kJ/mol
# GULP energy per Si atom -5568.808474 kJ/mol
# Density = 2.248620 g / cm^3
# Si number density = 22.537497 Si / 1000 Ang^3
#
#
#
# Elastic Constant Matrix: (Units=GPa)
#
#
# Indices 1 2 3 4 5 6 
#
# 1 61.6601 -1.0911 32.3340 0.0000 0.0000 0.0000
# 2 -1.0911 28.8824 13.0618 0.0000 0.0000 0.0000
# 3 32.3340 13.0618 116.4138 0.0000 0.0000 0.0000
# 4 0.0000 0.0000 0.0000 22.1215 0.0000 0.0000
# 5 0.0000 0.0000 0.0000 0.0000 36.4276 0.0000
# 6 0.0000 0.0000 0.0000 0.0000 0.0000 24.8205
#
#
#
# Elastic Compliance Matrix: (Units=1/GPa)
#
#
# Indices 1 2 3 4 5 6 
#
# 1 0.019280 0.003318 -0.005727 0.000000 0.000000 0.000000
# 2 0.003318 0.037045 -0.005078 0.000000 0.000000 0.000000
# 3 -0.005727 -0.005078 0.010751 0.000000 0.000000 0.000000
# 4 0.000000 0.000000 0.000000 0.045205 0.000000 0.000000
# 5 0.000000 0.000000 0.000000 0.000000 0.027452 0.000000
# 6 0.000000 0.000000 0.000000 0.000000 0.000000 0.040289
#
#
# Mechanical properties :
#
#
# Convention : Reuss Voigt Hill
#
# Bulk Modulus (GPa) = 19.19328 32.84065 26.01697
# Shear Modulus (GPa) = 23.54457 27.51735 25.53096
#
# Velocity S-wave (km/s) = 3.23566 3.49801 3.36939
# Velocity P-wave (km/s) = 4.74278 5.56039 5.16778
#
# Compressibility (1/GPa) = 0.05210156
#
# Stress axis : x y z
#
# Youngs Moduli (GPa) = 51.86712 26.99407 93.01791
#
# Poissons Ratio (x) = -0.08958 0.53275
# Poissons Ratio (y) = -0.17212 0.47237
# Poissons Ratio (z) = 0.29706 0.13708
#
# Static dielectric constant tensor:
#      x y z
#    x 1.879010 0.000000 0.000000 
#    y 0.000000 1.893820 0.000000 
#    z 0.000000 0.000000 1.852480 
# 
# From -- ./inp_files/2245.got.cif
#   From: 2010.05.17/outbox.cif.g08.bks.cpg/sg33_2_cif.got.tgz:2245.got - 2010.06.03 17:15:25.
