data_PCOD9345514
_publ_section_title
;
Structure prediction by ZEFSAII (Michael W. Deem and Ramdas Pophale) SiO2 
 PCOD9345514
Probable space group: P N A 21
;
_chemical_formula_sum "Si O2"
_cell_formula_units_Z 24
_cell_length_a 22.345848
_cell_length_b 8.427657
_cell_length_c 5.270412
_cell_angle_alpha 90.000000
_cell_angle_beta 90.000000
_cell_angle_gamma 90.000000
_cell_volume 992.540549
_symmetry_space_group_name_H-M "P N A 21"
_symmetry_group_IT_number 33
_symmetry_cell_setting 'orthorhombic'
loop_
_space_group_symop_operation_xyz
x,y,z
-x,-y,1/2+z
1/2-x,1/2+y,1/2+z
1/2+x,1/2-y,z
loop_
_atom_site_type_symbol
_atom_site_label
_atom_site_fract_x
_atom_site_fract_y
_atom_site_fract_z
Si Si1 0.041774 0.300872 0.434660
Si Si2 0.270000 0.173049 0.377578
Si Si3 0.329793 0.281115 0.881722
Si Si4 0.435347 0.107205 0.692677
Si Si5 0.356810 0.629527 0.704054
Si Si6 0.145740 0.400155 0.812815
O O1 0.025017 0.456960 0.275563
O O2 0.074415 0.166722 0.274230
O O3 0.098752 0.362519 0.593903
O O4 0.982132 0.264417 0.587453
O O5 0.289912 0.194357 0.667898
O O6 0.198981 0.195360 0.370304
O O7 0.292754 0.998785 0.277771
O O8 0.299770 0.286139 0.160032
O O9 0.392299 0.185465 0.900476
O O10 0.346576 0.444562 0.742786
O O11 0.390385 0.023892 0.494501
O O12 0.346068 0.730862 0.450241
#
# Coordination Sequence:
#
# PCOD9345514 Si02
#       6
#     4   4   4   4   4   4
#     4  11  21  41  67  98 130 180 235 280 341 413
#     4  11  25  45  71  95 142 180 232 278 348 434
#     4  11  26  46  69 103 136 186 228 292 359 404
#     4  10  21  42  69  93 132 178 235 281 330 421
#     4  11  27  40  66 104 136 178 225 298 353 414
#     4  10  22  42  68  95 128 180 231 273 341 408
#
# _framework density 24.180374
#
# number of rings (size 3 to 8) (size 9 to 14) (size 15 to 20)
#    0.000    1.333    3.333    1.000    7.000    0.000 
#    3.000    0.000    0.000    0.000    0.000    0.000 
#    0.000    0.000    0.000    0.000    0.000    0.000 
#
# Total GULP energy -133831.415769 kJ/mol
# GULP energy per Si atom -5576.308990 kJ/mol
# Density = 2.412534 g / cm^3
# Si number density = 24.180374 Si / 1000 Ang^3
#
#
#
# Elastic Constant Matrix: (Units=GPa)
#
#
# Indices 1 2 3 4 5 6 
#
# 1 97.1017 -5.2924 8.4017 0.0000 0.0000 0.0000
# 2 -5.2924 63.0481 -8.6580 0.0000 0.0000 0.0000
# 3 8.4017 -8.6580 48.2188 0.0000 0.0000 0.0000
# 4 0.0000 0.0000 0.0000 27.0594 0.0000 0.0000
# 5 0.0000 0.0000 0.0000 0.0000 35.8614 0.0000
# 6 0.0000 0.0000 0.0000 0.0000 0.0000 19.0036
#
#
#
# Elastic Compliance Matrix: (Units=1/GPa)
#
#
# Indices 1 2 3 4 5 6 
#
# 1 0.010482 0.000645 -0.001711 0.000000 0.000000 0.000000
# 2 0.000645 0.016302 0.002815 0.000000 0.000000 0.000000
# 3 -0.001711 0.002815 0.021542 0.000000 0.000000 0.000000
# 4 0.000000 0.000000 0.000000 0.036956 0.000000 0.000000
# 5 0.000000 0.000000 0.000000 0.000000 0.027885 0.000000
# 6 0.000000 0.000000 0.000000 0.000000 0.000000 0.052622
#
#
# Mechanical properties :
#
#
# Convention : Reuss Voigt Hill
#
# Bulk Modulus (GPa) = 19.29622 21.91904 20.60763
# Shear Modulus (GPa) = 27.84517 30.64602 29.24560
#
# Velocity S-wave (km/s) = 3.39715 3.56391 3.48153
# Velocity P-wave (km/s) = 4.83580 5.10095 4.97014
#
# Compressibility (1/GPa) = 0.05182363
#
# Stress axis : x y z
#
# Youngs Moduli (GPa) = 95.40498 61.34383 46.42043
#
# Poissons Ratio (x) = -0.03956 0.07940
# Poissons Ratio (y) = -0.06153 -0.13066
# Poissons Ratio (z) = 0.16319 -0.17266
#
# Static dielectric constant tensor:
#      x y z
#    x 2.061820 0.000000 0.000000 
#    y 0.000000 2.002080 0.000000 
#    z 0.000000 0.000000 2.015540 
# 
# From -- ./inp_files/2183.got.cif
#   From: 2010.05.17/outbox.cif.g08.bks.cpg/sg33_2_cif.got.tgz:2183.got - 2010.06.03 17:15:25.
