data_PCOD9345046
_publ_section_title
;
Structure prediction by ZEFSAII (Michael W. Deem and Ramdas Pophale) SiO2 
 PCOD9345046
Probable space group: P N A 21
;
_chemical_formula_sum "Si O2"
_cell_formula_units_Z 24
_cell_length_a 14.742657
_cell_length_b 5.872792
_cell_length_c 11.345076
_cell_angle_alpha 90.000000
_cell_angle_beta 90.000000
_cell_angle_gamma 90.000000
_cell_volume 982.263012
_symmetry_space_group_name_H-M "P N A 21"
_symmetry_group_IT_number 33
_symmetry_cell_setting 'orthorhombic'
loop_
_space_group_symop_operation_xyz
x,y,z
-x,-y,1/2+z
1/2-x,1/2+y,1/2+z
1/2+x,1/2-y,z
loop_
_atom_site_type_symbol
_atom_site_label
_atom_site_fract_x
_atom_site_fract_y
_atom_site_fract_z
Si Si1 0.406639 0.751702 0.599990
Si Si2 0.484936 0.129236 0.429021
Si Si3 0.232907 0.601839 0.167561
Si Si4 0.082033 0.987616 0.585099
Si Si5 0.357502 0.163374 0.873864
Si Si6 0.684956 0.625074 0.939059
O O1 0.493586 0.616281 0.650296
O O2 0.366308 0.581208 0.503305
O O3 0.450951 0.964351 0.532595
O O4 0.322653 0.863596 0.667967
O O5 0.545415 0.317463 0.496233
O O6 0.394447 0.236394 0.373015
O O7 0.549643 0.972654 0.350005
O O8 0.340938 0.571108 0.175351
O O9 0.180085 0.778108 0.254580
O O10 0.221572 0.703151 0.037432
O O11 0.127198 0.806271 0.492675
O O12 0.273536 0.989240 0.886112
#
# Coordination Sequence:
#
# PCOD9345046 Si02
#       6
#     4   4   4   4   4   4
#     4   9  20  39  63  84 121 161 194 255 309 351
#     4   9  20  39  63  84 121 161 194 255 309 351
#     4  11  22  37  63  92 121 165 207 245 305 363
#     4  10  20  40  61  88 127 156 200 259 299 354
#     4  11  22  37  63  92 121 165 207 245 305 363
#     4  10  20  40  61  88 127 156 200 259 299 354
#
# _framework density 24.433374000000001
#
# number of rings (size 3 to 8) (size 9 to 14) (size 15 to 20)
#    0.000    2.000    3.333    0.000    0.000    2.667 
#    0.000   13.333    0.000    0.000    0.000    0.000 
#    0.000    0.000    0.000    0.000    0.000    0.000 
#
# Total GULP energy -133888.095673 kJ/mol
# GULP energy per Si atom -5578.670653 kJ/mol
# Density = 2.437776 g / cm^3
# Si number density = 24.433374 Si / 1000 Ang^3
#
#
#
# Elastic Constant Matrix: (Units=GPa)
#
#
# Indices 1 2 3 4 5 6 
#
# 1 141.6584 26.2004 6.0886 0.0000 0.0000 0.0000
# 2 26.2004 52.5272 -6.6786 0.0000 0.0000 0.0000
# 3 6.0886 -6.6786 10.0042 0.0000 0.0000 0.0000
# 4 0.0000 0.0000 0.0000 9.5891 0.0000 0.0000
# 5 0.0000 0.0000 0.0000 0.0000 35.3401 0.0000
# 6 0.0000 0.0000 0.0000 0.0000 0.0000 31.8630
#
#
#
# Elastic Compliance Matrix: (Units=1/GPa)
#
#
# Indices 1 2 3 4 5 6 
#
# 1 0.008411 -0.005296 -0.008654 0.000000 0.000000 0.000000
# 2 -0.005296 0.024138 0.019337 0.000000 0.000000 0.000000
# 3 -0.008654 0.019337 0.118134 0.000000 0.000000 0.000000
# 4 0.000000 0.000000 0.000000 0.104285 0.000000 0.000000
# 5 0.000000 0.000000 0.000000 0.000000 0.028296 0.000000
# 6 0.000000 0.000000 0.000000 0.000000 0.000000 0.031384
#
#
# Mechanical properties :
#
#
# Convention : Reuss Voigt Hill
#
# Bulk Modulus (GPa) = 6.19357 28.37896 17.28627
# Shear Modulus (GPa) = 13.97848 27.26374 20.62111
#
# Velocity S-wave (km/s) = 2.39447 3.34404 2.90827
# Velocity P-wave (km/s) = 3.19140 5.15269 4.28575
#
# Compressibility (1/GPa) = 0.16145767
#
# Stress axis : x y z
#
# Youngs Moduli (GPa) = 118.89724 41.42888 8.46493
#
# Poissons Ratio (x) = 0.21939 0.07326
# Poissons Ratio (y) = 0.62962 -0.16369
# Poissons Ratio (z) = 1.02894 -0.80111
#
# Static dielectric constant tensor:
#      x y z
#    x 1.971100 0.000000 0.000000 
#    y 0.000000 1.964590 0.000000 
#    z 0.000000 0.000000 2.080910 
# 
# From -- ./inp_files/6618.got.cif
#   From: 2010.05.17/outbox.cif.g08.bks.cpg/sg33_4_cif.got.tgz:6618.got - 2010.06.03 17:15:25.
