data_PCOD9345001
_publ_section_title
;
Structure prediction by ZEFSAII (Michael W. Deem and Ramdas Pophale) SiO2 
 PCOD9345001
Probable space group: P N A 21
;
_chemical_formula_sum "Si O2"
_cell_formula_units_Z 32
_cell_length_a 14.000001
_cell_length_b 16.100306
_cell_length_c 5.270962
_cell_angle_alpha 90.000000
_cell_angle_beta 90.000000
_cell_angle_gamma 90.000000
_cell_volume 1188.097500
_symmetry_space_group_name_H-M "P N A 21"
_symmetry_group_IT_number 33
_symmetry_cell_setting 'orthorhombic'
loop_
_space_group_symop_operation_xyz
x,y,z
-x,-y,1/2+z
1/2-x,1/2+y,1/2+z
1/2+x,1/2-y,z
loop_
_atom_site_type_symbol
_atom_site_label
_atom_site_fract_x
_atom_site_fract_y
_atom_site_fract_z
Si Si1 0.112967 0.212387 0.521630
Si Si2 0.547637 0.598724 0.152049
Si Si3 0.114800 0.305148 0.023779
Si Si4 0.659686 0.760931 0.994873
Si Si5 0.506907 0.962922 0.668169
Si Si6 0.837429 0.356981 0.991185
Si Si7 0.692736 0.484909 0.002461
Si Si8 0.792960 0.086366 0.998091
O O1 0.086411 0.239964 0.239399
O O2 0.226433 0.225179 0.515338
O O3 0.059864 0.126714 0.595178
O O4 0.083972 0.274504 0.748083
O O5 0.595765 0.604104 0.431978
O O6 0.615147 0.669275 0.013453
O O7 0.581121 0.509487 0.043160
O O8 0.065091 0.389241 0.108521
O O9 0.227714 0.331166 0.016164
O O10 0.634369 0.803420 0.732580
O O11 0.629304 0.810830 0.242860
O O12 0.605198 0.941682 0.523585
O O13 0.526670 0.967207 0.967299
O O14 0.728010 0.389975 0.996987
O O15 0.721211 0.529561 0.742239
O O16 0.736014 0.532868 0.248531
#
# Coordination Sequence:
#
# PCOD9345001 Si02
#       8
#     4   4   4   4   4   4   4   4
#     4  12  25  41  65  95 129 172 228 277 343 397
#     4  10  25  41  69  93 126 176 225 277 323 414
#     4  12  22  40  61  97 131 168 217 281 331 416
#     4  12  25  43  67  98 137 172 221 284 354 393
#     4  12  24  39  66 100 137 177 223 271 347 431
#     4  12  25  44  63  99 140 177 211 287 349 401
#     4  10  22  40  66  90 123 176 220 257 327 408
#     4  10  20  38  67  88 125 164 225 254 330 390
#
# _framework density 26.933814000000002
#
# number of rings (size 3 to 8) (size 9 to 14) (size 15 to 20)
#    0.750    0.000    1.250    7.500    3.500    0.000 
#    0.000    1.250    0.000    0.000    0.000    0.000 
#    0.000    0.000    0.000    0.000    0.000    0.000 
#
# Total GULP energy -178997.935273 kJ/mol
# GULP energy per Si atom -5593.685477 kJ/mol
# Density = 2.687251 g / cm^3
# Si number density = 26.933814 Si / 1000 Ang^3
#
#
#
# Elastic Constant Matrix: (Units=GPa)
#
#
# Indices 1 2 3 4 5 6 
#
# 1 112.8813 1.1910 6.9155 0.0000 0.0000 0.0000
# 2 1.1910 58.8821 43.9485 0.0000 0.0000 0.0000
# 3 6.9155 43.9485 203.7094 0.0000 0.0000 0.0000
# 4 0.0000 0.0000 0.0000 18.1827 0.0000 0.0000
# 5 0.0000 0.0000 0.0000 0.0000 10.6812 0.0000
# 6 0.0000 0.0000 0.0000 0.0000 0.0000 45.5087
#
#
#
# Elastic Compliance Matrix: (Units=1/GPa)
#
#
# Indices 1 2 3 4 5 6 
#
# 1 0.008877 0.000054 -0.000313 0.000000 0.000000 0.000000
# 2 0.000054 0.020243 -0.004369 0.000000 0.000000 0.000000
# 3 -0.000313 -0.004369 0.005862 0.000000 0.000000 0.000000
# 4 0.000000 0.000000 0.000000 0.054997 0.000000 0.000000
# 5 0.000000 0.000000 0.000000 0.000000 0.093622 0.000000
# 6 0.000000 0.000000 0.000000 0.000000 0.000000 0.021974
#
#
# Mechanical properties :
#
#
# Convention : Reuss Voigt Hill
#
# Bulk Modulus (GPa) = 38.87035 53.28697 46.07866
# Shear Modulus (GPa) = 22.38060 36.43571 29.40815
#
# Velocity S-wave (km/s) = 2.88574 3.68202 3.30793
# Velocity P-wave (km/s) = 5.05633 6.15660 5.63339
#
# Compressibility (1/GPa) = 0.02572655
#
# Stress axis : x y z
#
# Youngs Moduli (GPa) = 112.64468 49.39981 170.58525
#
# Poissons Ratio (x) = -0.00267 0.05340
# Poissons Ratio (y) = -0.00609 0.74530
# Poissons Ratio (z) = 0.03526 0.21583
#
# Static dielectric constant tensor:
#      x y z
#    x 2.357960 0.000000 0.000000 
#    y 0.000000 2.120380 0.000000 
#    z 0.000000 0.000000 2.080190 
# 
# From -- ./inp_files/1490.got.cif
#   From: 2010.05.17/outbox.cif.g08.bks.cpg/sg33_1_cif.got.tgz:1490.got - 2010.06.03 17:15:25.
