data_PCOD9346000
_publ_section_title
;
Structure prediction by ZEFSAII (Michael W. Deem and Ramdas Pophale) SiO2 
 PCOD9346000
Probable space group: P N A 21
;
_chemical_formula_sum "Si O2"
_cell_formula_units_Z 32
_cell_length_a 8.432462
_cell_length_b 19.654683
_cell_length_c 8.180619
_cell_angle_alpha 90.000000
_cell_angle_beta 90.000000
_cell_angle_gamma 90.000000
_cell_volume 1355.834258
_symmetry_space_group_name_H-M "P N A 21"
_symmetry_group_IT_number 33
_symmetry_cell_setting 'orthorhombic'
loop_
_space_group_symop_operation_xyz
x,y,z
-x,-y,1/2+z
1/2-x,1/2+y,1/2+z
1/2+x,1/2-y,z
loop_
_atom_site_type_symbol
_atom_site_label
_atom_site_fract_x
_atom_site_fract_y
_atom_site_fract_z
Si Si1 0.972974 0.461848 0.638960
Si Si2 0.020293 0.047014 0.907115
Si Si3 0.631716 0.667040 0.562298
Si Si4 0.539431 0.212110 0.931733
Si Si5 0.133485 0.582519 0.499165
Si Si6 0.526297 0.705664 0.924477
Si Si7 0.136572 0.328268 0.565603
Si Si8 0.372444 0.578630 0.041380
O O1 0.937100 0.443000 0.825860
O O2 0.807068 0.447495 0.548943
O O3 0.037068 0.538081 0.628332
O O4 0.099546 0.408534 0.563946
O O5 0.884796 0.090513 0.997826
O O6 0.182592 0.063998 0.002239
O O7 0.051605 0.068245 0.720962
O O8 0.973582 0.968507 0.920064
O O9 0.517584 0.711342 0.446318
O O10 0.808503 0.693823 0.539135
O O11 0.571402 0.682548 0.743003
O O12 0.400123 0.162544 0.996305
O O13 0.584705 0.195783 0.745958
O O14 0.681617 0.689373 0.031759
O O15 0.469461 0.783097 0.942506
O O16 0.386765 0.656732 0.989827
#
# Coordination Sequence:
#
# PCOD9346000 Si02
#       8
#     4   4   4   4   4   4   4   4
#     4  10  23  40  62  89 120 158 203 251 304 365
#     4  11  23  41  63  91 125 164 208 257 311 373
#     4  12  25  41  63  94 126 161 206 260 315 373
#     4  11  23  42  65  90 122 165 209 254 310 375
#     4  10  23  40  62  89 120 158 203 251 304 365
#     4  12  25  41  63  94 126 161 206 260 315 373
#     4  11  23  42  65  90 122 165 209 254 310 375
#     4  11  23  41  63  91 125 164 208 257 311 373
#
# _framework density 23.601706
#
# number of rings (size 3 to 8) (size 9 to 14) (size 15 to 20)
#    0.000    1.000    0.000    6.750    0.000   10.000 
#    0.000    0.000    0.000    0.000    0.000    0.000 
#    0.000    0.000    0.000    0.000    0.000    0.000 
#
# Total GULP energy -179295.187827 kJ/mol
# GULP energy per Si atom -5602.974620 kJ/mol
# Density = 2.354799 g / cm^3
# Si number density = 23.601706 Si / 1000 Ang^3
#
#
#
# Elastic Constant Matrix: (Units=GPa)
#
#
# Indices 1 2 3 4 5 6 
#
# 1 38.4731 -7.5512 -8.4806 0.0000 0.0000 0.0000
# 2 -7.5512 67.5944 2.7103 0.0000 0.0000 0.0000
# 3 -8.4806 2.7103 54.5269 0.0000 0.0000 0.0000
# 4 0.0000 0.0000 0.0000 30.0085 0.0000 0.0000
# 5 0.0000 0.0000 0.0000 0.0000 21.1980 0.0000
# 6 0.0000 0.0000 0.0000 0.0000 0.0000 27.4715
#
#
#
# Elastic Compliance Matrix: (Units=1/GPa)
#
#
# Indices 1 2 3 4 5 6 
#
# 1 0.027472 0.002903 0.004128 0.000000 0.000000 0.000000
# 2 0.002903 0.015131 -0.000300 0.000000 0.000000 0.000000
# 3 0.004128 -0.000300 0.018997 0.000000 0.000000 0.000000
# 4 0.000000 0.000000 0.000000 0.033324 0.000000 0.000000
# 5 0.000000 0.000000 0.000000 0.000000 0.047174 0.000000
# 6 0.000000 0.000000 0.000000 0.000000 0.000000 0.036401
#
#
# Mechanical properties :
#
#
# Convention : Reuss Voigt Hill
#
# Bulk Modulus (GPa) = 13.32233 14.88350 14.10292
# Shear Modulus (GPa) = 26.30795 27.32999 26.81897
#
# Velocity S-wave (km/s) = 3.34228 3.40658 3.37458
# Velocity P-wave (km/s) = 4.53336 4.66828 4.60132
#
# Compressibility (1/GPa) = 0.07506195
#
# Stress axis : x y z
#
# Youngs Moduli (GPa) = 36.40057 66.09158 52.64099
#
# Poissons Ratio (x) = -0.19189 -0.21732
# Poissons Ratio (y) = -0.10569 0.01582
# Poissons Ratio (z) = -0.15028 0.01986
#
# Static dielectric constant tensor:
#      x y z
#    x 1.859760 0.000000 0.000000 
#    y 0.000000 1.843080 0.000000 
#    z 0.000000 0.000000 1.885660 
# 
# From -- ./inp_files/3533.got.cif
#   From: 2010.05.17/outbox.cif.g08.bks.cpg/sg33_2_cif.got.tgz:3533.got - 2010.06.03 17:15:25.
