data_PCOD9346857
_publ_section_title
;
Structure prediction by ZEFSAII (Michael W. Deem and Ramdas Pophale) SiO2 
 PCOD9346857
Probable space group: P N A 21
;
_chemical_formula_sum "Si O2"
_cell_formula_units_Z 28
_cell_length_a 13.231036
_cell_length_b 6.792910
_cell_length_c 16.095718
_cell_angle_alpha 90.000000
_cell_angle_beta 90.000000
_cell_angle_gamma 90.000000
_cell_volume 1446.638657
_symmetry_space_group_name_H-M "P N A 21"
_symmetry_group_IT_number 33
_symmetry_cell_setting 'orthorhombic'
loop_
_space_group_symop_operation_xyz
x,y,z
-x,-y,1/2+z
1/2-x,1/2+y,1/2+z
1/2+x,1/2-y,z
loop_
_atom_site_type_symbol
_atom_site_label
_atom_site_fract_x
_atom_site_fract_y
_atom_site_fract_z
Si Si1 0.684186 0.249998 0.248680
Si Si2 0.694394 0.801279 0.468979
Si Si3 0.327291 0.481757 0.122205
Si Si4 0.194395 0.801276 0.028378
Si Si5 0.550371 0.591208 0.174710
Si Si6 0.172710 0.518240 0.875154
Si Si7 0.050369 0.591212 0.322648
O O1 0.754206 0.117712 0.189621
O O2 0.612874 0.396555 0.197858
O O3 0.754205 0.382285 0.307740
O O4 0.612873 0.103440 0.299501
O O5 0.659932 0.677186 0.548804
O O6 0.773460 0.669921 0.416531
O O7 0.599990 0.835869 0.408329
O O8 0.749999 0.000003 0.498677
O O9 0.273462 0.669918 0.080826
O O10 0.433324 0.541593 0.161838
O O11 0.099993 0.835873 0.089029
O O12 0.159930 0.677180 0.948556
O O13 0.562572 0.749998 0.248679
O O14 0.066678 0.458403 0.835519
#
# Coordination Sequence:
#
# PCOD9346857 Si02
#       7
#     4   4   4   4   4   4   4
#     4  12  24  48  66 104 138 180 232 290 340 416
#     4  11  25  47  69  99 142 179 231 289 344 415
#     4  11  27  44  70 101 137 182 231 287 343 413
#     4  11  25  47  69  99 142 179 231 289 344 415
#     4  12  27  44  73 101 139 185 232 283 356 411
#     4  11  27  44  70 101 137 182 231 287 343 413
#     4  12  27  44  73 101 139 185 232 283 356 411
#
# _framework density 19.355212000000002
#
# number of rings (size 3 to 8) (size 9 to 14) (size 15 to 20)
#    0.000    0.571    5.714    0.857    8.000    2.286 
#    0.000    0.000    0.000    0.000    0.000    0.000 
#    0.000    0.000    0.000    0.000    0.000    0.000 
#
# Total GULP energy -156671.984181 kJ/mol
# GULP energy per Si atom -5595.428006 kJ/mol
# Density = 1.931116 g / cm^3
# Si number density = 19.355212 Si / 1000 Ang^3
#
#
#
# Elastic Constant Matrix: (Units=GPa)
#
#
# Indices 1 2 3 4 5 6 
#
# 1 84.8358 29.2758 18.8852 0.0000 0.0000 0.0000
# 2 29.2758 108.0931 26.2417 0.0000 0.0000 0.0000
# 3 18.8852 26.2417 67.2800 0.0000 0.0000 0.0000
# 4 0.0000 0.0000 0.0000 36.0710 0.0000 0.0000
# 5 0.0000 0.0000 0.0000 0.0000 -42.9983 0.0000
# 6 0.0000 0.0000 0.0000 0.0000 0.0000 23.9405
#
#
#
# Elastic Compliance Matrix: (Units=1/GPa)
#
#
# Indices 1 2 3 4 5 6 
#
# 1 0.013400 -0.003000 -0.002591 0.000000 0.000000 0.000000
# 2 -0.003000 0.010891 -0.003406 0.000000 0.000000 0.000000
# 3 -0.002591 -0.003406 0.016919 0.000000 0.000000 0.000000
# 4 0.000000 0.000000 0.000000 0.027723 0.000000 0.000000
# 5 0.000000 0.000000 0.000000 0.000000 -0.023257 0.000000
# 6 0.000000 0.000000 0.000000 0.000000 0.000000 0.041770
#
#
# Mechanical properties :
#
#
# Convention : Reuss Voigt Hill
#
# Bulk Modulus (GPa) = 43.07467 45.44603 44.26035
# Shear Modulus (GPa) = 44.17832 15.78973 29.98403
#
# Velocity S-wave (km/s) = 4.78274 2.85930 3.94019
# Velocity P-wave (km/s) = 7.26654 5.86786 6.60433
#
# Compressibility (1/GPa) = 0.02321550
#
# Stress axis : x y z
#
# Youngs Moduli (GPa) = 74.62927 91.82228 59.10560
#
# Poissons Ratio (x) = 0.27547 0.15315
# Poissons Ratio (y) = 0.22389 0.20129
# Poissons Ratio (z) = 0.19337 0.31271
#
# Static dielectric constant tensor:
#      x y z
#    x 1.624980 0.000000 0.000000 
#    y 0.000000 1.449420 0.000000 
#    z 0.000000 0.000000 1.683430 
# 
# From -- ./inp_files/936.got.cif
#   From: 2010.05.17/outbox.cif.g08.bks.cpg/sg33_1_cif.got.tgz:936.got - 2010.06.03 17:15:25.
