data_PCOD9346559
_publ_section_title
;
Structure prediction by ZEFSAII (Michael W. Deem and Ramdas Pophale) SiO2 
 PCOD9346559
Probable space group: P N A 21
;
_chemical_formula_sum "Si O2"
_cell_formula_units_Z 28
_cell_length_a 7.812464
_cell_length_b 11.758247
_cell_length_c 12.689099
_cell_angle_alpha 90.000000
_cell_angle_beta 90.000000
_cell_angle_gamma 90.000000
_cell_volume 1165.631818
_symmetry_space_group_name_H-M "P N A 21"
_symmetry_group_IT_number 33
_symmetry_cell_setting 'orthorhombic'
loop_
_space_group_symop_operation_xyz
x,y,z
-x,-y,1/2+z
1/2-x,1/2+y,1/2+z
1/2+x,1/2-y,z
loop_
_atom_site_type_symbol
_atom_site_label
_atom_site_fract_x
_atom_site_fract_y
_atom_site_fract_z
Si Si1 0.409789 0.391400 0.106660
Si Si2 0.683791 0.187734 0.792894
Si Si3 0.293691 0.683500 0.953181
Si Si4 0.388068 0.384517 0.336179
Si Si5 0.776810 0.884465 0.447851
Si Si6 0.481250 0.354350 0.653959
Si Si7 0.414256 0.965066 0.476499
O O1 0.375261 0.333110 0.218492
O O2 0.461379 0.516294 0.149239
O O3 0.064221 0.139390 0.027110
O O4 0.231356 0.404692 0.046228
O O5 0.766804 0.271390 0.881657
O O6 0.548556 0.275016 0.746271
O O7 0.611284 0.081520 0.857468
O O8 0.784813 0.147130 0.688715
O O9 0.412518 0.622497 0.866567
O O10 0.222675 0.800978 0.910077
O O11 0.139466 0.597232 0.981177
O O12 0.426572 0.692932 0.049864
O O13 0.328161 0.511587 0.368970
O O14 0.606094 0.929173 0.506442
#
# Coordination Sequence:
#
# PCOD9346559 Si02
#       7
#     4   4   4   4   4   4   4
#     4  11  26  49  73 104 153 194 248 305 376 448
#     4  12  23  44  76 109 146 188 247 308 371 443
#     4  11  25  47  73 105 155 193 249 310 368 455
#     4  12  24  50  71 105 150 199 247 312 375 445
#     4  12  25  47  76 108 151 192 249 316 370 444
#     4  11  22  43  73 108 140 191 241 307 363 436
#     4  11  25  48  74 111 147 191 247 306 379 447
#
# _framework density 24.021308000000001
#
# number of rings (size 3 to 8) (size 9 to 14) (size 15 to 20)
#    0.000    0.571    5.714    3.429    0.000    2.286 
#    7.714    0.000    0.000    0.000    0.000    0.000 
#    0.000    0.000    0.000    0.000    0.000    0.000 
#
# Total GULP energy -156319.396628 kJ/mol
# GULP energy per Si atom -5582.835594 kJ/mol
# Density = 2.396663 g / cm^3
# Si number density = 24.021308 Si / 1000 Ang^3
#
#
#
# Elastic Constant Matrix: (Units=GPa)
#
#
# Indices 1 2 3 4 5 6 
#
# 1 87.9695 -1.4909 24.4976 0.0000 0.0000 0.0000
# 2 -1.4909 68.8491 16.6377 0.0000 0.0000 0.0000
# 3 24.4976 16.6377 109.5292 0.0000 0.0000 0.0000
# 4 0.0000 0.0000 0.0000 28.7582 0.0000 0.0000
# 5 0.0000 0.0000 0.0000 0.0000 17.8666 0.0000
# 6 0.0000 0.0000 0.0000 0.0000 0.0000 33.2817
#
#
#
# Elastic Compliance Matrix: (Units=1/GPa)
#
#
# Indices 1 2 3 4 5 6 
#
# 1 0.012183 0.000957 -0.002870 0.000000 0.000000 0.000000
# 2 0.000957 0.015153 -0.002516 0.000000 0.000000 0.000000
# 3 -0.002870 -0.002516 0.010154 0.000000 0.000000 0.000000
# 4 0.000000 0.000000 0.000000 0.034773 0.000000 0.000000
# 5 0.000000 0.000000 0.000000 0.000000 0.055970 0.000000
# 6 0.000000 0.000000 0.000000 0.000000 0.000000 0.030047
#
#
# Mechanical properties :
#
#
# Convention : Reuss Voigt Hill
#
# Bulk Modulus (GPa) = 34.92496 38.40407 36.66452
# Shear Modulus (GPa) = 28.29941 31.09486 29.69713
#
# Velocity S-wave (km/s) = 3.43606 3.60178 3.51990
# Velocity P-wave (km/s) = 5.50570 5.77229 5.64057
#
# Compressibility (1/GPa) = 0.02863282
#
# Stress axis : x y z
#
# Youngs Moduli (GPa) = 82.08072 65.99247 98.48192
#
# Poissons Ratio (x) = -0.06318 0.28268
# Poissons Ratio (y) = -0.07859 0.24778
# Poissons Ratio (z) = 0.23560 0.16603
#
# Static dielectric constant tensor:
#      x y z
#    x 1.966990 0.000000 0.000000 
#    y 0.000000 1.923450 0.000000 
#    z 0.000000 0.000000 2.013090 
# 
# From -- ./inp_files/5857.got.cif
#   From: 2010.05.17/outbox.cif.g08.bks.cpg/sg33_3_cif.got.tgz:5857.got - 2010.06.03 17:15:25.
