data_PCOD9346220
_publ_section_title
;
Structure prediction by ZEFSAII (Michael W. Deem and Ramdas Pophale) SiO2 
 PCOD9346220
Probable space group: P N A 21
;
_chemical_formula_sum "Si O2"
_cell_formula_units_Z 24
_cell_length_a 11.710553
_cell_length_b 5.094997
_cell_length_c 17.432774
_cell_angle_alpha 90.000000
_cell_angle_beta 90.000000
_cell_angle_gamma 90.000000
_cell_volume 1040.130512
_symmetry_space_group_name_H-M "P N A 21"
_symmetry_group_IT_number 33
_symmetry_cell_setting 'orthorhombic'
loop_
_space_group_symop_operation_xyz
x,y,z
-x,-y,1/2+z
1/2-x,1/2+y,1/2+z
1/2+x,1/2-y,z
loop_
_atom_site_type_symbol
_atom_site_label
_atom_site_fract_x
_atom_site_fract_y
_atom_site_fract_z
Si Si1 0.301186 0.422063 0.885260
Si Si2 0.871516 0.455894 0.516326
Si Si3 0.878516 0.509528 0.251207
Si Si4 0.196310 0.309366 0.169483
Si Si5 0.554394 0.080000 0.388445
Si Si6 0.936349 0.192356 0.666345
O O1 0.223877 0.427908 0.809614
O O2 0.408818 0.616866 0.883839
O O3 0.340383 0.121846 0.892457
O O4 0.228055 0.552678 0.953876
O O5 0.821033 0.662253 0.578014
O O6 0.913360 0.227842 0.575036
O O7 0.980744 0.499461 0.462957
O O8 0.818973 0.286950 0.198151
O O9 0.977918 0.457295 0.312848
O O10 0.938944 0.716389 0.193568
O O11 0.154551 0.591967 0.198174
O O12 0.102064 0.092469 0.191884
#
# Coordination Sequence:
#
# PCOD9346220 Si02
#       6
#     4   4   4   4   4   4
#     4  11  26  43  70  96 140 179 227 277 342 410
#     4   9  26  42  69  98 133 176 226 276 342 395
#     4  11  24  45  69 100 136 178 225 283 339 406
#     4  10  24  42  65  99 132 170 224 275 343 389
#     4  11  26  44  68  99 135 180 225 276 341 406
#     4  10  24  40  67 100 130 171 223 277 335 396
#
# _framework density 23.07403
#
# number of rings (size 3 to 8) (size 9 to 14) (size 15 to 20)
#    1.000    0.667    0.000    2.000    7.000    8.000 
#    0.000    0.000    0.000    0.000    0.000    0.000 
#    0.000    0.000    0.000    0.000    0.000    0.000 
#
# Total GULP energy -133689.195121 kJ/mol
# GULP energy per Si atom -5570.383130 kJ/mol
# Density = 2.302151 g / cm^3
# Si number density = 23.074030 Si / 1000 Ang^3
#
#
#
# Elastic Constant Matrix: (Units=GPa)
#
#
# Indices 1 2 3 4 5 6 
#
# 1 56.7029 -7.5832 47.6873 0.0000 0.0000 0.0000
# 2 -7.5832 66.4996 25.9123 0.0000 0.0000 0.0000
# 3 47.6873 25.9123 141.8209 0.0000 0.0000 0.0000
# 4 0.0000 0.0000 0.0000 18.5548 0.0000 0.0000
# 5 0.0000 0.0000 0.0000 0.0000 36.8031 0.0000
# 6 0.0000 0.0000 0.0000 0.0000 0.0000 12.0667
#
#
#
# Elastic Compliance Matrix: (Units=1/GPa)
#
#
# Indices 1 2 3 4 5 6 
#
# 1 0.027496 0.007255 -0.010571 0.000000 0.000000 0.000000
# 2 0.007255 0.018104 -0.005747 0.000000 0.000000 0.000000
# 3 -0.010571 -0.005747 0.011656 0.000000 0.000000 0.000000
# 4 0.000000 0.000000 0.000000 0.053894 0.000000 0.000000
# 5 0.000000 0.000000 0.000000 0.000000 0.027172 0.000000
# 6 0.000000 0.000000 0.000000 0.000000 0.000000 0.082873
#
#
# Mechanical properties :
#
#
# Convention : Reuss Voigt Hill
#
# Bulk Modulus (GPa) = 25.55643 44.11737 34.83690
# Shear Modulus (GPa) = 19.81249 26.75205 23.28227
#
# Velocity S-wave (km/s) = 2.93345 3.40869 3.17996
# Velocity P-wave (km/s) = 4.75115 5.88674 5.34916
#
# Compressibility (1/GPa) = 0.03912909
#
# Stress axis : x y z
#
# Youngs Moduli (GPa) = 36.36840 55.23503 85.79416
#
# Poissons Ratio (x) = -0.40071 0.90695
# Poissons Ratio (y) = -0.26384 0.49308
# Poissons Ratio (z) = 0.38446 0.31745
#
# Static dielectric constant tensor:
#      x y z
#    x 1.864250 0.000000 0.000000 
#    y 0.000000 1.875130 0.000000 
#    z 0.000000 0.000000 1.939330 
# 
# From -- ./inp_files/8608.got.cif
#   From: 2010.05.17/outbox.cif.g08.bks.cpg/sg33_5_cif.got.tgz:8608.got - 2010.06.03 17:15:25.
