data_PCOD9346926
_publ_section_title
;
Structure prediction by ZEFSAII (Michael W. Deem and Ramdas Pophale) SiO2 
 PCOD9346926
Probable space group: P N A 21
;
_chemical_formula_sum "Si O2"
_cell_formula_units_Z 24
_cell_length_a 14.318902
_cell_length_b 5.072049
_cell_length_c 12.775424
_cell_angle_alpha 90.000000
_cell_angle_beta 90.000000
_cell_angle_gamma 90.000000
_cell_volume 927.830148
_symmetry_space_group_name_H-M "P N A 21"
_symmetry_group_IT_number 33
_symmetry_cell_setting 'orthorhombic'
loop_
_space_group_symop_operation_xyz
x,y,z
-x,-y,1/2+z
1/2-x,1/2+y,1/2+z
1/2+x,1/2-y,z
loop_
_atom_site_type_symbol
_atom_site_label
_atom_site_fract_x
_atom_site_fract_y
_atom_site_fract_z
Si Si1 0.077848 0.797541 0.057170
Si Si2 0.331361 0.909207 0.418432
Si Si3 0.988864 0.720512 0.671465
Si Si4 0.716785 0.276574 0.554090
Si Si5 0.846279 0.979204 0.253109
Si Si6 0.324176 0.736964 0.825234
O O1 0.039770 0.572058 0.136156
O O2 0.186982 0.874309 0.076162
O O3 0.024334 0.070978 0.075389
O O4 0.090900 0.626069 0.950180
O O5 0.373983 0.657548 0.362531
O O6 0.263231 0.936333 0.520756
O O7 0.253302 0.008051 0.335892
O O8 0.916499 0.812932 0.761616
O O9 0.089871 0.776544 0.719506
O O10 0.651572 0.293151 0.652209
O O11 0.665265 0.184743 0.448102
O O12 0.737769 0.047015 0.267311
#
# Coordination Sequence:
#
# PCOD9346926 Si02
#       6
#     4   4   4   4   4   4
#     4   9  23  43  65  96 135 179 216 285 342 396
#     4   8  22  40  67  90 135 184 218 283 337 409
#     4  12  24  41  73 100 140 175 228 290 337 415
#     4   8  21  41  65  95 132 189 219 286 337 415
#     4  12  22  42  71  99 133 186 238 271 361 411
#     4   9  22  43  63  96 139 179 227 287 342 398
#
# _framework density 25.866806
#
# number of rings (size 3 to 8) (size 9 to 14) (size 15 to 20)
#    2.000    0.000    1.667    1.000    7.000    1.333 
#    3.000    0.000    0.000    0.000    0.000    0.000 
#    0.000    0.000    0.000    0.000    0.000    0.000 
#
# Total GULP energy -133639.682707 kJ/mol
# GULP energy per Si atom -5568.320113 kJ/mol
# Density = 2.580793 g / cm^3
# Si number density = 25.866806 Si / 1000 Ang^3
#
#
#
# Elastic Constant Matrix: (Units=GPa)
#
#
# Indices 1 2 3 4 5 6 
#
# 1 59.9069 13.3979 33.4517 0.0000 0.0000 0.0000
# 2 13.3979 91.8188 20.1460 0.0000 0.0000 0.0000
# 3 33.4517 20.1460 118.0027 0.0000 0.0000 0.0000
# 4 0.0000 0.0000 0.0000 33.5515 0.0000 0.0000
# 5 0.0000 0.0000 0.0000 0.0000 16.1025 0.0000
# 6 0.0000 0.0000 0.0000 0.0000 0.0000 24.4907
#
#
#
# Elastic Compliance Matrix: (Units=1/GPa)
#
#
# Indices 1 2 3 4 5 6 
#
# 1 0.020098 -0.001748 -0.005399 0.000000 0.000000 0.000000
# 2 -0.001748 0.011467 -0.001462 0.000000 0.000000 0.000000
# 3 -0.005399 -0.001462 0.010255 0.000000 0.000000 0.000000
# 4 0.000000 0.000000 0.000000 0.029805 0.000000 0.000000
# 5 0.000000 0.000000 0.000000 0.000000 0.062102 0.000000
# 6 0.000000 0.000000 0.000000 0.000000 0.000000 0.040832
#
#
# Mechanical properties :
#
#
# Convention : Reuss Voigt Hill
#
# Bulk Modulus (GPa) = 40.64843 44.85773 42.75308
# Shear Modulus (GPa) = 25.00281 28.34446 26.67363
#
# Velocity S-wave (km/s) = 3.11239 3.31386 3.21470
# Velocity P-wave (km/s) = 5.35393 5.65877 5.50846
#
# Compressibility (1/GPa) = 0.02460120
#
# Stress axis : x y z
#
# Youngs Moduli (GPa) = 49.75540 87.20752 97.51770
#
# Poissons Ratio (x) = 0.15244 0.52651
# Poissons Ratio (y) = 0.08698 0.14258
# Poissons Ratio (z) = 0.26863 0.12751
#
# Static dielectric constant tensor:
#      x y z
#    x 2.019790 0.000000 0.000000 
#    y 0.000000 2.152900 0.000000 
#    z 0.000000 0.000000 2.079950 
# 
# From -- ./inp_files/8079.got.cif
#   From: 2010.05.17/outbox.cif.g08.bks.cpg/sg33_5_cif.got.tgz:8079.got - 2010.06.03 17:15:25.
