data_PCOD9346910
_publ_section_title
;
Structure prediction by ZEFSAII (Michael W. Deem and Ramdas Pophale) SiO2 
 PCOD9346910
Probable space group: P N A 21
;
_chemical_formula_sum "Si O2"
_cell_formula_units_Z 20
_cell_length_a 12.120218
_cell_length_b 11.946324
_cell_length_c 5.160863
_cell_angle_alpha 90.000000
_cell_angle_beta 90.000000
_cell_angle_gamma 90.000000
_cell_volume 747.251940
_symmetry_space_group_name_H-M "P N A 21"
_symmetry_group_IT_number 33
_symmetry_cell_setting 'orthorhombic'
loop_
_space_group_symop_operation_xyz
x,y,z
-x,-y,1/2+z
1/2-x,1/2+y,1/2+z
1/2+x,1/2-y,z
loop_
_atom_site_type_symbol
_atom_site_label
_atom_site_fract_x
_atom_site_fract_y
_atom_site_fract_z
Si Si1 0.299706 0.675970 0.840710
Si Si2 0.603681 0.882865 0.489396
Si Si3 0.935664 0.003123 0.512044
Si Si4 0.301777 0.313413 0.721226
Si Si5 0.353425 0.918068 0.617778
O O1 0.176769 0.639133 0.745596
O O2 0.377265 0.591313 0.687409
O O3 0.340332 0.797392 0.747000
O O4 0.281488 0.714007 0.137534
O O5 0.605418 0.759237 0.364104
O O6 0.479058 0.923250 0.521800
O O7 0.660092 0.979386 0.314680
O O8 0.861340 0.114850 0.500362
O O9 0.966451 0.969076 0.220338
O O10 0.237318 0.404144 0.893012
#
# Coordination Sequence:
#
# PCOD9346910 Si02
#       5
#     4   4   4   4   4
#     4  11  27  48  75 106 154 202 259 320 387 467
#     4  11  27  45  75 110 149 196 257 319 392 462
#     4  12  30  48  80 112 158 208 262 320 396 466
#     4  11  27  48  75 106 154 202 259 320 387 467
#     4  11  27  45  75 110 149 196 257 319 392 462
#
# _framework density 26.764735999999999
#
# number of rings (size 3 to 8) (size 9 to 14) (size 15 to 20)
#    0.000    0.800    0.000    3.600   28.000    0.000 
#    0.000    0.000    0.000    0.000    0.000    0.000 
#    0.000    0.000    0.000    0.000    0.000    0.000 
#
# Total GULP energy -111798.903540 kJ/mol
# GULP energy per Si atom -5589.945177 kJ/mol
# Density = 2.670382 g / cm^3
# Si number density = 26.764736 Si / 1000 Ang^3
#
#
#
# Elastic Constant Matrix: (Units=GPa)
#
#
# Indices 1 2 3 4 5 6 
#
# 1 60.4749 36.6877 19.9539 0.0000 0.0000 0.0000
# 2 36.6877 151.9922 25.9312 0.0000 0.0000 0.0000
# 3 19.9539 25.9312 85.3304 0.0000 0.0000 0.0000
# 4 0.0000 0.0000 0.0000 56.7659 0.0000 0.0000
# 5 0.0000 0.0000 0.0000 0.0000 28.8196 0.0000
# 6 0.0000 0.0000 0.0000 0.0000 0.0000 22.4711
#
#
#
# Elastic Compliance Matrix: (Units=1/GPa)
#
#
# Indices 1 2 3 4 5 6 
#
# 1 0.020283 -0.004310 -0.003433 0.000000 0.000000 0.000000
# 2 -0.004310 0.007855 -0.001379 0.000000 0.000000 0.000000
# 3 -0.003433 -0.001379 0.012941 0.000000 0.000000 0.000000
# 4 0.000000 0.000000 0.000000 0.017616 0.000000 0.000000
# 5 0.000000 0.000000 0.000000 0.000000 0.034699 0.000000
# 6 0.000000 0.000000 0.000000 0.000000 0.000000 0.044502
#
#
# Mechanical properties :
#
#
# Convention : Reuss Voigt Hill
#
# Bulk Modulus (GPa) = 43.79398 51.43812 47.61605
# Shear Modulus (GPa) = 30.53385 35.95964 33.24675
#
# Velocity S-wave (km/s) = 3.38127 3.66942 3.52829
# Velocity P-wave (km/s) = 5.62513 6.10026 5.86751
#
# Compressibility (1/GPa) = 0.02283419
#
# Stress axis : x y z
#
# Youngs Moduli (GPa) = 49.30128 127.30784 77.27315
#
# Poissons Ratio (x) = 0.54873 0.26530
# Poissons Ratio (y) = 0.21250 0.10657
# Poissons Ratio (z) = 0.16927 0.17558
#
# Static dielectric constant tensor:
#      x y z
#    x 2.212130 0.000000 0.000000 
#    y 0.000000 2.012100 0.000000 
#    z 0.000000 0.000000 2.211360 
# 
# From -- ./inp_files/684.got.cif
#   From: 2010.05.17/outbox.cif.g08.bks.cpg/sg33_1_cif.got.tgz:684.got - 2010.06.03 17:15:25.
