data_PCOD9346642
_publ_section_title
;
Structure prediction by ZEFSAII (Michael W. Deem and Ramdas Pophale) SiO2 
 PCOD9346642
Probable space group: P N A 21
;
_chemical_formula_sum "Si O2"
_cell_formula_units_Z 20
_cell_length_a 19.942639
_cell_length_b 8.420896
_cell_length_c 5.114438
_cell_angle_alpha 90.000000
_cell_angle_beta 90.000000
_cell_angle_gamma 90.000000
_cell_volume 858.892578
_symmetry_space_group_name_H-M "P N A 21"
_symmetry_group_IT_number 33
_symmetry_cell_setting 'orthorhombic'
loop_
_space_group_symop_operation_xyz
x,y,z
-x,-y,1/2+z
1/2-x,1/2+y,1/2+z
1/2+x,1/2-y,z
loop_
_atom_site_type_symbol
_atom_site_label
_atom_site_fract_x
_atom_site_fract_y
_atom_site_fract_z
Si Si1 0.513435 0.103736 0.890870
Si Si2 0.715434 0.524621 0.338826
Si Si3 0.456118 0.324186 0.518753
Si Si4 0.912612 0.837688 0.679164
Si Si5 0.314493 0.256877 0.341348
O O1 0.464374 0.248616 0.806270
O O2 0.514385 0.000119 0.628737
O O3 0.582082 0.185562 0.990855
O O4 0.656170 0.392245 0.309127
O O5 0.703694 0.635143 0.590747
O O6 0.781097 0.415869 0.338081
O O7 0.710814 0.642119 0.091723
O O8 0.528378 0.310870 0.387428
O O9 0.435390 0.506828 0.521098
O O10 0.394341 0.240181 0.377387
#
# Coordination Sequence:
#
# PCOD9346642 Si02
#       5
#     4   4   4   4   4
#     4  12  26  42  64 110 144 172 222 304 364 398
#     4  11  26  48  73 103 142 191 235 287 351 421
#     4  11  23  44  76 100 138 184 240 280 350 427
#     4  11  23  44  76 100 138 184 240 280 350 427
#     4  11  26  48  73 103 142 191 235 287 351 421
#
# _framework density 23.285799999999998
#
# number of rings (size 3 to 8) (size 9 to 14) (size 15 to 20)
#    0.000    0.800    4.000    2.400    5.600    1.600 
#    7.200    0.000    0.000    0.000    0.000    0.000 
#    0.000    0.000    0.000    0.000    0.000    0.000 
#
# Total GULP energy -111860.353197 kJ/mol
# GULP energy per Si atom -5593.017660 kJ/mol
# Density = 2.323280 g / cm^3
# Si number density = 23.285800 Si / 1000 Ang^3
#
#
#
# Elastic Constant Matrix: (Units=GPa)
#
#
# Indices 1 2 3 4 5 6 
#
# 1 44.6409 13.4566 15.7679 0.0000 0.0000 0.0000
# 2 13.4566 52.0545 13.7480 0.0000 0.0000 0.0000
# 3 15.7679 13.7480 143.1035 0.0000 0.0000 0.0000
# 4 0.0000 0.0000 0.0000 61.2760 0.0000 0.0000
# 5 0.0000 0.0000 0.0000 0.0000 21.1828 0.0000
# 6 0.0000 0.0000 0.0000 0.0000 0.0000 36.3306
#
#
#
# Elastic Compliance Matrix: (Units=1/GPa)
#
#
# Indices 1 2 3 4 5 6 
#
# 1 0.024942 -0.005871 -0.002184 0.000000 0.000000 0.000000
# 2 -0.005871 0.021093 -0.001379 0.000000 0.000000 0.000000
# 3 -0.002184 -0.001379 0.007361 0.000000 0.000000 0.000000
# 4 0.000000 0.000000 0.000000 0.016320 0.000000 0.000000
# 5 0.000000 0.000000 0.000000 0.000000 0.047208 0.000000
# 6 0.000000 0.000000 0.000000 0.000000 0.000000 0.027525
#
#
# Mechanical properties :
#
#
# Convention : Reuss Voigt Hill
#
# Bulk Modulus (GPa) = 28.96307 36.19376 32.57841
# Shear Modulus (GPa) = 28.59969 36.87964 32.73967
#
# Velocity S-wave (km/s) = 3.50837 3.98399 3.75372
# Velocity P-wave (km/s) = 5.37370 6.06135 5.72785
#
# Compressibility (1/GPa) = 0.03452673
#
# Stress axis : x y z
#
# Youngs Moduli (GPa) = 40.09259 47.40984 135.84840
#
# Poissons Ratio (x) = 0.27834 0.29673
# Poissons Ratio (y) = 0.23538 0.18740
# Poissons Ratio (z) = 0.08757 0.06540
#
# Static dielectric constant tensor:
#      x y z
#    x 1.886870 0.000000 0.000000 
#    y 0.000000 1.918110 0.000000 
#    z 0.000000 0.000000 1.910570 
# 
# From -- ./inp_files/1634.got.cif
#   From: 2010.05.17/outbox.cif.g08.bks.cpg/sg33_1_cif.got.tgz:1634.got - 2010.06.03 17:15:25.
