data_PCOD9346814
_publ_section_title
;
Structure prediction by ZEFSAII (Michael W. Deem and Ramdas Pophale) SiO2 
 PCOD9346814
Probable space group: P N A 21
;
_chemical_formula_sum "Si O2"
_cell_formula_units_Z 32
_cell_length_a 12.458679
_cell_length_b 8.663604
_cell_length_c 12.963506
_cell_angle_alpha 90.000000
_cell_angle_beta 90.000000
_cell_angle_gamma 90.000000
_cell_volume 1399.242741
_symmetry_space_group_name_H-M "P N A 21"
_symmetry_group_IT_number 33
_symmetry_cell_setting 'orthorhombic'
loop_
_space_group_symop_operation_xyz
x,y,z
-x,-y,1/2+z
1/2-x,1/2+y,1/2+z
1/2+x,1/2-y,z
loop_
_atom_site_type_symbol
_atom_site_label
_atom_site_fract_x
_atom_site_fract_y
_atom_site_fract_z
Si Si1 0.996182 0.555559 0.802720
Si Si2 0.107404 0.040034 0.703325
Si Si3 0.925794 0.851449 0.681892
Si Si4 0.748946 0.689786 0.574945
Si Si5 0.770341 0.436032 0.889071
Si Si6 0.882265 0.628127 0.147229
Si Si7 0.424255 0.070754 0.520646
Si Si8 0.160220 0.896969 0.060909
O O1 0.981317 0.694606 0.721895
O O2 0.882635 0.485395 0.838578
O O3 0.065224 0.420109 0.753616
O O4 0.059703 0.611448 0.902167
O O5 0.187723 0.087478 0.795036
O O6 0.103086 0.190560 0.632257
O O7 0.154057 0.903398 0.630733
O O8 0.992400 0.980318 0.746587
O O9 0.805044 0.786304 0.667945
O O10 0.920981 0.959414 0.577343
O O11 0.722623 0.797972 0.475385
O O12 0.840784 0.566729 0.539937
O O13 0.720003 0.578936 0.952906
O O14 0.757984 0.590204 0.141455
O O15 0.956300 0.539435 0.064181
O O16 0.384306 0.226508 0.574566
#
# Coordination Sequence:
#
# PCOD9346814 Si02
#       8
#     4   4   4   4   4   4   4   4
#     4  12  26  44  74 107 146 192 245 299 369 445
#     4  12  24  47  71 105 147 191 247 303 364 441
#     4  11  25  41  72 104 138 197 236 300 365 430
#     4  11  25  44  75 102 147 190 243 304 377 433
#     4  11  25  46  70 110 142 185 249 300 362 458
#     4  12  25  46  72 102 148 191 238 308 366 442
#     4  12  23  48  69 104 141 190 241 303 366 437
#     4  11  25  46  71 102 145 188 245 301 373 432
#
# _framework density 22.869512
#
# number of rings (size 3 to 8) (size 9 to 14) (size 15 to 20)
#    0.000    0.500    6.250    1.500    5.250    1.000 
#    0.000    1.250    0.000    0.000    0.000    0.000 
#    0.000    0.000    0.000    0.000    0.000    0.000 
#
# Total GULP energy -178183.271149 kJ/mol
# GULP energy per Si atom -5568.227223 kJ/mol
# Density = 2.281746 g / cm^3
# Si number density = 22.869512 Si / 1000 Ang^3
#
#
#
# Elastic Constant Matrix: (Units=GPa)
#
#
# Indices 1 2 3 4 5 6 
#
# 1 107.7301 49.7861 40.2837 0.0000 0.0000 0.0000
# 2 49.7861 123.1872 25.2747 0.0000 0.0000 0.0000
# 3 40.2837 25.2747 72.1259 0.0000 0.0000 0.0000
# 4 0.0000 0.0000 0.0000 30.6471 0.0000 0.0000
# 5 0.0000 0.0000 0.0000 0.0000 40.1446 0.0000
# 6 0.0000 0.0000 0.0000 0.0000 0.0000 38.6076
#
#
#
# Elastic Compliance Matrix: (Units=1/GPa)
#
#
# Indices 1 2 3 4 5 6 
#
# 1 0.013495 -0.004210 -0.006062 0.000000 0.000000 0.000000
# 2 -0.004210 0.010060 -0.001174 0.000000 0.000000 0.000000
# 3 -0.006062 -0.001174 0.017662 0.000000 0.000000 0.000000
# 4 0.000000 0.000000 0.000000 0.032629 0.000000 0.000000
# 5 0.000000 0.000000 0.000000 0.000000 0.024910 0.000000
# 6 0.000000 0.000000 0.000000 0.000000 0.000000 0.025902
#
#
# Mechanical properties :
#
#
# Convention : Reuss Voigt Hill
#
# Bulk Modulus (GPa) = 54.57044 59.30357 56.93701
# Shear Modulus (GPa) = 32.53988 34.39311 33.46650
#
# Velocity S-wave (km/s) = 3.77616 3.88220 3.82955
# Velocity P-wave (km/s) = 6.55179 6.78844 6.67116
#
# Compressibility (1/GPa) = 0.01832494
#
# Stress axis : x y z
#
# Youngs Moduli (GPa) = 74.10233 99.40232 56.61999
#
# Poissons Ratio (x) = 0.41851 0.34322
# Poissons Ratio (y) = 0.31199 0.06646
# Poissons Ratio (z) = 0.44919 0.11668
#
# Static dielectric constant tensor:
#      x y z
#    x 1.928230 0.000000 0.000000 
#    y 0.000000 1.874480 0.000000 
#    z 0.000000 0.000000 1.908700 
# 
# From -- ./inp_files/7990.got.cif
#   From: 2010.05.17/outbox.cif.g08.bks.cpg/sg33_4_cif.got.tgz:7990.got - 2010.06.03 17:15:25.
