data_PCOD9346824
_publ_section_title
;
Structure prediction by ZEFSAII (Michael W. Deem and Ramdas Pophale) SiO2 
 PCOD9346824
Probable space group: P N A 21
;
_chemical_formula_sum "Si O2"
_cell_formula_units_Z 32
_cell_length_a 15.927229
_cell_length_b 16.361238
_cell_length_c 6.120116
_cell_angle_alpha 90.000000
_cell_angle_beta 90.000000
_cell_angle_gamma 90.000000
_cell_volume 1594.836037
_symmetry_space_group_name_H-M "P N A 21"
_symmetry_group_IT_number 33
_symmetry_cell_setting 'orthorhombic'
loop_
_space_group_symop_operation_xyz
x,y,z
-x,-y,1/2+z
1/2-x,1/2+y,1/2+z
1/2+x,1/2-y,z
loop_
_atom_site_type_symbol
_atom_site_label
_atom_site_fract_x
_atom_site_fract_y
_atom_site_fract_z
Si Si1 0.182601 0.369767 0.325960
Si Si2 0.665279 0.864244 0.796713
Si Si3 0.283096 0.501720 0.591422
Si Si4 0.493942 0.957444 0.788529
Si Si5 0.710010 0.715414 0.481023
Si Si6 0.700781 0.292144 0.583746
Si Si7 0.082369 0.919009 0.393671
Si Si8 0.397144 0.561429 0.225563
O O1 0.232599 0.424731 0.499324
O O2 0.242423 0.354488 0.119819
O O3 0.171088 0.279591 0.423918
O O4 0.096296 0.414401 0.273407
O O5 0.570450 0.893843 0.810165
O O6 0.678971 0.791689 0.623772
O O7 0.721065 0.942372 0.729844
O O8 0.709002 0.828540 0.012206
O O9 0.364230 0.470892 0.719855
O O10 0.320354 0.553649 0.392928
O O11 0.505782 0.998609 0.538200
O O12 0.778558 0.749709 0.312847
O O13 0.627954 0.668436 0.394578
O O14 0.633370 0.364511 0.574030
O O15 0.985147 0.914860 0.333127
O O16 0.090929 0.973503 0.612237
#
# Coordination Sequence:
#
# PCOD9346824 Si02
#       8
#     4   4   4   4   4   4   4   4
#     4  11  26  46  70 103 142 187 239 298 366 432
#     4  11  26  46  70 103 142 187 239 298 366 432
#     4  12  22  44  72  98 134 182 236 292 356 436
#     4  12  30  48  78 112 146 194 254 306 366 442
#     4  11  25  44  71 101 140 189 233 295 363 436
#     4  11  25  44  71 101 140 189 233 295 363 436
#     4  12  25  42  68  99 137 177 233 289 351 425
#     4  12  25  42  68  99 137 177 233 289 351 425
#
# _framework density 20.064758000000001
#
# number of rings (size 3 to 8) (size 9 to 14) (size 15 to 20)
#    0.000    0.500    7.500    0.000    7.000    2.000 
#    2.250    0.000    0.000    0.000    0.000    0.000 
#    0.000    0.000    0.000    0.000    0.000    0.000 
#
# Total GULP energy -178512.354166 kJ/mol
# GULP energy per Si atom -5578.511068 kJ/mol
# Density = 2.001909 g / cm^3
# Si number density = 20.064758 Si / 1000 Ang^3
#
#
#
# Elastic Constant Matrix: (Units=GPa)
#
#
# Indices 1 2 3 4 5 6 
#
# 1 75.5278 14.3053 1.3872 0.0000 0.0000 0.0000
# 2 14.3053 58.8458 6.9373 0.0000 0.0000 0.0000
# 3 1.3872 6.9373 45.0743 0.0000 0.0000 0.0000
# 4 0.0000 0.0000 0.0000 16.9807 0.0000 0.0000
# 5 0.0000 0.0000 0.0000 0.0000 27.0648 0.0000
# 6 0.0000 0.0000 0.0000 0.0000 0.0000 32.6778
#
#
#
# Elastic Compliance Matrix: (Units=1/GPa)
#
#
# Indices 1 2 3 4 5 6 
#
# 1 0.013880 -0.003385 0.000094 0.000000 0.000000 0.000000
# 2 -0.003385 0.018133 -0.002687 0.000000 0.000000 0.000000
# 3 0.000094 -0.002687 0.022596 0.000000 0.000000 0.000000
# 4 0.000000 0.000000 0.000000 0.058890 0.000000 0.000000
# 5 0.000000 0.000000 0.000000 0.000000 0.036948 0.000000
# 6 0.000000 0.000000 0.000000 0.000000 0.000000 0.030602
#
#
# Mechanical properties :
#
#
# Convention : Reuss Voigt Hill
#
# Bulk Modulus (GPa) = 23.44497 24.96749 24.20623
# Shear Modulus (GPa) = 24.12855 25.79918 24.96386
#
# Velocity S-wave (km/s) = 3.47152 3.58969 3.53110
# Velocity P-wave (km/s) = 5.27054 5.44533 5.35865
#
# Compressibility (1/GPa) = 0.04265307
#
# Stress axis : x y z
#
# Youngs Moduli (GPa) = 72.04816 55.14737 44.25519
#
# Poissons Ratio (x) = 0.18668 -0.00415
# Poissons Ratio (y) = 0.24389 0.11890
# Poissons Ratio (z) = -0.00676 0.14816
#
# Static dielectric constant tensor:
#      x y z
#    x 1.649070 0.000000 0.000000 
#    y 0.000000 1.702290 0.000000 
#    z 0.000000 0.000000 1.791040 
# 
# From -- ./inp_files/1472.got.cif
#   From: 2010.05.17/outbox.cif.g08.bks.cpg/sg33_1_cif.got.tgz:1472.got - 2010.06.03 17:15:25.
