data_PCOD9346231
_publ_section_title
;
Structure prediction by ZEFSAII (Michael W. Deem and Ramdas Pophale) SiO2 
 PCOD9346231
Probable space group: P N A 21
;
_chemical_formula_sum "Si O2"
_cell_formula_units_Z 32
_cell_length_a 8.387427
_cell_length_b 19.907102
_cell_length_c 8.461465
_cell_angle_alpha 90.000000
_cell_angle_beta 90.000000
_cell_angle_gamma 90.000000
_cell_volume 1412.805436
_symmetry_space_group_name_H-M "P N A 21"
_symmetry_group_IT_number 33
_symmetry_cell_setting 'orthorhombic'
loop_
_space_group_symop_operation_xyz
x,y,z
-x,-y,1/2+z
1/2-x,1/2+y,1/2+z
1/2+x,1/2-y,z
loop_
_atom_site_type_symbol
_atom_site_label
_atom_site_fract_x
_atom_site_fract_y
_atom_site_fract_z
Si Si1 0.822198 0.429732 0.691340
Si Si2 0.709058 0.716197 0.238428
Si Si3 0.869196 0.483282 0.235291
Si Si4 0.698760 0.547107 0.531619
Si Si5 0.433849 0.847812 0.693475
Si Si6 0.501897 0.813250 0.043287
Si Si7 0.439585 0.717136 0.476331
Si Si8 0.152637 0.081262 0.010217
O O1 0.686774 0.482662 0.646007
O O2 0.778853 0.410037 0.868995
O O3 0.984292 0.471934 0.681858
O O4 0.860253 0.368067 0.577003
O O5 0.592135 0.746220 0.104191
O O6 0.849567 0.672977 0.158591
O O7 0.593900 0.692427 0.378694
O O8 0.812378 0.769891 0.337367
O O9 0.813058 0.517558 0.396063
O O10 0.936988 0.406982 0.223973
O O11 0.720429 0.476873 0.120179
O O12 0.782536 0.609407 0.625116
O O13 0.525116 0.560674 0.464078
O O14 0.466585 0.786809 0.570451
O O15 0.431064 0.814102 0.867473
O O16 0.374864 0.656083 0.582265
#
# Coordination Sequence:
#
# PCOD9346231 Si02
#       8
#     4   4   4   4   4   4   4   4
#     4  11  23  46  69  98 143 193 246 289 376 441
#     4  10  24  41  70 103 144 189 243 305 365 450
#     4  11  25  43  70 103 141 198 244 294 359 451
#     4  11  25  45  68 110 142 192 244 305 373 429
#     4  11  25  46  77 103 149 199 246 303 377 468
#     4  11  24  46  68 104 144 194 246 301 370 440
#     4  11  23  44  69 111 143 191 243 305 387 427
#     4  12  25  43  73 106 144 188 248 318 363 444
#
# _framework density 22.649968999999999
#
# number of rings (size 3 to 8) (size 9 to 14) (size 15 to 20)
#    0.000    1.000    2.500    3.750    8.750    3.000 
#    0.000    1.250    0.000    0.000    0.000    0.000 
#    0.000    0.000    0.000    0.000    0.000    0.000 
#
# Total GULP energy -178284.600524 kJ/mol
# GULP energy per Si atom -5571.393766 kJ/mol
# Density = 2.259842 g / cm^3
# Si number density = 22.649969 Si / 1000 Ang^3
#
#
#
# Elastic Constant Matrix: (Units=GPa)
#
#
# Indices 1 2 3 4 5 6 
#
# 1 109.1001 18.6399 28.8298 0.0000 0.0000 0.0000
# 2 18.6399 81.9572 27.7884 0.0000 0.0000 0.0000
# 3 28.8298 27.7884 103.6002 0.0000 0.0000 0.0000
# 4 0.0000 0.0000 0.0000 30.9816 0.0000 0.0000
# 5 0.0000 0.0000 0.0000 0.0000 35.7199 0.0000
# 6 0.0000 0.0000 0.0000 0.0000 0.0000 19.5907
#
#
#
# Elastic Compliance Matrix: (Units=1/GPa)
#
#
# Indices 1 2 3 4 5 6 
#
# 1 0.010052 -0.001472 -0.002403 0.000000 0.000000 0.000000
# 2 -0.001472 0.013638 -0.003248 0.000000 0.000000 0.000000
# 3 -0.002403 -0.003248 0.011192 0.000000 0.000000 0.000000
# 4 0.000000 0.000000 0.000000 0.032277 0.000000 0.000000
# 5 0.000000 0.000000 0.000000 0.000000 0.027996 0.000000
# 6 0.000000 0.000000 0.000000 0.000000 0.000000 0.051045
#
#
# Mechanical properties :
#
#
# Convention : Reuss Voigt Hill
#
# Bulk Modulus (GPa) = 48.45687 49.46375 48.96031
# Shear Modulus (GPa) = 29.88217 31.88508 30.88363
#
# Velocity S-wave (km/s) = 3.63616 3.75605 3.69659
# Velocity P-wave (km/s) = 6.25053 6.37936 6.31527
#
# Compressibility (1/GPa) = 0.02063691
#
# Stress axis : x y z
#
# Youngs Moduli (GPa) = 99.48068 73.32670 89.34629
#
# Poissons Ratio (x) = 0.10791 0.21466
# Poissons Ratio (y) = 0.14639 0.29024
# Poissons Ratio (z) = 0.23901 0.23820
#
# Static dielectric constant tensor:
#      x y z
#    x 1.891860 0.000000 0.000000 
#    y 0.000000 1.902560 0.000000 
#    z 0.000000 0.000000 1.906800 
# 
# From -- ./inp_files/3504.got.cif
#   From: 2010.05.17/outbox.cif.g08.bks.cpg/sg33_2_cif.got.tgz:3504.got - 2010.06.03 17:15:25.
