data_PCOD9346912
_publ_section_title
;
Structure prediction by ZEFSAII (Michael W. Deem and Ramdas Pophale) SiO2 
 PCOD9346912
Probable space group: P N A 21
;
_chemical_formula_sum "Si O2"
_cell_formula_units_Z 20
_cell_length_a 17.389251
_cell_length_b 5.439375
_cell_length_c 8.645110
_cell_angle_alpha 90.000000
_cell_angle_beta 90.000000
_cell_angle_gamma 90.000000
_cell_volume 817.712056
_symmetry_space_group_name_H-M "P N A 21"
_symmetry_group_IT_number 33
_symmetry_cell_setting 'orthorhombic'
loop_
_space_group_symop_operation_xyz
x,y,z
-x,-y,1/2+z
1/2-x,1/2+y,1/2+z
1/2+x,1/2-y,z
loop_
_atom_site_type_symbol
_atom_site_label
_atom_site_fract_x
_atom_site_fract_y
_atom_site_fract_z
Si Si1 0.071258 0.846122 0.550410
Si Si2 0.664243 0.948951 0.318521
Si Si3 0.400584 0.099429 0.483835
Si Si4 0.039195 0.217097 0.325077
Si Si5 0.345064 0.600058 0.315787
O O1 0.136671 0.671968 0.479667
O O2 0.004487 0.758272 0.664742
O O3 0.030567 0.952207 0.398873
O O4 0.112143 0.062853 0.651211
O O5 0.753466 0.909739 0.294832
O O6 0.629290 0.224132 0.321928
O O7 0.619739 0.863117 0.163274
O O8 0.490729 0.110271 0.440025
O O9 0.366759 0.344965 0.402440
O O10 0.366563 0.849303 0.408390
#
# Coordination Sequence:
#
# PCOD9346912 Si02
#       5
#     4   4   4   4   4
#     4  11  27  48  74 115 152 203 265 317 391 461
#     4  12  27  45  79 106 153 201 255 320 391 460
#     4  11  28  49  73 110 150 199 257 312 388 460
#     4  11  27  45  77 108 151 204 258 321 379 463
#     4  11  29  49  75 111 156 199 253 318 391 468
#
# _framework density 24.458487999999999
#
# number of rings (size 3 to 8) (size 9 to 14) (size 15 to 20)
#    0.000    0.800    0.000    3.600   28.000    0.000 
#    0.000    0.000    0.000    0.000    0.000    0.000 
#    0.000    0.000    0.000    0.000    0.000    0.000 
#
# Total GULP energy -111772.645518 kJ/mol
# GULP energy per Si atom -5588.632276 kJ/mol
# Density = 2.440282 g / cm^3
# Si number density = 24.458488 Si / 1000 Ang^3
#
#
#
# Elastic Constant Matrix: (Units=GPa)
#
#
# Indices 1 2 3 4 5 6 
#
# 1 124.4715 20.1164 -5.6959 0.0000 0.0000 0.0000
# 2 20.1164 108.9637 31.9717 0.0000 0.0000 0.0000
# 3 -5.6959 31.9717 103.5165 0.0000 0.0000 0.0000
# 4 0.0000 0.0000 0.0000 52.7674 0.0000 0.0000
# 5 0.0000 0.0000 0.0000 0.0000 28.3849 0.0000
# 6 0.0000 0.0000 0.0000 0.0000 0.0000 14.5182
#
#
#
# Elastic Compliance Matrix: (Units=1/GPa)
#
#
# Indices 1 2 3 4 5 6 
#
# 1 0.008380 -0.001850 0.001033 0.000000 0.000000 0.000000
# 2 -0.001850 0.010500 -0.003345 0.000000 0.000000 0.000000
# 3 0.001033 -0.003345 0.010750 0.000000 0.000000 0.000000
# 4 0.000000 0.000000 0.000000 0.018951 0.000000 0.000000
# 5 0.000000 0.000000 0.000000 0.000000 0.035230 0.000000
# 6 0.000000 0.000000 0.000000 0.000000 0.000000 0.068879
#
#
# Mechanical properties :
#
#
# Convention : Reuss Voigt Hill
#
# Bulk Modulus (GPa) = 46.93541 47.74845 47.34193
# Shear Modulus (GPa) = 29.74102 38.50473 34.12288
#
# Velocity S-wave (km/s) = 3.49087 3.97204 3.73920
# Velocity P-wave (km/s) = 5.95649 6.37187 6.16768
#
# Compressibility (1/GPa) = 0.02130587
#
# Stress axis : x y z
#
# Youngs Moduli (GPa) = 119.32863 95.23468 93.02151
#
# Poissons Ratio (x) = 0.17619 -0.09605
# Poissons Ratio (y) = 0.22077 0.31115
# Poissons Ratio (z) = -0.12321 0.31855
#
# Static dielectric constant tensor:
#      x y z
#    x 1.941970 0.000000 0.000000 
#    y 0.000000 2.040740 0.000000 
#    z 0.000000 0.000000 1.981290 
# 
# From -- ./inp_files/4554.got.cif
#   From: 2010.05.17/outbox.cif.g08.bks.cpg/sg33_3_cif.got.tgz:4554.got - 2010.06.03 17:15:25.
