data_PCOD9346141
_publ_section_title
;
Structure prediction by ZEFSAII (Michael W. Deem and Ramdas Pophale) SiO2 
 PCOD9346141
Probable space group: P N A 21
;
_chemical_formula_sum "Si O2"
_cell_formula_units_Z 32
_cell_length_a 18.739837
_cell_length_b 11.915723
_cell_length_c 5.615058
_cell_angle_alpha 90.000000
_cell_angle_beta 90.000000
_cell_angle_gamma 90.000000
_cell_volume 1253.835190
_symmetry_space_group_name_H-M "P N A 21"
_symmetry_group_IT_number 33
_symmetry_cell_setting 'orthorhombic'
loop_
_space_group_symop_operation_xyz
x,y,z
-x,-y,1/2+z
1/2-x,1/2+y,1/2+z
1/2+x,1/2-y,z
loop_
_atom_site_type_symbol
_atom_site_label
_atom_site_fract_x
_atom_site_fract_y
_atom_site_fract_z
Si Si1 0.418640 0.136273 0.233870
Si Si2 0.192339 0.035566 0.807498
Si Si3 0.656953 0.580691 0.324335
Si Si4 0.435373 0.927804 0.561944
Si Si5 0.510235 0.383139 0.838503
Si Si6 0.336688 0.971099 0.945604
Si Si7 0.303250 0.798738 0.318515
Si Si8 0.990538 0.149438 0.342172
O O1 0.486161 0.123684 0.054861
O O2 0.424261 0.264484 0.319242
O O3 0.434373 0.051080 0.448323
O O4 0.349822 0.078867 0.115824
O O5 0.157397 0.998470 0.558095
O O6 0.276039 0.009339 0.766402
O O7 0.027274 0.983409 0.843392
O O8 0.172361 0.977811 0.065014
O O9 0.576299 0.627537 0.322686
O O10 0.721318 0.667537 0.380307
O O11 0.411646 0.940697 0.832982
O O12 0.369468 0.859917 0.449158
O O13 0.685043 0.332211 0.835563
O O14 0.532017 0.328539 0.588154
O O15 0.534006 0.340200 0.095995
O O16 0.309967 0.856561 0.061406
#
# Coordination Sequence:
#
# PCOD9346141 Si02
#       8
#     4   4   4   4   4   4   4   4
#     4  11  24  38  69  97 128 185 216 278 339 399
#     4  11  25  42  69  97 130 179 220 268 340 393
#     4  11  24  44  66  99 129 174 225 271 332 398
#     4  11  22  43  62  97 138 168 225 279 332 394
#     4  10  23  46  64  97 135 167 226 282 319 398
#     4  10  23  45  61  98 138 166 231 273 325 408
#     4  10  25  42  66  94 136 175 218 284 329 394
#     4  10  24  42  67  97 132 176 221 273 334 388
#
# _framework density 25.521695000000001
#
# number of rings (size 3 to 8) (size 9 to 14) (size 15 to 20)
#    0.000    1.500    2.500    0.750    7.000    0.000 
#    0.000    0.000    0.000    0.000    0.000    0.000 
#    0.000    0.000    0.000    0.000    0.000    0.000 
#
# Total GULP energy -178684.770743 kJ/mol
# GULP energy per Si atom -5583.899086 kJ/mol
# Density = 2.546361 g / cm^3
# Si number density = 25.521695 Si / 1000 Ang^3
#
#
#
# Elastic Constant Matrix: (Units=GPa)
#
#
# Indices 1 2 3 4 5 6 
#
# 1 109.0751 1.2745 19.3869 0.0000 0.0000 0.0000
# 2 1.2745 97.8894 43.3081 0.0000 0.0000 0.0000
# 3 19.3869 43.3081 135.4430 0.0000 0.0000 0.0000
# 4 0.0000 0.0000 0.0000 12.9799 0.0000 0.0000
# 5 0.0000 0.0000 0.0000 0.0000 30.2923 0.0000
# 6 0.0000 0.0000 0.0000 0.0000 0.0000 34.1784
#
#
#
# Elastic Compliance Matrix: (Units=1/GPa)
#
#
# Indices 1 2 3 4 5 6 
#
# 1 0.009433 0.000553 -0.001527 0.000000 0.000000 0.000000
# 2 0.000553 0.011931 -0.003894 0.000000 0.000000 0.000000
# 3 -0.001527 -0.003894 0.008847 0.000000 0.000000 0.000000
# 4 0.000000 0.000000 0.000000 0.077042 0.000000 0.000000
# 5 0.000000 0.000000 0.000000 0.000000 0.033012 0.000000
# 6 0.000000 0.000000 0.000000 0.000000 0.000000 0.029258
#
#
# Mechanical properties :
#
#
# Convention : Reuss Voigt Hill
#
# Bulk Modulus (GPa) = 48.84158 52.26076 50.55117
# Shear Modulus (GPa) = 26.86950 34.05266 30.46108
#
# Velocity S-wave (km/s) = 3.24822 3.65672 3.45851
# Velocity P-wave (km/s) = 5.76600 6.19276 5.98319
#
# Compressibility (1/GPa) = 0.02047436
#
# Stress axis : x y z
#
# Youngs Moduli (GPa) = 106.01160 83.81345 113.03392
#
# Poissons Ratio (x) = -0.04633 0.17260
# Poissons Ratio (y) = -0.05860 0.44017
# Poissons Ratio (z) = 0.16187 0.32638
#
# Static dielectric constant tensor:
#      x y z
#    x 2.054790 0.000000 0.000000 
#    y 0.000000 2.007330 0.000000 
#    z 0.000000 0.000000 2.123240 
# 
# From -- ./inp_files/1140.got.cif
#   From: 2010.05.17/outbox.cif.g08.bks.cpg/sg33_1_cif.got.tgz:1140.got - 2010.06.03 17:15:25.
