data_PCOD9346833
_publ_section_title
;
Structure prediction by ZEFSAII (Michael W. Deem and Ramdas Pophale) SiO2 
 PCOD9346833
Probable space group: P N A 21
;
_chemical_formula_sum "Si O2"
_cell_formula_units_Z 32
_cell_length_a 9.023851
_cell_length_b 6.820667
_cell_length_c 19.352594
_cell_angle_alpha 90.000000
_cell_angle_beta 90.000000
_cell_angle_gamma 90.000000
_cell_volume 1191.126668
_symmetry_space_group_name_H-M "P N A 21"
_symmetry_group_IT_number 33
_symmetry_cell_setting 'orthorhombic'
loop_
_space_group_symop_operation_xyz
x,y,z
-x,-y,1/2+z
1/2-x,1/2+y,1/2+z
1/2+x,1/2-y,z
loop_
_atom_site_type_symbol
_atom_site_label
_atom_site_fract_x
_atom_site_fract_y
_atom_site_fract_z
Si Si1 0.921022 0.866730 0.174350
Si Si2 0.922681 0.877358 0.752381
Si Si3 0.602992 0.873782 0.241344
Si Si4 0.410401 0.281439 0.390511
Si Si5 0.874922 0.479581 0.893554
Si Si6 0.970061 0.979382 0.027691
Si Si7 0.894358 0.376211 0.187006
Si Si8 0.261651 0.206622 0.035343
O O1 0.748403 0.880877 0.193031
O O2 0.978233 0.853775 0.096225
O O3 0.950892 0.130292 0.185261
O O4 0.057124 0.873042 0.234190
O O5 0.945431 0.622430 0.740552
O O6 0.007842 0.881641 0.825878
O O7 0.746344 0.869930 0.739191
O O8 0.647567 0.861941 0.323025
O O9 0.441910 0.881897 0.191917
O O10 0.239302 0.337743 0.388415
O O11 0.456493 0.054796 0.391227
O O12 0.480626 0.367509 0.460229
O O13 0.833043 0.383195 0.965879
O O14 0.805367 0.066696 0.028912
O O15 0.088867 0.155859 0.035032
O O16 0.827876 0.373359 0.107623
#
# Coordination Sequence:
#
# PCOD9346833 Si02
#       8
#     4   4   4   4   4   4   4   4
#     4  12  26  46  70 102 139 180 232 290 347 411
#     4  12  22  43  73 100 136 180 233 284 346 414
#     4  12  28  45  70 103 138 182 234 291 350 412
#     4  11  25  46  69 107 139 185 232 287 348 417
#     4  11  26  46  69 102 143 183 232 287 351 418
#     4  11  27  46  72 103 145 183 234 287 347 421
#     4  12  23  43  72 102 135 184 233 287 346 417
#     4  11  25  45  67 105 139 185 230 285 351 410
#
# _framework density 26.865321999999999
#
# number of rings (size 3 to 8) (size 9 to 14) (size 15 to 20)
#    0.000    0.500    5.000    2.250    5.250    2.000 
#    0.000    0.000    0.000    0.000    0.000    0.000 
#    0.000    0.000    0.000    0.000    0.000    0.000 
#
# Total GULP energy -179045.185112 kJ/mol
# GULP energy per Si atom -5595.162035 kJ/mol
# Density = 2.680418 g / cm^3
# Si number density = 26.865322 Si / 1000 Ang^3
#
#
#
# Elastic Constant Matrix: (Units=GPa)
#
#
# Indices 1 2 3 4 5 6 
#
# 1 136.7810 26.4497 55.6603 0.0000 0.0000 0.0000
# 2 26.4497 113.3242 15.7690 0.0000 0.0000 0.0000
# 3 55.6603 15.7690 167.4531 0.0000 0.0000 0.0000
# 4 0.0000 0.0000 0.0000 29.9786 0.0000 0.0000
# 5 0.0000 0.0000 0.0000 0.0000 38.9386 0.0000
# 6 0.0000 0.0000 0.0000 0.0000 0.0000 61.4764
#
#
#
# Elastic Compliance Matrix: (Units=1/GPa)
#
#
# Indices 1 2 3 4 5 6 
#
# 1 0.008752 -0.001660 -0.002753 0.000000 0.000000 0.000000
# 2 -0.001660 0.009256 -0.000320 0.000000 0.000000 0.000000
# 3 -0.002753 -0.000320 0.006917 0.000000 0.000000 0.000000
# 4 0.000000 0.000000 0.000000 0.033357 0.000000 0.000000
# 5 0.000000 0.000000 0.000000 0.000000 0.025681 0.000000
# 6 0.000000 0.000000 0.000000 0.000000 0.000000 0.016266
#
#
# Mechanical properties :
#
#
# Convention : Reuss Voigt Hill
#
# Bulk Modulus (GPa) = 64.68218 68.14627 66.41423
# Shear Modulus (GPa) = 43.53556 47.39068 45.46312
#
# Velocity S-wave (km/s) = 4.02992 4.20457 4.11817
# Velocity P-wave (km/s) = 6.76627 6.99944 6.88384
#
# Compressibility (1/GPa) = 0.01546021
#
# Stress axis : x y z
#
# Youngs Moduli (GPa) = 114.25811 108.03653 144.57167
#
# Poissons Ratio (x) = 0.17931 0.39798
# Poissons Ratio (y) = 0.18963 0.04626
# Poissons Ratio (z) = 0.31454 0.03457
#
# Static dielectric constant tensor:
#      x y z
#    x 1.936480 0.000000 0.000000 
#    y 0.000000 2.375250 0.000000 
#    z 0.000000 0.000000 2.013570 
# 
# From -- ./inp_files/8550.got.cif
#   From: 2010.05.17/outbox.cif.g08.bks.cpg/sg33_5_cif.got.tgz:8550.got - 2010.06.03 17:15:25.
