data_PCOD9346165
_publ_section_title
;
Structure prediction by ZEFSAII (Michael W. Deem and Ramdas Pophale) SiO2 
 PCOD9346165
Probable space group: P N A 21
;
_chemical_formula_sum "Si O2"
_cell_formula_units_Z 20
_cell_length_a 5.057827
_cell_length_b 16.564650
_cell_length_c 9.702361
_cell_angle_alpha 90.000000
_cell_angle_beta 90.000000
_cell_angle_gamma 90.000000
_cell_volume 812.874807
_symmetry_space_group_name_H-M "P N A 21"
_symmetry_group_IT_number 33
_symmetry_cell_setting 'orthorhombic'
loop_
_space_group_symop_operation_xyz
x,y,z
-x,-y,1/2+z
1/2-x,1/2+y,1/2+z
1/2+x,1/2-y,z
loop_
_atom_site_type_symbol
_atom_site_label
_atom_site_fract_x
_atom_site_fract_y
_atom_site_fract_z
Si Si1 0.914045 0.305836 0.907980
Si Si2 0.414043 0.805836 0.695248
Si Si3 0.141287 0.426481 0.698055
Si Si4 0.358715 0.073519 0.405172
Si Si5 0.999998 0.811061 0.051614
O O1 0.124609 0.232211 0.904415
O O2 0.958078 0.364860 0.782520
O O3 0.000002 0.347614 0.051614
O O4 0.624608 0.732212 0.698813
O O5 0.249998 0.750000 0.051614
O O6 0.191697 0.500000 0.801614
O O7 0.404233 0.374976 0.666838
O O8 0.000001 0.446467 0.551614
O O9 0.541926 0.135140 0.320707
O O10 0.095771 0.125024 0.436389
#
# Coordination Sequence:
#
# PCOD9346165 Si02
#       5
#     4   4   4   4   4
#     4  10  23  45  73 109 150 202 259 318 389 484
#     4  10  23  45  73 109 150 202 259 318 389 484
#     4  12  28  49  79 117 164 209 268 341 418 482
#     4  12  28  49  79 117 164 209 268 341 418 482
#     4  12  26  52  80 114 154 216 274 324 388 498
#
# _framework density 24.604030999999999
#
# number of rings (size 3 to 8) (size 9 to 14) (size 15 to 20)
#    0.000    0.800    2.000    3.600    5.600    1.600 
#   10.800    0.000    0.000    0.000    0.000    0.000 
#    0.000    0.000    0.000    0.000    0.000    0.000 
#
# Total GULP energy -111860.096310 kJ/mol
# GULP energy per Si atom -5593.004816 kJ/mol
# Density = 2.454803 g / cm^3
# Si number density = 24.604031 Si / 1000 Ang^3
#
#
#
# Elastic Constant Matrix: (Units=GPa)
#
#
# Indices 1 2 3 4 5 6 
#
# 1 174.1870 60.3559 55.1920 0.0000 0.0000 0.0000
# 2 60.3559 134.0678 99.8199 0.0000 0.0000 0.0000
# 3 55.1920 99.8199 205.1027 0.0000 0.0000 0.0000
# 4 0.0000 0.0000 0.0000 69.5906 0.0000 0.0000
# 5 0.0000 0.0000 0.0000 0.0000 39.0443 0.0000
# 6 0.0000 0.0000 0.0000 0.0000 0.0000 11.1533
#
#
#
# Elastic Compliance Matrix: (Units=1/GPa)
#
#
# Indices 1 2 3 4 5 6 
#
# 1 0.006839 -0.002680 -0.000536 0.000000 0.000000 0.000000
# 2 -0.002680 0.012748 -0.005483 0.000000 0.000000 0.000000
# 3 -0.000536 -0.005483 0.007688 0.000000 0.000000 0.000000
# 4 0.000000 0.000000 0.000000 0.014370 0.000000 0.000000
# 5 0.000000 0.000000 0.000000 0.000000 0.025612 0.000000
# 6 0.000000 0.000000 0.000000 0.000000 0.000000 0.089660
#
#
# Mechanical properties :
#
#
# Convention : Reuss Voigt Hill
#
# Bulk Modulus (GPa) = 101.24034 104.89923 103.06978
# Shear Modulus (GPa) = 28.15198 43.82362 35.98780
#
# Velocity S-wave (km/s) = 3.38627 4.22495 3.82865
# Velocity P-wave (km/s) = 7.51840 8.15646 7.84392
#
# Compressibility (1/GPa) = 0.00987749
#
# Stress axis : x y z
#
# Youngs Moduli (GPa) = 146.21143 78.44603 130.06684
#
# Poissons Ratio (x) = 0.21022 0.06975
# Poissons Ratio (y) = 0.39181 0.71315
# Poissons Ratio (z) = 0.07841 0.43011
#
# Static dielectric constant tensor:
#      x y z
#    x 1.962440 0.000000 0.000000 
#    y 0.000000 1.922260 0.000000 
#    z 0.000000 0.000000 2.334760 
# 
# From -- ./inp_files/2650.got.cif
#   From: 2010.05.17/outbox.cif.g08.bks.cpg/sg33_2_cif.got.tgz:2650.got - 2010.06.03 17:15:25.
