data_PCOD9347730
_publ_section_title
;
Structure prediction by ZEFSAII (Michael W. Deem and Ramdas Pophale) SiO2 
 PCOD9347730
Probable space group: P N N 2
;
_chemical_formula_sum "Si O2"
_cell_formula_units_Z 30
_cell_length_a 10.748733
_cell_length_b 6.200631
_cell_length_c 19.331324
_cell_angle_alpha 90.000000
_cell_angle_beta 90.000000
_cell_angle_gamma 90.000000
_cell_volume 1288.412003
_symmetry_space_group_name_H-M "P N N 2"
_symmetry_group_IT_number 34
_symmetry_cell_setting 'orthorhombic'
loop_
_space_group_symop_operation_xyz
x,y,z
-x,-y,z
1/2-x,1/2+y,1/2+z
1/2+x,1/2-y,1/2+z
loop_
_atom_site_type_symbol
_atom_site_label
_atom_site_fract_x
_atom_site_fract_y
_atom_site_fract_z
Si Si1 0.500000 0.500000 0.076900
Si Si2 0.953439 0.251778 0.980994
Si Si3 0.646423 0.009988 0.892056
Si Si4 0.302114 0.860891 0.038869
Si Si5 0.186118 0.913105 0.692449
Si Si6 0.359184 0.560881 0.662060
Si Si7 0.755526 0.694239 0.779062
Si Si8 0.143329 0.700370 0.835631
O O1 0.400884 0.387198 0.127174
O O2 0.419168 0.695095 0.042918
O O3 0.817731 0.270035 0.014219
O O4 0.944691 0.238645 0.898069
O O5 0.000000 0.500000 0.996438
O O6 0.000000 0.000000 0.998910
O O7 0.698656 0.833031 0.840037
O O8 0.500000 0.000000 0.883777
O O9 0.674933 0.979878 0.973636
O O10 0.720143 0.223321 0.865406
O O11 0.246269 0.975027 0.107717
O O12 0.320219 0.809993 0.674123
O O13 0.128348 0.807231 0.760998
O O14 0.196078 0.156633 0.717320
O O15 0.500000 0.500000 0.641963
O O16 0.338714 0.457515 0.737599
O O17 0.855856 0.548343 0.816535
#
# Coordination Sequence:
#
# PCOD9347730 Si02
#       8
#     2   4   4   4   4   4   4   4
#     4  12  26  46  72 102 156 198 258 314 398 482
#     4  11  27  49  80 114 152 203 264 326 394 474
#     4  10  24  41  71 102 148 195 249 317 383 469
#     4  11  27  50  69 113 148 212 257 323 397 475
#     4  10  24  44  72 109 148 192 252 316 394 472
#     4  11  25  46  76 109 148 195 261 321 398 472
#     4  10  22  45  71 110 145 191 252 320 391 471
#     4   9  23  43  72 108 145 189 251 314 397 466
#
# _framework density 23.284475
#
# number of rings (size 3 to 8) (size 9 to 14) (size 15 to 20)
#    0.000    1.600    1.333    0.400   14.000    4.267 
#    0.000    0.000    0.000    0.000    0.000    0.000 
#    0.000    0.000    0.000    0.000    0.000    0.000 
#
# Total GULP energy -167076.746461 kJ/mol
# GULP energy per Si atom -5569.224882 kJ/mol
# Density = 2.323148 g / cm^3
# Si number density = 23.284475 Si / 1000 Ang^3
#
#
#
# Elastic Constant Matrix: (Units=GPa)
#
#
# Indices 1 2 3 4 5 6 
#
# 1 92.2811 52.4199 23.5464 0.0000 0.0000 0.0000
# 2 52.4199 96.0855 31.0622 0.0000 0.0000 0.0000
# 3 23.5464 31.0622 123.9185 0.0000 0.0000 0.0000
# 4 0.0000 0.0000 0.0000 -184.6673 0.0000 0.0000
# 5 0.0000 0.0000 0.0000 0.0000 -17.9160 0.0000
# 6 0.0000 0.0000 0.0000 0.0000 0.0000 12.3737
#
#
#
# Elastic Compliance Matrix: (Units=1/GPa)
#
#
# Indices 1 2 3 4 5 6 
#
# 1 0.015798 -0.008322 -0.000916 0.000000 0.000000 0.000000
# 2 -0.008322 0.015710 -0.002356 0.000000 0.000000 0.000000
# 3 -0.000916 -0.002356 0.008834 0.000000 0.000000 0.000000
# 4 0.000000 0.000000 0.000000 -0.005415 0.000000 0.000000
# 5 0.000000 0.000000 0.000000 0.000000 -0.055816 0.000000
# 6 0.000000 0.000000 0.000000 0.000000 0.000000 0.080816
#
#
# Mechanical properties :
#
#
# Convention : Reuss Voigt Hill
#
# Bulk Modulus (GPa) = 58.30034 58.48243 58.39138
# Shear Modulus (GPa) = 56.28495 -24.35816 15.96339
#
# Velocity S-wave (km/s) = 4.92191 -3.23787 2.62120
# Velocity P-wave (km/s) = 7.57581 3.34553 5.85600
#
# Compressibility (1/GPa) = 0.01715256
#
# Stress axis : x y z
#
# Youngs Moduli (GPa) = 63.30059 63.65551 113.19272
#
# Poissons Ratio (x) = 0.52977 0.10364
# Poissons Ratio (y) = 0.52682 0.26673
# Poissons Ratio (z) = 0.05796 0.15000
#
# Static dielectric constant tensor:
#      x y z
#    x 2.031120 0.000000 0.000000 
#    y 0.000000 2.056060 0.000000 
#    z 0.000000 0.000000 1.899010 
# 
# From -- ./inp_files/8160.got.cif
#   From: 2010.05.17/outbox.cif.g08.bks.cpg/sg34_5_cif.got.tgz:8160.got - 2010.06.03 17:23:11.
