data_PCOD9347345
_publ_section_title
;
Structure prediction by ZEFSAII (Michael W. Deem and Ramdas Pophale) SiO2 
 PCOD9347345
Probable space group: P N N 2
;
_chemical_formula_sum "Si O2"
_cell_formula_units_Z 32
_cell_length_a 10.871535
_cell_length_b 15.528986
_cell_length_c 9.031254
_cell_angle_alpha 90.000000
_cell_angle_beta 90.000000
_cell_angle_gamma 90.000000
_cell_volume 1524.691656
_symmetry_space_group_name_H-M "P N N 2"
_symmetry_group_IT_number 34
_symmetry_cell_setting 'orthorhombic'
loop_
_space_group_symop_operation_xyz
x,y,z
-x,-y,z
1/2-x,1/2+y,1/2+z
1/2+x,1/2-y,1/2+z
loop_
_atom_site_type_symbol
_atom_site_label
_atom_site_fract_x
_atom_site_fract_y
_atom_site_fract_z
Si Si1 0.506727 0.600302 0.873200
Si Si2 0.387534 0.891819 0.584922
Si Si3 0.877807 0.803303 0.598584
Si Si4 0.754474 0.340877 0.724944
Si Si5 0.425517 0.409454 0.565977
Si Si6 0.338400 0.071862 0.485007
Si Si7 0.360988 0.708051 0.448310
Si Si8 0.717049 0.164478 0.884056
O O1 0.500000 0.500000 0.912673
O O2 0.381750 0.630497 0.785406
O O3 0.604390 0.607831 0.739669
O O4 0.500252 0.656134 0.022247
O O5 0.531061 0.906097 0.554918
O O6 0.351245 0.805802 0.499938
O O7 0.364311 0.879617 0.758688
O O8 0.313682 0.972995 0.521506
O O9 0.766542 0.867660 0.553079
O O10 0.868939 0.798301 0.773451
O O11 0.854186 0.713153 0.516056
O O12 0.743972 0.339234 0.547986
O O13 0.778449 0.245759 0.793893
O O14 0.842288 0.406633 0.810025
O O15 0.500000 0.500000 0.557723
O O16 0.512871 0.333243 0.508346
O O17 0.309433 0.402572 0.459083
#
# Coordination Sequence:
#
# PCOD9347345 Si02
#       8
#     4   4   4   4   4   4   4   4
#     4   8  16  34  54  82 114 157 190 239 304 362
#     4  10  20  38  63  80 113 161 209 244 309 365
#     4  10  21  36  57  88 123 154 200 252 305 372
#     4   8  17  35  59  77 120 156 194 246 301 365
#     4  10  20  35  59  85 118 158 195 248 316 368
#     4   9  19  38  62  82 107 163 207 249 295 376
#     4  10  20  37  55  90 119 153 196 252 307 372
#     4   9  19  37  55  83 116 158 194 246 305 373
#
# _framework density 20.987850999999999
#
# number of rings (size 3 to 8) (size 9 to 14) (size 15 to 20)
#    0.000    3.000    0.000    2.250    1.750    0.500 
#   13.500    6.250    0.000    3.000    0.000    0.000 
#    0.000    0.000    0.000    0.000    0.000    0.000 
#
# Total GULP energy -178305.634370 kJ/mol
# GULP energy per Si atom -5572.051074 kJ/mol
# Density = 2.094008 g / cm^3
# Si number density = 20.987851 Si / 1000 Ang^3
#
#
#
# Elastic Constant Matrix: (Units=GPa)
#
#
# Indices 1 2 3 4 5 6 
#
# 1 22.0615 15.5534 27.5386 0.0000 0.0000 0.0000
# 2 15.5534 90.1950 48.9721 0.0000 0.0000 0.0000
# 3 27.5386 48.9721 214.9634 0.0000 0.0000 0.0000
# 4 0.0000 0.0000 0.0000 7.4138 0.0000 0.0000
# 5 0.0000 0.0000 0.0000 0.0000 22.8347 0.0000
# 6 0.0000 0.0000 0.0000 0.0000 0.0000 20.8916
#
#
#
# Elastic Compliance Matrix: (Units=1/GPa)
#
#
# Indices 1 2 3 4 5 6 
#
# 1 0.057326 -0.006731 -0.005811 0.000000 0.000000 0.000000
# 2 -0.006731 0.013442 -0.002200 0.000000 0.000000 0.000000
# 3 -0.005811 -0.002200 0.005898 0.000000 0.000000 0.000000
# 4 0.000000 0.000000 0.000000 0.134883 0.000000 0.000000
# 5 0.000000 0.000000 0.000000 0.000000 0.043793 0.000000
# 6 0.000000 0.000000 0.000000 0.000000 0.000000 0.047866
#
#
# Mechanical properties :
#
#
# Convention : Reuss Voigt Hill
#
# Bulk Modulus (GPa) = 21.19387 56.81645 39.00516
# Shear Modulus (GPa) = 14.35054 25.90507 20.12781
#
# Velocity S-wave (km/s) = 2.61771 3.51706 3.10017
# Velocity P-wave (km/s) = 4.38823 6.60476 5.60711
#
# Compressibility (1/GPa) = 0.04718346
#
# Stress axis : x y z
#
# Youngs Moduli (GPa) = 17.44402 74.39208 169.56135
#
# Poissons Ratio (x) = 0.50070 0.98526
# Poissons Ratio (y) = 0.11741 0.37306
# Poissons Ratio (z) = 0.10136 0.16367
#
# Static dielectric constant tensor:
#      x y z
#    x 1.812130 0.000000 0.000000 
#    y 0.000000 1.767290 0.000000 
#    z 0.000000 0.000000 1.811410 
# 
# From -- ./inp_files/3348.got.cif
#   From: 2010.05.17/outbox.cif.g08.bks.cpg/sg34_2_cif.got.tgz:3348.got - 2010.06.03 17:23:11.
