data_PCOD9347263
_publ_section_title
;
Structure prediction by ZEFSAII (Michael W. Deem and Ramdas Pophale) SiO2 
 PCOD9347263
Probable space group: P N N 2
;
_chemical_formula_sum "Si O2"
_cell_formula_units_Z 24
_cell_length_a 5.125494
_cell_length_b 14.580593
_cell_length_c 13.101944
_cell_angle_alpha 90.000000
_cell_angle_beta 90.000000
_cell_angle_gamma 90.000000
_cell_volume 979.144200
_symmetry_space_group_name_H-M "P N N 2"
_symmetry_group_IT_number 34
_symmetry_cell_setting 'orthorhombic'
loop_
_space_group_symop_operation_xyz
x,y,z
-x,-y,z
1/2-x,1/2+y,1/2+z
1/2+x,1/2-y,1/2+z
loop_
_atom_site_type_symbol
_atom_site_label
_atom_site_fract_x
_atom_site_fract_y
_atom_site_fract_z
Si Si1 0.615313 0.400834 0.232240
Si Si2 0.234636 0.559321 0.905762
Si Si3 0.387133 0.757766 0.954710
Si Si4 0.384336 0.793179 0.714311
Si Si5 0.681812 0.413548 0.681232
Si Si6 0.121064 0.140892 0.974284
O O1 0.500000 0.500000 0.205422
O O2 0.405812 0.327331 0.191014
O O3 0.629113 0.395671 0.357572
O O4 0.895604 0.368503 0.191284
O O5 0.500000 0.500000 0.907856
O O6 0.288424 0.654490 0.961963
O O7 0.154271 0.585362 0.786930
O O8 0.000000 0.500000 0.949113
O O9 0.385826 0.783576 0.835971
O O10 0.688494 0.770998 0.982143
O O11 0.175821 0.829515 0.997295
O O12 0.436730 0.688944 0.681645
O O13 0.500000 0.500000 0.697946
O O14 0.750162 0.423193 0.561257
#
# Coordination Sequence:
#
# PCOD9347263 Si02
#       6
#     4   4   4   4   4   4
#     4  10  19  36  59  82 107 146 192 233 274 331
#     4  10  20  35  58  83 110 149 195 238 280 336
#     4   9  19  35  53  78 111 150 189 225 274 338
#     4   9  20  35  55  81 112 148 188 227 275 338
#     4  10  22  37  57  88 121 149 182 235 299 349
#     4  10  20  34  55  82 114 144 178 230 290 342
#
# _framework density 24.511201
#
# number of rings (size 3 to 8) (size 9 to 14) (size 15 to 20)
#    0.000    2.333    0.000    2.000    0.000   12.000 
#    0.000    3.333    0.000   10.000    0.000    0.000 
#    0.000    0.000    0.000    0.000    0.000    0.000 
#
# Total GULP energy -133789.976232 kJ/mol
# GULP energy per Si atom -5574.582343 kJ/mol
# Density = 2.445541 g / cm^3
# Si number density = 24.511201 Si / 1000 Ang^3
#
#
#
# Elastic Constant Matrix: (Units=GPa)
#
#
# Indices 1 2 3 4 5 6 
#
# 1 101.5869 15.0665 -8.0632 0.0000 0.0000 0.0000
# 2 15.0665 96.5121 -9.0912 0.0000 0.0000 0.0000
# 3 -8.0632 -9.0912 70.6957 0.0000 0.0000 0.0000
# 4 0.0000 0.0000 0.0000 -2.3909 0.0000 0.0000
# 5 0.0000 0.0000 0.0000 0.0000 11.6747 0.0000
# 6 0.0000 0.0000 0.0000 0.0000 0.0000 42.0966
#
#
#
# Elastic Compliance Matrix: (Units=1/GPa)
#
#
# Indices 1 2 3 4 5 6 
#
# 1 0.010142 -0.001492 0.000965 0.000000 0.000000 0.000000
# 2 -0.001492 0.010708 0.001207 0.000000 0.000000 0.000000
# 3 0.000965 0.001207 0.014410 0.000000 0.000000 0.000000
# 4 0.000000 0.000000 0.000000 -0.418244 0.000000 0.000000
# 5 0.000000 0.000000 0.000000 0.000000 0.085655 0.000000
# 6 0.000000 0.000000 0.000000 0.000000 0.000000 0.023755
#
#
# Mechanical properties :
#
#
# Convention : Reuss Voigt Hill
#
# Bulk Modulus (GPa) = 27.30850 29.40211 28.35530
# Shear Modulus (GPa) = -19.03121 28.33490 4.65184
#
# Velocity S-wave (km/s) = -2.78947 3.40369 1.37912
# Velocity P-wave (km/s) = 0.88913 5.24101 3.75891
#
# Compressibility (1/GPa) = 0.03661864
#
# Stress axis : x y z
#
# Youngs Moduli (GPa) = 98.60284 93.38771 69.39450
#
# Poissons Ratio (x) = 0.13937 -0.06695
# Poissons Ratio (y) = 0.14715 -0.08375
# Poissons Ratio (z) = -0.09513 -0.11270
#
# Static dielectric constant tensor:
#      x y z
#    x 1.953270 0.000000 0.000000 
#    y 0.000000 1.646910 0.000000 
#    z 0.000000 0.000000 2.107030 
# 
# From -- ./inp_files/6086.got.cif
#   From: 2010.05.17/outbox.cif.g08.bks.cpg/sg34_4_cif.got.tgz:6086.got - 2010.06.03 17:23:11.
