data_PCOD9347208
_publ_section_title
;
Structure prediction by ZEFSAII (Michael W. Deem and Ramdas Pophale) SiO2 
 PCOD9347208
Probable space group: P N N 2
;
_chemical_formula_sum "Si O2"
_cell_formula_units_Z 24
_cell_length_a 10.376679
_cell_length_b 10.808799
_cell_length_c 8.686562
_cell_angle_alpha 90.000000
_cell_angle_beta 90.000000
_cell_angle_gamma 90.000000
_cell_volume 974.279909
_symmetry_space_group_name_H-M "P N N 2"
_symmetry_group_IT_number 34
_symmetry_cell_setting 'orthorhombic'
loop_
_space_group_symop_operation_xyz
x,y,z
-x,-y,z
1/2-x,1/2+y,1/2+z
1/2+x,1/2-y,1/2+z
loop_
_atom_site_type_symbol
_atom_site_label
_atom_site_fract_x
_atom_site_fract_y
_atom_site_fract_z
Si Si1 0.959212 0.247820 0.237560
Si Si2 0.474141 0.233915 0.089549
Si Si3 0.294141 0.916607 0.218095
Si Si4 0.734648 0.332227 0.785606
Si Si5 0.500000 0.500000 0.201757
Si Si6 0.754709 0.567262 0.382676
Si Si7 0.500000 0.000000 0.676139
O O1 0.968789 0.303083 0.411567
O O2 0.826175 0.174420 0.237007
O O3 0.087139 0.163755 0.226152
O O4 0.971571 0.360680 0.115802
O O5 0.570927 0.153529 0.195802
O O6 0.332678 0.221867 0.159322
O O7 0.516576 0.376994 0.100665
O O8 0.282186 0.031670 0.334814
O O9 0.275115 0.982566 0.052736
O O10 0.741041 0.217191 0.904064
O O11 0.622242 0.522963 0.310046
O O12 0.867668 0.527720 0.268433
#
# Coordination Sequence:
#
# PCOD9347208 Si02
#       7
#     4   4   4   4   2   4   2
#     4  11  24  40  66 100 126 171 216 269 327 384
#     4  11  23  43  66  93 131 175 210 269 328 384
#     4  12  23  40  69  94 133 170 212 273 331 381
#     4  10  23  41  64  96 129 167 220 264 317 399
#     4  10  24  40  64  90 130 168 218 262 324 386
#     4  10  22  41  64  95 128 170 218 266 321 392
#     4  10  18  42  64  82 130 166 210 250 316 392
#
# _framework density 24.633579000000001
#
# number of rings (size 3 to 8) (size 9 to 14) (size 15 to 20)
#    0.000    1.333    3.333    3.000    4.667    0.000 
#    3.000    0.000    0.000    0.000    0.000    0.000 
#    0.000    0.000    0.000    0.000    0.000    0.000 
#
# Total GULP energy -134042.963301 kJ/mol
# GULP energy per Si atom -5585.123471 kJ/mol
# Density = 2.457751 g / cm^3
# Si number density = 24.633579 Si / 1000 Ang^3
#
#
#
# Elastic Constant Matrix: (Units=GPa)
#
#
# Indices 1 2 3 4 5 6 
#
# 1 127.6270 -8.3756 15.2863 0.0000 0.0000 0.0000
# 2 -8.3756 131.6528 -4.5075 0.0000 0.0000 0.0000
# 3 15.2863 -4.5075 18.2708 0.0000 0.0000 0.0000
# 4 0.0000 0.0000 0.0000 26.5666 0.0000 0.0000
# 5 0.0000 0.0000 0.0000 0.0000 27.3452 0.0000
# 6 0.0000 0.0000 0.0000 0.0000 0.0000 45.5065
#
#
#
# Elastic Compliance Matrix: (Units=1/GPa)
#
#
# Indices 1 2 3 4 5 6 
#
# 1 0.008720 0.000308 -0.007220 0.000000 0.000000 0.000000
# 2 0.000308 0.007671 0.001635 0.000000 0.000000 0.000000
# 3 -0.007220 0.001635 0.061176 0.000000 0.000000 0.000000
# 4 0.000000 0.000000 0.000000 0.037641 0.000000 0.000000
# 5 0.000000 0.000000 0.000000 0.000000 0.036570 0.000000
# 6 0.000000 0.000000 0.000000 0.000000 0.000000 0.021975
#
#
# Mechanical properties :
#
#
# Convention : Reuss Voigt Hill
#
# Bulk Modulus (GPa) = 14.92242 31.37298 23.14770
# Shear Modulus (GPa) = 24.19606 38.22682 31.21144
#
# Velocity S-wave (km/s) = 3.13747 3.94358 3.56340
# Velocity P-wave (km/s) = 4.38131 5.78786 5.13299
#
# Compressibility (1/GPa) = 0.06701326
#
# Stress axis : x y z
#
# Youngs Moduli (GPa) = 114.67534 130.35613 16.34629
#
# Poissons Ratio (x) = -0.04010 0.11802
# Poissons Ratio (y) = -0.03527 -0.02673
# Poissons Ratio (z) = 0.82795 -0.21316
#
# Static dielectric constant tensor:
#      x y z
#    x 1.961580 0.000000 0.000000 
#    y 0.000000 2.034440 0.000000 
#    z 0.000000 0.000000 1.935070 
# 
# From -- ./inp_files/4981.got.cif
#   From: 2010.05.17/outbox.cif.g08.bks.cpg/sg34_3_cif.got.tgz:4981.got - 2010.06.03 17:23:11.
