data_PCOD9347250
_publ_section_title
;
Structure prediction by ZEFSAII (Michael W. Deem and Ramdas Pophale) SiO2 
 PCOD9347250
Probable space group: P N N 2
;
_chemical_formula_sum "Si O2"
_cell_formula_units_Z 32
_cell_length_a 8.781335
_cell_length_b 11.024134
_cell_length_c 16.297312
_cell_angle_alpha 90.000000
_cell_angle_beta 90.000000
_cell_angle_gamma 90.000000
_cell_volume 1577.687588
_symmetry_space_group_name_H-M "P N N 2"
_symmetry_group_IT_number 34
_symmetry_cell_setting 'orthorhombic'
loop_
_space_group_symop_operation_xyz
x,y,z
-x,-y,z
1/2-x,1/2+y,1/2+z
1/2+x,1/2-y,1/2+z
loop_
_atom_site_type_symbol
_atom_site_label
_atom_site_fract_x
_atom_site_fract_y
_atom_site_fract_z
Si Si1 0.496021 0.140679 0.578690
Si Si2 0.167362 0.525105 0.634123
Si Si3 0.153998 0.338089 0.902325
Si Si4 0.764511 0.689788 0.511713
Si Si5 0.446785 0.364296 0.994840
Si Si6 0.676359 0.467402 0.798916
Si Si7 0.707230 0.696188 0.153383
Si Si8 0.856459 0.222275 0.834154
O O1 0.566111 0.138087 0.486920
O O2 0.348989 0.225014 0.565860
O O3 0.611388 0.198463 0.643525
O O4 0.500000 0.000000 0.603424
O O5 0.198552 0.435670 0.558406
O O6 0.289602 0.503295 0.704446
O O7 0.162661 0.669215 0.622646
O O8 0.000000 0.500000 0.668717
O O9 0.204416 0.455031 0.852069
O O10 0.032046 0.263315 0.848995
O O11 0.321842 0.300082 0.935345
O O12 0.694056 0.664527 0.421096
O O13 0.911935 0.774322 0.501251
O O14 0.500000 0.500000 0.970319
O O15 0.365113 0.385889 0.082592
O O16 0.500000 0.500000 0.810974
O O17 0.734841 0.332233 0.819669
O O18 0.654023 0.661318 0.244398
#
# Coordination Sequence:
#
# PCOD9347250 Si02
#       8
#     4   4   4   4   4   4   4   4
#     4  10  21  38  63  92 124 165 211 263 323 383
#     4  11  23  40  59  89 128 170 210 261 334 386
#     4  10  19  35  61  90 122 154 202 267 329 368
#     4  11  22  37  64  92 124 168 211 266 324 389
#     4  11  21  37  64  91 121 160 220 267 320 396
#     4  11  21  33  61  93 123 155 213 277 318 373
#     4  10  22  40  63  88 128 172 214 264 318 393
#     4  10  21  38  59  87 128 168 207 262 328 383
#
# _framework density 20.282848000000001
#
# number of rings (size 3 to 8) (size 9 to 14) (size 15 to 20)
#    0.000    1.500    1.250    6.750    3.500    0.000 
#    0.000    0.625    8.250    0.000    0.000    0.000 
#    0.000    0.000    0.000    0.000    0.000    0.000 
#
# Total GULP energy -178166.659660 kJ/mol
# GULP energy per Si atom -5567.708114 kJ/mol
# Density = 2.023668 g / cm^3
# Si number density = 20.282848 Si / 1000 Ang^3
#
#
#
# Elastic Constant Matrix: (Units=GPa)
#
#
# Indices 1 2 3 4 5 6 
#
# 1 114.7234 9.7025 25.9328 0.0000 0.0000 0.0000
# 2 9.7025 31.8394 8.2785 0.0000 0.0000 0.0000
# 3 25.9328 8.2785 108.1854 0.0000 0.0000 0.0000
# 4 0.0000 0.0000 0.0000 -18.6200 0.0000 0.0000
# 5 0.0000 0.0000 0.0000 0.0000 26.9989 0.0000
# 6 0.0000 0.0000 0.0000 0.0000 0.0000 20.4722
#
#
#
# Elastic Compliance Matrix: (Units=1/GPa)
#
#
# Indices 1 2 3 4 5 6 
#
# 1 0.009381 -0.002320 -0.002071 0.000000 0.000000 0.000000
# 2 -0.002320 0.032619 -0.001940 0.000000 0.000000 0.000000
# 3 -0.002071 -0.001940 0.009888 0.000000 0.000000 0.000000
# 4 0.000000 0.000000 0.000000 -0.053706 0.000000 0.000000
# 5 0.000000 0.000000 0.000000 0.000000 0.037038 0.000000
# 6 0.000000 0.000000 0.000000 0.000000 0.000000 0.048847
#
#
# Mechanical properties :
#
#
# Convention : Reuss Voigt Hill
#
# Bulk Modulus (GPa) = 25.49338 38.06401 31.77870
# Shear Modulus (GPa) = 45.53503 19.82586 32.68044
#
# Velocity S-wave (km/s) = 4.74329 3.12984 4.01837
# Velocity P-wave (km/s) = 6.52645 5.64522 6.10177
#
# Compressibility (1/GPa) = 0.03922586
#
# Stress axis : x y z
#
# Youngs Moduli (GPa) = 106.59824 30.65696 101.12958
#
# Poissons Ratio (x) = 0.07113 0.20945
# Poissons Ratio (y) = 0.24733 0.19618
# Poissons Ratio (z) = 0.22078 0.05947
#
# Static dielectric constant tensor:
#      x y z
#    x 1.775230 0.000000 0.000000 
#    y 0.000000 1.820410 0.000000 
#    z 0.000000 0.000000 1.758210 
# 
# From -- ./inp_files/7648.got.cif
#   From: 2010.05.17/outbox.cif.g08.bks.cpg/sg34_4_cif.got.tgz:7648.got - 2010.06.03 17:23:11.
