data_PCOD9347763
_publ_section_title
;
Structure prediction by ZEFSAII (Michael W. Deem and Ramdas Pophale) SiO2 
 PCOD9347763
Probable space group: P N N 2
;
_chemical_formula_sum "Si O2"
_cell_formula_units_Z 24
_cell_length_a 12.106365
_cell_length_b 7.573513
_cell_length_c 10.341072
_cell_angle_alpha 90.000000
_cell_angle_beta 90.000000
_cell_angle_gamma 90.000000
_cell_volume 948.149239
_symmetry_space_group_name_H-M "P N N 2"
_symmetry_group_IT_number 34
_symmetry_cell_setting 'orthorhombic'
loop_
_space_group_symop_operation_xyz
x,y,z
-x,-y,z
1/2-x,1/2+y,1/2+z
1/2+x,1/2-y,1/2+z
loop_
_atom_site_type_symbol
_atom_site_label
_atom_site_fract_x
_atom_site_fract_y
_atom_site_fract_z
Si Si1 0.523526 0.710214 0.979180
Si Si2 0.364469 0.340826 0.239345
Si Si3 0.106113 0.782211 0.211641
Si Si4 0.861112 0.803904 0.150049
Si Si5 0.336481 0.734017 0.143935
Si Si6 0.444189 0.819600 0.393511
O O1 0.500000 0.500000 0.958233
O O2 0.602936 0.763128 0.863211
O O3 0.584219 0.751330 0.112482
O O4 0.400636 0.781045 0.012665
O O5 0.237315 0.281199 0.232524
O O6 0.374626 0.545896 0.202086
O O7 0.446499 0.296008 0.356633
O O8 0.206692 0.704734 0.131674
O O9 0.982625 0.728875 0.177887
O O10 0.126720 0.990708 0.186769
O O11 0.860500 0.768943 0.995848
O O12 0.373292 0.859101 0.262550
O O13 0.500000 0.000000 0.438870
#
# Coordination Sequence:
#
# PCOD9347763 Si02
#       6
#     4   4   4   4   4   4
#     4   9  18  42  65  91 125 174 214 273 336 407
#     4  10  23  41  69  98 132 169 234 282 340 412
#     4  11  23  41  65  94 141 173 224 277 346 404
#     4  11  25  40  64  99 135 179 229 272 343 411
#     4  10  23  41  72  97 131 176 228 282 351 408
#     4  11  24  44  70  94 136 181 231 282 346 407
#
# _framework density 25.312469
#
# number of rings (size 3 to 8) (size 9 to 14) (size 15 to 20)
#    0.000    1.667    1.667    3.500    7.000    1.333 
#    0.000    0.000   11.000    0.000    0.000    0.000 
#    0.000    0.000    0.000    0.000    0.000    0.000 
#
# Total GULP energy -133938.464868 kJ/mol
# GULP energy per Si atom -5580.769369 kJ/mol
# Density = 2.525486 g / cm^3
# Si number density = 25.312469 Si / 1000 Ang^3
#
#
#
# Elastic Constant Matrix: (Units=GPa)
#
#
# Indices 1 2 3 4 5 6 
#
# 1 169.8888 10.8577 13.2351 0.0000 0.0000 0.0000
# 2 10.8577 54.5560 6.2322 0.0000 0.0000 0.0000
# 3 13.2351 6.2322 75.9026 0.0000 0.0000 0.0000
# 4 0.0000 0.0000 0.0000 20.8864 0.0000 0.0000
# 5 0.0000 0.0000 0.0000 0.0000 38.0329 0.0000
# 6 0.0000 0.0000 0.0000 0.0000 0.0000 30.8028
#
#
#
# Elastic Compliance Matrix: (Units=1/GPa)
#
#
# Indices 1 2 3 4 5 6 
#
# 1 0.006031 -0.001090 -0.000962 0.000000 0.000000 0.000000
# 2 -0.001090 0.018700 -0.001345 0.000000 0.000000 0.000000
# 3 -0.000962 -0.001345 0.013453 0.000000 0.000000 0.000000
# 4 0.000000 0.000000 0.000000 0.047878 0.000000 0.000000
# 5 0.000000 0.000000 0.000000 0.000000 0.026293 0.000000
# 6 0.000000 0.000000 0.000000 0.000000 0.000000 0.032465
#
#
# Mechanical properties :
#
#
# Convention : Reuss Voigt Hill
#
# Bulk Modulus (GPa) = 31.85850 40.11084 35.98467
# Shear Modulus (GPa) = 30.84925 35.94589 33.39757
#
# Velocity S-wave (km/s) = 3.49483 3.77249 3.63631
# Velocity P-wave (km/s) = 5.37573 5.90392 5.64601
#
# Compressibility (1/GPa) = 0.03138879
#
# Stress axis : x y z
#
# Youngs Moduli (GPa) = 165.81440 53.47454 74.33286
#
# Poissons Ratio (x) = 0.05831 0.07151
# Poissons Ratio (y) = 0.18080 0.10000
# Poissons Ratio (z) = 0.15953 0.07194
#
# Static dielectric constant tensor:
#      x y z
#    x 2.053300 0.000000 0.000000 
#    y 0.000000 2.047940 0.000000 
#    z 0.000000 0.000000 2.227940 
# 
# From -- ./inp_files/5322.got.cif
#   From: 2010.05.17/outbox.cif.g08.bks.cpg/sg34_3_cif.got.tgz:5322.got - 2010.06.03 17:23:11.
