data_PCOD9347606
_publ_section_title
;
Structure prediction by ZEFSAII (Michael W. Deem and Ramdas Pophale) SiO2 
 PCOD9347606
Probable space group: P N N 2
;
_chemical_formula_sum "Si O2"
_cell_formula_units_Z 24
_cell_length_a 6.849990
_cell_length_b 8.536478
_cell_length_c 17.408368
_cell_angle_alpha 90.000000
_cell_angle_beta 90.000000
_cell_angle_gamma 90.000000
_cell_volume 1017.950645
_symmetry_space_group_name_H-M "P N N 2"
_symmetry_group_IT_number 34
_symmetry_cell_setting 'orthorhombic'
loop_
_space_group_symop_operation_xyz
x,y,z
-x,-y,z
1/2-x,1/2+y,1/2+z
1/2+x,1/2-y,1/2+z
loop_
_atom_site_type_symbol
_atom_site_label
_atom_site_fract_x
_atom_site_fract_y
_atom_site_fract_z
Si Si1 0.617441 0.659093 0.006820
Si Si2 0.169112 0.874449 0.253693
Si Si3 0.645793 0.682047 0.417956
Si Si4 0.500000 0.000000 0.567166
Si Si5 0.266200 0.782111 0.090334
Si Si6 0.300477 0.119691 0.866229
Si Si7 0.000000 0.500000 0.862834
O O1 0.500000 0.500000 0.989564
O O2 0.492622 0.739333 0.075093
O O3 0.839061 0.612018 0.025667
O O4 0.612210 0.776970 0.935864
O O5 0.228566 0.884115 0.164793
O O6 0.134127 0.698723 0.286439
O O7 0.348841 0.918502 0.307005
O O8 0.000000 0.000000 0.268083
O O9 0.686400 0.653083 0.508594
O O10 0.431105 0.642371 0.386358
O O11 0.800865 0.569762 0.373567
O O12 0.634394 0.870771 0.406618
O O13 0.644192 0.876784 0.606736
#
# Coordination Sequence:
#
# PCOD9347606 Si02
#       7
#     4   4   4   2   4   4   2
#     4  10  22  39  72 101 142 192 249 296 366 453
#     4  11  27  46  70 104 152 189 238 312 386 433
#     4  10  22  42  76  98 141 193 245 299 360 449
#     4  10  21  44  66 100 147 188 236 305 360 434
#     4  11  24  42  68 110 140 187 246 306 371 439
#     4  10  22  43  69 103 140 190 248 297 358 453
#     4  10  25  50  72  98 147 200 242 303 382 442
#
# _framework density 23.576784
#
# number of rings (size 3 to 8) (size 9 to 14) (size 15 to 20)
#    0.000    1.667    1.667    1.000   11.667    3.333 
#   21.000    0.000    0.000    0.000    0.000    0.000 
#    0.000    0.000    0.000    0.000    0.000    0.000 
#
# Total GULP energy -133836.268361 kJ/mol
# GULP energy per Si atom -5576.511182 kJ/mol
# Density = 2.352312 g / cm^3
# Si number density = 23.576784 Si / 1000 Ang^3
#
#
#
# Elastic Constant Matrix: (Units=GPa)
#
#
# Indices 1 2 3 4 5 6 
#
# 1 109.0661 36.7431 45.6597 0.0000 0.0000 0.0000
# 2 36.7431 96.5661 47.6355 0.0000 0.0000 0.0000
# 3 45.6597 47.6355 133.6572 0.0000 0.0000 0.0000
# 4 0.0000 0.0000 0.0000 1858.5243 0.0000 0.0000
# 5 0.0000 0.0000 0.0000 0.0000 24.7101 0.0000
# 6 0.0000 0.0000 0.0000 0.0000 0.0000 49.1591
#
#
#
# Elastic Compliance Matrix: (Units=1/GPa)
#
#
# Indices 1 2 3 4 5 6 
#
# 1 0.011337 -0.002916 -0.002834 0.000000 0.000000 0.000000
# 2 -0.002916 0.013315 -0.003749 0.000000 0.000000 0.000000
# 3 -0.002834 -0.003749 0.009786 0.000000 0.000000 0.000000
# 4 0.000000 0.000000 0.000000 0.000538 0.000000 0.000000
# 5 0.000000 0.000000 0.000000 0.000000 0.040469 0.000000
# 6 0.000000 0.000000 0.000000 0.000000 0.000000 0.020342
#
#
# Mechanical properties :
#
#
# Convention : Reuss Voigt Hill
#
# Bulk Modulus (GPa) = 64.76589 66.59620 65.68104
# Shear Modulus (GPa) = 41.69020 400.42877 221.05949
#
# Velocity S-wave (km/s) = 4.20965 13.04642 9.69356
# Velocity P-wave (km/s) = 7.15248 15.97664 12.37762
#
# Compressibility (1/GPa) = 0.01544023
#
# Stress axis : x y z
#
# Youngs Moduli (GPa) = 88.20312 75.10573 102.18557
#
# Poissons Ratio (x) = 0.21901 0.28958
# Poissons Ratio (y) = 0.25720 0.38311
# Poissons Ratio (z) = 0.24995 0.28158
#
# Static dielectric constant tensor:
#      x y z
#    x 2.119710 0.000000 0.000000 
#    y 0.000000 -2.131950 0.000000 
#    z 0.000000 0.000000 1.872620 
# 
# From -- ./inp_files/7188.got.cif
#   From: 2010.05.17/outbox.cif.g08.bks.cpg/sg34_4_cif.got.tgz:7188.got - 2010.06.03 17:23:11.
