data_PCOD9347918
_publ_section_title
;
Structure prediction by ZEFSAII (Michael W. Deem and Ramdas Pophale) SiO2 
 PCOD9347918
Probable space group: P N N 2
;
_chemical_formula_sum "Si O2"
_cell_formula_units_Z 18
_cell_length_a 6.862319
_cell_length_b 21.211483
_cell_length_c 6.877649
_cell_angle_alpha 90.000000
_cell_angle_beta 90.000000
_cell_angle_gamma 90.000000
_cell_volume 1001.110333
_symmetry_space_group_name_H-M "P N N 2"
_symmetry_group_IT_number 34
_symmetry_cell_setting 'orthorhombic'
loop_
_space_group_symop_operation_xyz
x,y,z
-x,-y,z
1/2-x,1/2+y,1/2+z
1/2+x,1/2-y,1/2+z
loop_
_atom_site_type_symbol
_atom_site_label
_atom_site_fract_x
_atom_site_fract_y
_atom_site_fract_z
Si Si1 0.200216 0.620178 0.708870
Si Si2 0.084176 0.313349 0.407823
Si Si3 0.895013 0.621020 0.013787
Si Si4 0.500000 0.000000 0.315727
Si Si5 0.906355 0.187033 0.229872
O O1 0.425207 0.635750 0.695589
O O2 0.082232 0.660531 0.551223
O O3 0.136283 0.546959 0.692646
O O4 0.107026 0.637946 0.920161
O O5 0.118774 0.364186 0.238661
O O6 0.275500 0.302850 0.538604
O O7 0.011643 0.250217 0.302304
O O8 0.876852 0.548032 0.949681
O O9 0.737719 0.661709 0.896626
#
# Coordination Sequence:
#
# PCOD9347918 Si02
#       5
#     4   4   4   2   4
#     4   9  21  40  62  84 125 158 195 252 295 355
#     4  11  22  37  61  94 119 155 201 248 307 359
#     4   9  21  40  60  86 123 158 197 248 297 355
#     4   8  20  44  60  80 124 160 204 246 296 352
#     4  11  22  37  62  92 119 154 200 249 306 359
#
# _framework density 17.980035000000001
#
# number of rings (size 3 to 8) (size 9 to 14) (size 15 to 20)
#    1.333    0.889    0.000    2.667    0.000    8.889 
#    0.000    0.000    4.889    0.000    0.000    0.000 
#    0.000    0.000    0.000    0.000    0.000    0.000 
#
# Total GULP energy -100221.903772 kJ/mol
# GULP energy per Si atom -5567.883543 kJ/mol
# Density = 1.793911 g / cm^3
# Si number density = 17.980035 Si / 1000 Ang^3
#
#
#
# Elastic Constant Matrix: (Units=GPa)
#
#
# Indices 1 2 3 4 5 6 
#
# 1 75.5262 0.4713 20.6988 0.0000 0.0000 0.0000
# 2 0.4713 71.4863 3.4502 0.0000 0.0000 0.0000
# 3 20.6988 3.4502 80.9323 0.0000 0.0000 0.0000
# 4 0.0000 0.0000 0.0000 20.0322 0.0000 0.0000
# 5 0.0000 0.0000 0.0000 0.0000 14.3710 0.0000
# 6 0.0000 0.0000 0.0000 0.0000 0.0000 27.2307
#
#
#
# Elastic Compliance Matrix: (Units=1/GPa)
#
#
# Indices 1 2 3 4 5 6 
#
# 1 0.014239 0.000082 -0.003645 0.000000 0.000000 0.000000
# 2 0.000082 0.014018 -0.000619 0.000000 0.000000 0.000000
# 3 -0.003645 -0.000619 0.013315 0.000000 0.000000 0.000000
# 4 0.000000 0.000000 0.000000 0.049920 0.000000 0.000000
# 5 0.000000 0.000000 0.000000 0.000000 0.069584 0.000000
# 6 0.000000 0.000000 0.000000 0.000000 0.000000 0.036723
#
#
# Mechanical properties :
#
#
# Convention : Reuss Voigt Hill
#
# Bulk Modulus (GPa) = 30.11307 30.79839 30.45573
# Shear Modulus (GPa) = 23.01690 25.88176 24.44933
#
# Velocity S-wave (km/s) = 3.58178 3.79815 3.69155
# Velocity P-wave (km/s) = 5.82151 6.03333 5.92836
#
# Compressibility (1/GPa) = 0.03320817
#
# Stress axis : x y z
#
# Youngs Moduli (GPa) = 70.23003 71.33686 75.10525
#
# Poissons Ratio (x) = -0.00585 0.27377
# Poissons Ratio (y) = -0.00576 0.04646
# Poissons Ratio (z) = 0.25600 0.04413
#
# Static dielectric constant tensor:
#      x y z
#    x 1.602050 0.000000 0.000000 
#    y 0.000000 1.641430 0.000000 
#    z 0.000000 0.000000 1.596440 
# 
# From -- ./inp_files/162.got.cif
#   From: 2010.05.17/outbox.cif.g08.bks.cpg/sg34_1_cif.got.tgz:162.got - 2010.06.03 17:23:11.
