data_PCOD9347104
_publ_section_title
;
Structure prediction by ZEFSAII (Michael W. Deem and Ramdas Pophale) SiO2 
 PCOD9347104
Probable space group: P N N 2
;
_chemical_formula_sum "Si O2"
_cell_formula_units_Z 24
_cell_length_a 19.303599
_cell_length_b 5.450896
_cell_length_c 12.843855
_cell_angle_alpha 90.000000
_cell_angle_beta 90.000000
_cell_angle_gamma 90.000000
_cell_volume 1351.454962
_symmetry_space_group_name_H-M "P N N 2"
_symmetry_group_IT_number 34
_symmetry_cell_setting 'orthorhombic'
loop_
_space_group_symop_operation_xyz
x,y,z
-x,-y,z
1/2-x,1/2+y,1/2+z
1/2+x,1/2-y,1/2+z
loop_
_atom_site_type_symbol
_atom_site_label
_atom_site_fract_x
_atom_site_fract_y
_atom_site_fract_z
Si Si1 0.228388 0.000006 0.557840
Si Si2 0.082090 0.500009 0.664564
Si Si3 0.770288 0.999995 0.955060
Si Si4 0.115605 0.500006 0.415294
Si Si5 0.647083 0.499992 0.252353
Si Si6 0.923952 0.999994 0.444243
O O1 0.265690 0.247937 0.520367
O O2 0.215623 0.000003 0.680250
O O3 0.148827 0.000008 0.509641
O O4 0.265689 0.752075 0.520365
O O5 0.105696 0.500009 0.542914
O O6 0.108712 0.251818 0.719719
O O7 0.000000 0.500000 0.664255
O O8 0.108709 0.748204 0.719719
O O9 0.696708 0.999997 0.894217
O O10 0.831737 0.999995 0.872420
O O11 0.080986 0.249587 0.380333
O O12 0.080987 0.750427 0.380332
O O13 0.000000 0.000000 0.499715
#
# Coordination Sequence:
#
# PCOD9347104 Si02
#       6
#     4   4   4   4   4   4
#     4  10  19  33  46  72 104 136 179 210 259 310
#     4  12  21  33  52  80 112 141 169 209 280 331
#     4  10  20  34  48  70 106 139 184 206 251 321
#     4  10  18  29  44  66 102 135 161 203 242 313
#     4  12  21  34  54  75 108 151 166 223 262 310
#     4  10  16  25  44  65  95 132 157 191 254 311
#
# _framework density 17.758637
#
# number of rings (size 3 to 8) (size 9 to 14) (size 15 to 20)
#    0.000    1.333    6.667    3.000    0.000    0.000 
#    0.000    0.000    0.000    0.000    0.000    0.000 
#    0.000  114.667    0.000    0.000    0.000    0.000 
#
# Total GULP energy -133645.919533 kJ/mol
# GULP energy per Si atom -5568.579981 kJ/mol
# Density = 1.771822 g / cm^3
# Si number density = 17.758637 Si / 1000 Ang^3
#
#
#
# Elastic Constant Matrix: (Units=GPa)
#
#
# Indices 1 2 3 4 5 6 
#
# 1 47.9307 25.6218 17.7898 0.0000 0.0000 0.0000
# 2 25.6218 195.2599 21.7795 0.0000 0.0000 0.0000
# 3 17.7898 21.7795 36.5838 0.0000 0.0000 0.0000
# 4 0.0000 0.0000 0.0000 10.9197 0.0000 0.0000
# 5 0.0000 0.0000 0.0000 0.0000 15.9495 0.0000
# 6 0.0000 0.0000 0.0000 0.0000 0.0000 4.7756
#
#
#
# Elastic Compliance Matrix: (Units=1/GPa)
#
#
# Indices 1 2 3 4 5 6 
#
# 1 0.026288 -0.002168 -0.011493 0.000000 0.000000 0.000000
# 2 -0.002168 0.005664 -0.002318 0.000000 0.000000 0.000000
# 3 -0.011493 -0.002318 0.034303 0.000000 0.000000 0.000000
# 4 0.000000 0.000000 0.000000 0.091577 0.000000 0.000000
# 5 0.000000 0.000000 0.000000 0.000000 0.062698 0.000000
# 6 0.000000 0.000000 0.000000 0.000000 0.000000 0.209396
#
#
# Mechanical properties :
#
#
# Convention : Reuss Voigt Hill
#
# Bulk Modulus (GPa) = 29.15577 45.57295 37.36436
# Shear Modulus (GPa) = 10.56376 20.63452 15.59914
#
# Velocity S-wave (km/s) = 2.44160 3.41243 2.96699
# Velocity P-wave (km/s) = 4.93984 6.42217 5.72915
#
# Compressibility (1/GPa) = 0.03429852
#
# Stress axis : x y z
#
# Youngs Moduli (GPa) = 38.04056 176.54211 29.15177
#
# Poissons Ratio (x) = 0.38266 0.33503
# Poissons Ratio (y) = 0.08245 0.06758
# Poissons Ratio (z) = 0.43719 0.40925
#
# Static dielectric constant tensor:
#      x y z
#    x 1.624650 0.000000 0.000000 
#    y 0.000000 1.707360 0.000000 
#    z 0.000000 0.000000 1.581990 
# 
# From -- ./inp_files/5822.got.cif
#   From: 2010.05.17/outbox.cif.g08.bks.cpg/sg34_3_cif.got.tgz:5822.got - 2010.06.03 17:23:11.
