data_PCOD9347538
_publ_section_title
;
Structure prediction by ZEFSAII (Michael W. Deem and Ramdas Pophale) SiO2 
 PCOD9347538
Probable space group: P N N 2
;
_chemical_formula_sum "Si O2"
_cell_formula_units_Z 32
_cell_length_a 8.347334
_cell_length_b 28.526207
_cell_length_c 6.907207
_cell_angle_alpha 90.000000
_cell_angle_beta 90.000000
_cell_angle_gamma 90.000000
_cell_volume 1644.728780
_symmetry_space_group_name_H-M "P N N 2"
_symmetry_group_IT_number 34
_symmetry_cell_setting 'orthorhombic'
loop_
_space_group_symop_operation_xyz
x,y,z
-x,-y,z
1/2-x,1/2+y,1/2+z
1/2+x,1/2-y,1/2+z
loop_
_atom_site_type_symbol
_atom_site_label
_atom_site_fract_x
_atom_site_fract_y
_atom_site_fract_z
Si Si1 0.858384 0.660683 0.478930
Si Si2 0.109403 0.455309 0.067676
Si Si3 0.162258 0.932811 0.890890
Si Si4 0.846291 0.214095 0.666063
Si Si5 0.585879 0.860025 0.655373
Si Si6 0.418543 0.452508 0.812118
Si Si7 0.955432 0.879146 0.582900
Si Si8 0.580935 0.212230 0.367099
O O1 0.760353 0.612844 0.459555
O O2 0.766930 0.697978 0.343047
O O3 0.028884 0.652135 0.373602
O O4 0.862255 0.677749 0.697119
O O5 0.214238 0.462827 0.262830
O O6 0.000000 0.500000 0.028744
O O7 0.007224 0.407862 0.096184
O O8 0.241253 0.447987 0.901501
O O9 0.026343 0.913913 0.746259
O O10 0.094307 0.955310 0.082476
O O11 0.730768 0.231629 0.492623
O O12 0.974841 0.249483 0.755377
O O13 0.936829 0.167605 0.589454
O O14 0.773339 0.866997 0.627664
O O15 0.523676 0.818412 0.516793
O O16 0.500000 0.500000 0.888178
O O17 0.518721 0.407629 0.884471
#
# Coordination Sequence:
#
# PCOD9347538 Si02
#       8
#     4   4   4   4   4   4   4   4
#     4   9  20  40  60  82 118 158 195 245 300 357
#     4  10  21  39  62  86 123 161 198 252 303 359
#     4   9  20  39  59  84 119 157 196 243 298 356
#     4  10  24  39  61  87 121 159 204 245 309 361
#     4  10  22  39  61  91 121 158 205 247 309 364
#     4  11  22  37  61  89 119 159 205 247 300 364
#     4  10  22  41  60  87 124 159 197 252 304 363
#     4  11  23  40  62  88 122 161 201 255 301 368
#
# _framework density 19.456095000000001
#
# number of rings (size 3 to 8) (size 9 to 14) (size 15 to 20)
#    0.000    2.000    0.000    4.500    3.500    5.500 
#    2.250    2.500    0.000    0.000    0.000    0.000 
#    0.000    0.000    0.000    0.000    0.000    0.000 
#
# Total GULP energy -178679.565189 kJ/mol
# GULP energy per Si atom -5583.736412 kJ/mol
# Density = 1.941181 g / cm^3
# Si number density = 19.456095 Si / 1000 Ang^3
#
#
#
# Elastic Constant Matrix: (Units=GPa)
#
#
# Indices 1 2 3 4 5 6 
#
# 1 105.8456 13.1882 32.7353 0.0000 0.0000 0.0000
# 2 13.1882 45.8450 12.3670 0.0000 0.0000 0.0000
# 3 32.7353 12.3670 80.4153 0.0000 0.0000 0.0000
# 4 0.0000 0.0000 0.0000 19.2747 0.0000 0.0000
# 5 0.0000 0.0000 0.0000 0.0000 15.4647 0.0000
# 6 0.0000 0.0000 0.0000 0.0000 0.0000 16.7364
#
#
#
# Elastic Compliance Matrix: (Units=1/GPa)
#
#
# Indices 1 2 3 4 5 6 
#
# 1 0.010988 -0.002039 -0.004159 0.000000 0.000000 0.000000
# 2 -0.002039 0.023135 -0.002728 0.000000 0.000000 0.000000
# 3 -0.004159 -0.002728 0.014548 0.000000 0.000000 0.000000
# 4 0.000000 0.000000 0.000000 0.051882 0.000000 0.000000
# 5 0.000000 0.000000 0.000000 0.000000 0.064663 0.000000
# 6 0.000000 0.000000 0.000000 0.000000 0.000000 0.059750
#
#
# Mechanical properties :
#
#
# Convention : Reuss Voigt Hill
#
# Bulk Modulus (GPa) = 32.44772 38.74297 35.59535
# Shear Modulus (GPa) = 19.75566 21.88284 20.81925
#
# Velocity S-wave (km/s) = 3.18999 3.35734 3.27473
# Velocity P-wave (km/s) = 5.50287 5.91483 5.71257
#
# Compressibility (1/GPa) = 0.03081881
#
# Stress axis : x y z
#
# Youngs Moduli (GPa) = 91.00676 43.22445 68.73703
#
# Poissons Ratio (x) = 0.08813 0.28591
# Poissons Ratio (y) = 0.18556 0.18751
# Poissons Ratio (z) = 0.37854 0.11791
#
# Static dielectric constant tensor:
#      x y z
#    x 1.674060 0.000000 0.000000 
#    y 0.000000 1.675430 0.000000 
#    z 0.000000 0.000000 1.674380 
# 
# From -- ./inp_files/662.got.cif
#   From: 2010.05.17/outbox.cif.g08.bks.cpg/sg34_1_cif.got.tgz:662.got - 2010.06.03 17:23:11.
