data_PCOD9347984
_publ_section_title
;
Structure prediction by ZEFSAII (Michael W. Deem and Ramdas Pophale) SiO2 
 PCOD9347984
Probable space group: P N N 2
;
_chemical_formula_sum "Si O2"
_cell_formula_units_Z 18
_cell_length_a 24.643941
_cell_length_b 5.116332
_cell_length_c 5.331346
_cell_angle_alpha 90.000000
_cell_angle_beta 90.000000
_cell_angle_gamma 90.000000
_cell_volume 672.211205
_symmetry_space_group_name_H-M "P N N 2"
_symmetry_group_IT_number 34
_symmetry_cell_setting 'orthorhombic'
loop_
_space_group_symop_operation_xyz
x,y,z
-x,-y,z
1/2-x,1/2+y,1/2+z
1/2+x,1/2-y,1/2+z
loop_
_atom_site_type_symbol
_atom_site_label
_atom_site_fract_x
_atom_site_fract_y
_atom_site_fract_z
Si Si1 0.593204 0.699050 0.722860
Si Si2 0.571750 0.373603 0.217525
Si Si3 0.316784 0.891588 0.251585
Si Si4 0.500000 0.000000 0.939919
Si Si5 0.794943 0.122423 0.015306
O O1 0.574705 0.525376 0.482030
O O2 0.657669 0.740452 0.692264
O O3 0.551001 0.935933 0.759151
O O4 0.586503 0.553058 0.983495
O O5 0.620309 0.160080 0.209182
O O6 0.517557 0.228204 0.130238
O O7 0.305025 0.684941 0.479447
O O8 0.308355 0.200423 0.276328
O O9 0.266924 0.810952 0.074869
#
# Coordination Sequence:
#
# PCOD9347984 Si02
#       5
#     4   4   4   2   4
#     4  11  29  52  76 119 157 210 274 333 407 489
#     4  11  29  52  76 119 157 210 274 333 407 489
#     4  11  25  46  79 117 160 205 264 334 409 487
#     4  12  30  50  88 104 176 214 286 334 420 486
#     4  11  25  46  79 117 160 205 264 334 409 487
#
# _framework density 26.777297999999998
#
# number of rings (size 3 to 8) (size 9 to 14) (size 15 to 20)
#    0.000    0.889    0.000    3.333   15.556    5.333 
#    0.000    0.000    0.000    0.000    0.000    0.000 
#    0.000    0.000    0.000    0.000    0.000    0.000 
#
# Total GULP energy -100663.140002 kJ/mol
# GULP energy per Si atom -5592.396667 kJ/mol
# Density = 2.671635 g / cm^3
# Si number density = 26.777298 Si / 1000 Ang^3
#
#
#
# Elastic Constant Matrix: (Units=GPa)
#
#
# Indices 1 2 3 4 5 6 
#
# 1 107.6543 22.2599 46.7213 0.0000 0.0000 0.0000
# 2 22.2599 91.1564 37.2743 0.0000 0.0000 0.0000
# 3 46.7213 37.2743 126.0298 0.0000 0.0000 0.0000
# 4 0.0000 0.0000 0.0000 27.0081 0.0000 0.0000
# 5 0.0000 0.0000 0.0000 0.0000 58.7994 0.0000
# 6 0.0000 0.0000 0.0000 0.0000 0.0000 47.0451
#
#
#
# Elastic Compliance Matrix: (Units=1/GPa)
#
#
# Indices 1 2 3 4 5 6 
#
# 1 0.011180 -0.001178 -0.003796 0.000000 0.000000 0.000000
# 2 -0.001178 0.012603 -0.003291 0.000000 0.000000 0.000000
# 3 -0.003796 -0.003291 0.010315 0.000000 0.000000 0.000000
# 4 0.000000 0.000000 0.000000 0.037026 0.000000 0.000000
# 5 0.000000 0.000000 0.000000 0.000000 0.017007 0.000000
# 6 0.000000 0.000000 0.000000 0.000000 0.000000 0.021256
#
#
# Mechanical properties :
#
#
# Convention : Reuss Voigt Hill
#
# Bulk Modulus (GPa) = 56.91918 59.70575 58.31246
# Shear Modulus (GPa) = 37.94368 41.14285 39.54327
#
# Velocity S-wave (km/s) = 3.76840 3.92405 3.84701
# Velocity P-wave (km/s) = 6.34327 6.54801 6.44646
#
# Compressibility (1/GPa) = 0.01756877
#
# Stress axis : x y z
#
# Youngs Moduli (GPa) = 89.44459 79.34339 96.94333
#
# Poissons Ratio (x) = 0.09345 0.36803
# Poissons Ratio (y) = 0.10535 0.31903
# Poissons Ratio (z) = 0.33956 0.26111
#
# Static dielectric constant tensor:
#      x y z
#    x 2.231860 0.000000 0.000000 
#    y 0.000000 2.161620 0.000000 
#    z 0.000000 0.000000 2.114860 
# 
# From -- ./inp_files/144.got.cif
#   From: 2010.05.17/outbox.cif.g08.bks.cpg/sg34_1_cif.got.tgz:144.got - 2010.06.03 17:23:11.
