data_PCOD9347669
_publ_section_title
;
Structure prediction by ZEFSAII (Michael W. Deem and Ramdas Pophale) SiO2 
 PCOD9347669
Probable space group: P N N 2
;
_chemical_formula_sum "Si O2"
_cell_formula_units_Z 32
_cell_length_a 32.370027
_cell_length_b 7.945810
_cell_length_c 5.208730
_cell_angle_alpha 90.000000
_cell_angle_beta 90.000000
_cell_angle_gamma 90.000000
_cell_volume 1339.717047
_symmetry_space_group_name_H-M "P N N 2"
_symmetry_group_IT_number 34
_symmetry_cell_setting 'orthorhombic'
loop_
_space_group_symop_operation_xyz
x,y,z
-x,-y,z
1/2-x,1/2+y,1/2+z
1/2+x,1/2-y,1/2+z
loop_
_atom_site_type_symbol
_atom_site_label
_atom_site_fract_x
_atom_site_fract_y
_atom_site_fract_z
Si Si1 0.460396 0.036651 0.252200
Si Si2 0.822946 0.302513 0.394841
Si Si3 0.169137 0.178581 0.081262
Si Si4 0.708856 0.655487 0.412153
Si Si5 0.004646 0.815391 0.127250
Si Si6 0.414094 0.206898 0.875834
Si Si7 0.920786 0.670304 0.131080
Si Si8 0.199253 0.348930 0.568736
O O1 0.485249 0.154922 0.450518
O O2 0.500000 0.000000 0.065999
O O3 0.435713 0.873536 0.342083
O O4 0.424597 0.162304 0.166377
O O5 0.868343 0.224280 0.356943
O O6 0.828718 0.491920 0.495000
O O7 0.801428 0.301773 0.117623
O O8 0.796856 0.211224 0.618653
O O9 0.177267 0.993274 0.976101
O O10 0.121747 0.231423 0.119639
O O11 0.189781 0.203999 0.360195
O O12 0.190327 0.293586 0.858857
O O13 0.754186 0.596381 0.499016
O O14 0.959838 0.770436 0.247380
O O15 0.046807 0.817592 0.291896
O O16 0.000000 0.000000 0.004069
O O17 0.416383 0.018723 0.747463
#
# Coordination Sequence:
#
# PCOD9347669 Si02
#       8
#     4   4   4   4   4   4   4   4
#     4   9  19  38  63  89 121 175 227 277 326 410
#     4  12  27  44  75 103 144 187 239 294 355 429
#     4  12  26  45  74 106 141 188 238 297 351 430
#     4  12  27  46  68 108 145 182 230 311 368 411
#     4  10  23  39  64  95 137 174 215 289 352 414
#     4  11  22  41  66  94 132 179 235 277 342 420
#     4  10  22  41  64  95 132 176 236 278 338 419
#     4  12  24  48  74 102 138 191 244 287 360 439
#
# _framework density 23.885643999999999
#
# number of rings (size 3 to 8) (size 9 to 14) (size 15 to 20)
#    0.000    1.000    1.250    6.375    5.250    0.500 
#    0.000    0.000    0.000    0.000    0.000    0.000 
#    0.000    0.000    0.000    0.000    0.000    0.000 
#
# Total GULP energy -178463.664063 kJ/mol
# GULP energy per Si atom -5576.989502 kJ/mol
# Density = 2.383128 g / cm^3
# Si number density = 23.885644 Si / 1000 Ang^3
#
#
#
# Elastic Constant Matrix: (Units=GPa)
#
#
# Indices 1 2 3 4 5 6 
#
# 1 141.1987 -5.0972 24.0705 0.0000 0.0000 0.0000
# 2 -5.0972 70.4853 9.4936 0.0000 0.0000 0.0000
# 3 24.0705 9.4936 57.4746 0.0000 0.0000 0.0000
# 4 0.0000 0.0000 0.0000 21.8316 0.0000 0.0000
# 5 0.0000 0.0000 0.0000 0.0000 26.2680 0.0000
# 6 0.0000 0.0000 0.0000 0.0000 0.0000 25.5676
#
#
#
# Elastic Compliance Matrix: (Units=1/GPa)
#
#
# Indices 1 2 3 4 5 6 
#
# 1 0.007697 0.001013 -0.003391 0.000000 0.000000 0.000000
# 2 0.001013 0.014644 -0.002843 0.000000 0.000000 0.000000
# 3 -0.003391 -0.002843 0.019289 0.000000 0.000000 0.000000
# 4 0.000000 0.000000 0.000000 0.045805 0.000000 0.000000
# 5 0.000000 0.000000 0.000000 0.000000 0.038069 0.000000
# 6 0.000000 0.000000 0.000000 0.000000 0.000000 0.039112
#
#
# Mechanical properties :
#
#
# Convention : Reuss Voigt Hill
#
# Bulk Modulus (GPa) = 32.06391 36.23248 34.14819
# Shear Modulus (GPa) = 26.96106 30.77957 28.87032
#
# Velocity S-wave (km/s) = 3.36334 3.59363 3.48039
# Velocity P-wave (km/s) = 5.34189 5.69394 5.52073
#
# Compressibility (1/GPa) = 0.03118772
#
# Stress axis : x y z
#
# Youngs Moduli (GPa) = 129.92348 68.28934 51.84383
#
# Poissons Ratio (x) = -0.06920 0.17579
# Poissons Ratio (y) = -0.13165 0.14740
# Poissons Ratio (z) = 0.44055 0.19416
#
# Static dielectric constant tensor:
#      x y z
#    x 2.045270 0.000000 0.000000 
#    y 0.000000 1.950090 0.000000 
#    z 0.000000 0.000000 2.100110 
# 
# From -- ./inp_files/1836.got.cif
#   From: 2010.05.17/outbox.cif.g08.bks.cpg/sg34_1_cif.got.tgz:1836.got - 2010.06.03 17:23:11.
