data_PCOD9347145
_publ_section_title
;
Structure prediction by ZEFSAII (Michael W. Deem and Ramdas Pophale) SiO2 
 PCOD9347145
Probable space group: P N N 2
;
_chemical_formula_sum "Si O2"
_cell_formula_units_Z 32
_cell_length_a 31.015852
_cell_length_b 9.002511
_cell_length_c 5.498201
_cell_angle_alpha 90.000000
_cell_angle_beta 90.000000
_cell_angle_gamma 90.000000
_cell_volume 1535.210701
_symmetry_space_group_name_H-M "P N N 2"
_symmetry_group_IT_number 34
_symmetry_cell_setting 'orthorhombic'
loop_
_space_group_symop_operation_xyz
x,y,z
-x,-y,z
1/2-x,1/2+y,1/2+z
1/2+x,1/2-y,1/2+z
loop_
_atom_site_type_symbol
_atom_site_label
_atom_site_fract_x
_atom_site_fract_y
_atom_site_fract_z
Si Si1 0.890825 0.680387 0.808580
Si Si2 0.391850 0.095709 0.618972
Si Si3 0.986189 0.324411 0.041433
Si Si4 0.325363 0.591135 0.340104
Si Si5 0.711519 0.274577 0.840904
Si Si6 0.310517 0.243664 0.345336
Si Si7 0.167671 0.509351 0.496405
Si Si8 0.020588 0.331956 0.542017
O O1 0.873503 0.841566 0.877069
O O2 0.847874 0.599137 0.709280
O O3 0.929214 0.674206 0.614431
O O4 0.903117 0.570055 0.024961
O O5 0.435145 0.185778 0.581677
O O6 0.349275 0.164460 0.492936
O O7 0.376631 0.074626 0.891981
O O8 0.000000 0.500000 0.025961
O O9 0.010109 0.263854 0.280088
O O10 0.998407 0.260303 0.779386
O O11 0.298472 0.651500 0.577003
O O12 0.322773 0.414621 0.335965
O O13 0.310899 0.639904 0.066755
O O14 0.761129 0.267652 0.927226
O O15 0.693498 0.104176 0.825341
O O16 0.307907 0.151919 0.092993
O O17 0.000000 0.500000 0.526915
#
# Coordination Sequence:
#
# PCOD9347145 Si02
#       8
#     4   4   4   4   4   4   4   4
#     4  10  20  38  62  95 127 164 217 263 326 384
#     4  11  21  38  61  96 127 167 215 271 328 384
#     4  10  19  31  56  90 121 154 206 268 312 370
#     4  11  26  44  66  96 132 177 215 277 334 402
#     4  11  25  44  66  90 129 172 231 263 324 390
#     4  11  27  39  64  95 131 175 213 280 332 400
#     4  10  22  40  64  91 126 167 216 271 315 385
#     4  10  18  30  56  93 116 155 202 270 305 368
#
# _framework density 20.844044
#
# number of rings (size 3 to 8) (size 9 to 14) (size 15 to 20)
#    0.000    1.500    3.750    2.250    7.000    0.000 
#    0.000    0.000    0.000    0.750    0.000    0.000 
#    0.000    0.000    0.000    0.000    0.000    0.000 
#
# Total GULP energy -178143.777159 kJ/mol
# GULP energy per Si atom -5566.993036 kJ/mol
# Density = 2.079660 g / cm^3
# Si number density = 20.844044 Si / 1000 Ang^3
#
#
#
# Elastic Constant Matrix: (Units=GPa)
#
#
# Indices 1 2 3 4 5 6 
#
# 1 87.6721 9.3555 -8.2260 0.0000 0.0000 0.0000
# 2 9.3555 72.4652 11.2129 0.0000 0.0000 0.0000
# 3 -8.2260 11.2129 77.2699 0.0000 0.0000 0.0000
# 4 0.0000 0.0000 0.0000 12.8417 0.0000 0.0000
# 5 0.0000 0.0000 0.0000 0.0000 17.5437 0.0000
# 6 0.0000 0.0000 0.0000 0.0000 0.0000 10.8050
#
#
#
# Elastic Compliance Matrix: (Units=1/GPa)
#
#
# Indices 1 2 3 4 5 6 
#
# 1 0.011734 -0.001747 0.001503 0.000000 0.000000 0.000000
# 2 -0.001747 0.014377 -0.002272 0.000000 0.000000 0.000000
# 3 0.001503 -0.002272 0.013431 0.000000 0.000000 0.000000
# 4 0.000000 0.000000 0.000000 0.077871 0.000000 0.000000
# 5 0.000000 0.000000 0.000000 0.000000 0.057001 0.000000
# 6 0.000000 0.000000 0.000000 0.000000 0.000000 0.092550
#
#
# Mechanical properties :
#
#
# Convention : Reuss Voigt Hill
#
# Bulk Modulus (GPa) = 28.97883 29.12133 29.05008
# Shear Modulus (GPa) = 17.63670 23.24241 20.43956
#
# Velocity S-wave (km/s) = 2.91198 3.34288 3.13484
# Velocity P-wave (km/s) = 5.02385 5.37598 5.20289
#
# Compressibility (1/GPa) = 0.03450795
#
# Stress axis : x y z
#
# Youngs Moduli (GPa) = 85.22534 69.55594 74.45260
#
# Poissons Ratio (x) = 0.12154 -0.11188
# Poissons Ratio (y) = 0.14892 0.16918
# Poissons Ratio (z) = -0.12807 0.15805
#
# Static dielectric constant tensor:
#      x y z
#    x 1.858710 0.000000 0.000000 
#    y 0.000000 1.763320 0.000000 
#    z 0.000000 0.000000 1.835800 
# 
# From -- ./inp_files/1829.got.cif
#   From: 2010.05.17/outbox.cif.g08.bks.cpg/sg34_1_cif.got.tgz:1829.got - 2010.06.03 17:23:11.
