data_PCOD9347934
_publ_section_title
;
Structure prediction by ZEFSAII (Michael W. Deem and Ramdas Pophale) SiO2 
 PCOD9347934
Probable space group: P N N 2
;
_chemical_formula_sum "Si O2"
_cell_formula_units_Z 14
_cell_length_a 12.890307
_cell_length_b 5.322463
_cell_length_c 8.043893
_cell_angle_alpha 90.000000
_cell_angle_beta 90.000000
_cell_angle_gamma 90.000000
_cell_volume 551.876875
_symmetry_space_group_name_H-M "P N N 2"
_symmetry_group_IT_number 34
_symmetry_cell_setting 'orthorhombic'
loop_
_space_group_symop_operation_xyz
x,y,z
-x,-y,z
1/2-x,1/2+y,1/2+z
1/2+x,1/2-y,1/2+z
loop_
_atom_site_type_symbol
_atom_site_label
_atom_site_fract_x
_atom_site_fract_y
_atom_site_fract_z
Si Si1 0.031381 0.756142 0.668940
Si Si2 0.000000 0.000000 0.358341
Si Si3 0.330472 0.220302 0.657173
Si Si4 0.260573 0.715548 0.507309
O O1 0.959278 0.802404 0.500733
O O2 0.147946 0.743546 0.598658
O O3 0.000000 0.500000 0.752045
O O4 0.000000 0.000000 0.772781
O O5 0.065653 0.823184 0.240746
O O6 0.298459 0.431784 0.526959
O O7 0.327826 0.938383 0.589183
O O8 0.251950 0.254743 0.811873
#
# Coordination Sequence:
#
# PCOD9347934 Si02
#       4
#     4   2   4   4
#     4   9  18  34  61  88 112 158 218 245 281 372
#     4   8  22  34  66  82 124 164 220 232 304 386
#     4  11  23  40  65  91 126 161 212 255 313 366
#     4  11  23  38  66  94 123 160 210 260 309 367
#
# _framework density 25.367975999999999
#
# number of rings (size 3 to 8) (size 9 to 14) (size 15 to 20)
#    0.857    1.143    0.000    3.429    8.000    0.000 
#    0.000    0.000   31.429    0.000    0.000    0.000 
#    0.000    0.000    0.000    0.000    0.000    0.000 
#
# Total GULP energy -78131.197167 kJ/mol
# GULP energy per Si atom -5580.799798 kJ/mol
# Density = 2.531024 g / cm^3
# Si number density = 25.367976 Si / 1000 Ang^3
#
#
#
# Elastic Constant Matrix: (Units=GPa)
#
#
# Indices 1 2 3 4 5 6 
#
# 1 28.8510 16.8569 2.1191 0.0000 0.0000 0.0000
# 2 16.8569 134.5599 -6.5898 0.0000 0.0000 0.0000
# 3 2.1191 -6.5898 66.4754 0.0000 0.0000 0.0000
# 4 0.0000 0.0000 0.0000 21.8903 0.0000 0.0000
# 5 0.0000 0.0000 0.0000 0.0000 22.1754 0.0000
# 6 0.0000 0.0000 0.0000 0.0000 0.0000 32.8143
#
#
#
# Elastic Compliance Matrix: (Units=1/GPa)
#
#
# Indices 1 2 3 4 5 6 
#
# 1 0.037582 -0.004790 -0.001673 0.000000 0.000000 0.000000
# 2 -0.004790 0.008078 0.000954 0.000000 0.000000 0.000000
# 3 -0.001673 0.000954 0.015191 0.000000 0.000000 0.000000
# 4 0.000000 0.000000 0.000000 0.045682 0.000000 0.000000
# 5 0.000000 0.000000 0.000000 0.000000 0.045095 0.000000
# 6 0.000000 0.000000 0.000000 0.000000 0.000000 0.030475
#
#
# Mechanical properties :
#
#
# Convention : Reuss Voigt Hill
#
# Bulk Modulus (GPa) = 20.06706 28.29544 24.18125
# Shear Modulus (GPa) = 23.83978 29.87601 26.85790
#
# Velocity S-wave (km/s) = 3.06887 3.43549 3.25735
# Velocity P-wave (km/s) = 4.52602 5.18797 4.86826
#
# Compressibility (1/GPa) = 0.04983291
#
# Stress axis : x y z
#
# Youngs Moduli (GPa) = 26.60823 123.78687 65.82844
#
# Poissons Ratio (x) = 0.59294 0.11013
# Poissons Ratio (y) = 0.12745 -0.06277
# Poissons Ratio (z) = 0.04451 -0.11803
#
# Static dielectric constant tensor:
#      x y z
#    x 2.171400 0.000000 0.000000 
#    y 0.000000 2.116890 0.000000 
#    z 0.000000 0.000000 1.939570 
# 
# From -- ./inp_files/1935.got.cif
#   From: 2010.05.17/outbox.cif.g08.bks.cpg/sg34_1_cif.got.tgz:1935.got - 2010.06.03 17:23:11.
