data_PCOD9347462
_publ_section_title
;
Structure prediction by ZEFSAII (Michael W. Deem and Ramdas Pophale) SiO2 
 PCOD9347462
Probable space group: P N N 2
;
_chemical_formula_sum "Si O2"
_cell_formula_units_Z 32
_cell_length_a 11.818030
_cell_length_b 16.977733
_cell_length_c 7.116041
_cell_angle_alpha 90.000000
_cell_angle_beta 90.000000
_cell_angle_gamma 90.000000
_cell_volume 1427.786361
_symmetry_space_group_name_H-M "P N N 2"
_symmetry_group_IT_number 34
_symmetry_cell_setting 'orthorhombic'
loop_
_space_group_symop_operation_xyz
x,y,z
-x,-y,z
1/2-x,1/2+y,1/2+z
1/2+x,1/2-y,1/2+z
loop_
_atom_site_type_symbol
_atom_site_label
_atom_site_fract_x
_atom_site_fract_y
_atom_site_fract_z
Si Si1 0.464173 0.223481 0.880550
Si Si2 0.109074 0.035571 0.366514
Si Si3 0.426675 0.924681 0.668855
Si Si4 0.765275 0.136938 0.905697
Si Si5 0.230841 0.224847 0.926363
Si Si6 0.182425 0.203413 0.507182
Si Si7 0.497644 0.646098 0.573218
Si Si8 0.795945 0.598865 0.827913
O O1 0.512621 0.152006 0.756288
O O2 0.353540 0.198188 0.995723
O O3 0.449473 0.296217 0.733097
O O4 0.557274 0.259140 0.020415
O O5 0.168752 0.114155 0.443233
O O6 0.053378 0.070387 0.176247
O O7 0.200064 0.967194 0.346683
O O8 0.000000 0.000000 0.475409
O O9 0.407292 0.925887 0.443835
O O10 0.500000 0.000000 0.724541
O O11 0.300380 0.918366 0.759421
O O12 0.743142 0.231114 0.875466
O O13 0.899570 0.126721 0.933269
O O14 0.704148 0.117895 0.106281
O O15 0.239491 0.202261 0.707382
O O16 0.230947 0.318885 0.931276
O O17 0.113311 0.190655 0.997577
#
# Coordination Sequence:
#
# PCOD9347462 Si02
#       8
#     4   4   4   4   4   4   4   4
#     4  10  20  42  63  91 134 172 231 283 332 412
#     4  11  22  41  65  97 138 176 216 288 359 404
#     4  11  26  42  69 100 137 184 226 288 345 404
#     4  10  22  45  70  97 141 176 235 288 336 421
#     4  11  22  41  69  97 129 179 234 282 339 417
#     4   9  21  39  65  98 125 176 229 282 339 415
#     4  11  21  41  69  96 135 181 229 280 358 414
#     4  11  22  42  69  95 140 181 221 281 354 398
#
# _framework density 22.412317000000002
#
# number of rings (size 3 to 8) (size 9 to 14) (size 15 to 20)
#    0.000    1.500    5.000    0.750    1.750    3.500 
#    0.000    1.875    0.000    0.000    0.000    0.000 
#    0.000    0.000    0.000    0.000    0.000    0.000 
#
# Total GULP energy -178472.062391 kJ/mol
# GULP energy per Si atom -5577.251950 kJ/mol
# Density = 2.236131 g / cm^3
# Si number density = 22.412317 Si / 1000 Ang^3
#
#
#
# Elastic Constant Matrix: (Units=GPa)
#
#
# Indices 1 2 3 4 5 6 
#
# 1 114.7361 37.6255 23.0519 0.0000 0.0000 0.0000
# 2 37.6255 154.5192 23.8704 0.0000 0.0000 0.0000
# 3 23.0519 23.8704 38.3887 0.0000 0.0000 0.0000
# 4 0.0000 0.0000 0.0000 19.0988 0.0000 0.0000
# 5 0.0000 0.0000 0.0000 0.0000 32.0281 0.0000
# 6 0.0000 0.0000 0.0000 0.0000 0.0000 41.5202
#
#
#
# Elastic Compliance Matrix: (Units=1/GPa)
#
#
# Indices 1 2 3 4 5 6 
#
# 1 0.010308 -0.001719 -0.005121 0.000000 0.000000 0.000000
# 2 -0.001719 0.007446 -0.003598 0.000000 0.000000 0.000000
# 3 -0.005121 -0.003598 0.031362 0.000000 0.000000 0.000000
# 4 0.000000 0.000000 0.000000 0.052359 0.000000 0.000000
# 5 0.000000 0.000000 0.000000 0.000000 0.031223 0.000000
# 6 0.000000 0.000000 0.000000 0.000000 0.000000 0.024085
#
#
# Mechanical properties :
#
#
# Convention : Reuss Voigt Hill
#
# Bulk Modulus (GPa) = 35.41054 52.97108 44.19081
# Shear Modulus (GPa) = 26.72773 33.40250 30.06511
#
# Velocity S-wave (km/s) = 3.45707 3.86471 3.66656
# Velocity P-wave (km/s) = 5.63640 6.60309 6.13880
#
# Compressibility (1/GPa) = 0.02824018
#
# Stress axis : x y z
#
# Youngs Moduli (GPa) = 97.00971 134.29950 31.88611
#
# Poissons Ratio (x) = 0.23085 0.16329
# Poissons Ratio (y) = 0.16675 0.11472
# Poissons Ratio (z) = 0.49680 0.48318
#
# Static dielectric constant tensor:
#      x y z
#    x 1.930100 0.000000 0.000000 
#    y 0.000000 1.835160 0.000000 
#    z 0.000000 0.000000 1.885110 
# 
# From -- ./inp_files/3340.got.cif
#   From: 2010.05.17/outbox.cif.g08.bks.cpg/sg34_2_cif.got.tgz:3340.got - 2010.06.03 17:23:11.
