data_PCOD9347080
_publ_section_title
;
Structure prediction by ZEFSAII (Michael W. Deem and Ramdas Pophale) SiO2 
 PCOD9347080
Probable space group: P N A 21
;
_chemical_formula_sum "Si O2"
_cell_formula_units_Z 32
_cell_length_a 9.000000
_cell_length_b 12.000000
_cell_length_c 15.000000
_cell_angle_alpha 90.000000
_cell_angle_beta 90.000000
_cell_angle_gamma 90.000000
_cell_volume 1620.000000
_symmetry_space_group_name_H-M "P N A 21"
_symmetry_group_IT_number 33
_symmetry_cell_setting 'orthorhombic'
loop_
_space_group_symop_operation_xyz
x,y,z
-x,-y,1/2+z
1/2-x,1/2+y,1/2+z
1/2+x,1/2-y,z
loop_
_atom_site_type_symbol
_atom_site_label
_atom_site_fract_x
_atom_site_fract_y
_atom_site_fract_z
Si Si1 0.671367 0.357352 0.433960
Si Si2 0.498676 0.856243 0.859422
Si Si3 0.337892 0.553257 0.136293
Si Si4 0.369592 0.100730 0.801349
Si Si5 0.646279 0.851538 0.673362
Si Si6 0.373264 0.481976 0.767208
Si Si7 0.835036 0.663331 0.574909
Si Si8 0.679220 0.205041 0.862376
O O1 0.610129 0.234579 0.405192
O O2 0.850736 0.370949 0.418809
O O3 0.637977 0.383293 0.539753
O O4 0.601880 0.439328 0.356100
O O5 0.566305 0.810710 0.765267
O O6 0.415663 0.974753 0.835421
O O7 0.203113 0.596345 0.201614
O O8 0.483972 0.540531 0.201856
O O9 0.277694 0.433885 0.103734
O O10 0.521539 0.172038 0.816487
O O11 0.240016 0.168238 0.854174
O O12 0.765793 0.770393 0.626235
O O13 0.503518 0.864485 0.607814
O O14 0.743919 0.957104 0.707857
O O15 0.300116 0.371497 0.810459
O O16 0.832554 0.677376 0.467764
#
# Coordination Sequence:
#
# PCOD9347080 Si02
#       8
#     4   4   4   4   4   4   4   4
#     4  11  25  46  75 108 147 186 245 312 366 437
#     4  11  23  47  74 106 146 191 245 308 374 438
#     4  12  25  45  72 107 146 196 248 296 369 452
#     4  12  26  47  74 101 149 204 241 309 377 441
#     4  11  22  42  75 106 143 189 245 316 362 428
#     4  11  24  46  72 106 150 186 241 308 371 434
#     4  12  22  42  70 107 142 190 256 301 359 442
#     4  12  25  49  68 103 151 194 241 308 374 438
#
# _framework density 19.753086
#
# number of rings (size 3 to 8) (size 9 to 14) (size 15 to 20)
#    0.000    0.500    5.000    4.500    1.750    2.000 
#    4.500    3.750    0.000    0.000    0.000    0.000 
#    0.000    0.000    0.000    0.000    0.000    0.000 
#
# Total GULP energy -178631.451693 kJ/mol
# GULP energy per Si atom -5582.232865 kJ/mol
# Density = 1.970813 g / cm^3
# Si number density = 19.753086 Si / 1000 Ang^3
#
#
#
# Elastic Constant Matrix: (Units=GPa)
#
#
# Indices 1 2 3 4 5 6 
#
# 1 131.8999 46.6854 71.8009 0.0000 0.0000 0.0000
# 2 46.6854 96.8804 50.6169 0.0000 0.0000 0.0000
# 3 71.8009 50.6169 179.9950 0.0000 0.0000 0.0000
# 4 0.0000 0.0000 0.0000 39.4371 0.0000 0.0000
# 5 0.0000 0.0000 0.0000 0.0000 46.7107 0.0000
# 6 0.0000 0.0000 0.0000 0.0000 0.0000 42.6962
#
#
#
# Elastic Compliance Matrix: (Units=1/GPa)
#
#
# Indices 1 2 3 4 5 6 
#
# 1 0.010552 -0.003383 -0.003258 0.000000 0.000000 0.000000
# 2 -0.003383 0.013184 -0.002358 0.000000 0.000000 0.000000
# 3 -0.003258 -0.002358 0.007519 0.000000 0.000000 0.000000
# 4 0.000000 0.000000 0.000000 0.025357 0.000000 0.000000
# 5 0.000000 0.000000 0.000000 0.000000 0.021408 0.000000
# 6 0.000000 0.000000 0.000000 0.000000 0.000000 0.023421
#
#
# Mechanical properties :
#
#
# Convention : Reuss Voigt Hill
#
# Bulk Modulus (GPa) = 75.43190 82.99798 79.21494
# Shear Modulus (GPa) = 40.36855 41.74695 41.05775
#
# Velocity S-wave (km/s) = 4.52559 4.60220 4.56406
# Velocity P-wave (km/s) = 8.09804 8.38745 8.24401
#
# Compressibility (1/GPa) = 0.01325699
#
# Stress axis : x y z
#
# Youngs Moduli (GPa) = 94.76494 75.84842 133.00459
#
# Poissons Ratio (x) = 0.25658 0.43335
# Poissons Ratio (y) = 0.32057 0.31364
# Poissons Ratio (z) = 0.30876 0.17886
#
# Static dielectric constant tensor:
#      x y z
#    x 1.707230 0.000000 0.000000 
#    y 0.000000 1.755300 0.000000 
#    z 0.000000 0.000000 1.696610 
# 
# From -- ./inp_files/7696.got.cif
#   From: 2010.05.17/outbox.ucp.g08.bks.cvg/sg33_4_cif.got.tgz:7696.got - 2010.06.11 10:35:07.
