data_PCOD9347643
_publ_section_title
;
Structure prediction by ZEFSAII (Michael W. Deem and Ramdas Pophale) SiO2 
 PCOD9347643
Probable space group: P N N 2
;
_chemical_formula_sum "Si O2"
_cell_formula_units_Z 20
_cell_length_a 6.087181
_cell_length_b 22.623016
_cell_length_c 6.597659
_cell_angle_alpha 90.000000
_cell_angle_beta 90.000000
_cell_angle_gamma 90.000000
_cell_volume 908.566215
_symmetry_space_group_name_H-M "P N N 2"
_symmetry_group_IT_number 34
_symmetry_cell_setting 'orthorhombic'
loop_
_space_group_symop_operation_xyz
x,y,z
-x,-y,z
1/2-x,1/2+y,1/2+z
1/2+x,1/2-y,1/2+z
loop_
_atom_site_type_symbol
_atom_site_label
_atom_site_fract_x
_atom_site_fract_y
_atom_site_fract_z
Si Si1 0.708640 0.714956 0.523650
Si Si2 0.954508 0.624267 0.273070
Si Si3 0.282978 0.377102 0.888169
Si Si4 0.371921 0.667281 0.212162
Si Si5 0.246284 0.971947 0.051896
O O1 0.891210 0.687165 0.372982
O O2 0.714434 0.675406 0.725322
O O3 0.492256 0.701772 0.393689
O O4 0.752051 0.781782 0.582522
O O5 0.799640 0.576476 0.377919
O O6 0.211847 0.619146 0.312411
O O7 0.928469 0.622311 0.032361
O O8 0.294151 0.436817 0.761426
O O9 0.468987 0.364419 0.054095
O O10 0.500000 0.000000 0.069574
O O11 0.000000 0.000000 0.009908
#
# Coordination Sequence:
#
# PCOD9347643 Si02
#       5
#     4   4   4   4   4
#     4  10  22  39  62 104 143 184 227 277 348 419
#     4  10  24  42  68  98 137 182 230 295 341 432
#     4  10  24  42  68 100 134 183 234 286 353 422
#     4  11  22  39  69 100 146 180 229 278 348 422
#     4  11  28  48  75 101 138 181 240 304 362 415
#
# _framework density 22.012702999999998
#
# number of rings (size 3 to 8) (size 9 to 14) (size 15 to 20)
#    0.000    1.600    0.000    2.400   11.200    8.000 
#    0.000    0.000    0.000    0.000    0.000    0.000 
#    0.000    0.000    0.000    0.000    0.000    0.000 
#
# Total GULP energy -111403.516252 kJ/mol
# GULP energy per Si atom -5570.175813 kJ/mol
# Density = 2.196260 g / cm^3
# Si number density = 22.012703 Si / 1000 Ang^3
#
#
#
# Elastic Constant Matrix: (Units=GPa)
#
#
# Indices 1 2 3 4 5 6 
#
# 1 101.2448 54.2462 23.7880 0.0000 0.0000 0.0000
# 2 54.2462 74.1462 32.8432 0.0000 0.0000 0.0000
# 3 23.7880 32.8432 112.8709 0.0000 0.0000 0.0000
# 4 0.0000 0.0000 0.0000 17.9006 0.0000 0.0000
# 5 0.0000 0.0000 0.0000 0.0000 0.4054 0.0000
# 6 0.0000 0.0000 0.0000 0.0000 0.0000 27.3038
#
#
#
# Elastic Compliance Matrix: (Units=1/GPa)
#
#
# Indices 1 2 3 4 5 6 
#
# 1 0.016245 -0.011903 0.000040 0.000000 0.000000 0.000000
# 2 -0.011903 0.024203 -0.004534 0.000000 0.000000 0.000000
# 3 0.000040 -0.004534 0.010171 0.000000 0.000000 0.000000
# 4 0.000000 0.000000 0.000000 0.055864 0.000000 0.000000
# 5 0.000000 0.000000 0.000000 0.000000 2.466996 0.000000
# 6 0.000000 0.000000 0.000000 0.000000 0.000000 0.036625
#
#
# Mechanical properties :
#
#
# Convention : Reuss Voigt Hill
#
# Bulk Modulus (GPa) = 56.10129 56.66854 56.38492
# Shear Modulus (GPa) = 1.88762 20.94759 11.41760
#
# Velocity S-wave (km/s) = 0.92702 3.08817 2.27993
# Velocity P-wave (km/s) = 5.16595 6.20606 5.70974
#
# Compressibility (1/GPa) = 0.01782490
#
# Stress axis : x y z
#
# Youngs Moduli (GPa) = 61.55711 41.31643 98.32194
#
# Poissons Ratio (x) = 0.49178 -0.00391
# Poissons Ratio (y) = 0.73269 0.44581
# Poissons Ratio (z) = -0.00245 0.18734
#
# Static dielectric constant tensor:
#      x y z
#    x 1.948470 0.000000 0.000000 
#    y 0.000000 1.807210 0.000000 
#    z 0.000000 0.000000 1.754370 
# 
# From -- ./inp_files/177.got.cif
#   From: 2010.05.17/outbox.cif.g08.bks.cpg/sg34_1_cif.got.tgz:177.got - 2010.06.03 17:23:11.
