data_PCOD9347392
_publ_section_title
;
Structure prediction by ZEFSAII (Michael W. Deem and Ramdas Pophale) SiO2 
 PCOD9347392
Probable space group: P N N 2
;
_chemical_formula_sum "Si O2"
_cell_formula_units_Z 30
_cell_length_a 5.618281
_cell_length_b 19.053821
_cell_length_c 13.148755
_cell_angle_alpha 90.000000
_cell_angle_beta 90.000000
_cell_angle_gamma 90.000000
_cell_volume 1407.570548
_symmetry_space_group_name_H-M "P N N 2"
_symmetry_group_IT_number 34
_symmetry_cell_setting 'orthorhombic'
loop_
_space_group_symop_operation_xyz
x,y,z
-x,-y,z
1/2-x,1/2+y,1/2+z
1/2+x,1/2-y,1/2+z
loop_
_atom_site_type_symbol
_atom_site_label
_atom_site_fract_x
_atom_site_fract_y
_atom_site_fract_z
Si Si1 0.802589 0.695416 0.278070
Si Si2 0.476516 0.790906 0.175070
Si Si3 0.000000 0.500000 0.556071
Si Si4 0.474584 0.419947 0.026623
Si Si5 0.864465 0.911716 0.146272
Si Si6 0.242797 0.864523 0.994171
Si Si7 0.525276 0.920870 0.650285
Si Si8 0.087892 0.837175 0.323290
O O1 0.601027 0.716870 0.196020
O O2 0.704391 0.663326 0.381920
O O3 0.989381 0.641116 0.230790
O O4 0.928027 0.768445 0.305925
O O5 0.674170 0.849421 0.156057
O O6 0.341250 0.812451 0.278720
O O7 0.314809 0.802640 0.074800
O O8 0.220390 0.517721 0.629312
O O9 0.068569 0.429507 0.495383
O O10 0.500000 0.500000 0.986233
O O11 0.217328 0.416865 0.082649
O O12 0.720539 0.411730 0.092456
O O13 0.449464 0.364528 0.935997
O O14 0.016683 0.900144 0.246902
O O15 0.009880 0.896744 0.044567
O O16 0.500000 0.000000 0.694643
#
# Coordination Sequence:
#
# PCOD9347392 Si02
#       8
#     4   4   2   4   4   4   4   4
#     4  11  25  40  67  95 132 184 228 285 351 411
#     4   9  22  41  58  97 129 167 216 283 337 421
#     4  10  20  38  62  90 128 168 212 286 334 406
#     4  10  24  46  72 100 138 183 235 293 354 419
#     4   9  20  40  60  93 131 166 216 276 340 412
#     4  10  22  40  62  93 131 172 223 273 346 414
#     4  10  25  48  68  99 138 186 239 297 347 419
#     4  10  23  40  66 101 132 176 231 278 365 414
#
# _framework density 21.313319
#
# number of rings (size 3 to 8) (size 9 to 14) (size 15 to 20)
#    0.000    2.133    0.000    0.400    8.400    7.467 
#    1.200    1.333    0.000    0.000    0.000    0.000 
#    0.000    0.000    0.000    0.000    0.000    0.000 
#
# Total GULP energy -167248.762589 kJ/mol
# GULP energy per Si atom -5574.958753 kJ/mol
# Density = 2.126481 g / cm^3
# Si number density = 21.313319 Si / 1000 Ang^3
#
#
#
# Elastic Constant Matrix: (Units=GPa)
#
#
# Indices 1 2 3 4 5 6 
#
# 1 80.1792 9.5243 0.8857 0.0000 0.0000 0.0000
# 2 9.5243 91.4118 30.6643 0.0000 0.0000 0.0000
# 3 0.8857 30.6643 43.0185 0.0000 0.0000 0.0000
# 4 0.0000 0.0000 0.0000 11.9601 0.0000 0.0000
# 5 0.0000 0.0000 0.0000 0.0000 16.6836 0.0000
# 6 0.0000 0.0000 0.0000 0.0000 0.0000 34.8348
#
#
#
# Elastic Compliance Matrix: (Units=1/GPa)
#
#
# Indices 1 2 3 4 5 6 
#
# 1 0.012654 -0.001618 0.000893 0.000000 0.000000 0.000000
# 2 -0.001618 0.014584 -0.010363 0.000000 0.000000 0.000000
# 3 0.000893 -0.010363 0.030614 0.000000 0.000000 0.000000
# 4 0.000000 0.000000 0.000000 0.083612 0.000000 0.000000
# 5 0.000000 0.000000 0.000000 0.000000 0.059939 0.000000
# 6 0.000000 0.000000 0.000000 0.000000 0.000000 0.028707
#
#
# Mechanical properties :
#
#
# Convention : Reuss Voigt Hill
#
# Bulk Modulus (GPa) = 28.02912 32.97310 30.50111
# Shear Modulus (GPa) = 18.92664 24.26473 21.59569
#
# Velocity S-wave (km/s) = 2.98320 3.37779 3.18661
# Velocity P-wave (km/s) = 5.00455 5.54228 5.28026
#
# Compressibility (1/GPa) = 0.03567718
#
# Stress axis : x y z
#
# Youngs Moduli (GPa) = 79.02394 68.56726 32.66476
#
# Poissons Ratio (x) = 0.11094 -0.02916
# Poissons Ratio (y) = 0.12786 0.33849
# Poissons Ratio (z) = -0.07055 0.71053
#
# Static dielectric constant tensor:
#      x y z
#    x 1.839130 0.000000 0.000000 
#    y 0.000000 1.802850 0.000000 
#    z 0.000000 0.000000 1.757610 
# 
# From -- ./inp_files/4528.got.cif
#   From: 2010.05.17/outbox.cif.g08.bks.cpg/sg34_3_cif.got.tgz:4528.got - 2010.06.03 17:23:11.
