data_PCOD9347016
_publ_section_title
;
Structure prediction by ZEFSAII (Michael W. Deem and Ramdas Pophale) SiO2 
 PCOD9347016
Probable space group: P N A 21
;
_chemical_formula_sum "Si O2"
_cell_formula_units_Z 24
_cell_length_a 19.491001
_cell_length_b 6.673026
_cell_length_c 8.110659
_cell_angle_alpha 90.000000
_cell_angle_beta 90.000000
_cell_angle_gamma 90.000000
_cell_volume 1054.904399
_symmetry_space_group_name_H-M "P N A 21"
_symmetry_group_IT_number 33
_symmetry_cell_setting 'orthorhombic'
loop_
_space_group_symop_operation_xyz
x,y,z
-x,-y,1/2+z
1/2-x,1/2+y,1/2+z
1/2+x,1/2-y,z
loop_
_atom_site_type_symbol
_atom_site_label
_atom_site_fract_x
_atom_site_fract_y
_atom_site_fract_z
Si Si1 0.247945 0.849936 0.758990
Si Si2 0.618695 0.457868 0.605797
Si Si3 0.498261 0.750354 0.597127
Si Si4 0.675768 0.825324 0.056245
Si Si5 0.138066 0.066048 0.220808
Si Si6 0.580208 0.076439 0.804815
O O1 0.290296 0.671472 0.672749
O O2 0.172223 0.894652 0.693329
O O3 0.291545 0.045723 0.705426
O O4 0.234992 0.780754 0.946314
O O5 0.542803 0.550094 0.610183
O O6 0.638843 0.455449 0.415881
O O7 0.618563 0.245925 0.698770
O O8 0.425232 0.709063 0.680289
O O9 0.478533 0.815642 0.413383
O O10 0.542252 0.920572 0.686416
O O11 0.631096 0.644818 0.129649
O O12 0.631591 0.964255 0.932117
#
# Coordination Sequence:
#
# PCOD9347016 Si02
#       6
#     4   4   4   4   4   4
#     4  12  27  49  76 113 154 201 254 321 384 460
#     4  12  28  47  78 110 156 204 258 319 391 461
#     4  12  27  47  79 110 159 199 261 319 389 464
#     4  12  29  49  78 111 157 198 263 316 390 465
#     4  12  29  48  80 113 152 206 259 317 391 461
#     4  12  28  50  75 117 154 204 257 322 389 465
#
# _framework density 22.750876000000002
#
# number of rings (size 3 to 8) (size 9 to 14) (size 15 to 20)
#    0.000    0.000    5.000    3.000   11.667    1.333 
#    0.000    0.000    0.000    0.000    0.000    0.000 
#    0.000    0.000    0.000    0.000    0.000    0.000 
#
# Total GULP energy -134292.080061 kJ/mol
# GULP energy per Si atom -5595.503336 kJ/mol
# Density = 2.269909 g / cm^3
# Si number density = 22.750876 Si / 1000 Ang^3
#
#
#
# Elastic Constant Matrix: (Units=GPa)
#
#
# Indices 1 2 3 4 5 6 
#
# 1 89.6181 38.6774 18.7270 0.0000 0.0000 0.0000
# 2 38.6774 107.8963 52.0244 0.0000 0.0000 0.0000
# 3 18.7270 52.0244 67.0919 0.0000 0.0000 0.0000
# 4 0.0000 0.0000 0.0000 36.5126 0.0000 0.0000
# 5 0.0000 0.0000 0.0000 0.0000 40.4807 0.0000
# 6 0.0000 0.0000 0.0000 0.0000 0.0000 44.6880
#
#
#
# Elastic Compliance Matrix: (Units=1/GPa)
#
#
# Indices 1 2 3 4 5 6 
#
# 1 0.013201 -0.004720 -0.000024 0.000000 0.000000 0.000000
# 2 -0.004720 0.016490 -0.011469 0.000000 0.000000 0.000000
# 3 -0.000024 -0.011469 0.023805 0.000000 0.000000 0.000000
# 4 0.000000 0.000000 0.000000 0.027388 0.000000 0.000000
# 5 0.000000 0.000000 0.000000 0.000000 0.024703 0.000000
# 6 0.000000 0.000000 0.000000 0.000000 0.000000 0.022377
#
#
# Mechanical properties :
#
#
# Convention : Reuss Voigt Hill
#
# Bulk Modulus (GPa) = 47.46487 53.71819 50.59153
# Shear Modulus (GPa) = 29.86572 34.68145 32.27358
#
# Velocity S-wave (km/s) = 3.62709 3.90859 3.77047
# Velocity P-wave (km/s) = 6.20074 6.63568 6.42189
#
# Compressibility (1/GPa) = 0.02106821
#
# Stress axis : x y z
#
# Youngs Moduli (GPa) = 75.75332 60.64117 42.00721
#
# Poissons Ratio (x) = 0.28624 0.00103
# Poissons Ratio (y) = 0.35757 0.48180
# Poissons Ratio (z) = 0.00185 0.69552
#
# Static dielectric constant tensor:
#      x y z
#    x 1.848460 0.000000 0.000000 
#    y 0.000000 1.874400 0.000000 
#    z 0.000000 0.000000 1.923990 
# 
# From -- ./inp_files/4625.got.cif
#   From: 2010.05.17/outbox.cif.g08.bks.cpg/sg33_3_cif.got.tgz:4625.got - 2010.06.03 17:15:25.
