data_PCOD9347766
_publ_section_title
;
Structure prediction by ZEFSAII (Michael W. Deem and Ramdas Pophale) SiO2 
 PCOD9347766
Probable space group: P N N 2
;
_chemical_formula_sum "Si O2"
_cell_formula_units_Z 16
_cell_length_a 8.463882
_cell_length_b 14.254152
_cell_length_c 6.296121
_cell_angle_alpha 90.000000
_cell_angle_beta 90.000000
_cell_angle_gamma 90.000000
_cell_volume 759.598418
_symmetry_space_group_name_H-M "P N N 2"
_symmetry_group_IT_number 34
_symmetry_cell_setting 'orthorhombic'
loop_
_space_group_symop_operation_xyz
x,y,z
-x,-y,z
1/2-x,1/2+y,1/2+z
1/2+x,1/2-y,1/2+z
loop_
_atom_site_type_symbol
_atom_site_label
_atom_site_fract_x
_atom_site_fract_y
_atom_site_fract_z
Si Si1 0.617906 0.931079 0.665460
Si Si2 0.316160 0.517116 0.796818
Si Si3 0.674259 0.804069 0.049083
Si Si4 0.887003 0.656305 0.825960
O O1 0.770195 0.972797 0.547418
O O2 0.510372 0.899069 0.470619
O O3 0.500000 0.000000 0.791068
O O4 0.651518 0.845545 0.815197
O O5 0.500000 0.500000 0.768913
O O6 0.264336 0.612976 0.678088
O O7 0.220877 0.424368 0.719093
O O8 0.503393 0.788664 0.162668
O O9 0.782472 0.715160 0.994002
#
# Coordination Sequence:
#
# PCOD9347766 Si02
#       4
#     4   4   4   4
#     4   9  20  41  62  84 124 173 210 265 338 392
#     4  10  23  42  62  96 133 167 222 281 327 404
#     4  11  23  41  66  93 128 175 217 274 342 398
#     4  10  24  40  64  92 131 168 223 274 331 410
#
# _framework density 21.063759999999998
#
# number of rings (size 3 to 8) (size 9 to 14) (size 15 to 20)
#    0.000    2.000    0.000    3.750    7.000    3.000 
#    4.500    0.000    0.000    0.000    0.000    0.000 
#    0.000    0.000    0.000    0.000    0.000    0.000 
#
# Total GULP energy -89107.875457 kJ/mol
# GULP energy per Si atom -5569.242216 kJ/mol
# Density = 2.101582 g / cm^3
# Si number density = 21.063760 Si / 1000 Ang^3
#
#
#
# Elastic Constant Matrix: (Units=GPa)
#
#
# Indices 1 2 3 4 5 6 
#
# 1 118.3330 35.2505 36.4357 0.0000 0.0000 0.0000
# 2 35.2505 84.8245 13.0478 0.0000 0.0000 0.0000
# 3 36.4357 13.0478 41.3226 0.0000 0.0000 0.0000
# 4 0.0000 0.0000 0.0000 41.9137 0.0000 0.0000
# 5 0.0000 0.0000 0.0000 0.0000 21.2922 0.0000
# 6 0.0000 0.0000 0.0000 0.0000 0.0000 34.2421
#
#
#
# Elastic Compliance Matrix: (Units=1/GPa)
#
#
# Indices 1 2 3 4 5 6 
#
# 1 0.012623 -0.003714 -0.009958 0.000000 0.000000 0.000000
# 2 -0.003714 0.013484 -0.000983 0.000000 0.000000 0.000000
# 3 -0.009958 -0.000983 0.033290 0.000000 0.000000 0.000000
# 4 0.000000 0.000000 0.000000 0.023859 0.000000 0.000000
# 5 0.000000 0.000000 0.000000 0.000000 0.046966 0.000000
# 6 0.000000 0.000000 0.000000 0.000000 0.000000 0.029204
#
#
# Mechanical properties :
#
#
# Convention : Reuss Voigt Hill
#
# Bulk Modulus (GPa) = 33.23557 45.99423 39.61490
# Shear Modulus (GPa) = 25.15560 30.13935 27.64747
#
# Velocity S-wave (km/s) = 3.45956 3.78678 3.62686
# Velocity P-wave (km/s) = 5.63656 6.40334 6.03215
#
# Compressibility (1/GPa) = 0.03008824
#
# Stress axis : x y z
#
# Youngs Moduli (GPa) = 79.21945 74.16378 30.03899
#
# Poissons Ratio (x) = 0.27545 0.29912
# Poissons Ratio (y) = 0.29423 0.02952
# Poissons Ratio (z) = 0.78883 0.07288
#
# Static dielectric constant tensor:
#      x y z
#    x 1.932880 0.000000 0.000000 
#    y 0.000000 1.549120 0.000000 
#    z 0.000000 0.000000 1.769600 
# 
# From -- ./inp_files/299.got.cif
#   From: 2010.05.17/outbox.cif.g08.bks.cpg/sg34_1_cif.got.tgz:299.got - 2010.06.03 17:23:11.
