data_PCOD9347628
_publ_section_title
;
Structure prediction by ZEFSAII (Michael W. Deem and Ramdas Pophale) SiO2 
 PCOD9347628
Probable space group: P N N 2
;
_chemical_formula_sum "Si O2"
_cell_formula_units_Z 28
_cell_length_a 29.583798
_cell_length_b 5.264973
_cell_length_c 7.699133
_cell_angle_alpha 90.000000
_cell_angle_beta 90.000000
_cell_angle_gamma 90.000000
_cell_volume 1199.200770
_symmetry_space_group_name_H-M "P N N 2"
_symmetry_group_IT_number 34
_symmetry_cell_setting 'orthorhombic'
loop_
_space_group_symop_operation_xyz
x,y,z
-x,-y,z
1/2-x,1/2+y,1/2+z
1/2+x,1/2-y,1/2+z
loop_
_atom_site_type_symbol
_atom_site_label
_atom_site_fract_x
_atom_site_fract_y
_atom_site_fract_z
Si Si1 0.972245 0.745406 0.726330
Si Si2 0.932176 0.674370 0.356946
Si Si3 0.904880 0.809591 0.020200
Si Si4 0.338336 0.538493 0.945302
Si Si5 0.737511 0.903102 0.454191
Si Si6 0.877001 0.315227 0.187470
Si Si7 0.709670 0.422557 0.284837
O O1 0.962504 0.715219 0.521848
O O2 0.000000 0.500000 0.785819
O O3 0.926155 0.763823 0.834806
O O4 0.000000 0.000000 0.757453
O O5 0.944101 0.790924 0.169605
O O6 0.882837 0.799570 0.402288
O O7 0.921494 0.383289 0.305001
O O8 0.872341 0.574798 0.077412
O O9 0.883896 0.082842 0.056547
O O10 0.289292 0.639559 0.888148
O O11 0.331981 0.527685 0.153409
O O12 0.343289 0.277144 0.837846
O O13 0.711935 0.640688 0.427113
O O14 0.747824 0.961176 0.654144
O O15 0.714724 0.139789 0.357810
#
# Coordination Sequence:
#
# PCOD9347628 Si02
#       7
#     4   4   4   4   4   4   4
#     4  12  27  42  68 101 138 172 217 280 338 401
#     4   9  23  43  70  95 128 177 225 265 330 400
#     4   9  21  41  63  92 131 165 209 271 321 396
#     4   9  22  38  72  83 136 171 223 267 329 382
#     4  10  22  37  62  89 131 168 214 268 332 377
#     4   9  19  40  68  86 120 171 215 263 320 379
#     4  10  22  37  61  91 128 170 219 268 326 386
#
# _framework density 23.348887000000001
#
# number of rings (size 3 to 8) (size 9 to 14) (size 15 to 20)
#    1.714    0.571    0.000    1.714    8.000    1.143 
#    0.000    7.143    0.000    0.000    0.000    0.000 
#    0.000    0.000    0.000    0.000    0.000    0.000 
#
# Total GULP energy -155955.848166 kJ/mol
# GULP energy per Si atom -5569.851720 kJ/mol
# Density = 2.329574 g / cm^3
# Si number density = 23.348887 Si / 1000 Ang^3
#
#
#
# Elastic Constant Matrix: (Units=GPa)
#
#
# Indices 1 2 3 4 5 6 
#
# 1 48.1425 32.9132 17.0064 0.0000 0.0000 0.0000
# 2 32.9132 130.0473 6.2156 0.0000 0.0000 0.0000
# 3 17.0064 6.2156 70.9756 0.0000 0.0000 0.0000
# 4 0.0000 0.0000 0.0000 35.5280 0.0000 0.0000
# 5 0.0000 0.0000 0.0000 0.0000 25.9572 0.0000
# 6 0.0000 0.0000 0.0000 0.0000 0.0000 9.5166
#
#
#
# Elastic Compliance Matrix: (Units=1/GPa)
#
#
# Indices 1 2 3 4 5 6 
#
# 1 0.027440 -0.006658 -0.005992 0.000000 0.000000 0.000000
# 2 -0.006658 0.009338 0.000778 0.000000 0.000000 0.000000
# 3 -0.005992 0.000778 0.015457 0.000000 0.000000 0.000000
# 4 0.000000 0.000000 0.000000 0.028147 0.000000 0.000000
# 5 0.000000 0.000000 0.000000 0.000000 0.038525 0.000000
# 6 0.000000 0.000000 0.000000 0.000000 0.000000 0.105080
#
#
# Mechanical properties :
#
#
# Convention : Reuss Voigt Hill
#
# Bulk Modulus (GPa) = 35.10042 40.15953 37.62997
# Shear Modulus (GPa) = 19.43798 27.06904 23.25351
#
# Velocity S-wave (km/s) = 2.88844 3.40859 3.15924
# Velocity P-wave (km/s) = 5.11759 5.72087 5.42762
#
# Compressibility (1/GPa) = 0.02848969
#
# Stress axis : x y z
#
# Youngs Moduli (GPa) = 36.44255 107.09504 64.69581
#
# Poissons Ratio (x) = 0.71308 0.38765
# Poissons Ratio (y) = 0.24265 -0.05031
# Poissons Ratio (z) = 0.21836 -0.08329
#
# Static dielectric constant tensor:
#      x y z
#    x 1.955300 0.000000 0.000000 
#    y 0.000000 1.855700 0.000000 
#    z 0.000000 0.000000 1.891800 
# 
# From -- ./inp_files/4141.got.cif
#   From: 2010.05.17/outbox.cif.g08.bks.cpg/sg34_3_cif.got.tgz:4141.got - 2010.06.03 17:23:11.
