data_PCOD9347359
_publ_section_title
;
Structure prediction by ZEFSAII (Michael W. Deem and Ramdas Pophale) SiO2 
 PCOD9347359
Probable space group: P N N 2
;
_chemical_formula_sum "Si O2"
_cell_formula_units_Z 26
_cell_length_a 12.392039
_cell_length_b 10.378231
_cell_length_c 8.980868
_cell_angle_alpha 90.000000
_cell_angle_beta 90.000000
_cell_angle_gamma 90.000000
_cell_volume 1155.006472
_symmetry_space_group_name_H-M "P N N 2"
_symmetry_group_IT_number 34
_symmetry_cell_setting 'orthorhombic'
loop_
_space_group_symop_operation_xyz
x,y,z
-x,-y,z
1/2-x,1/2+y,1/2+z
1/2+x,1/2-y,1/2+z
loop_
_atom_site_type_symbol
_atom_site_label
_atom_site_fract_x
_atom_site_fract_y
_atom_site_fract_z
Si Si1 0.796454 0.107899 0.042570
Si Si2 0.887274 0.636919 0.080082
Si Si3 0.000000 0.000000 0.217575
Si Si4 0.104114 0.831365 0.434563
Si Si5 0.126033 0.644943 0.195180
Si Si6 0.813557 0.520112 0.804465
Si Si7 0.314079 0.271540 0.234534
O O1 0.801722 0.252270 0.109820
O O2 0.694536 0.050747 0.129574
O O3 0.899534 0.029597 0.108411
O O4 0.801165 0.126445 0.867655
O O5 0.852272 0.501071 0.154573
O O6 0.796469 0.734630 0.136578
O O7 0.004909 0.668730 0.136582
O O8 0.892995 0.605599 0.904498
O O9 0.996963 0.116851 0.338718
O O10 0.131525 0.691427 0.365252
O O11 0.200198 0.930884 0.382845
O O12 0.099875 0.818374 0.610980
O O13 0.833457 0.368016 0.807303
#
# Coordination Sequence:
#
# PCOD9347359 Si02
#       7
#     4   4   2   4   4   4   4
#     4  10  21  38  63  87 121 158 202 246 305 355
#     4  10  20  36  61  83 118 165 201 243 313 355
#     4   8  18  38  60  78 118 154 190 254 294 338
#     4   9  21  37  60  87 117 155 204 252 296 356
#     4   9  19  38  58  82 118 158 203 247 304 356
#     4   9  20  38  57  87 122 154 201 250 292 366
#     4  11  22  36  62  91 120 159 202 252 301 372
#
# _framework density 22.510695999999999
#
# number of rings (size 3 to 8) (size 9 to 14) (size 15 to 20)
#    0.000    2.769    1.538    0.000   10.769    0.615 
#    0.000    1.538    0.000    0.000    0.000    0.000 
#    0.000    0.000    0.000    0.000    0.000    0.000 
#
# Total GULP energy -144780.050419 kJ/mol
# GULP energy per Si atom -5568.463478 kJ/mol
# Density = 2.245946 g / cm^3
# Si number density = 22.510696 Si / 1000 Ang^3
#
#
#
# Elastic Constant Matrix: (Units=GPa)
#
#
# Indices 1 2 3 4 5 6 
#
# 1 29.7553 1.8665 13.8226 0.0000 0.0000 0.0000
# 2 1.8665 53.0311 24.3423 0.0000 0.0000 0.0000
# 3 13.8226 24.3423 188.9412 0.0000 0.0000 0.0000
# 4 0.0000 0.0000 0.0000 32.1596 0.0000 0.0000
# 5 0.0000 0.0000 0.0000 0.0000 27.2054 0.0000
# 6 0.0000 0.0000 0.0000 0.0000 0.0000 25.3602
#
#
#
# Elastic Compliance Matrix: (Units=1/GPa)
#
#
# Indices 1 2 3 4 5 6 
#
# 1 0.034790 -0.000060 -0.002537 0.000000 0.000000 0.000000
# 2 -0.000060 0.020042 -0.002578 0.000000 0.000000 0.000000
# 3 -0.002537 -0.002578 0.005810 0.000000 0.000000 0.000000
# 4 0.000000 0.000000 0.000000 0.031095 0.000000 0.000000
# 5 0.000000 0.000000 0.000000 0.000000 0.036757 0.000000
# 6 0.000000 0.000000 0.000000 0.000000 0.000000 0.039432
#
#
# Mechanical properties :
#
#
# Convention : Reuss Voigt Hill
#
# Bulk Modulus (GPa) = 19.88361 39.08781 29.48571
# Shear Modulus (GPa) = 25.63565 32.39146 29.01355
#
# Velocity S-wave (km/s) = 3.37830 3.79745 3.59399
# Velocity P-wave (km/s) = 4.90605 6.05221 5.50902
#
# Compressibility (1/GPa) = 0.05029269
#
# Stress axis : x y z
#
# Youngs Moduli (GPa) = 28.74388 49.89469 172.10519
#
# Poissons Ratio (x) = 0.00298 0.43671
# Poissons Ratio (y) = 0.00172 0.44365
# Poissons Ratio (z) = 0.07294 0.12862
#
# Static dielectric constant tensor:
#      x y z
#    x 1.895740 0.000000 0.000000 
#    y 0.000000 1.905320 0.000000 
#    z 0.000000 0.000000 1.888520 
# 
# From -- ./inp_files/3601.got.cif
#   From: 2010.05.17/outbox.cif.g08.bks.cpg/sg34_2_cif.got.tgz:3601.got - 2010.06.03 17:23:11.
