data_PCOD9347461
_publ_section_title
;
Structure prediction by ZEFSAII (Michael W. Deem and Ramdas Pophale) SiO2 
 PCOD9347461
Probable space group: P N N 2
;
_chemical_formula_sum "Si O2"
_cell_formula_units_Z 26
_cell_length_a 12.462515
_cell_length_b 18.060157
_cell_length_c 4.893791
_cell_angle_alpha 90.000000
_cell_angle_beta 90.000000
_cell_angle_gamma 90.000000
_cell_volume 1101.469899
_symmetry_space_group_name_H-M "P N N 2"
_symmetry_group_IT_number 34
_symmetry_cell_setting 'orthorhombic'
loop_
_space_group_symop_operation_xyz
x,y,z
-x,-y,z
1/2-x,1/2+y,1/2+z
1/2+x,1/2-y,1/2+z
loop_
_atom_site_type_symbol
_atom_site_label
_atom_site_fract_x
_atom_site_fract_y
_atom_site_fract_z
Si Si1 0.528069 0.167148 0.668950
Si Si2 0.500000 0.000000 0.715490
Si Si3 0.253827 0.014256 0.776437
Si Si4 0.167549 0.321523 0.675679
Si Si5 0.162253 0.940526 0.241220
Si Si6 0.833102 0.838318 0.565929
Si Si7 0.478896 0.668216 0.569894
O O1 0.635717 0.174181 0.490426
O O2 0.474570 0.247400 0.604448
O O3 0.491164 0.083620 0.587772
O O4 0.561680 0.168800 0.987403
O O5 0.620847 0.003052 0.841736
O O6 0.243499 0.095430 0.646351
O O7 0.197927 0.962198 0.545714
O O8 0.179741 0.010220 0.044218
O O9 0.250189 0.384939 0.616521
O O10 0.215598 0.241429 0.625168
O O11 0.053393 0.896678 0.188827
O O12 0.873322 0.834767 0.257923
O O13 0.939720 0.842933 0.759766
#
# Coordination Sequence:
#
# PCOD9347461 Si02
#       7
#     4   2   4   4   4   4   4
#     4  10  22  40  65  89 124 167 208 261 309 370
#     4  12  24  44  62  96 128 166 212 264 314 384
#     4  12  27  40  67  94 130 169 209 268 323 371
#     4  10  20  42  60  87 129 161 209 255 305 377
#     4  12  23  42  63  97 128 170 205 264 323 374
#     4  10  23  43  63  96 124 168 212 264 308 391
#     4  10  23  42  69  93 126 168 217 256 323 374
#
# _framework density 23.604818999999999
#
# number of rings (size 3 to 8) (size 9 to 14) (size 15 to 20)
#    0.000    1.231    3.077    1.846    2.154    6.154 
#    0.000    0.000    0.000    0.000    0.000    0.000 
#    0.000    0.000    0.000    0.000    0.000    0.000 
#
# Total GULP energy -144904.170607 kJ/mol
# GULP energy per Si atom -5573.237331 kJ/mol
# Density = 2.355109 g / cm^3
# Si number density = 23.604819 Si / 1000 Ang^3
#
#
#
# Elastic Constant Matrix: (Units=GPa)
#
#
# Indices 1 2 3 4 5 6 
#
# 1 63.0899 27.3808 -1.3987 0.0000 0.0000 0.0000
# 2 27.3808 144.1080 2.2717 0.0000 0.0000 0.0000
# 3 -1.3987 2.2717 82.4726 0.0000 0.0000 0.0000
# 4 0.0000 0.0000 0.0000 31.1332 0.0000 0.0000
# 5 0.0000 0.0000 0.0000 0.0000 2.2183 0.0000
# 6 0.0000 0.0000 0.0000 0.0000 0.0000 24.7185
#
#
#
# Elastic Compliance Matrix: (Units=1/GPa)
#
#
# Indices 1 2 3 4 5 6 
#
# 1 0.017287 -0.003291 0.000384 0.000000 0.000000 0.000000
# 2 -0.003291 0.007569 -0.000264 0.000000 0.000000 0.000000
# 3 0.000384 -0.000264 0.012139 0.000000 0.000000 0.000000
# 4 0.000000 0.000000 0.000000 0.032120 0.000000 0.000000
# 5 0.000000 0.000000 0.000000 0.000000 0.450794 0.000000
# 6 0.000000 0.000000 0.000000 0.000000 0.000000 0.040456
#
#
# Mechanical properties :
#
#
# Convention : Reuss Voigt Hill
#
# Bulk Modulus (GPa) = 32.62375 38.46423 35.54399
# Shear Modulus (GPa) = 8.66665 29.04177 18.85421
#
# Velocity S-wave (km/s) = 1.91821 3.51141 2.82927
# Velocity P-wave (km/s) = 4.33092 5.72455 5.07579
#
# Compressibility (1/GPa) = 0.03065252
#
# Stress axis : x y z
#
# Youngs Moduli (GPa) = 57.84685 132.12430 82.37895
#
# Poissons Ratio (x) = 0.43477 -0.03162
# Poissons Ratio (y) = 0.19035 0.02177
# Poissons Ratio (z) = -0.02220 0.03492
#
# Static dielectric constant tensor:
#      x y z
#    x 1.871550 0.000000 0.000000 
#    y 0.000000 2.009310 0.000000 
#    z 0.000000 0.000000 1.857440 
# 
# From -- ./inp_files/940.got.cif
#   From: 2010.05.17/outbox.cif.g08.bks.cpg/sg34_1_cif.got.tgz:940.got - 2010.06.03 17:23:11.
