data_PCOD9348794
_publ_section_title
;
Structure prediction by ZEFSAII (Michael W. Deem and Ramdas Pophale) SiO2 
 PCOD9348794
Probable space group: C M M 2
;
_chemical_formula_sum "Si O2"
_cell_formula_units_Z 64
_cell_length_a 8.849579
_cell_length_b 28.996596
_cell_length_c 15.934578
_cell_angle_alpha 90.000000
_cell_angle_beta 90.000000
_cell_angle_gamma 90.000000
_cell_volume 4088.934886
_symmetry_space_group_name_H-M "C M M 2"
_symmetry_group_IT_number 35
_symmetry_cell_setting 'orthorhombic'
loop_
_space_group_symop_operation_xyz
x,y,z
-x,-y,z
-x,y,z
x,-y,z
1/2+x,1/2+y,z
1/2-x,1/2-y,z
1/2-x,1/2+y,z
1/2+x,1/2-y,z
loop_
_atom_site_type_symbol
_atom_site_label
_atom_site_fract_x
_atom_site_fract_y
_atom_site_fract_z
Si Si1 0.179149 0.444947 0.502930
Si Si2 0.680065 0.200471 0.605240
Si Si3 0.821075 0.445175 0.818748
Si Si4 0.819998 0.106778 0.662600
Si Si5 0.674451 0.555978 0.993288
Si Si6 0.318185 0.607323 0.344213
Si Si7 0.179955 0.700543 0.405791
Si Si8 0.315873 0.553169 0.178031
O O1 0.199637 0.500000 0.504220
O O2 0.251558 0.422245 0.585158
O O3 0.254179 0.423140 0.420602
O O4 0.000000 0.434761 0.502351
O O5 0.500000 0.200800 0.617358
O O6 0.750000 0.250000 0.627493
O O7 0.755118 0.158319 0.654019
O O8 0.709367 0.193041 0.505488
O O9 0.788091 0.500000 0.809725
O O10 0.733008 0.417114 0.748256
O O11 0.770675 0.430914 0.912313
O O12 0.000000 0.438971 0.807745
O O13 0.000000 0.107375 0.656453
O O14 0.500000 0.570760 0.982262
O O15 0.673411 0.500000 0.996697
O O16 0.731750 0.570186 0.085529
O O17 0.500000 0.607694 0.348329
O O18 0.254939 0.658584 0.356443
O O19 0.270648 0.584485 0.256097
O O20 0.250000 0.750000 0.383500
O O21 0.000000 0.700970 0.393940
O O22 0.500000 0.552395 0.175604
O O23 0.266658 0.500000 0.190560
#
# Coordination Sequence:
#
# PCOD9348794 Si02
#       8
#     8   8   8   8   8   8   8   8
#     4  11  23  36  47  64  97 137 171 204 243 285
#     4  10  20  35  54  73  98 127 161 205 251 293
#     4  10  20  33  49  71 101 133 165 205 251 295
#     4  12  23  34  51  73  97 129 169 205 244 294
#     4   8  14  28  49  70  94 126 165 206 245 287
#     4  11  20  31  50  74 100 131 168 204 244 294
#     4  10  20  34  52  71  96 127 163 207 253 294
#     4   8  15  28  47  72 101 132 166 204 242 284
#
# _framework density 15.651997
#
# number of rings (size 3 to 8) (size 9 to 14) (size 15 to 20)
#    0.000    2.000    1.250    4.500    0.000    4.750 
#    0.000    1.250    0.000    3.000    0.000    0.875 
#    0.000    2.000    0.000    0.000    0.000    0.000 
#
# Total GULP energy -178592.190633 kJ/mol
# GULP energy per Si atom -5581.005957 kJ/mol
# Density = 1.561637 g / cm^3
# Si number density = 15.651997 Si / 1000 Ang^3
#
#
#
# Elastic Constant Matrix: (Units=GPa)
#
#
# Indices 1 2 3 4 5 6 
#
# 1 72.3087 55.7335 47.4206 0.0000 0.0000 0.0000
# 2 55.7335 96.1603 62.2713 0.0000 0.0000 0.0000
# 3 47.4206 62.2713 119.7253 0.0000 0.0000 0.0000
# 4 0.0000 0.0000 0.0000 5.1257 0.0000 0.0000
# 5 0.0000 0.0000 0.0000 0.0000 10.3778 0.0000
# 6 0.0000 0.0000 0.0000 0.0000 0.0000 25.9266
#
#
#
# Elastic Compliance Matrix: (Units=1/GPa)
#
#
# Indices 1 2 3 4 5 6 
#
# 1 0.026049 -0.012691 -0.003717 0.000000 0.000000 0.000000
# 2 -0.012691 0.021864 -0.006345 0.000000 0.000000 0.000000
# 3 -0.003717 -0.006345 0.013125 0.000000 0.000000 0.000000
# 4 0.000000 0.000000 0.000000 0.195096 0.000000 0.000000
# 5 0.000000 0.000000 0.000000 0.000000 0.096359 0.000000
# 6 0.000000 0.000000 0.000000 0.000000 0.000000 0.038570
#
#
# Mechanical properties :
#
#
# Convention : Reuss Voigt Hill
#
# Bulk Modulus (GPa) = 64.38298 68.78278 66.58288
# Shear Modulus (GPa) = 11.31873 16.47060 13.89467
#
# Velocity S-wave (km/s) = 2.69206 3.24744 2.98270
# Velocity P-wave (km/s) = 7.13346 7.62244 7.38200
#
# Compressibility (1/GPa) = 0.01553205
#
# Stress axis : x y z
#
# Youngs Moduli (GPa) = 38.38970 45.73779 76.19171
#
# Poissons Ratio (x) = 0.58045 0.28318
# Poissons Ratio (y) = 0.48719 0.48345
# Poissons Ratio (z) = 0.14268 0.29022
#
# Static dielectric constant tensor:
#      x y z
#    x 1.522520 0.000000 0.000000 
#    y 0.000000 1.503410 0.000000 
#    z 0.000000 0.000000 1.516380 
# 
# From -- ./inp_files/16205.got.cif
#   From: 2010.05.17/outbox.cif.g08.bks.cpg/sg35_9_cif.got.tgz:16205.got - 2010.06.03 17:29:28.
