data_PCOD9348980
_publ_section_title
;
Structure prediction by ZEFSAII (Michael W. Deem and Ramdas Pophale) SiO2 
 PCOD9348980
Probable space group: C M M 2
;
_chemical_formula_sum "Si O2"
_cell_formula_units_Z 64
_cell_length_a 8.965391
_cell_length_b 20.626467
_cell_length_c 20.185523
_cell_angle_alpha 90.000000
_cell_angle_beta 90.000000
_cell_angle_gamma 90.000000
_cell_volume 3732.794551
_symmetry_space_group_name_H-M "C M M 2"
_symmetry_group_IT_number 35
_symmetry_cell_setting 'orthorhombic'
loop_
_space_group_symop_operation_xyz
x,y,z
-x,-y,z
-x,y,z
x,-y,z
1/2+x,1/2+y,z
1/2-x,1/2-y,z
1/2-x,1/2+y,z
1/2+x,1/2-y,z
loop_
_atom_site_type_symbol
_atom_site_label
_atom_site_fract_x
_atom_site_fract_y
_atom_site_fract_z
Si Si1 0.821664 0.319466 0.193280
Si Si2 0.679180 0.425107 0.443064
Si Si3 0.822377 0.319015 0.348780
Si Si4 0.321355 0.819496 0.692908
Si Si5 0.178304 0.924352 0.096930
Si Si6 0.679223 0.074881 0.954091
Si Si7 0.679279 0.818992 0.846403
Si Si8 0.179157 0.075128 0.597385
O O1 0.750000 0.250000 0.175607
O O2 0.788507 0.331251 0.271097
O O3 0.753590 0.375970 0.148633
O O4 0.000000 0.316455 0.185139
O O5 0.500000 0.419358 0.436611
O O6 0.718890 0.500000 0.428641
O O7 0.757881 0.375366 0.394467
O O8 0.716293 0.412328 0.520188
O O9 0.750000 0.250000 0.366643
O O10 0.000000 0.314850 0.355919
O O11 0.500000 0.815438 0.688198
O O12 0.250000 0.750000 0.675581
O O13 0.280824 0.833169 0.769869
O O14 0.259739 0.875151 0.645510
O O15 0.000000 0.916728 0.098104
O O16 0.213269 0.000000 0.111698
O O17 0.240566 0.910773 0.023401
O O18 0.500000 0.080230 0.963359
O O19 0.724861 0.124444 0.896641
O O20 0.711532 0.000000 0.936187
O O21 0.500000 0.813433 0.849267
O O22 0.750000 0.750000 0.864607
O O23 0.000000 0.081539 0.604023
O O24 0.217416 0.000000 0.611747
#
# Coordination Sequence:
#
# PCOD9348980 Si02
#       8
#     8   8   8   8   8   8   8   8
#     4  10  21  37  56  78 105 137 173 213 258 307
#     4   9  19  36  56  77 104 138 173 211 257 308
#     4  10  21  36  55  79 106 136 172 214 257 305
#     4  10  20  34  53  77 105 137 174 215 258 306
#     4  10  21  36  54  78 107 138 174 214 254 302
#     4   9  18  34  54  74 100 135 172 211 256 304
#     4   9  19  34  52  75 102 133 169 210 256 306
#     4   9  19  36  55  76 104 137 173 213 258 308
#
# _framework density 17.145332
#
# number of rings (size 3 to 8) (size 9 to 14) (size 15 to 20)
#    0.000    2.500    0.000    2.250    0.000    6.250 
#    0.000    6.250    0.000    1.500    0.000    0.000 
#    0.000    0.000    0.000    0.000    0.000    0.000 
#
# Total GULP energy -178562.582726 kJ/mol
# GULP energy per Si atom -5580.080710 kJ/mol
# Density = 1.710631 g / cm^3
# Si number density = 17.145332 Si / 1000 Ang^3
#
#
#
# Elastic Constant Matrix: (Units=GPa)
#
#
# Indices 1 2 3 4 5 6 
#
# 1 49.0173 70.5267 60.1934 0.0000 0.0000 0.0000
# 2 70.5267 161.9871 123.9448 0.0000 0.0000 0.0000
# 3 60.1934 123.9448 113.0386 0.0000 0.0000 0.0000
# 4 0.0000 0.0000 0.0000 43.9545 0.0000 0.0000
# 5 0.0000 0.0000 0.0000 0.0000 26.9718 0.0000
# 6 0.0000 0.0000 0.0000 0.0000 0.0000 35.2400
#
#
#
# Elastic Compliance Matrix: (Units=1/GPa)
#
#
# Indices 1 2 3 4 5 6 
#
# 1 0.061809 -0.010724 -0.021154 0.000000 0.000000 0.000000
# 2 -0.010724 0.040199 -0.038366 0.000000 0.000000 0.000000
# 3 -0.021154 -0.038366 0.062179 0.000000 0.000000 0.000000
# 4 0.000000 0.000000 0.000000 0.022751 0.000000 0.000000
# 5 0.000000 0.000000 0.000000 0.000000 0.037076 0.000000
# 6 0.000000 0.000000 0.000000 0.000000 0.000000 0.028377
#
#
# Mechanical properties :
#
#
# Convention : Reuss Voigt Hill
#
# Bulk Modulus (GPa) = 42.19981 92.59699 67.39840
# Shear Modulus (GPa) = 12.47568 25.85847 19.16707
#
# Velocity S-wave (km/s) = 2.70041 3.88776 3.34716
# Velocity P-wave (km/s) = 5.86425 8.61843 7.37111
#
# Compressibility (1/GPa) = 0.02369679
#
# Stress axis : x y z
#
# Youngs Moduli (GPa) = 16.17886 24.87640 16.08251
#
# Poissons Ratio (x) = 0.26679 0.34021
# Poissons Ratio (y) = 0.17351 0.61703
# Poissons Ratio (z) = 0.34225 0.95442
#
# Static dielectric constant tensor:
#      x y z
#    x 1.570030 0.000000 0.000000 
#    y 0.000000 1.553330 0.000000 
#    z 0.000000 0.000000 1.561520 
# 
# From -- ./inp_files/18303.got.cif
#   From: 2010.05.17/outbox.cif.g08.bks.cpg/sg35_10_cif.got.tgz:18303.got - 2010.06.03 17:29:28.
