data_PCOD9348738
_publ_section_title
;
Structure prediction by ZEFSAII (Michael W. Deem and Ramdas Pophale) SiO2 
 PCOD9348738
Probable space group: C M M 2
;
_chemical_formula_sum "Si O2"
_cell_formula_units_Z 48
_cell_length_a 18.293420
_cell_length_b 7.417960
_cell_length_c 18.126799
_cell_angle_alpha 90.000000
_cell_angle_beta 90.000000
_cell_angle_gamma 90.000000
_cell_volume 2459.804047
_symmetry_space_group_name_H-M "C M M 2"
_symmetry_group_IT_number 35
_symmetry_cell_setting 'orthorhombic'
loop_
_space_group_symop_operation_xyz
x,y,z
-x,-y,z
-x,y,z
x,-y,z
1/2+x,1/2+y,z
1/2-x,1/2-y,z
1/2-x,1/2+y,z
1/2+x,1/2-y,z
loop_
_atom_site_type_symbol
_atom_site_label
_atom_site_fract_x
_atom_site_fract_y
_atom_site_fract_z
Si Si1 0.414818 0.719409 0.663630
Si Si2 0.088121 0.500000 0.079124
Si Si3 0.587684 0.711354 0.368004
Si Si4 0.088639 0.500000 0.249073
Si Si5 0.163821 0.213612 0.976231
Si Si6 0.335651 0.284911 0.517250
Si Si7 0.415326 0.718940 0.827217
O O1 0.500000 0.767495 0.654632
O O2 0.411509 0.500000 0.663972
O O3 0.369151 0.785114 0.593843
O O4 0.391094 0.778874 0.745519
O O5 0.112318 0.500000 0.164559
O O6 0.120427 0.327226 0.036933
O O7 0.000000 0.500000 0.075317
O O8 0.500000 0.727785 0.376498
O O9 0.604717 0.500000 0.357965
O O10 0.610884 0.827083 0.297370
O O11 0.624981 0.780068 0.443019
O O12 0.000000 0.500000 0.247026
O O13 0.250000 0.250000 0.981694
O O14 0.150428 0.000000 0.984148
O O15 0.134265 0.273303 0.895725
O O16 0.348143 0.500000 0.517739
O O17 0.250000 0.250000 0.513940
O O18 0.500000 0.774213 0.838167
O O19 0.415246 0.500000 0.826132
#
# Coordination Sequence:
#
# PCOD9348738 Si02
#       7
#     8   4   8   4   8   8   8
#     4   8  14  28  50  76 106 144 192 237 277 329
#     4  11  24  42  66  95 122 154 199 251 306 366
#     4   9  18  35  59  83 108 142 187 231 279 338
#     4   9  20  38  62  89 113 140 181 237 291 342
#     4  11  22  39  62  88 125 164 200 246 301 365
#     4  10  20  31  49  75 108 146 184 229 278 335
#     4   8  15  29  53  83 111 147 197 243 288 343
#
# _framework density 19.513748
#
# number of rings (size 3 to 8) (size 9 to 14) (size 15 to 20)
#    0.000    2.667    0.833    2.000    1.167    4.333 
#    0.000    2.500    1.833    0.000    0.000    0.000 
#    0.000    0.000    0.000    0.000    0.000    0.000 
#
# Total GULP energy -133946.269200 kJ/mol
# GULP energy per Si atom -5581.094550 kJ/mol
# Density = 1.946933 g / cm^3
# Si number density = 19.513748 Si / 1000 Ang^3
#
#
#
# Elastic Constant Matrix: (Units=GPa)
#
#
# Indices 1 2 3 4 5 6 
#
# 1 75.3664 28.4150 83.3293 0.0000 0.0000 0.0000
# 2 28.4150 95.1101 64.1588 0.0000 0.0000 0.0000
# 3 83.3293 64.1588 223.2079 0.0000 0.0000 0.0000
# 4 0.0000 0.0000 0.0000 60.5937 0.0000 0.0000
# 5 0.0000 0.0000 0.0000 0.0000 -31.0856 0.0000
# 6 0.0000 0.0000 0.0000 0.0000 0.0000 2.3209
#
#
#
# Elastic Compliance Matrix: (Units=1/GPa)
#
#
# Indices 1 2 3 4 5 6 
#
# 1 0.022728 -0.001323 -0.008105 0.000000 0.000000 0.000000
# 2 -0.001323 0.013120 -0.003277 0.000000 0.000000 0.000000
# 3 -0.008105 -0.003277 0.008448 0.000000 0.000000 0.000000
# 4 0.000000 0.000000 0.000000 0.016503 0.000000 0.000000
# 5 0.000000 0.000000 0.000000 0.000000 -0.032169 0.000000
# 6 0.000000 0.000000 0.000000 0.000000 0.000000 0.430858
#
#
# Mechanical properties :
#
#
# Convention : Reuss Voigt Hill
#
# Bulk Modulus (GPa) = 52.94877 82.83230 67.89053
# Shear Modulus (GPa) = 10.17926 20.88456 15.53191
#
# Velocity S-wave (km/s) = 2.28643 3.27501 2.82431
# Velocity P-wave (km/s) = 5.84494 7.53932 6.74554
#
# Compressibility (1/GPa) = 0.01888618
#
# Stress axis : x y z
#
# Youngs Moduli (GPa) = 43.99765 76.21826 118.37234
#
# Poissons Ratio (x) = 0.10084 0.95939
# Poissons Ratio (y) = 0.05821 0.38795
# Poissons Ratio (z) = 0.35659 0.24979
#
# Static dielectric constant tensor:
#      x y z
#    x 1.671740 0.000000 0.000000 
#    y 0.000000 1.733230 0.000000 
#    z 0.000000 0.000000 1.674080 
# 
# From -- ./inp_files/17089.got.cif
#   From: 2010.05.17/outbox.cif.g08.bks.cpg/sg35_9_cif.got.tgz:17089.got - 2010.06.03 17:29:28.
