data_PCOD9348020
_publ_section_title
;
Structure prediction by ZEFSAII (Michael W. Deem and Ramdas Pophale) SiO2 
 PCOD9348020
Probable space group: P N N 2
;
_chemical_formula_sum "Si O2"
_cell_formula_units_Z 16
_cell_length_a 14.346073
_cell_length_b 9.268981
_cell_length_c 4.801226
_cell_angle_alpha 90.000000
_cell_angle_beta 90.000000
_cell_angle_gamma 90.000000
_cell_volume 638.435720
_symmetry_space_group_name_H-M "P N N 2"
_symmetry_group_IT_number 34
_symmetry_cell_setting 'orthorhombic'
loop_
_space_group_symop_operation_xyz
x,y,z
-x,-y,z
1/2-x,1/2+y,1/2+z
1/2+x,1/2-y,1/2+z
loop_
_atom_site_type_symbol
_atom_site_label
_atom_site_fract_x
_atom_site_fract_y
_atom_site_fract_z
Si Si1 0.703084 0.972731 0.138430
Si Si2 0.592027 0.076639 0.645348
Si Si3 0.022405 0.836862 0.334511
Si Si4 0.652734 0.675682 0.356470
O O1 0.672566 0.065424 0.411144
O O2 0.713104 0.809181 0.241649
O O3 0.618957 0.989521 0.922278
O O4 0.787449 0.039255 0.959016
O O5 0.564020 0.233510 0.764800
O O6 0.500000 0.000000 0.520326
O O7 0.068361 0.846845 0.639510
O O8 0.103951 0.777727 0.139393
O O9 0.000000 0.000000 0.249556
#
# Coordination Sequence:
#
# PCOD9348020 Si02
#       4
#     4   4   4   4
#     4  12  26  46  77 109 151 201 256 318 400 465
#     4  12  23  48  78 103 144 204 255 316 379 466
#     4  12  27  48  75 109 152 196 262 322 384 464
#     4  12  26  49  72 111 155 198 253 323 391 473
#
# _framework density 25.061254000000002
#
# number of rings (size 3 to 8) (size 9 to 14) (size 15 to 20)
#    0.000    0.000    5.000    4.500    3.500    0.000 
#    0.000    0.000    0.000    0.000    0.000    0.000 
#    0.000    0.000    0.000    0.000    0.000    0.000 
#
# Total GULP energy -89495.697571 kJ/mol
# GULP energy per Si atom -5593.481098 kJ/mol
# Density = 2.500421 g / cm^3
# Si number density = 25.061254 Si / 1000 Ang^3
#
#
#
# Elastic Constant Matrix: (Units=GPa)
#
#
# Indices 1 2 3 4 5 6 
#
# 1 34.2593 19.1112 1.6076 0.0000 0.0000 0.0000
# 2 19.1112 166.4018 30.0160 0.0000 0.0000 0.0000
# 3 1.6076 30.0160 136.4961 0.0000 0.0000 0.0000
# 4 0.0000 0.0000 0.0000 43.1991 0.0000 0.0000
# 5 0.0000 0.0000 0.0000 0.0000 40.7142 0.0000
# 6 0.0000 0.0000 0.0000 0.0000 0.0000 31.1102
#
#
#
# Elastic Compliance Matrix: (Units=1/GPa)
#
#
# Indices 1 2 3 4 5 6 
#
# 1 0.031212 -0.003664 0.000438 0.000000 0.000000 0.000000
# 2 -0.003664 0.006688 -0.001428 0.000000 0.000000 0.000000
# 3 0.000438 -0.001428 0.007635 0.000000 0.000000 0.000000
# 4 0.000000 0.000000 0.000000 0.023149 0.000000 0.000000
# 5 0.000000 0.000000 0.000000 0.000000 0.024561 0.000000
# 6 0.000000 0.000000 0.000000 0.000000 0.000000 0.032144
#
#
# Mechanical properties :
#
#
# Convention : Reuss Voigt Hill
#
# Bulk Modulus (GPa) = 27.60240 48.73631 38.16935
# Shear Modulus (GPa) = 34.06651 42.09954 38.08302
#
# Velocity S-wave (km/s) = 3.69091 4.10306 3.90243
# Velocity P-wave (km/s) = 5.40385 6.47580 5.96396
#
# Compressibility (1/GPa) = 0.03622874
#
# Stress axis : x y z
#
# Youngs Moduli (GPa) = 32.03859 149.52519 130.97618
#
# Poissons Ratio (x) = 0.54782 -0.05738
# Poissons Ratio (y) = 0.11738 0.18697
# Poissons Ratio (z) = -0.01404 0.21345
#
# Static dielectric constant tensor:
#      x y z
#    x 2.201180 0.000000 0.000000 
#    y 0.000000 2.061290 0.000000 
#    z 0.000000 0.000000 1.985470 
# 
# From -- ./inp_files/1127.got.cif
#   From: 2010.05.17/outbox.cif.g08.bks.cpg/sg34_1_cif.got.tgz:1127.got - 2010.06.03 17:23:11.
