data_PCOD9348997
_publ_section_title
;
Structure prediction by ZEFSAII (Michael W. Deem and Ramdas Pophale) SiO2 
 PCOD9348997
Probable space group: C M M 2
;
_chemical_formula_sum "Si O2"
_cell_formula_units_Z 64
_cell_length_a 8.916671
_cell_length_b 18.393749
_cell_length_c 21.279583
_cell_angle_alpha 90.000000
_cell_angle_beta 90.000000
_cell_angle_gamma 90.000000
_cell_volume 3490.085864
_symmetry_space_group_name_H-M "C M M 2"
_symmetry_group_IT_number 35
_symmetry_cell_setting 'orthorhombic'
loop_
_space_group_symop_operation_xyz
x,y,z
-x,-y,z
-x,y,z
x,-y,z
1/2+x,1/2+y,z
1/2-x,1/2-y,z
1/2-x,1/2+y,z
1/2+x,1/2-y,z
loop_
_atom_site_type_symbol
_atom_site_label
_atom_site_fract_x
_atom_site_fract_y
_atom_site_fract_z
Si Si1 0.678443 0.586131 0.821920
Si Si2 0.821036 0.170085 0.067359
Si Si3 0.173242 0.411393 0.439129
Si Si4 0.319197 0.329481 0.694689
Si Si5 0.180375 0.085305 0.569769
Si Si6 0.327684 0.588623 0.310342
Si Si7 0.679296 0.169810 0.936820
Si Si8 0.673501 0.087666 0.180930
O O1 0.500000 0.599263 0.832414
O O2 0.701083 0.500000 0.817702
O O3 0.720670 0.624014 0.756271
O O4 0.770313 0.620447 0.878937
O O5 0.750000 0.250000 0.076529
O O6 0.773121 0.121446 0.126088
O O7 0.000000 0.175004 0.061346
O O8 0.748910 0.141654 0.002361
O O9 0.179304 0.500000 0.438867
O O10 0.247616 0.388489 0.504628
O O11 0.258863 0.386702 0.376531
O O12 0.000000 0.389928 0.436456
O O13 0.500000 0.324518 0.693227
O O14 0.250000 0.250000 0.698872
O O15 0.271368 0.369596 0.630641
O O16 0.000000 0.089576 0.564328
O O17 0.218537 0.000000 0.578603
O O18 0.500000 0.611375 0.303991
O O19 0.325387 0.500000 0.311353
O O20 0.232840 0.610842 0.249491
O O21 0.500000 0.175028 0.941521
O O22 0.750000 0.250000 0.927286
O O23 0.500000 0.109018 0.172566
O O24 0.681928 0.000000 0.178323
#
# Coordination Sequence:
#
# PCOD9348997 Si02
#       8
#     8   8   8   8   8   8   8   8
#     4  10  21  38  59  83 111 142 177 219 267 317
#     4  11  22  38  59  81 108 143 183 223 266 319
#     4   9  16  26  43  70 102 134 169 213 266 318
#     4  10  21  36  55  78 105 140 178 216 260 313
#     4   9  17  31  51  74 100 132 172 216 261 312
#     4   9  16  27  45  71 103 139 178 218 263 317
#     4  11  22  38  59  82 109 141 179 220 265 318
#     4  10  20  34  53  79 111 144 180 225 273 319
#
# _framework density 18.337658999999999
#
# number of rings (size 3 to 8) (size 9 to 14) (size 15 to 20)
#    0.000    2.125    0.000    4.875    0.000    8.000 
#    0.000    0.000    0.000    3.000    0.000    3.500 
#    0.000    0.000    0.000    0.000    0.000    0.000 
#
# Total GULP energy -178651.273939 kJ/mol
# GULP energy per Si atom -5582.852311 kJ/mol
# Density = 1.829592 g / cm^3
# Si number density = 18.337659 Si / 1000 Ang^3
#
#
#
# Elastic Constant Matrix: (Units=GPa)
#
#
# Indices 1 2 3 4 5 6 
#
# 1 115.4403 36.8328 75.1122 0.0000 0.0000 0.0000
# 2 36.8328 39.4596 50.6251 0.0000 0.0000 0.0000
# 3 75.1122 50.6251 170.1178 0.0000 0.0000 0.0000
# 4 0.0000 0.0000 0.0000 -229.7248 0.0000 0.0000
# 5 0.0000 0.0000 0.0000 0.0000 -37.4706 0.0000
# 6 0.0000 0.0000 0.0000 0.0000 0.0000 23.3297
#
#
#
# Elastic Compliance Matrix: (Units=1/GPa)
#
#
# Indices 1 2 3 4 5 6 
#
# 1 0.013572 -0.008056 -0.003595 0.000000 0.000000 0.000000
# 2 -0.008056 0.045776 -0.010065 0.000000 0.000000 0.000000
# 3 -0.003595 -0.010065 0.010461 0.000000 0.000000 0.000000
# 4 0.000000 0.000000 0.000000 -0.004353 0.000000 0.000000
# 5 0.000000 0.000000 0.000000 0.000000 -0.026688 0.000000
# 6 0.000000 0.000000 0.000000 0.000000 0.000000 0.042864
#
#
# Mechanical properties :
#
#
# Convention : Reuss Voigt Hill
#
# Bulk Modulus (GPa) = 37.91398 72.23978 55.07688
# Shear Modulus (GPa) = 37.35337 -37.94330 -0.29497
#
# Velocity S-wave (km/s) = 4.51818 -4.55372 -0.40150
# Velocity P-wave (km/s) = 6.92380 3.43966 5.46673
#
# Compressibility (1/GPa) = 0.02637549
#
# Stress axis : x y z
#
# Youngs Moduli (GPa) = 73.68054 21.84570 95.59426
#
# Poissons Ratio (x) = 0.17600 0.34366
# Poissons Ratio (y) = 0.59360 0.96217
# Poissons Ratio (z) = 0.26488 0.21988
#
# Static dielectric constant tensor:
#      x y z
#    x 1.618170 0.000000 0.000000 
#    y 0.000000 1.617140 0.000000 
#    z 0.000000 0.000000 1.620220 
# 
# From -- ./inp_files/18370.got.cif
#   From: 2010.05.17/outbox.cif.g08.bks.cpg/sg35_10_cif.got.tgz:18370.got - 2010.06.03 17:29:28.
