data_PCOD9348169
_publ_section_title
;
Structure prediction by ZEFSAII (Michael W. Deem and Ramdas Pophale) SiO2 
 PCOD9348169
Probable space group: C M M 2
;
_chemical_formula_sum "Si O2"
_cell_formula_units_Z 64
_cell_length_a 29.530605
_cell_length_b 8.309026
_cell_length_c 16.218125
_cell_angle_alpha 90.000000
_cell_angle_beta 90.000000
_cell_angle_gamma 90.000000
_cell_volume 3979.450490
_symmetry_space_group_name_H-M "C M M 2"
_symmetry_group_IT_number 35
_symmetry_cell_setting 'orthorhombic'
loop_
_space_group_symop_operation_xyz
x,y,z
-x,-y,z
-x,y,z
x,-y,z
1/2+x,1/2+y,z
1/2-x,1/2-y,z
1/2-x,1/2+y,z
1/2+x,1/2-y,z
loop_
_atom_site_type_symbol
_atom_site_label
_atom_site_fract_x
_atom_site_fract_y
_atom_site_fract_z
Si Si1 0.449257 0.805964 0.743530
Si Si2 0.301699 0.306698 0.842059
Si Si3 0.697987 0.305225 0.519948
Si Si4 0.802023 0.692131 0.163881
Si Si5 0.856038 0.806274 0.679732
Si Si6 0.197886 0.807510 0.339061
Si Si7 0.050526 0.303831 0.935074
Si Si8 0.644692 0.805408 0.003452
O O1 0.500000 0.754265 0.718960
O O2 0.408065 0.742510 0.689808
O O3 0.442369 0.756342 0.839331
O O4 0.448299 0.000000 0.742213
O O5 0.302721 0.500000 0.843317
O O6 0.250000 0.250000 0.838898
O O7 0.328690 0.249226 0.760745
O O8 0.326004 0.243641 0.924146
O O9 0.698191 0.500000 0.520782
O O10 0.750000 0.250000 0.529404
O O11 0.667923 0.247192 0.596306
O O12 0.680328 0.254684 0.429062
O O13 0.800935 0.500000 0.161099
O O14 0.750000 0.750000 0.156296
O O15 0.821270 0.742597 0.253173
O O16 0.831604 0.753194 0.087118
O O17 0.853508 0.000000 0.679299
O O18 0.250000 0.750000 0.339090
O O19 0.196754 0.000000 0.335493
O O20 0.050401 0.500000 0.936211
O O21 0.000000 0.251218 0.960273
O O22 0.093194 0.248652 0.988413
O O23 0.643816 0.000000 0.006639
#
# Coordination Sequence:
#
# PCOD9348169 Si02
#       8
#     8   8   8   8   8   8   8   8
#     4   9  17  30  49  69  88 115 152 190 226 266
#     4  11  22  32  43  61  89 124 155 183 215 256
#     4   9  18  31  46  66  91 119 153 186 223 268
#     4  10  19  29  43  64  89 117 149 184 221 264
#     4  10  20  32  45  66  93 120 150 186 225 265
#     4   9  16  28  46  64  85 114 146 185 225 263
#     4   8  14  27  47  67  86 111 146 186 223 261
#     4  10  19  31  47  66  89 119 152 185 221 264
#
# _framework density 16.082623000000002
#
# number of rings (size 3 to 8) (size 9 to 14) (size 15 to 20)
#    0.000    2.500    1.250    3.375    0.000    3.750 
#    0.000    0.000    0.000    0.375    0.000    0.875 
#    0.000    3.000    0.000    0.000    0.000    0.000 
#
# Total GULP energy -178331.476702 kJ/mol
# GULP energy per Si atom -5572.858647 kJ/mol
# Density = 1.604602 g / cm^3
# Si number density = 16.082623 Si / 1000 Ang^3
#
#
#
# Elastic Constant Matrix: (Units=GPa)
#
#
# Indices 1 2 3 4 5 6 
#
# 1 117.9086 8.0873 78.8408 0.0000 0.0000 0.0000
# 2 8.0873 9.7998 16.8990 0.0000 0.0000 0.0000
# 3 78.8408 16.8990 157.8106 0.0000 0.0000 0.0000
# 4 0.0000 0.0000 0.0000 5.7698 0.0000 0.0000
# 5 0.0000 0.0000 0.0000 0.0000 8.4089 0.0000
# 6 0.0000 0.0000 0.0000 0.0000 0.0000 15.0552
#
#
#
# Elastic Compliance Matrix: (Units=1/GPa)
#
#
# Indices 1 2 3 4 5 6 
#
# 1 0.012738 0.000566 -0.006424 0.000000 0.000000 0.000000
# 2 0.000566 0.125178 -0.013688 0.000000 0.000000 0.000000
# 3 -0.006424 -0.013688 0.011012 0.000000 0.000000 0.000000
# 4 0.000000 0.000000 0.000000 0.173315 0.000000 0.000000
# 5 0.000000 0.000000 0.000000 0.000000 0.118921 0.000000
# 6 0.000000 0.000000 0.000000 0.000000 0.000000 0.066422
#
#
# Mechanical properties :
#
#
# Convention : Reuss Voigt Hill
#
# Bulk Modulus (GPa) = 9.10439 54.79705 31.95072
# Shear Modulus (GPa) = 8.57204 17.95958 13.26581
#
# Velocity S-wave (km/s) = 2.31118 3.34534 2.87514
# Velocity P-wave (km/s) = 3.57707 7.00485 5.56162
#
# Compressibility (1/GPa) = 0.10983717
#
# Stress axis : x y z
#
# Youngs Moduli (GPa) = 78.50462 7.98860 90.80949
#
# Poissons Ratio (x) = -0.00452 0.58341
# Poissons Ratio (y) = -0.04446 1.24297
# Poissons Ratio (z) = 0.50435 0.10934
#
# Static dielectric constant tensor:
#      x y z
#    x 1.524800 0.000000 0.000000 
#    y 0.000000 1.561280 0.000000 
#    z 0.000000 0.000000 1.562270 
# 
# From -- ./inp_files/16238.got.cif
#   From: 2010.05.17/outbox.cif.g08.bks.cpg/sg35_9_cif.got.tgz:16238.got - 2010.06.03 17:29:28.
