data_PCOD9348279
_publ_section_title
;
Structure prediction by ZEFSAII (Michael W. Deem and Ramdas Pophale) SiO2 
 PCOD9348279
Probable space group: C M M 2
;
_chemical_formula_sum "Si O2"
_cell_formula_units_Z 64
_cell_length_a 7.701344
_cell_length_b 18.476482
_cell_length_c 21.685071
_cell_angle_alpha 90.000000
_cell_angle_beta 90.000000
_cell_angle_gamma 90.000000
_cell_volume 3085.649937
_symmetry_space_group_name_H-M "C M M 2"
_symmetry_group_IT_number 35
_symmetry_cell_setting 'orthorhombic'
loop_
_space_group_symop_operation_xyz
x,y,z
-x,-y,z
-x,y,z
x,-y,z
1/2+x,1/2+y,z
1/2-x,1/2-y,z
1/2-x,1/2+y,z
1/2+x,1/2-y,z
loop_
_atom_site_type_symbol
_atom_site_label
_atom_site_fract_x
_atom_site_fract_y
_atom_site_fract_z
Si Si1 0.208603 0.834636 0.416560
Si Si2 0.212694 0.916261 0.539541
Si Si3 0.707565 0.417106 0.782934
Si Si4 0.792435 0.917106 0.050186
Si Si5 0.287306 0.583739 0.293579
Si Si6 0.291137 0.665607 0.170638
Si Si7 0.706165 0.082521 0.916560
Si Si8 0.208863 0.165607 0.662482
O O1 0.250000 0.750000 0.416560
O O2 0.271934 0.873878 0.478585
O O3 0.271934 0.873878 0.354535
O O4 0.000000 0.841842 0.416560
O O5 0.271637 0.876490 0.601771
O O6 0.000000 0.915244 0.539560
O O7 0.265326 0.000000 0.538355
O O8 0.500000 0.421539 0.776529
O O9 0.775982 0.500000 0.781132
O O10 0.741726 0.385019 0.850854
O O11 0.775047 0.370712 0.725656
O O12 0.724952 0.870711 0.107464
O O13 0.000000 0.921539 0.056592
O O14 0.724018 0.000000 0.051987
O O15 0.758277 0.885019 0.982266
O O16 0.500000 0.584756 0.293560
O O17 0.234674 0.500000 0.294765
O O18 0.228363 0.623510 0.231349
O O19 0.500000 0.658621 0.170368
O O20 0.250000 0.750000 0.173783
O O21 0.500000 0.078238 0.916561
O O22 0.780110 0.000000 0.916560
O O23 0.250000 0.250000 0.659337
O O24 0.000000 0.158621 0.662752
#
# Coordination Sequence:
#
# PCOD9348279 Si02
#       8
#     8   8   8   8   8   8   8   8
#     4  10  19  31  51  77 105 136 166 202 248 294
#     4   9  17  31  52  76  99 128 171 213 243 281
#     4   9  17  31  51  72  94 125 165 203 239 286
#     4   9  17  31  51  72  94 125 165 203 239 286
#     4   9  17  31  52  76  99 128 171 213 243 281
#     4  10  20  33  50  72  99 130 163 203 249 294
#     4   9  17  29  48  75 102 125 153 197 250 295
#     4  10  20  33  50  72  99 130 163 203 249 294
#
# _framework density 20.741174999999998
#
# number of rings (size 3 to 8) (size 9 to 14) (size 15 to 20)
#    0.000    2.625    0.000    2.250    0.000    7.000 
#    0.000    0.625    0.000    5.250    0.000    0.000 
#    0.000    0.000    0.000    0.000    0.000    0.000 
#
# Total GULP energy -178607.745687 kJ/mol
# GULP energy per Si atom -5581.492053 kJ/mol
# Density = 2.069397 g / cm^3
# Si number density = 20.741175 Si / 1000 Ang^3
#
#
#
# Elastic Constant Matrix: (Units=GPa)
#
#
# Indices 1 2 3 4 5 6 
#
# 1 34.9800 -0.6461 9.8859 0.0000 0.0000 0.0000
# 2 -0.6461 156.8849 130.2453 0.0000 0.0000 0.0000
# 3 9.8859 130.2453 265.1897 0.0000 0.0000 0.0000
# 4 0.0000 0.0000 0.0000 -57.6417 0.0000 0.0000
# 5 0.0000 0.0000 0.0000 0.0000 -17.0253 0.0000
# 6 0.0000 0.0000 0.0000 0.0000 0.0000 23.0634
#
#
#
# Elastic Compliance Matrix: (Units=1/GPa)
#
#
# Indices 1 2 3 4 5 6 
#
# 1 0.029167 0.001727 -0.001935 0.000000 0.000000 0.000000
# 2 0.001727 0.010865 -0.005400 0.000000 0.000000 0.000000
# 3 -0.001935 -0.005400 0.006495 0.000000 0.000000 0.000000
# 4 0.000000 0.000000 0.000000 -0.017349 0.000000 0.000000
# 5 0.000000 0.000000 0.000000 0.000000 -0.058736 0.000000
# 6 0.000000 0.000000 0.000000 0.000000 0.000000 0.043359
#
#
# Mechanical properties :
#
#
# Convention : Reuss Voigt Hill
#
# Bulk Modulus (GPa) = 28.32157 81.78052 55.05105
# Shear Modulus (GPa) = 135.91210 10.85056 73.38133
#
# Velocity S-wave (km/s) = 8.10370 2.28971 5.95452
# Velocity P-wave (km/s) = 10.06202 6.81946 8.59504
#
# Compressibility (1/GPa) = 0.03530877
#
# Stress axis : x y z
#
# Youngs Moduli (GPa) = 34.28571 92.04176 153.95500
#
# Poissons Ratio (x) = -0.15895 0.29797
# Poissons Ratio (y) = -0.05921 0.83142
# Poissons Ratio (z) = 0.06636 0.49707
#
# Static dielectric constant tensor:
#      x y z
#    x 1.772930 0.000000 0.000000 
#    y 0.000000 1.694510 0.000000 
#    z 0.000000 0.000000 1.752520 
# 
# From -- ./inp_files/18668.got.cif
#   From: 2010.05.17/outbox.cif.g08.bks.cpg/sg35_10_cif.got.tgz:18668.got - 2010.06.03 17:29:28.
