data_PCOD9348009
_publ_section_title
;
Structure prediction by ZEFSAII (Michael W. Deem and Ramdas Pophale) SiO2 
 PCOD9348009
Probable space group: P N N 2
;
_chemical_formula_sum "Si O2"
_cell_formula_units_Z 28
_cell_length_a 22.835287
_cell_length_b 8.975478
_cell_length_c 5.537677
_cell_angle_alpha 90.000000
_cell_angle_beta 90.000000
_cell_angle_gamma 90.000000
_cell_volume 1134.989077
_symmetry_space_group_name_H-M "P N N 2"
_symmetry_group_IT_number 34
_symmetry_cell_setting 'orthorhombic'
loop_
_space_group_symop_operation_xyz
x,y,z
-x,-y,z
1/2-x,1/2+y,1/2+z
1/2+x,1/2-y,1/2+z
loop_
_atom_site_type_symbol
_atom_site_label
_atom_site_fract_x
_atom_site_fract_y
_atom_site_fract_z
Si Si1 0.500000 0.500000 0.798080
Si Si2 0.569053 0.684166 0.166189
Si Si3 0.061533 0.316079 0.712911
Si Si4 0.725374 0.001303 0.680046
Si Si5 0.101337 0.069464 0.007346
Si Si6 0.398366 0.065138 0.863354
Si Si7 0.000000 0.500000 0.088402
Si Si8 0.275622 0.638617 0.684207
O O1 0.461356 0.605332 0.628630
O O2 0.551417 0.565312 0.962226
O O3 0.504772 0.755966 0.196665
O O4 0.593917 0.594828 0.394251
O O5 0.612305 0.808894 0.065121
O O6 0.105240 0.186800 0.788777
O O7 0.085192 0.408812 0.489036
O O8 0.051260 0.431497 0.928264
O O9 0.731949 0.181570 0.680200
O O10 0.657140 0.956637 0.698115
O O11 0.749896 0.932027 0.430725
O O12 0.751940 0.933990 0.931365
O O13 0.155687 0.096341 0.176741
O O14 0.460366 0.111210 0.744243
#
# Coordination Sequence:
#
# PCOD9348009 Si02
#       8
#     2   4   4   4   4   4   2   4
#     4  12  24  42  76 116 164 210 268 334 416 518
#     4  12  24  44  71 121 163 211 259 336 422 526
#     4  12  23  45  69 118 160 210 257 333 423 517
#     4  12  32  59  89 122 166 225 304 362 438 499
#     4  12  28  46  80 110 168 212 275 339 429 505
#     4  12  28  45  81 113 166 211 274 344 427 514
#     4  12  22  42  74 112 158 202 262 328 422 514
#     4  12  32  59  87 123 161 230 295 373 424 512
#
# _framework density 24.669843
#
# number of rings (size 3 to 8) (size 9 to 14) (size 15 to 20)
#    0.000    0.000    5.714    2.571   12.000    1.143 
#    0.000    0.000    0.000    0.000    0.000    0.000 
#    0.000    0.000    0.000    0.000    0.000    0.000 
#
# Total GULP energy -156615.824293 kJ/mol
# GULP energy per Si atom -5593.422296 kJ/mol
# Density = 2.461369 g / cm^3
# Si number density = 24.669843 Si / 1000 Ang^3
#
#
#
# Elastic Constant Matrix: (Units=GPa)
#
#
# Indices 1 2 3 4 5 6 
#
# 1 145.3751 55.4119 74.4374 0.0000 0.0000 0.0000
# 2 55.4119 133.6372 68.8478 0.0000 0.0000 0.0000
# 3 74.4374 68.8478 149.3089 0.0000 0.0000 0.0000
# 4 0.0000 0.0000 0.0000 47.1009 0.0000 0.0000
# 5 0.0000 0.0000 0.0000 0.0000 55.9674 0.0000
# 6 0.0000 0.0000 0.0000 0.0000 0.0000 28.8618
#
#
#
# Elastic Compliance Matrix: (Units=1/GPa)
#
#
# Indices 1 2 3 4 5 6 
#
# 1 0.009625 -0.001992 -0.003880 0.000000 0.000000 0.000000
# 2 -0.001992 0.010227 -0.003723 0.000000 0.000000 0.000000
# 3 -0.003880 -0.003723 0.010348 0.000000 0.000000 0.000000
# 4 0.000000 0.000000 0.000000 0.021231 0.000000 0.000000
# 5 0.000000 0.000000 0.000000 0.000000 0.017868 0.000000
# 6 0.000000 0.000000 0.000000 0.000000 0.000000 0.034648
#
#
# Mechanical properties :
#
#
# Convention : Reuss Voigt Hill
#
# Bulk Modulus (GPa) = 90.81850 91.74616 91.28233
# Shear Modulus (GPa) = 39.43063 41.69431 40.56247
#
# Velocity S-wave (km/s) = 4.00225 4.11553 4.05929
# Velocity P-wave (km/s) = 7.63223 7.73653 7.68455
#
# Compressibility (1/GPa) = 0.01101097
#
# Stress axis : x y z
#
# Youngs Moduli (GPa) = 103.90015 97.78323 96.63440
#
# Poissons Ratio (x) = 0.19478 0.37492
# Poissons Ratio (y) = 0.20697 0.35973
# Poissons Ratio (z) = 0.40311 0.36400
#
# Static dielectric constant tensor:
#      x y z
#    x 1.914530 0.000000 0.000000 
#    y 0.000000 2.176990 0.000000 
#    z 0.000000 0.000000 2.159100 
# 
# From -- ./inp_files/1758.got.cif
#   From: 2010.05.17/outbox.cif.g08.bks.cpg/sg34_1_cif.got.tgz:1758.got - 2010.06.03 17:23:11.
