data_PCOD9348759
_publ_section_title
;
Structure prediction by ZEFSAII (Michael W. Deem and Ramdas Pophale) SiO2 
 PCOD9348759
Probable space group: C M M 2
;
_chemical_formula_sum "Si O2"
_cell_formula_units_Z 64
_cell_length_a 33.438189
_cell_length_b 9.674856
_cell_length_c 11.038254
_cell_angle_alpha 90.000000
_cell_angle_beta 90.000000
_cell_angle_gamma 90.000000
_cell_volume 3570.981837
_symmetry_space_group_name_H-M "C M M 2"
_symmetry_group_IT_number 35
_symmetry_cell_setting 'orthorhombic'
loop_
_space_group_symop_operation_xyz
x,y,z
-x,-y,z
-x,y,z
x,-y,z
1/2+x,1/2+y,z
1/2-x,1/2-y,z
1/2-x,1/2+y,z
1/2+x,1/2-y,z
loop_
_atom_site_type_symbol
_atom_site_label
_atom_site_fract_x
_atom_site_fract_y
_atom_site_fract_z
Si Si1 0.455554 0.832784 0.636070
Si Si2 0.648229 0.848594 0.999802
Si Si3 0.455221 0.659069 0.148450
Si Si4 0.786330 0.155672 0.903315
Si Si5 0.367881 0.836250 0.532713
Si Si6 0.390457 0.155126 0.259343
Si Si7 0.210303 0.162503 0.611319
Si Si8 0.941176 0.658402 0.914386
O O1 0.500000 0.785454 0.591152
O O2 0.412668 0.791035 0.577612
O O3 0.453253 0.799969 0.779452
O O4 0.455717 0.000000 0.625125
O O5 0.674329 0.723534 0.955983
O O6 0.606705 0.844921 0.927078
O O7 0.666991 0.000000 0.977030
O O8 0.637790 0.837336 0.141741
O O9 0.500000 0.664582 0.197777
O O10 0.444053 0.500000 0.127691
O O11 0.424654 0.733617 0.237329
O O12 0.454695 0.741245 0.021290
O O13 0.750000 0.250000 0.944172
O O14 0.788168 0.159065 0.757568
O O15 0.781033 0.000000 0.943716
O O16 0.369068 0.828443 0.386952
O O17 0.330731 0.743213 0.577374
O O18 0.362549 0.000000 0.567262
O O19 0.408496 0.000000 0.257129
O O20 0.250000 0.250000 0.571554
O O21 0.210938 0.000000 0.570951
O O22 0.954637 0.500000 0.935869
#
# Coordination Sequence:
#
# PCOD9348759 Si02
#       8
#     8   8   8   8   8   8   8   8
#     4   9  17  29  49  79 110 140 177 220 265 315
#     4   9  17  31  50  73 100 130 168 213 260 308
#     4  10  20  32  48  72 101 133 171 218 267 310
#     4  10  20  33  52  79 107 134 163 200 251 311
#     4  10  20  36  57  79 106 141 182 226 267 309
#     4   9  20  36  53  73  98 135 179 217 255 305
#     4  10  21  37  58  84 111 138 172 214 262 318
#     4   9  17  30  50  74 101 134 170 211 261 317
#
# _framework density 17.922242000000001
#
# number of rings (size 3 to 8) (size 9 to 14) (size 15 to 20)
#    0.000    2.500    0.000    3.000    0.000    7.000 
#    0.000    2.500    0.000    1.125    0.000    0.000 
#    0.000    0.000    0.000    0.000    0.000    0.000 
#
# Total GULP energy -178267.412064 kJ/mol
# GULP energy per Si atom -5570.856627 kJ/mol
# Density = 1.788145 g / cm^3
# Si number density = 17.922242 Si / 1000 Ang^3
#
#
#
# Elastic Constant Matrix: (Units=GPa)
#
#
# Indices 1 2 3 4 5 6 
#
# 1 123.6228 65.6820 18.3515 0.0000 0.0000 0.0000
# 2 65.6820 126.0581 18.3313 0.0000 0.0000 0.0000
# 3 18.3515 18.3313 21.3066 0.0000 0.0000 0.0000
# 4 0.0000 0.0000 0.0000 16.6489 0.0000 0.0000
# 5 0.0000 0.0000 0.0000 0.0000 -8.2583 0.0000
# 6 0.0000 0.0000 0.0000 0.0000 0.0000 39.3852
#
#
#
# Elastic Compliance Matrix: (Units=1/GPa)
#
#
# Indices 1 2 3 4 5 6 
#
# 1 0.011731 -0.005307 -0.005538 0.000000 0.000000 0.000000
# 2 -0.005307 0.011468 -0.005296 0.000000 0.000000 0.000000
# 3 -0.005538 -0.005296 0.056260 0.000000 0.000000 0.000000
# 4 0.000000 0.000000 0.000000 0.060064 0.000000 0.000000
# 5 0.000000 0.000000 0.000000 0.000000 -0.121091 0.000000
# 6 0.000000 0.000000 0.000000 0.000000 0.000000 0.025390
#
#
# Mechanical properties :
#
#
# Convention : Reuss Voigt Hill
#
# Bulk Modulus (GPa) = 21.19657 52.85747 37.02702
# Shear Modulus (GPa) = 54.44866 20.79668 37.62267
#
# Velocity S-wave (km/s) = 5.51783 3.41014 4.58669
# Velocity P-wave (km/s) = 7.24209 6.71283 6.98248
#
# Compressibility (1/GPa) = 0.04717744
#
# Stress axis : x y z
#
# Youngs Moduli (GPa) = 85.24502 87.19804 17.77467
#
# Poissons Ratio (x) = 0.46276 0.09844
# Poissons Ratio (y) = 0.45240 0.09413
# Poissons Ratio (z) = 0.47208 0.46178
#
# Static dielectric constant tensor:
#      x y z
#    x 1.691490 0.000000 0.000000 
#    y 0.000000 1.616770 0.000000 
#    z 0.000000 0.000000 1.595850 
# 
# From -- ./inp_files/11988.got.cif
#   From: 2010.05.17/outbox.cif.g08.bks.cpg/sg35_6_cif.got.tgz:11988.got - 2010.06.03 17:29:28.
