data_PCOD9348789
_publ_section_title
;
Structure prediction by ZEFSAII (Michael W. Deem and Ramdas Pophale) SiO2 
 PCOD9348789
Probable space group: C M M 2
;
_chemical_formula_sum "Si O2"
_cell_formula_units_Z 64
_cell_length_a 7.637883
_cell_length_b 19.317510
_cell_length_c 21.740422
_cell_angle_alpha 90.000000
_cell_angle_beta 90.000000
_cell_angle_gamma 90.000000
_cell_volume 3207.687982
_symmetry_space_group_name_H-M "C M M 2"
_symmetry_group_IT_number 35
_symmetry_cell_setting 'orthorhombic'
loop_
_space_group_symop_operation_xyz
x,y,z
-x,-y,z
-x,y,z
x,-y,z
1/2+x,1/2+y,z
1/2-x,1/2-y,z
1/2-x,1/2+y,z
1/2+x,1/2-y,z
loop_
_atom_site_type_symbol
_atom_site_label
_atom_site_fract_x
_atom_site_fract_y
_atom_site_fract_z
Si Si1 0.789528 0.830784 0.688090
Si Si2 0.289352 0.578939 0.801565
Si Si3 0.290950 0.421096 0.438315
Si Si4 0.710233 0.919950 0.304827
Si Si5 0.790075 0.579315 0.939000
Si Si6 0.210602 0.668876 0.053652
Si Si7 0.710639 0.669156 0.551521
Si Si8 0.213880 0.419040 0.170093
O O1 0.750000 0.750000 0.696950
O O2 0.721980 0.875267 0.745233
O O3 0.724222 0.850861 0.619838
O O4 0.000000 0.838462 0.687000
O O5 0.500000 0.576907 0.797005
O O6 0.223712 0.500000 0.797428
O O7 0.247874 0.604899 0.870072
O O8 0.500000 0.425536 0.445492
O O9 0.220732 0.500000 0.439283
O O10 0.260706 0.389107 0.370587
O O11 0.221368 0.376324 0.494998
O O12 0.500000 0.920495 0.303403
O O13 0.769570 0.893320 0.238123
O O14 0.771810 0.000000 0.306793
O O15 0.723124 0.500000 0.944777
O O16 0.000000 0.575742 0.945019
O O17 0.723758 0.629277 0.992703
O O18 0.250000 0.750000 0.053803
O O19 0.275269 0.628847 0.114469
O O20 0.000000 0.662381 0.053853
O O21 0.500000 0.661981 0.552603
O O22 0.750000 0.750000 0.542339
O O23 0.264566 0.500000 0.162486
O O24 0.000000 0.418756 0.169417
#
# Coordination Sequence:
#
# PCOD9348789 Si02
#       8
#     8   8   8   8   8   8   8   8
#     4   9  18  32  49  68  91 121 156 190 225 269
#     4   9  18  32  50  72  96 120 148 187 232 273
#     4   9  17  29  46  69  95 120 148 187 233 275
#     4   8  14  26  46  70  92 116 150 190 228 268
#     4   9  18  33  52  71  91 120 157 191 223 265
#     4  10  20  33  49  70  96 123 152 189 230 270
#     4   9  18  32  48  66  90 122 157 190 225 268
#     4   8  14  28  51  72  88 115 157 195 224 263
#
# _framework density 19.952067
#
# number of rings (size 3 to 8) (size 9 to 14) (size 15 to 20)
#    0.000    3.125    0.000    1.125    0.000    4.000 
#    0.000    6.250    0.000    4.875    0.000    7.000 
#    0.000    0.000    0.000    0.000    0.000    0.000 
#
# Total GULP energy -178335.205872 kJ/mol
# GULP energy per Si atom -5572.975183 kJ/mol
# Density = 1.990665 g / cm^3
# Si number density = 19.952067 Si / 1000 Ang^3
#
#
#
# Elastic Constant Matrix: (Units=GPa)
#
#
# Indices 1 2 3 4 5 6 
#
# 1 37.7294 1.4938 8.2226 0.0000 0.0000 0.0000
# 2 1.4938 80.4112 112.9203 0.0000 0.0000 0.0000
# 3 8.2226 112.9203 256.3906 0.0000 0.0000 0.0000
# 4 0.0000 0.0000 0.0000 -124.7885 0.0000 0.0000
# 5 0.0000 0.0000 0.0000 0.0000 21.5711 0.0000
# 6 0.0000 0.0000 0.0000 0.0000 0.0000 17.4339
#
#
#
# Elastic Compliance Matrix: (Units=1/GPa)
#
#
# Indices 1 2 3 4 5 6 
#
# 1 0.026797 0.001858 -0.001678 0.000000 0.000000 0.000000
# 2 0.001858 0.032725 -0.014472 0.000000 0.000000 0.000000
# 3 -0.001678 -0.014472 0.010328 0.000000 0.000000 0.000000
# 4 0.000000 0.000000 0.000000 -0.008014 0.000000 0.000000
# 5 0.000000 0.000000 0.000000 0.000000 0.046358 0.000000
# 6 0.000000 0.000000 0.000000 0.000000 0.000000 0.057359
#
#
# Mechanical properties :
#
#
# Convention : Reuss Voigt Hill
#
# Bulk Modulus (GPa) = 24.23306 68.86717 46.55012
# Shear Modulus (GPa) = 24.05085 -0.36372 11.84356
#
# Velocity S-wave (km/s) = 3.47570 -0.42742 2.43904
# Velocity P-wave (km/s) = 5.31783 5.86069 5.59585
#
# Compressibility (1/GPa) = 0.04126594
#
# Stress axis : x y z
#
# Youngs Moduli (GPa) = 37.31813 30.55773 96.82333
#
# Poissons Ratio (x) = -0.05679 0.16246
# Poissons Ratio (y) = -0.06935 1.40127
# Poissons Ratio (z) = 0.06262 0.44224
#
# Static dielectric constant tensor:
#      x y z
#    x 1.754170 0.000000 0.000000 
#    y 0.000000 1.667170 0.000000 
#    z 0.000000 0.000000 1.736310 
# 
# From -- ./inp_files/17219.got.cif
#   From: 2010.05.17/outbox.cif.g08.bks.cpg/sg35_9_cif.got.tgz:17219.got - 2010.06.03 17:29:28.
