data_PCOD9348156
_publ_section_title
;
Structure prediction by ZEFSAII (Michael W. Deem and Ramdas Pophale) SiO2 
 PCOD9348156
Probable space group: C M M 2
;
_chemical_formula_sum "Si O2"
_cell_formula_units_Z 64
_cell_length_a 34.379682
_cell_length_b 19.878723
_cell_length_c 5.175815
_cell_angle_alpha 90.000000
_cell_angle_beta 90.000000
_cell_angle_gamma 90.000000
_cell_volume 3537.277098
_symmetry_space_group_name_H-M "C M M 2"
_symmetry_group_IT_number 35
_symmetry_cell_setting 'orthorhombic'
loop_
_space_group_symop_operation_xyz
x,y,z
-x,-y,z
-x,y,z
x,-y,z
1/2+x,1/2+y,z
1/2-x,1/2-y,z
1/2-x,1/2+y,z
1/2+x,1/2-y,z
loop_
_atom_site_type_symbol
_atom_site_label
_atom_site_fract_x
_atom_site_fract_y
_atom_site_fract_z
Si Si1 0.651564 0.574146 0.790660
Si Si2 0.081942 0.651231 0.774792
Si Si3 0.822794 0.751807 0.312187
Si Si4 0.703549 0.398559 0.289587
Si Si5 0.953329 0.579094 0.273411
Si Si6 0.339667 0.926920 0.754390
Si Si7 0.374495 0.722630 0.814343
Si Si8 0.292243 0.104326 0.252661
O O1 0.632602 0.500000 0.792718
O O2 0.678448 0.579754 0.536431
O O3 0.624357 0.640857 0.800786
O O4 0.680515 0.578867 0.035146
O O5 0.064174 0.619322 0.516149
O O6 0.126475 0.626383 0.788220
O O7 0.086762 0.732283 0.779463
O O8 0.060127 0.618183 0.016889
O O9 0.796597 0.817585 0.286359
O O10 0.844701 0.756589 0.585854
O O11 0.798396 0.684404 0.279764
O O12 0.855232 0.758022 0.088246
O O13 0.748323 0.419064 0.296220
O O14 0.940868 0.500000 0.271939
O O15 0.000000 0.579430 0.289371
O O16 0.320620 0.923654 0.473337
O O17 0.357813 0.000000 0.794691
O O18 0.306998 0.915812 0.970194
#
# Coordination Sequence:
#
# PCOD9348156 Si02
#       8
#     8   8   8   8   8   8   8   8
#     4  10  21  37  54  76 105 135 176 228 284 330
#     4  12  21  40  60  79 113 143 180 215 257 305
#     4  10  18  36  50  73  98 131 180 229 274 321
#     4  10  22  32  54  71  96 138 179 228 284 327
#     4  11  24  40  61  88 116 147 178 208 247 300
#     4  12  25  35  50  74 102 138 177 223 268 311
#     4  10  20  35  57  80 101 136 179 220 268 321
#     4  12  21  36  49  70 101 134 184 232 272 327
#
# _framework density 18.093012000000002
#
# number of rings (size 3 to 8) (size 9 to 14) (size 15 to 20)
#    0.000    1.125    2.500    4.875    0.000    4.000 
#    0.000    5.000    0.000    0.000    0.000    0.000 
#    0.000    3.000    0.000    0.000    0.000    0.000 
#
# Total GULP energy -178721.248254 kJ/mol
# GULP energy per Si atom -5585.039008 kJ/mol
# Density = 1.805183 g / cm^3
# Si number density = 18.093012 Si / 1000 Ang^3
#
#
#
# Elastic Constant Matrix: (Units=GPa)
#
#
# Indices 1 2 3 4 5 6 
#
# 1 35.7148 17.2270 -4.7145 0.0000 0.0000 0.0000
# 2 17.2270 153.7799 5.7598 0.0000 0.0000 0.0000
# 3 -4.7145 5.7598 67.0084 0.0000 0.0000 0.0000
# 4 0.0000 0.0000 0.0000 33.3571 0.0000 0.0000
# 5 0.0000 0.0000 0.0000 0.0000 26.5045 0.0000
# 6 0.0000 0.0000 0.0000 0.0000 0.0000 166.8476
#
#
#
# Elastic Compliance Matrix: (Units=1/GPa)
#
#
# Indices 1 2 3 4 5 6 
#
# 1 0.029981 -0.003449 0.002406 0.000000 0.000000 0.000000
# 2 -0.003449 0.006921 -0.000838 0.000000 0.000000 0.000000
# 3 0.002406 -0.000838 0.015165 0.000000 0.000000 0.000000
# 4 0.000000 0.000000 0.000000 0.029979 0.000000 0.000000
# 5 0.000000 0.000000 0.000000 0.000000 0.037729 0.000000
# 6 0.000000 0.000000 0.000000 0.000000 0.000000 0.005993
#
#
# Mechanical properties :
#
#
# Convention : Reuss Voigt Hill
#
# Bulk Modulus (GPa) = 20.70175 32.56087 26.63131
# Shear Modulus (GPa) = 34.33360 61.22387 47.77874
#
# Velocity S-wave (km/s) = 4.36089 5.82339 5.14438
# Velocity P-wave (km/s) = 6.06821 7.95307 7.07370
#
# Compressibility (1/GPa) = 0.04830510
#
# Stress axis : x y z
#
# Youngs Moduli (GPa) = 33.35490 144.49820 65.94238
#
# Poissons Ratio (x) = 0.49832 -0.15864
# Poissons Ratio (y) = 0.11503 0.05523
# Poissons Ratio (z) = -0.08024 0.12102
#
# Static dielectric constant tensor:
#      x y z
#    x 1.570360 0.000000 0.000000 
#    y 0.000000 1.698680 0.000000 
#    z 0.000000 0.000000 1.616380 
# 
# From -- ./inp_files/4088.got.cif
#   From: 2010.05.17/outbox.cif.g08.bks.cpg/sg35_3_cif.got.tgz:4088.got - 2010.06.03 17:29:28.
