data_PCOD9348496
_publ_section_title
;
Structure prediction by ZEFSAII (Michael W. Deem and Ramdas Pophale) SiO2 
 PCOD9348496
Probable space group: C M M 2
;
_chemical_formula_sum "Si O2"
_cell_formula_units_Z 48
_cell_length_a 7.349310
_cell_length_b 15.753920
_cell_length_c 18.278464
_cell_angle_alpha 90.000000
_cell_angle_beta 90.000000
_cell_angle_gamma 90.000000
_cell_volume 2116.288637
_symmetry_space_group_name_H-M "C M M 2"
_symmetry_group_IT_number 35
_symmetry_cell_setting 'orthorhombic'
loop_
_space_group_symop_operation_xyz
x,y,z
-x,-y,z
-x,y,z
x,-y,z
1/2+x,1/2+y,z
1/2-x,1/2-y,z
1/2-x,1/2+y,z
1/2+x,1/2-y,z
loop_
_atom_site_type_symbol
_atom_site_label
_atom_site_fract_x
_atom_site_fract_y
_atom_site_fract_z
Si Si1 0.717288 0.149066 0.076490
Si Si2 0.217035 0.648419 0.233888
Si Si3 0.217840 0.598172 0.918228
Si Si4 0.717702 0.850736 0.394519
Si Si5 0.216553 0.343260 0.765620
Si Si6 0.277450 0.000000 0.500295
Si Si7 0.222872 0.500000 0.668288
O O1 0.500000 0.133218 0.077199
O O2 0.750000 0.250000 0.075007
O O3 0.786981 0.116139 0.155258
O O4 0.790199 0.115057 0.999544
O O5 0.250000 0.750000 0.232671
O O6 0.287201 0.622224 0.313614
O O7 0.000000 0.633222 0.233865
O O8 0.244401 0.500000 0.899449
O O9 0.289270 0.649918 0.848805
O O10 0.000000 0.613777 0.923298
O O11 0.500000 0.859434 0.391611
O O12 0.750000 0.750000 0.406602
O O13 0.781624 0.915600 0.456481
O O14 0.250000 0.250000 0.735715
O O15 0.283600 0.417309 0.713034
O O16 0.000000 0.355971 0.771427
O O17 0.218615 0.000000 0.584298
O O18 0.500000 0.000000 0.500764
O O19 0.000000 0.500000 0.667646
#
# Coordination Sequence:
#
# PCOD9348496 Si02
#       7
#     8   8   8   8   8   4   4
#     4   9  16  26  42  64  89 118 154 192 230 272
#     4   8  14  25  41  63  89 119 152 190 232 271
#     4   9  16  28  45  66  93 124 157 193 231 276
#     4   9  17  31  50  71  97 127 160 197 237 282
#     4  10  19  33  54  75  96 126 162 196 235 284
#     4   9  18  32  51  74  98 126 159 195 237 287
#     4   9  18  34  53  72  98 130 159 189 235 297
#
# _framework density 22.681215000000002
#
# number of rings (size 3 to 8) (size 9 to 14) (size 15 to 20)
#    0.000    3.000    0.833    0.500    0.000    0.667 
#    1.500    0.833    0.000    2.500    0.000    0.000 
#    0.000    0.000    0.000    0.000    0.000    0.000 
#
# Total GULP energy -133869.322023 kJ/mol
# GULP energy per Si atom -5577.888418 kJ/mol
# Density = 2.262959 g / cm^3
# Si number density = 22.681215 Si / 1000 Ang^3
#
#
#
# Elastic Constant Matrix: (Units=GPa)
#
#
# Indices 1 2 3 4 5 6 
#
# 1 89.3875 -2.1640 11.1222 0.0000 0.0000 0.0000
# 2 -2.1640 102.9211 107.0167 0.0000 0.0000 0.0000
# 3 11.1222 107.0167 219.8354 0.0000 0.0000 0.0000
# 4 0.0000 0.0000 0.0000 19.6042 0.0000 0.0000
# 5 0.0000 0.0000 0.0000 0.0000 5.5441 0.0000
# 6 0.0000 0.0000 0.0000 0.0000 0.0000 9.4178
#
#
#
# Elastic Compliance Matrix: (Units=1/GPa)
#
#
# Indices 1 2 3 4 5 6 
#
# 1 0.011403 0.001700 -0.001405 0.000000 0.000000 0.000000
# 2 0.001700 0.019929 -0.009787 0.000000 0.000000 0.000000
# 3 -0.001405 -0.009787 0.009385 0.000000 0.000000 0.000000
# 4 0.000000 0.000000 0.000000 0.051010 0.000000 0.000000
# 5 0.000000 0.000000 0.000000 0.000000 0.180373 0.000000
# 6 0.000000 0.000000 0.000000 0.000000 0.000000 0.106181
#
#
# Mechanical properties :
#
#
# Convention : Reuss Voigt Hill
#
# Bulk Modulus (GPa) = 46.01312 71.56598 58.78955
# Shear Modulus (GPa) = 12.36067 26.65782 19.50925
#
# Velocity S-wave (km/s) = 2.33700 3.43202 2.93601
# Velocity P-wave (km/s) = 5.25481 6.87943 6.12125
#
# Compressibility (1/GPa) = 0.02173293
#
# Stress axis : x y z
#
# Youngs Moduli (GPa) = 87.69483 50.17841 106.55864
#
# Poissons Ratio (x) = -0.08532 0.14968
# Poissons Ratio (y) = -0.14911 1.04294
# Poissons Ratio (z) = 0.12318 0.49112
#
# Static dielectric constant tensor:
#      x y z
#    x 1.828430 0.000000 0.000000 
#    y 0.000000 1.796620 0.000000 
#    z 0.000000 0.000000 1.871690 
# 
# From -- ./inp_files/16355.got.cif
#   From: 2010.05.17/outbox.cif.g08.bks.cpg/sg35_9_cif.got.tgz:16355.got - 2010.06.03 17:29:28.
