data_PCOD9348438
_publ_section_title
;
Structure prediction by ZEFSAII (Michael W. Deem and Ramdas Pophale) SiO2 
 PCOD9348438
Probable space group: C M M 2
;
_chemical_formula_sum "Si O2"
_cell_formula_units_Z 64
_cell_length_a 8.788813
_cell_length_b 30.153033
_cell_length_c 12.701556
_cell_angle_alpha 90.000000
_cell_angle_beta 90.000000
_cell_angle_gamma 90.000000
_cell_volume 3366.031334
_symmetry_space_group_name_H-M "C M M 2"
_symmetry_group_IT_number 35
_symmetry_cell_setting 'orthorhombic'
loop_
_space_group_symop_operation_xyz
x,y,z
-x,-y,z
-x,y,z
x,-y,z
1/2+x,1/2+y,z
1/2-x,1/2-y,z
1/2-x,1/2+y,z
1/2+x,1/2-y,z
loop_
_atom_site_type_symbol
_atom_site_label
_atom_site_fract_x
_atom_site_fract_y
_atom_site_fract_z
Si Si1 0.177833 0.451056 0.392440
Si Si2 0.681244 0.889775 0.804028
Si Si3 0.183076 0.795833 0.748807
Si Si4 0.314361 0.051521 0.004460
Si Si5 0.181513 0.703460 0.287112
Si Si6 0.173582 0.082927 0.590096
Si Si7 0.814232 0.610120 0.203821
Si Si8 0.675646 0.316590 0.512145
O O1 0.187316 0.500000 0.344150
O O2 0.263917 0.449562 0.502190
O O3 0.235537 0.415630 0.308801
O O4 0.000000 0.441477 0.413569
O O5 0.500000 0.883755 0.809649
O O6 0.757593 0.841001 0.802439
O O7 0.726651 0.912790 0.694265
O O8 0.729715 0.921759 0.899297
O O9 0.250000 0.750000 0.792880
O O10 0.230928 0.798411 0.625020
O O11 0.000000 0.795718 0.751286
O O12 0.500000 0.050276 0.006662
O O13 0.264401 0.081621 0.103388
O O14 0.263713 0.000000 0.007795
O O15 0.250000 0.750000 0.251362
O O16 0.232987 0.661161 0.217736
O O17 0.231370 0.695706 0.408674
O O18 0.000000 0.705437 0.283464
O O19 0.177874 0.130795 0.532524
O O20 0.000000 0.073583 0.619852
O O21 0.000000 0.609616 0.202756
O O22 0.500000 0.302455 0.496167
#
# Coordination Sequence:
#
# PCOD9348438 Si02
#       8
#     8   8   8   8   8   8   8   8
#     4  10  19  32  54  83 111 141 180 225 276 339
#     4  10  20  34  56  84 113 146 187 236 285 334
#     4  10  20  34  53  80 114 153 192 231 279 332
#     4   9  18  35  60  86 109 138 184 239 288 334
#     4  11  21  32  51  78 110 146 183 221 268 325
#     4  10  20  34  52  76 113 153 184 224 276 332
#     4   9  18  34  55  81 111 142 179 229 282 332
#     4   9  18  32  50  74 106 146 185 222 264 316
#
# _framework density 19.013489
#
# number of rings (size 3 to 8) (size 9 to 14) (size 15 to 20)
#    0.000    2.250    1.250    3.000    0.000    5.750 
#    0.000    1.875    0.000    7.125    0.000    0.000 
#    0.000    0.000    0.000    0.000    0.000    0.000 
#
# Total GULP energy -178481.263953 kJ/mol
# GULP energy per Si atom -5577.539499 kJ/mol
# Density = 1.897021 g / cm^3
# Si number density = 19.013489 Si / 1000 Ang^3
#
#
#
# Elastic Constant Matrix: (Units=GPa)
#
#
# Indices 1 2 3 4 5 6 
#
# 1 31.5134 32.2666 19.8080 0.0000 0.0000 0.0000
# 2 32.2666 154.3838 76.3827 0.0000 0.0000 0.0000
# 3 19.8080 76.3827 97.1649 0.0000 0.0000 0.0000
# 4 0.0000 0.0000 0.0000 16.2322 0.0000 0.0000
# 5 0.0000 0.0000 0.0000 0.0000 6.6636 0.0000
# 6 0.0000 0.0000 0.0000 0.0000 0.0000 23.3733
#
#
#
# Elastic Compliance Matrix: (Units=1/GPa)
#
#
# Indices 1 2 3 4 5 6 
#
# 1 0.040782 -0.007217 -0.002640 0.000000 0.000000 0.000000
# 2 -0.007217 0.011877 -0.007866 0.000000 0.000000 0.000000
# 3 -0.002640 -0.007866 0.017013 0.000000 0.000000 0.000000
# 4 0.000000 0.000000 0.000000 0.061606 0.000000 0.000000
# 5 0.000000 0.000000 0.000000 0.000000 0.150069 0.000000
# 6 0.000000 0.000000 0.000000 0.000000 0.000000 0.042784
#
#
# Mechanical properties :
#
#
# Convention : Reuss Voigt Hill
#
# Bulk Modulus (GPa) = 29.21728 59.99738 44.60733
# Shear Modulus (GPa) = 13.47760 19.56082 16.51921
#
# Velocity S-wave (km/s) = 2.66530 3.21095 2.95077
# Velocity P-wave (km/s) = 4.98716 6.73577 5.92631
#
# Compressibility (1/GPa) = 0.03422632
#
# Stress axis : x y z
#
# Youngs Moduli (GPa) = 24.52075 84.19358 58.77747
#
# Poissons Ratio (x) = 0.60764 0.15518
# Poissons Ratio (y) = 0.17697 0.46232
# Poissons Ratio (z) = 0.06474 0.66224
#
# Static dielectric constant tensor:
#      x y z
#    x 1.651190 0.000000 0.000000 
#    y 0.000000 1.702170 0.000000 
#    z 0.000000 0.000000 1.642220 
# 
# From -- ./inp_files/11972.got.cif
#   From: 2010.05.17/outbox.cif.g08.bks.cpg/sg35_6_cif.got.tgz:11972.got - 2010.06.03 17:29:28.
