data_PCOD9348087
_publ_section_title
;
Structure prediction by ZEFSAII (Michael W. Deem and Ramdas Pophale) SiO2 
 PCOD9348087
Probable space group: C M M 2
;
_chemical_formula_sum "Si O2"
_cell_formula_units_Z 56
_cell_length_a 8.663875
_cell_length_b 22.721721
_cell_length_c 15.126827
_cell_angle_alpha 90.000000
_cell_angle_beta 90.000000
_cell_angle_gamma 90.000000
_cell_volume 2977.839187
_symmetry_space_group_name_H-M "C M M 2"
_symmetry_group_IT_number 35
_symmetry_cell_setting 'orthorhombic'
loop_
_space_group_symop_operation_xyz
x,y,z
-x,-y,z
-x,y,z
x,-y,z
1/2+x,1/2+y,z
1/2-x,1/2-y,z
1/2-x,1/2+y,z
1/2+x,1/2-y,z
loop_
_atom_site_type_symbol
_atom_site_label
_atom_site_fract_x
_atom_site_fract_y
_atom_site_fract_z
Si Si1 0.177394 0.371574 0.452980
Si Si2 0.832177 0.500000 0.504158
Si Si3 0.315522 0.182617 0.096554
Si Si4 0.319067 0.312809 0.288332
Si Si5 0.686163 0.388960 0.785655
Si Si6 0.813175 0.070523 0.984533
Si Si7 0.316068 0.813613 0.637907
Si Si8 0.819893 0.000000 0.680908
O O1 0.174631 0.441528 0.448836
O O2 0.284792 0.350586 0.374515
O O3 0.226982 0.353634 0.552549
O O4 0.000000 0.349535 0.440722
O O5 0.702628 0.500000 0.577631
O O6 0.000000 0.500000 0.551994
O O7 0.500000 0.185848 0.086330
O O8 0.250000 0.250000 0.075576
O O9 0.268423 0.170433 0.198293
O O10 0.252901 0.124704 0.043947
O O11 0.500000 0.309615 0.268704
O O12 0.250000 0.250000 0.312732
O O13 0.500000 0.384281 0.782881
O O14 0.726566 0.407833 0.884941
O O15 0.751939 0.333360 0.733348
O O16 0.746210 0.441990 0.724413
O O17 0.000000 0.070831 0.993286
O O18 0.767452 0.000000 0.997352
O O19 0.500000 0.813406 0.642768
O O20 0.250000 0.750000 0.616758
O O21 0.000000 0.000000 0.704335
#
# Coordination Sequence:
#
# PCOD9348087 Si02
#       8
#     8   4   8   8   8   8   8   4
#     4  10  21  37  57  84 117 154 194 239 291 345
#     4  10  20  36  56  81 116 155 192 239 290 338
#     4  11  23  42  67  93 122 157 200 249 305 365
#     4  11  22  39  64  89 115 151 194 241 293 352
#     4  10  20  36  59  85 115 153 194 236 287 344
#     4  10  21  40  65  93 125 160 200 249 306 366
#     4  11  23  37  55  81 117 156 198 245 292 341
#     4  10  18  32  56  83 110 147 192 233 276 334
#
# _framework density 18.805582000000001
#
# number of rings (size 3 to 8) (size 9 to 14) (size 15 to 20)
#    0.000    1.571    2.143    4.286    0.000    4.286 
#    1.286    0.000    0.000    0.000    0.000    0.000 
#    0.000    0.000    0.000    0.000    0.000    0.000 
#
# Total GULP energy -155944.309721 kJ/mol
# GULP energy per Si atom -5569.439633 kJ/mol
# Density = 1.876278 g / cm^3
# Si number density = 18.805582 Si / 1000 Ang^3
#
#
#
# Elastic Constant Matrix: (Units=GPa)
#
#
# Indices 1 2 3 4 5 6 
#
# 1 57.3888 40.2436 33.3346 0.0000 0.0000 0.0000
# 2 40.2436 114.6268 64.2149 0.0000 0.0000 0.0000
# 3 33.3346 64.2149 81.2663 0.0000 0.0000 0.0000
# 4 0.0000 0.0000 0.0000 22.9276 0.0000 0.0000
# 5 0.0000 0.0000 0.0000 0.0000 26.4920 0.0000
# 6 0.0000 0.0000 0.0000 0.0000 0.0000 19.5570
#
#
#
# Elastic Compliance Matrix: (Units=1/GPa)
#
#
# Indices 1 2 3 4 5 6 
#
# 1 0.024576 -0.005349 -0.005855 0.000000 0.000000 0.000000
# 2 -0.005349 0.016817 -0.011094 0.000000 0.000000 0.000000
# 3 -0.005855 -0.011094 0.023473 0.000000 0.000000 0.000000
# 4 0.000000 0.000000 0.000000 0.043616 0.000000 0.000000
# 5 0.000000 0.000000 0.000000 0.000000 0.037747 0.000000
# 6 0.000000 0.000000 0.000000 0.000000 0.000000 0.051133
#
#
# Mechanical properties :
#
#
# Convention : Reuss Voigt Hill
#
# Bulk Modulus (GPa) = 49.33082 58.76313 54.04697
# Shear Modulus (GPa) = 20.10335 21.49456 20.79895
#
# Velocity S-wave (km/s) = 3.27312 3.38448 3.32926
# Velocity P-wave (km/s) = 6.36972 6.82557 6.60158
#
# Compressibility (1/GPa) = 0.02027130
#
# Stress axis : x y z
#
# Youngs Moduli (GPa) = 40.68951 59.46373 42.60143
#
# Poissons Ratio (x) = 0.31804 0.24942
# Poissons Ratio (y) = 0.21763 0.47264
# Poissons Ratio (z) = 0.23822 0.65972
#
# Static dielectric constant tensor:
#      x y z
#    x 1.679910 0.000000 0.000000 
#    y 0.000000 1.697330 0.000000 
#    z 0.000000 0.000000 1.649130 
# 
# From -- ./inp_files/15802.got.cif
#   From: 2010.05.17/outbox.cif.g08.bks.cpg/sg35_8_cif.got.tgz:15802.got - 2010.06.03 17:29:28.
