data_PCOD9348255
_publ_section_title
;
Structure prediction by ZEFSAII (Michael W. Deem and Ramdas Pophale) SiO2 
 PCOD9348255
Probable space group: C M M 2
;
_chemical_formula_sum "Si O2"
_cell_formula_units_Z 38
_cell_length_a 21.933479
_cell_length_b 18.920592
_cell_length_c 4.906139
_cell_angle_alpha 90.000000
_cell_angle_beta 90.000000
_cell_angle_gamma 90.000000
_cell_volume 2036.020246
_symmetry_space_group_name_H-M "C M M 2"
_symmetry_group_IT_number 35
_symmetry_cell_setting 'orthorhombic'
loop_
_space_group_symop_operation_xyz
x,y,z
-x,-y,z
-x,y,z
x,-y,z
1/2+x,1/2+y,z
1/2-x,1/2-y,z
1/2-x,1/2+y,z
1/2+x,1/2-y,z
loop_
_atom_site_type_symbol
_atom_site_label
_atom_site_fract_x
_atom_site_fract_y
_atom_site_fract_z
Si Si1 0.292043 0.579008 0.839130
Si Si2 0.500000 0.114120 0.089533
Si Si3 0.500000 0.000000 0.589201
Si Si4 0.624553 0.198923 0.124513
Si Si5 0.821388 0.772655 0.604513
Si Si6 0.710237 0.077447 0.339974
O O1 0.319502 0.500000 0.805038
O O2 0.324943 0.648272 0.727051
O O3 0.231092 0.578505 0.651524
O O4 0.270093 0.586671 0.150212
O O5 0.500000 0.062537 0.350854
O O6 0.558155 0.166382 0.093089
O O7 0.500000 0.062648 0.828059
O O8 0.638007 0.262596 0.335481
O O9 0.664155 0.136844 0.258924
O O10 0.652731 0.221473 0.837310
O O11 0.750000 0.750000 0.552144
O O12 0.684269 0.000000 0.278364
#
# Coordination Sequence:
#
# PCOD9348255 Si02
#       6
#     8   4   2   8   8   8
#     4  10  20  34  51  82 117 145 186 227 294 366
#     4  11  26  44  58  90 115 168 214 252 293 334
#     4  10  24  46  64  78 124 162 222 254 268 344
#     4  12  23  38  58  82 118 155 200 246 288 355
#     4  12  21  36  60  85 115 153 192 244 310 360
#     4  10  19  31  49  78 114 150 182 234 281 339
#
# _framework density 18.663862000000002
#
# number of rings (size 3 to 8) (size 9 to 14) (size 15 to 20)
#    0.000    1.053    4.211    3.158    2.947    0.000 
#    3.789    0.000    0.000    0.000    0.000    4.421 
#    0.000    0.000    0.000    0.000    0.000    0.000 
#
# Total GULP energy -105768.058021 kJ/mol
# GULP energy per Si atom -5566.739896 kJ/mol
# Density = 1.862138 g / cm^3
# Si number density = 18.663862 Si / 1000 Ang^3
#
#
#
# Elastic Constant Matrix: (Units=GPa)
#
#
# Indices 1 2 3 4 5 6 
#
# 1 72.6499 37.1726 19.4960 0.0000 0.0000 0.0000
# 2 37.1726 104.8329 -3.2455 0.0000 0.0000 0.0000
# 3 19.4960 -3.2455 99.3083 0.0000 0.0000 0.0000
# 4 0.0000 0.0000 0.0000 32.7825 0.0000 0.0000
# 5 0.0000 0.0000 0.0000 0.0000 0.1263 0.0000
# 6 0.0000 0.0000 0.0000 0.0000 0.0000 9.7547
#
#
#
# Elastic Compliance Matrix: (Units=1/GPa)
#
#
# Indices 1 2 3 4 5 6 
#
# 1 0.018125 -0.006544 -0.003772 0.000000 0.000000 0.000000
# 2 -0.006544 0.011911 0.001674 0.000000 0.000000 0.000000
# 3 -0.003772 0.001674 0.010865 0.000000 0.000000 0.000000
# 4 0.000000 0.000000 0.000000 0.030504 0.000000 0.000000
# 5 0.000000 0.000000 0.000000 0.000000 7.920607 0.000000
# 6 0.000000 0.000000 0.000000 0.000000 0.000000 0.102515
#
#
# Mechanical properties :
#
#
# Convention : Reuss Voigt Hill
#
# Bulk Modulus (GPa) = 42.34194 42.62635 42.48414
# Shear Modulus (GPa) = 0.61579 23.42389 12.01984
#
# Velocity S-wave (km/s) = 0.57502 3.54650 2.54050
# Velocity P-wave (km/s) = 4.81422 6.29752 5.60515
#
# Compressibility (1/GPa) = 0.02361725
#
# Stress axis : x y z
#
# Youngs Moduli (GPa) = 55.17197 83.95495 92.03949
#
# Poissons Ratio (x) = 0.54938 0.34719
# Poissons Ratio (y) = 0.36103 -0.15407
# Poissons Ratio (z) = 0.20812 -0.14053
#
# Static dielectric constant tensor:
#      x y z
#    x 1.642420 0.000000 0.000000 
#    y 0.000000 1.720060 0.000000 
#    z 0.000000 0.000000 1.674640 
# 
# From -- ./inp_files/2381.got.cif
#   From: 2010.05.17/outbox.cif.g08.bks.cpg/sg35_2_cif.got.tgz:2381.got - 2010.06.03 17:29:28.
