data_PCOD9348259
_publ_section_title
;
Structure prediction by ZEFSAII (Michael W. Deem and Ramdas Pophale) SiO2 
 PCOD9348259
Probable space group: C M M 2
;
_chemical_formula_sum "Si O2"
_cell_formula_units_Z 48
_cell_length_a 15.958341
_cell_length_b 8.982830
_cell_length_c 19.147985
_cell_angle_alpha 90.000000
_cell_angle_beta 90.000000
_cell_angle_gamma 90.000000
_cell_volume 2744.884029
_symmetry_space_group_name_H-M "C M M 2"
_symmetry_group_IT_number 35
_symmetry_cell_setting 'orthorhombic'
loop_
_space_group_symop_operation_xyz
x,y,z
-x,-y,z
-x,y,z
x,-y,z
1/2+x,1/2+y,z
1/2-x,1/2-y,z
1/2-x,1/2+y,z
1/2+x,1/2-y,z
loop_
_atom_site_type_symbol
_atom_site_label
_atom_site_fract_x
_atom_site_fract_y
_atom_site_fract_z
Si Si1 0.903136 0.170238 0.125000
Si Si2 0.000000 0.320042 0.843558
Si Si3 0.000000 0.681660 0.502547
Si Si4 0.338617 0.820907 0.753861
Si Si5 0.500000 0.818495 0.341863
Si Si6 0.161390 0.679324 0.590900
Si Si7 0.000000 0.179679 0.995416
Si Si8 0.664189 0.822892 0.256402
O O1 0.851847 0.272916 0.176492
O O2 0.000000 0.168704 0.151474
O O3 0.871939 0.000000 0.127019
O O4 0.919610 0.218206 0.044701
O O5 0.083254 0.273711 0.801321
O O6 0.000000 0.255124 0.921161
O O7 0.000000 0.500000 0.846495
O O8 0.000000 0.729999 0.422215
O O9 0.083598 0.728486 0.543558
O O10 0.000000 0.500000 0.503152
O O11 0.250000 0.750000 0.774785
O O12 0.354171 0.782278 0.672405
O O13 0.332019 0.000000 0.757765
O O14 0.584105 0.772115 0.301547
O O15 0.500000 0.000000 0.341033
O O16 0.167626 0.500000 0.586644
O O17 0.250000 0.750000 0.570077
O O18 0.000000 0.000000 0.989804
O O19 0.750000 0.750000 0.281522
O O20 0.670009 0.000000 0.260236
#
# Coordination Sequence:
#
# PCOD9348259 Si02
#       8
#     8   4   4   8   4   8   4   8
#     4   8  16  33  55  75  99 129 163 206 251 294
#     4  10  19  31  50  73 101 134 170 204 244 298
#     4   9  17  31  52  74  98 135 170 200 248 305
#     4   9  18  32  49  73 100 129 167 211 250 292
#     4   9  19  34  50  73 106 135 166 206 248 301
#     4   9  17  31  52  73  97 129 168 210 251 293
#     4   8  17  32  52  76 103 132 162 202 254 298
#     4  11  21  34  54  79 103 133 172 211 251 300
#
# _framework density 17.487076999999999
#
# number of rings (size 3 to 8) (size 9 to 14) (size 15 to 20)
#    0.500    2.333    0.833    1.000    0.000    4.000 
#    0.000    1.250    0.000    9.000    0.000    0.000 
#    0.000    0.000    0.000    0.000    0.000    0.000 
#
# Total GULP energy -133637.874882 kJ/mol
# GULP energy per Si atom -5568.244787 kJ/mol
# Density = 1.744728 g / cm^3
# Si number density = 17.487077 Si / 1000 Ang^3
#
#
#
# Elastic Constant Matrix: (Units=GPa)
#
#
# Indices 1 2 3 4 5 6 
#
# 1 156.2293 37.2750 97.2235 0.0000 0.0000 0.0000
# 2 37.2750 20.8453 30.6776 0.0000 0.0000 0.0000
# 3 97.2235 30.6776 125.2050 0.0000 0.0000 0.0000
# 4 0.0000 0.0000 0.0000 16.1592 0.0000 0.0000
# 5 0.0000 0.0000 0.0000 0.0000 5.6673 0.0000
# 6 0.0000 0.0000 0.0000 0.0000 0.0000 28.9176
#
#
#
# Elastic Compliance Matrix: (Units=1/GPa)
#
#
# Indices 1 2 3 4 5 6 
#
# 1 0.014891 -0.015030 -0.007880 0.000000 0.000000 0.000000
# 2 -0.015030 0.090197 -0.010429 0.000000 0.000000 0.000000
# 3 -0.007880 -0.010429 0.016661 0.000000 0.000000 0.000000
# 4 0.000000 0.000000 0.000000 0.061884 0.000000 0.000000
# 5 0.000000 0.000000 0.000000 0.000000 0.176450 0.000000
# 6 0.000000 0.000000 0.000000 0.000000 0.000000 0.034581
#
#
# Mechanical properties :
#
#
# Convention : Reuss Voigt Hill
#
# Bulk Modulus (GPa) = 18.15849 70.29242 44.22545
# Shear Modulus (GPa) = 10.42317 19.28907 14.85612
#
# Velocity S-wave (km/s) = 2.44406 3.32482 2.91786
# Velocity P-wave (km/s) = 4.28615 7.41777 6.05782
#
# Compressibility (1/GPa) = 0.05507067
#
# Stress axis : x y z
#
# Youngs Moduli (GPa) = 67.15445 11.08682 60.01913
#
# Poissons Ratio (x) = 0.16664 0.47297
# Poissons Ratio (y) = 1.00936 0.62592
# Poissons Ratio (z) = 0.52920 0.11562
#
# Static dielectric constant tensor:
#      x y z
#    x 1.594080 0.000000 0.000000 
#    y 0.000000 1.589180 0.000000 
#    z 0.000000 0.000000 1.592680 
# 
# From -- ./inp_files/17141.got.cif
#   From: 2010.05.17/outbox.cif.g08.bks.cpg/sg35_9_cif.got.tgz:17141.got - 2010.06.03 17:29:28.
