data_PCOD9348186
_publ_section_title
;
Structure prediction by ZEFSAII (Michael W. Deem and Ramdas Pophale) SiO2 
 PCOD9348186
Probable space group: C M M 2
;
_chemical_formula_sum "Si O2"
_cell_formula_units_Z 48
_cell_length_a 8.703199
_cell_length_b 27.355239
_cell_length_c 11.687611
_cell_angle_alpha 90.000000
_cell_angle_beta 90.000000
_cell_angle_gamma 90.000000
_cell_volume 2782.564088
_symmetry_space_group_name_H-M "C M M 2"
_symmetry_group_IT_number 35
_symmetry_cell_setting 'orthorhombic'
loop_
_space_group_symop_operation_xyz
x,y,z
-x,-y,z
-x,y,z
x,-y,z
1/2+x,1/2+y,z
1/2-x,1/2-y,z
1/2-x,1/2+y,z
1/2+x,1/2-y,z
loop_
_atom_site_type_symbol
_atom_site_label
_atom_site_fract_x
_atom_site_fract_y
_atom_site_fract_z
Si Si1 0.686005 0.056849 0.460330
Si Si2 0.327596 0.201832 0.459290
Si Si3 0.816734 0.802385 0.086352
Si Si4 0.180250 0.865558 0.637746
Si Si5 0.173585 0.377109 0.258993
Si Si6 0.316392 0.802530 0.830888
O O1 0.500000 0.062420 0.462582
O O2 0.752541 0.088832 0.565163
O O3 0.736194 0.077667 0.335226
O O4 0.724397 0.000000 0.472108
O O5 0.500000 0.209561 0.505500
O O6 0.250000 0.250000 0.413488
O O7 0.216785 0.179893 0.554582
O O8 0.338429 0.163349 0.358245
O O9 0.750000 0.750000 0.129836
O O10 0.748418 0.808228 0.959105
O O11 0.000000 0.798250 0.082365
O O12 0.768268 0.849397 0.161413
O O13 0.262161 0.848160 0.753812
O O14 0.000000 0.872143 0.656069
O O15 0.000000 0.388421 0.217527
O O16 0.500000 0.799551 0.832323
O O17 0.250000 0.750000 0.788247
#
# Coordination Sequence:
#
# PCOD9348186 Si02
#       6
#     8   8   8   8   8   8
#     4   9  19  37  59  80 102 131 169 213 262 313
#     4  10  19  30  45  68  99 133 168 205 248 299
#     4  11  21  33  50  74 105 140 176 211 249 298
#     4  11  21  33  50  74 103 133 168 209 255 305
#     4   9  18  32  50  73 100 131 167 207 251 301
#     4  11  21  35  53  74 104 140 177 213 251 300
#
# _framework density 17.250274999999998
#
# number of rings (size 3 to 8) (size 9 to 14) (size 15 to 20)
#    0.000    1.833    0.000    8.000    0.000    5.000 
#    0.000    0.000    0.000    1.000    0.000    2.333 
#    0.000    0.000    0.000    0.000    0.000    0.000 
#
# Total GULP energy -133777.559007 kJ/mol
# GULP energy per Si atom -5574.064959 kJ/mol
# Density = 1.721101 g / cm^3
# Si number density = 17.250275 Si / 1000 Ang^3
#
#
#
# Elastic Constant Matrix: (Units=GPa)
#
#
# Indices 1 2 3 4 5 6 
#
# 1 117.0023 47.1878 39.3288 0.0000 0.0000 0.0000
# 2 47.1878 98.2664 49.9752 0.0000 0.0000 0.0000
# 3 39.3288 49.9752 84.5357 0.0000 0.0000 0.0000
# 4 0.0000 0.0000 0.0000 22.4738 0.0000 0.0000
# 5 0.0000 0.0000 0.0000 0.0000 -24.8311 0.0000
# 6 0.0000 0.0000 0.0000 0.0000 0.0000 14.2314
#
#
#
# Elastic Compliance Matrix: (Units=1/GPa)
#
#
# Indices 1 2 3 4 5 6 
#
# 1 0.011066 -0.003855 -0.002870 0.000000 0.000000 0.000000
# 2 -0.003855 0.015894 -0.007603 0.000000 0.000000 0.000000
# 3 -0.002870 -0.007603 0.017659 0.000000 0.000000 0.000000
# 4 0.000000 0.000000 0.000000 0.044496 0.000000 0.000000
# 5 0.000000 0.000000 0.000000 0.000000 -0.040272 0.000000
# 6 0.000000 0.000000 0.000000 0.000000 0.000000 0.070267
#
#
# Mechanical properties :
#
#
# Convention : Reuss Voigt Hill
#
# Bulk Modulus (GPa) = 62.63698 63.64311 63.14004
# Shear Modulus (GPa) = 32.66142 13.26231 22.96187
#
# Velocity S-wave (km/s) = 4.35603 2.77576 3.65238
# Velocity P-wave (km/s) = 7.85427 6.87366 7.38027
#
# Compressibility (1/GPa) = 0.01596501
#
# Stress axis : x y z
#
# Youngs Moduli (GPa) = 90.36718 62.91707 56.62867
#
# Poissons Ratio (x) = 0.24252 0.16250
# Poissons Ratio (y) = 0.34833 0.43054
# Poissons Ratio (z) = 0.25931 0.47835
#
# Static dielectric constant tensor:
#      x y z
#    x 2.902010 0.000000 0.000000 
#    y 0.000000 1.632010 0.000000 
#    z 0.000000 0.000000 1.605830 
# 
# From -- ./inp_files/11481.got.cif
#   From: 2010.05.17/outbox.cif.g08.bks.cpg/sg35_6_cif.got.tgz:11481.got - 2010.06.03 17:29:28.
