data_PCOD9348854
_publ_section_title
;
Structure prediction by ZEFSAII (Michael W. Deem and Ramdas Pophale) SiO2 
 PCOD9348854
Probable space group: C M M 2
;
_chemical_formula_sum "Si O2"
_cell_formula_units_Z 64
_cell_length_a 9.089677
_cell_length_b 19.687912
_cell_length_c 20.668831
_cell_angle_alpha 90.000000
_cell_angle_beta 90.000000
_cell_angle_gamma 90.000000
_cell_volume 3698.827047
_symmetry_space_group_name_H-M "C M M 2"
_symmetry_group_IT_number 35
_symmetry_cell_setting 'orthorhombic'
loop_
_space_group_symop_operation_xyz
x,y,z
-x,-y,z
-x,y,z
x,-y,z
1/2+x,1/2+y,z
1/2-x,1/2-y,z
1/2-x,1/2+y,z
1/2+x,1/2-y,z
loop_
_atom_site_type_symbol
_atom_site_label
_atom_site_fract_x
_atom_site_fract_y
_atom_site_fract_z
Si Si1 0.675959 0.678436 0.027060
Si Si2 0.322888 0.579950 0.555480
Si Si3 0.169479 0.917484 0.410869
Si Si4 0.325223 0.177864 0.657537
Si Si5 0.823785 0.822367 0.176979
Si Si6 0.175188 0.677385 0.809489
Si Si7 0.322583 0.579252 0.911658
Si Si8 0.173464 0.581168 0.279582
O O1 0.500000 0.687195 0.023697
O O2 0.750000 0.750000 0.009240
O O3 0.713340 0.662562 0.101714
O O4 0.717142 0.619056 0.977579
O O5 0.500000 0.586647 0.560488
O O6 0.287952 0.500000 0.561202
O O7 0.281730 0.603801 0.482727
O O8 0.243686 0.622206 0.610621
O O9 0.268412 0.897060 0.350404
O O10 0.000000 0.896148 0.400509
O O11 0.169040 0.000000 0.412739
O O12 0.500000 0.182582 0.648232
O O13 0.250000 0.250000 0.643535
O O14 0.298121 0.162802 0.733473
O O15 0.750000 0.750000 0.192583
O O16 0.760683 0.878852 0.224642
O O17 0.000000 0.817823 0.182666
O O18 0.250000 0.750000 0.824565
O O19 0.245233 0.619448 0.853719
O O20 0.000000 0.682287 0.819827
O O21 0.500000 0.583478 0.904163
O O22 0.282322 0.500000 0.913796
O O23 0.198020 0.500000 0.273831
O O24 0.000000 0.594014 0.273920
#
# Coordination Sequence:
#
# PCOD9348854 Si02
#       8
#     8   8   8   8   8   8   8   8
#     4   9  19  35  55  77 101 134 174 212 253 306
#     4   9  18  33  54  79 106 136 171 212 257 307
#     4   8  15  30  51  74 101 135 174 212 253 305
#     4  10  21  36  54  76 104 137 173 215 259 306
#     4  10  20  35  55  77 104 137 172 213 259 307
#     4  10  21  37  56  77 102 136 177 215 255 307
#     4  10  21  36  54  79 110 139 169 210 257 303
#     4  10  20  33  51  77 107 137 172 215 259 305
#
# _framework density 17.302783999999999
#
# number of rings (size 3 to 8) (size 9 to 14) (size 15 to 20)
#    0.000    2.500    0.000    2.625    0.000    6.250 
#    0.000    5.625    0.000    3.000    0.000    0.000 
#    0.000    0.000    0.000    0.000    0.000    0.000 
#
# Total GULP energy -178519.725386 kJ/mol
# GULP energy per Si atom -5578.741418 kJ/mol
# Density = 1.726340 g / cm^3
# Si number density = 17.302784 Si / 1000 Ang^3
#
#
#
# Elastic Constant Matrix: (Units=GPa)
#
#
# Indices 1 2 3 4 5 6 
#
# 1 62.5646 62.1917 67.6359 0.0000 0.0000 0.0000
# 2 62.1917 108.7604 93.1098 0.0000 0.0000 0.0000
# 3 67.6359 93.1098 119.5361 0.0000 0.0000 0.0000
# 4 0.0000 0.0000 0.0000 39.5181 0.0000 0.0000
# 5 0.0000 0.0000 0.0000 0.0000 28.1263 0.0000
# 6 0.0000 0.0000 0.0000 0.0000 0.0000 30.9163
#
#
#
# Elastic Compliance Matrix: (Units=1/GPa)
#
#
# Indices 1 2 3 4 5 6 
#
# 1 0.045872 -0.012037 -0.016579 0.000000 0.000000 0.000000
# 2 -0.012037 0.030756 -0.017146 0.000000 0.000000 0.000000
# 3 -0.016579 -0.017146 0.031102 0.000000 0.000000 0.000000
# 4 0.000000 0.000000 0.000000 0.025305 0.000000 0.000000
# 5 0.000000 0.000000 0.000000 0.000000 0.035554 0.000000
# 6 0.000000 0.000000 0.000000 0.000000 0.000000 0.032345
#
#
# Mechanical properties :
#
#
# Convention : Reuss Voigt Hill
#
# Bulk Modulus (GPa) = 61.70750 81.85957 71.78353
# Shear Modulus (GPa) = 16.78631 24.24040 20.51335
#
# Velocity S-wave (km/s) = 3.11810 3.74699 3.44692
# Velocity P-wave (km/s) = 6.97884 8.13220 7.57750
#
# Compressibility (1/GPa) = 0.01620549
#
# Stress axis : x y z
#
# Youngs Moduli (GPa) = 21.79976 32.51348 32.15219
#
# Poissons Ratio (x) = 0.39137 0.53306
# Poissons Ratio (y) = 0.26241 0.55128
# Poissons Ratio (z) = 0.36142 0.55748
#
# Static dielectric constant tensor:
#      x y z
#    x 1.574700 0.000000 0.000000 
#    y 0.000000 1.556890 0.000000 
#    z 0.000000 0.000000 1.588890 
# 
# From -- ./inp_files/18360.got.cif
#   From: 2010.05.17/outbox.cif.g08.bks.cpg/sg35_10_cif.got.tgz:18360.got - 2010.06.03 17:29:28.
