data_PCOD9348349
_publ_section_title
;
Structure prediction by ZEFSAII (Michael W. Deem and Ramdas Pophale) SiO2 
 PCOD9348349
Probable space group: C M M 2
;
_chemical_formula_sum "Si O2"
_cell_formula_units_Z 56
_cell_length_a 8.035294
_cell_length_b 19.022497
_cell_length_c 19.013741
_cell_angle_alpha 90.000000
_cell_angle_beta 90.000000
_cell_angle_gamma 90.000000
_cell_volume 2906.276095
_symmetry_space_group_name_H-M "C M M 2"
_symmetry_group_IT_number 35
_symmetry_cell_setting 'orthorhombic'
loop_
_space_group_symop_operation_xyz
x,y,z
-x,-y,z
-x,y,z
x,-y,z
1/2+x,1/2+y,z
1/2-x,1/2-y,z
1/2-x,1/2+y,z
1/2+x,1/2-y,z
loop_
_atom_site_type_symbol
_atom_site_label
_atom_site_fract_x
_atom_site_fract_y
_atom_site_fract_z
Si Si1 0.300023 0.920111 0.443950
Si Si2 0.201225 0.331143 0.734690
Si Si3 0.703017 0.918203 0.600269
Si Si4 0.699857 0.080044 0.868860
Si Si5 0.700702 0.667893 0.157821
Si Si6 0.198388 0.831277 0.309801
Si Si7 0.699433 0.668172 0.004131
O O1 0.500000 0.922326 0.447374
O O2 0.242341 0.896356 0.521680
O O3 0.254376 0.872933 0.378101
O O4 0.239482 0.000000 0.433527
O O5 0.250000 0.250000 0.738674
O O6 0.261189 0.368494 0.663070
O O7 0.262055 0.374935 0.802318
O O8 0.000000 0.334413 0.734635
O O9 0.500000 0.916877 0.601162
O O10 0.750266 0.000000 0.611299
O O11 0.500000 0.076402 0.862107
O O12 0.763911 0.000000 0.869027
O O13 0.738164 0.120856 0.940562
O O14 0.500000 0.662167 0.157390
O O15 0.750000 0.750000 0.158491
O O16 0.761136 0.640032 0.233635
O O17 0.760111 0.642109 0.081399
O O18 0.250000 0.750000 0.315522
O O19 0.000000 0.834030 0.307579
O O20 0.500000 0.665962 0.004039
O O21 0.750000 0.750000 0.995264
#
# Coordination Sequence:
#
# PCOD9348349 Si02
#       7
#     8   8   8   8   8   8   8
#     4   9  18  33  52  74 101 133 169 207 248 296
#     4  10  20  34  53  76 101 129 163 203 246 293
#     4   8  15  31  54  74  94 127 168 204 241 290
#     4  10  21  36  53  74 101 133 169 207 247 293
#     4   8  16  30  48  71  97 128 165 204 247 295
#     4  10  19  32  51  74 101 132 168 209 251 296
#     4  10  19  33  54  77 101 130 166 207 251 298
#
# _framework density 19.268643999999998
#
# number of rings (size 3 to 8) (size 9 to 14) (size 15 to 20)
#    0.000    2.714    0.000    2.571    0.000    5.714 
#    0.000    2.857    0.000    6.429    0.000    0.000 
#    0.000    0.000    0.000    0.000    0.000    0.000 
#
# Total GULP energy -156058.722776 kJ/mol
# GULP energy per Si atom -5573.525813 kJ/mol
# Density = 1.922479 g / cm^3
# Si number density = 19.268644 Si / 1000 Ang^3
#
#
#
# Elastic Constant Matrix: (Units=GPa)
#
#
# Indices 1 2 3 4 5 6 
#
# 1 13.4289 6.8957 13.8505 0.0000 0.0000 0.0000
# 2 6.8957 108.5079 116.3722 0.0000 0.0000 0.0000
# 3 13.8505 116.3722 245.3039 0.0000 0.0000 0.0000
# 4 0.0000 0.0000 0.0000 -131.7002 0.0000 0.0000
# 5 0.0000 0.0000 0.0000 0.0000 20.6216 0.0000
# 6 0.0000 0.0000 0.0000 0.0000 0.0000 21.6102
#
#
#
# Elastic Compliance Matrix: (Units=1/GPa)
#
#
# Indices 1 2 3 4 5 6 
#
# 1 0.079083 -0.000482 -0.004236 0.000000 0.000000 0.000000
# 2 -0.000482 0.018764 -0.008875 0.000000 0.000000 0.000000
# 3 -0.004236 -0.008875 0.008526 0.000000 0.000000 0.000000
# 4 0.000000 0.000000 0.000000 -0.007593 0.000000 0.000000
# 5 0.000000 0.000000 0.000000 0.000000 0.048493 0.000000
# 6 0.000000 0.000000 0.000000 0.000000 0.000000 0.046274
#
#
# Mechanical properties :
#
#
# Convention : Reuss Voigt Hill
#
# Bulk Modulus (GPa) = 12.62837 71.27528 41.95182
# Shear Modulus (GPa) = 20.23229 -2.55217 8.84006
#
# Velocity S-wave (km/s) = 3.24390 -1.15213 2.14424
# Velocity P-wave (km/s) = 4.53857 5.94144 5.28675
#
# Compressibility (1/GPa) = 0.07918681
#
# Stress axis : x y z
#
# Youngs Moduli (GPa) = 12.64492 53.29261 117.28999
#
# Poissons Ratio (x) = 0.02570 0.49690
# Poissons Ratio (y) = 0.00610 1.04090
# Poissons Ratio (z) = 0.05357 0.47295
#
# Static dielectric constant tensor:
#      x y z
#    x 1.693260 0.000000 0.000000 
#    y 0.000000 1.631280 0.000000 
#    z 0.000000 0.000000 1.718200 
# 
# From -- ./inp_files/15614.got.cif
#   From: 2010.05.17/outbox.cif.g08.bks.cpg/sg35_8_cif.got.tgz:15614.got - 2010.06.03 17:29:28.
