data_PCOD9348557
_publ_section_title
;
Structure prediction by ZEFSAII (Michael W. Deem and Ramdas Pophale) SiO2 
 PCOD9348557
Probable space group: C M M 2
;
_chemical_formula_sum "Si O2"
_cell_formula_units_Z 48
_cell_length_a 8.858176
_cell_length_b 15.653742
_cell_length_c 17.530490
_cell_angle_alpha 90.000000
_cell_angle_beta 90.000000
_cell_angle_gamma 90.000000
_cell_volume 2430.840883
_symmetry_space_group_name_H-M "C M M 2"
_symmetry_group_IT_number 35
_symmetry_cell_setting 'orthorhombic'
loop_
_space_group_symop_operation_xyz
x,y,z
-x,-y,z
-x,y,z
x,-y,z
1/2+x,1/2+y,z
1/2-x,1/2-y,z
1/2-x,1/2+y,z
1/2+x,1/2-y,z
loop_
_atom_site_type_symbol
_atom_site_label
_atom_site_fract_x
_atom_site_fract_y
_atom_site_fract_z
Si Si1 0.174235 0.103707 0.907490
Si Si2 0.819348 0.602121 0.581943
Si Si3 0.820930 0.659682 0.061318
Si Si4 0.319518 0.338033 0.426103
Si Si5 0.681939 0.500000 0.150679
Si Si6 0.825049 0.604216 0.751262
Si Si7 0.816602 0.000000 0.327557
O O1 0.226454 0.131048 0.823257
O O2 0.000000 0.126634 0.921579
O O3 0.186005 0.000000 0.911370
O O4 0.277734 0.142502 0.973105
O O5 0.792248 0.500000 0.576557
O O6 0.735362 0.645909 0.512365
O O7 0.772854 0.631306 0.666935
O O8 0.000000 0.615184 0.575597
O O9 0.750000 0.750000 0.084371
O O10 0.746838 0.583129 0.108959
O O11 0.000000 0.659962 0.070770
O O12 0.500000 0.334239 0.424750
O O13 0.250000 0.250000 0.397908
O O14 0.266874 0.416559 0.373735
O O15 0.500000 0.500000 0.144891
O O16 0.727549 0.500000 0.239435
O O17 0.823437 0.500000 0.749817
O O18 0.000000 0.629443 0.761882
O O19 0.000000 0.000000 0.328984
#
# Coordination Sequence:
#
# PCOD9348557 Si02
#       7
#     8   8   8   8   4   8   4
#     4  10  19  33  56  86 122 162 206 253 304 360
#     4   9  17  32  55  84 118 159 204 252 303 355
#     4  12  25  42  65  94 127 165 207 252 306 366
#     4  11  22  39  61  90 123 160 202 247 300 359
#     4  11  23  45  71  96 127 158 197 251 308 373
#     4   8  15  28  49  79 116 157 204 253 302 354
#     4   9  22  43  67  92 123 158 193 243 304 363
#
# _framework density 19.746252999999999
#
# number of rings (size 3 to 8) (size 9 to 14) (size 15 to 20)
#    0.000    2.000    1.667    3.750    0.000    2.000 
#    0.000    7.500    0.000    4.000    0.000    0.000 
#    0.000    0.000    0.000    0.000    0.000    0.000 
#
# Total GULP energy -134113.469170 kJ/mol
# GULP energy per Si atom -5588.061215 kJ/mol
# Density = 1.970131 g / cm^3
# Si number density = 19.746253 Si / 1000 Ang^3
#
#
#
# Elastic Constant Matrix: (Units=GPa)
#
#
# Indices 1 2 3 4 5 6 
#
# 1 87.0904 52.5779 44.6638 0.0000 0.0000 0.0000
# 2 52.5779 121.0652 67.2207 0.0000 0.0000 0.0000
# 3 44.6638 67.2207 133.9132 0.0000 0.0000 0.0000
# 4 0.0000 0.0000 0.0000 -10.6590 0.0000 0.0000
# 5 0.0000 0.0000 0.0000 0.0000 19.4529 0.0000
# 6 0.0000 0.0000 0.0000 0.0000 0.0000 26.0900
#
#
#
# Elastic Compliance Matrix: (Units=1/GPa)
#
#
# Indices 1 2 3 4 5 6 
#
# 1 0.016187 -0.005590 -0.002593 0.000000 0.000000 0.000000
# 2 -0.005590 0.013383 -0.004853 0.000000 0.000000 0.000000
# 3 -0.002593 -0.004853 0.010768 0.000000 0.000000 0.000000
# 4 0.000000 0.000000 0.000000 -0.093817 0.000000 0.000000
# 5 0.000000 0.000000 0.000000 0.000000 0.051406 0.000000
# 6 0.000000 0.000000 0.000000 0.000000 0.000000 0.038329
#
#
# Mechanical properties :
#
#
# Convention : Reuss Voigt Hill
#
# Bulk Modulus (GPa) = 70.09835 74.55485 72.32660
# Shear Modulus (GPa) = 74.53441 18.81720 46.67580
#
# Velocity S-wave (km/s) = 6.15045 3.09034 4.86715
# Velocity P-wave (km/s) = 9.27437 7.11140 8.26396
#
# Compressibility (1/GPa) = 0.01426567
#
# Stress axis : x y z
#
# Youngs Moduli (GPa) = 61.77831 74.72415 92.86475
#
# Poissons Ratio (x) = 0.41774 0.24076
# Poissons Ratio (y) = 0.34536 0.45068
# Poissons Ratio (z) = 0.16016 0.36265
#
# Static dielectric constant tensor:
#      x y z
#    x 1.659370 0.000000 0.000000 
#    y 0.000000 1.709440 0.000000 
#    z 0.000000 0.000000 1.678450 
# 
# From -- ./inp_files/17927.got.cif
#   From: 2010.05.17/outbox.cif.g08.bks.cpg/sg35_9_cif.got.tgz:17927.got - 2010.06.03 17:29:28.
