data_PCOD9348727
_publ_section_title
;
Structure prediction by ZEFSAII (Michael W. Deem and Ramdas Pophale) SiO2 
 PCOD9348727
Probable space group: C M M 2
;
_chemical_formula_sum "Si O2"
_cell_formula_units_Z 56
_cell_length_a 13.945489
_cell_length_b 14.866341
_cell_length_c 11.573043
_cell_angle_alpha 90.000000
_cell_angle_beta 90.000000
_cell_angle_gamma 90.000000
_cell_volume 2399.304699
_symmetry_space_group_name_H-M "C M M 2"
_symmetry_group_IT_number 35
_symmetry_cell_setting 'orthorhombic'
loop_
_space_group_symop_operation_xyz
x,y,z
-x,-y,z
-x,y,z
x,-y,z
1/2+x,1/2+y,z
1/2-x,1/2-y,z
1/2-x,1/2+y,z
1/2+x,1/2-y,z
loop_
_atom_site_type_symbol
_atom_site_label
_atom_site_fract_x
_atom_site_fract_y
_atom_site_fract_z
Si Si1 0.328326 0.906784 0.048720
Si Si2 0.106306 0.867465 0.044454
Si Si3 0.205274 0.893848 0.580726
Si Si4 0.888097 0.195294 0.785977
Si Si5 0.107450 0.290333 0.496948
Si Si6 0.885485 0.599447 0.781870
Si Si7 0.362094 0.762926 0.236035
O O1 0.212686 0.908076 0.050259
O O2 0.369759 0.831416 0.130281
O O3 0.365300 0.000000 0.097192
O O4 0.358720 0.900213 0.916751
O O5 0.099920 0.825040 0.172437
O O6 0.000000 0.908126 0.025412
O O7 0.119320 0.810232 0.924957
O O8 0.177851 0.875523 0.716268
O O9 0.139951 0.813362 0.524318
O O10 0.311621 0.861612 0.539737
O O11 0.188067 0.000000 0.552972
O O12 0.861814 0.296658 0.747545
O O13 0.000000 0.177219 0.758516
O O14 0.100783 0.293996 0.358220
O O15 0.000000 0.308168 0.541848
O O16 0.851277 0.500000 0.735217
O O17 0.000000 0.596203 0.772838
O O18 0.250000 0.750000 0.257444
#
# Coordination Sequence:
#
# PCOD9348727 Si02
#       7
#     8   8   8   8   8   8   8
#     4  10  21  34  58  96 138 180 222 271 338 418
#     4  10  21  37  62  96 136 180 228 278 339 423
#     4  11  26  49  74 104 144 189 245 306 362 422
#     4  10  21  40  69 101 139 191 242 293 359 432
#     4  11  25  48  77 106 139 185 242 304 370 430
#     4   9  18  35  61  98 141 181 226 283 347 420
#     4  10  19  40  66  98 135 182 223 282 355 432
#
# _framework density 23.340095000000002
#
# number of rings (size 3 to 8) (size 9 to 14) (size 15 to 20)
#    0.000    1.857    2.857    0.857    0.000    5.714 
#    0.000    7.143    0.000    5.143    0.000    0.000 
#    0.000    0.000    0.000    0.000    0.000    0.000 
#
# Total GULP energy -155961.873393 kJ/mol
# GULP energy per Si atom -5570.066907 kJ/mol
# Density = 2.328697 g / cm^3
# Si number density = 23.340095 Si / 1000 Ang^3
#
#
#
# Elastic Constant Matrix: (Units=GPa)
#
#
# Indices 1 2 3 4 5 6 
#
# 1 113.6819 38.2295 28.5498 0.0000 0.0000 0.0000
# 2 38.2295 140.6993 21.4687 0.0000 0.0000 0.0000
# 3 28.5498 21.4687 121.0939 0.0000 0.0000 0.0000
# 4 0.0000 0.0000 0.0000 -18.1575 0.0000 0.0000
# 5 0.0000 0.0000 0.0000 0.0000 117.9411 0.0000
# 6 0.0000 0.0000 0.0000 0.0000 0.0000 177.4947
#
#
#
# Elastic Compliance Matrix: (Units=1/GPa)
#
#
# Indices 1 2 3 4 5 6 
#
# 1 0.010110 -0.002449 -0.001949 0.000000 0.000000 0.000000
# 2 -0.002449 0.007898 -0.000823 0.000000 0.000000 0.000000
# 3 -0.001949 -0.000823 0.008864 0.000000 0.000000 0.000000
# 4 0.000000 0.000000 0.000000 -0.055074 0.000000 0.000000
# 5 0.000000 0.000000 0.000000 0.000000 0.008479 0.000000
# 6 0.000000 0.000000 0.000000 0.000000 0.000000 0.005634
#
#
# Mechanical properties :
#
#
# Convention : Reuss Voigt Hill
#
# Bulk Modulus (GPa) = 60.86957 61.33012 61.09984
# Shear Modulus (GPa) = 2732.09512 74.60415 1403.34963
#
# Velocity S-wave (km/s) = 34.25055 5.65980 24.54723
# Velocity P-wave (km/s) = 39.87818 8.30932 28.80377
#
# Compressibility (1/GPa) = 0.01642857
#
# Stress axis : x y z
#
# Youngs Moduli (GPa) = 98.91453 126.60698 112.82224
#
# Poissons Ratio (x) = 0.31012 0.21992
# Poissons Ratio (y) = 0.24229 0.09283
# Poissons Ratio (z) = 0.19281 0.10417
#
# Static dielectric constant tensor:
#      x y z
#    x 1.869700 0.000000 0.000000 
#    y 0.000000 2.001540 0.000000 
#    z 0.000000 0.000000 1.881210 
# 
# From -- ./inp_files/13011.got.cif
#   From: 2010.05.17/outbox.cif.g08.bks.cpg/sg35_7_cif.got.tgz:13011.got - 2010.06.03 17:29:28.
