data_PCOD9348669
_publ_section_title
;
Structure prediction by ZEFSAII (Michael W. Deem and Ramdas Pophale) SiO2 
 PCOD9348669
Probable space group: C M M 2
;
_chemical_formula_sum "Si O2"
_cell_formula_units_Z 48
_cell_length_a 28.795798
_cell_length_b 8.960747
_cell_length_c 10.495573
_cell_angle_alpha 90.000000
_cell_angle_beta 90.000000
_cell_angle_gamma 90.000000
_cell_volume 2708.192229
_symmetry_space_group_name_H-M "C M M 2"
_symmetry_group_IT_number 35
_symmetry_cell_setting 'orthorhombic'
loop_
_space_group_symop_operation_xyz
x,y,z
-x,-y,z
-x,y,z
x,-y,z
1/2+x,1/2+y,z
1/2-x,1/2-y,z
1/2-x,1/2+y,z
1/2+x,1/2-y,z
loop_
_atom_site_type_symbol
_atom_site_label
_atom_site_fract_x
_atom_site_fract_y
_atom_site_fract_z
Si Si1 0.299424 0.178528 0.210340
Si Si2 0.891703 0.178338 0.302823
Si Si3 0.944656 0.675660 0.069613
Si Si4 0.053898 0.819959 0.559292
Si Si5 0.298989 0.821108 0.910711
Si Si6 0.896622 0.320169 0.802514
O O1 0.250000 0.250000 0.244934
O O2 0.341610 0.245114 0.290533
O O3 0.297681 0.000000 0.221714
O O4 0.307837 0.215399 0.060136
O O5 0.921104 0.230316 0.180640
O O6 0.919345 0.223007 0.430126
O O7 0.886434 0.000000 0.302157
O O8 0.933096 0.500000 0.089976
O O9 0.000000 0.692072 0.071533
O O10 0.924783 0.716998 0.931295
O O11 0.079881 0.753516 0.681041
O O12 0.000000 0.771796 0.555626
O O13 0.054442 0.000000 0.566859
O O14 0.250000 0.750000 0.873372
O O15 0.343303 0.773911 0.827985
O O16 0.295298 0.000000 0.903262
O O17 0.897745 0.500000 0.788801
#
# Coordination Sequence:
#
# PCOD9348669 Si02
#       6
#     8   8   8   8   8   8
#     4  10  19  35  58  86 118 148 185 233 284 339
#     4  11  22  37  57  82 114 152 192 234 283 338
#     4  10  20  35  56  82 112 144 185 239 291 341
#     4  10  23  41  57  78 113 153 192 236 283 335
#     4   9  18  33  55  83 115 144 178 225 278 331
#     4  10  20  37  58  83 112 146 187 233 284 339
#
# _framework density 17.724
#
# number of rings (size 3 to 8) (size 9 to 14) (size 15 to 20)
#    0.000    2.000    1.667    2.000    0.000    5.333 
#    0.000    0.833    0.000    2.000    0.000    0.000 
#    0.000    0.000    0.000    0.000    0.000    0.000 
#
# Total GULP energy -134017.718643 kJ/mol
# GULP energy per Si atom -5584.071610 kJ/mol
# Density = 1.768366 g / cm^3
# Si number density = 17.724000 Si / 1000 Ang^3
#
#
#
# Elastic Constant Matrix: (Units=GPa)
#
#
# Indices 1 2 3 4 5 6 
#
# 1 171.1546 55.8156 93.3341 0.0000 0.0000 0.0000
# 2 55.8156 36.0420 46.6151 0.0000 0.0000 0.0000
# 3 93.3341 46.6151 133.0968 0.0000 0.0000 0.0000
# 4 0.0000 0.0000 0.0000 32.1082 0.0000 0.0000
# 5 0.0000 0.0000 0.0000 0.0000 32.0076 0.0000
# 6 0.0000 0.0000 0.0000 0.0000 0.0000 34.2621
#
#
#
# Elastic Compliance Matrix: (Units=1/GPa)
#
#
# Indices 1 2 3 4 5 6 
#
# 1 0.012727 -0.014928 -0.003696 0.000000 0.000000 0.000000
# 2 -0.014928 0.068232 -0.013429 0.000000 0.000000 0.000000
# 3 -0.003696 -0.013429 0.014808 0.000000 0.000000 0.000000
# 4 0.000000 0.000000 0.000000 0.031145 0.000000 0.000000
# 5 0.000000 0.000000 0.000000 0.000000 0.031243 0.000000
# 6 0.000000 0.000000 0.000000 0.000000 0.000000 0.029187
#
#
# Mechanical properties :
#
#
# Convention : Reuss Voigt Hill
#
# Bulk Modulus (GPa) = 31.58493 81.31365 56.44929
# Shear Modulus (GPa) = 19.08395 29.31083 24.19739
#
# Velocity S-wave (km/s) = 3.28492 4.07103 3.69891
# Velocity P-wave (km/s) = 5.67862 8.25076 7.08243
#
# Compressibility (1/GPa) = 0.03166067
#
# Stress axis : x y z
#
# Youngs Moduli (GPa) = 78.57611 14.65592 67.52940
#
# Poissons Ratio (x) = 0.21879 0.24959
# Poissons Ratio (y) = 1.17301 0.90683
# Poissons Ratio (z) = 0.29042 0.19681
#
# Static dielectric constant tensor:
#      x y z
#    x 1.601250 0.000000 0.000000 
#    y 0.000000 1.594690 0.000000 
#    z 0.000000 0.000000 1.573920 
# 
# From -- ./inp_files/5301.got.cif
#   From: 2010.05.17/outbox.cif.g08.bks.cpg/sg35_3_cif.got.tgz:5301.got - 2010.06.03 17:29:28.
