data_PCOD9349371
_publ_section_title
;
Structure prediction by ZEFSAII (Michael W. Deem and Ramdas Pophale) SiO2 
 PCOD9349371
Probable space group: C M M 2
;
_chemical_formula_sum "Si O2"
_cell_formula_units_Z 64
_cell_length_a 35.174443
_cell_length_b 7.885800
_cell_length_c 11.390791
_cell_angle_alpha 90.000000
_cell_angle_beta 90.000000
_cell_angle_gamma 90.000000
_cell_volume 3159.561918
_symmetry_space_group_name_H-M "C M M 2"
_symmetry_group_IT_number 35
_symmetry_cell_setting 'orthorhombic'
loop_
_space_group_symop_operation_xyz
x,y,z
-x,-y,z
-x,y,z
x,-y,z
1/2+x,1/2+y,z
1/2-x,1/2-y,z
1/2-x,1/2+y,z
1/2+x,1/2-y,z
loop_
_atom_site_type_symbol
_atom_site_label
_atom_site_fract_x
_atom_site_fract_y
_atom_site_fract_z
Si Si1 0.458276 0.797881 0.453540
Si Si2 0.791630 0.799248 0.005952
Si Si3 0.790257 0.203423 0.741223
Si Si4 0.941364 0.301286 0.712542
Si Si5 0.863264 0.206438 0.606123
Si Si6 0.624068 0.806816 0.088890
Si Si7 0.383411 0.306322 0.347780
Si Si8 0.456827 0.207941 0.976737
O O1 0.500000 0.780835 0.404116
O O2 0.457874 0.735451 0.588908
O O3 0.427908 0.700435 0.377711
O O4 0.448565 0.000000 0.455347
O O5 0.750000 0.750000 0.060171
O O6 0.833918 0.761858 0.055303
O O7 0.789564 0.000000 0.999660
O O8 0.791752 0.725915 0.873393
O O9 0.750000 0.250000 0.688480
O O10 0.824394 0.264155 0.662379
O O11 0.793575 0.000000 0.748345
O O12 0.951302 0.500000 0.715640
O O13 0.896822 0.275923 0.687851
O O14 0.953150 0.235468 0.839855
O O15 0.866423 0.260530 0.470568
O O16 0.866420 0.000000 0.605910
O O17 0.623041 0.794615 0.229576
O O18 0.624239 0.000000 0.047405
O O19 0.583029 0.735466 0.040322
O O20 0.370639 0.500000 0.328979
O O21 0.500000 0.257705 0.017844
O O22 0.456510 0.000000 0.981475
#
# Coordination Sequence:
#
# PCOD9349371 Si02
#       8
#     8   8   8   8   8   8   8   8
#     4   9  17  30  50  75 101 129 165 213 265 316
#     4  10  20  36  59  85 112 139 171 214 264 320
#     4   9  18  32  52  79 107 132 159 197 250 312
#     4   9  16  28  50  77 101 128 166 211 260 316
#     4   9  18  33  51  72 101 135 167 205 259 314
#     4  11  22  36  55  78 106 143 187 229 269 313
#     4  10  21  36  52  70  98 137 179 220 260 308
#     4   9  18  32  51  77 108 141 177 219 267 319
#
# _framework density 20.255970999999999
#
# number of rings (size 3 to 8) (size 9 to 14) (size 15 to 20)
#    0.000    2.500    0.000    2.250    0.000    3.750 
#    0.000    2.500    0.000    5.250    0.000    0.000 
#    0.000    0.000    0.000    0.000    0.000    0.000 
#
# Total GULP energy -178153.766724 kJ/mol
# GULP energy per Si atom -5567.305210 kJ/mol
# Density = 2.020987 g / cm^3
# Si number density = 20.255971 Si / 1000 Ang^3
#
#
#
# Elastic Constant Matrix: (Units=GPa)
#
#
# Indices 1 2 3 4 5 6 
#
# 1 182.4767 13.2944 53.4144 0.0000 0.0000 0.0000
# 2 13.2944 22.5552 5.4912 0.0000 0.0000 0.0000
# 3 53.4144 5.4912 56.9536 0.0000 0.0000 0.0000
# 4 0.0000 0.0000 0.0000 14.0281 0.0000 0.0000
# 5 0.0000 0.0000 0.0000 0.0000 -20.3636 0.0000
# 6 0.0000 0.0000 0.0000 0.0000 0.0000 23.4343
#
#
#
# Elastic Compliance Matrix: (Units=1/GPa)
#
#
# Indices 1 2 3 4 5 6 
#
# 1 0.007730 -0.002858 -0.006974 0.000000 0.000000 0.000000
# 2 -0.002858 0.046458 -0.001799 0.000000 0.000000 0.000000
# 3 -0.006974 -0.001799 0.024272 0.000000 0.000000 0.000000
# 4 0.000000 0.000000 0.000000 0.071285 0.000000 0.000000
# 5 0.000000 0.000000 0.000000 0.000000 -0.049107 0.000000
# 6 0.000000 0.000000 0.000000 0.000000 0.000000 0.042673
#
#
# Mechanical properties :
#
#
# Convention : Reuss Voigt Hill
#
# Bulk Modulus (GPa) = 18.11641 45.15393 31.63517
# Shear Modulus (GPa) = 27.03114 16.07212 21.55163
#
# Velocity S-wave (km/s) = 3.65701 2.81988 3.26539
# Velocity P-wave (km/s) = 5.17637 5.73954 5.46522
#
# Compressibility (1/GPa) = 0.05519856
#
# Stress axis : x y z
#
# Youngs Moduli (GPa) = 129.37008 21.52468 41.19965
#
# Poissons Ratio (x) = 0.06152 0.28732
# Poissons Ratio (y) = 0.36977 0.07411
# Poissons Ratio (z) = 0.90221 0.03872
#
# Static dielectric constant tensor:
#      x y z
#    x 1.776470 0.000000 0.000000 
#    y 0.000000 1.759650 0.000000 
#    z 0.000000 0.000000 1.707040 
# 
# From -- ./inp_files/14555.got.cif
#   From: 2010.05.17/outbox.cif.g08.bks.cpg/sg35_8_cif.got.tgz:14555.got - 2010.06.03 17:29:28.
