data_PCOD9349999
_publ_section_title
;
Structure prediction by ZEFSAII (Michael W. Deem and Ramdas Pophale) SiO2 
 PCOD9349999
Probable space group: C M M 2
;
_chemical_formula_sum "Si O2"
_cell_formula_units_Z 56
_cell_length_a 30.368609
_cell_length_b 14.697886
_cell_length_c 5.655173
_cell_angle_alpha 90.000000
_cell_angle_beta 90.000000
_cell_angle_gamma 90.000000
_cell_volume 2524.211086
_symmetry_space_group_name_H-M "C M M 2"
_symmetry_group_IT_number 35
_symmetry_cell_setting 'orthorhombic'
loop_
_space_group_symop_operation_xyz
x,y,z
-x,-y,z
-x,y,z
x,-y,z
1/2+x,1/2+y,z
1/2-x,1/2-y,z
1/2-x,1/2+y,z
1/2+x,1/2-y,z
loop_
_atom_site_type_symbol
_atom_site_label
_atom_site_fract_x
_atom_site_fract_y
_atom_site_fract_z
Si Si1 0.228454 0.389733 0.144900
Si Si2 0.571554 0.250152 0.893457
Si Si3 0.228798 0.889830 0.638752
Si Si4 0.452743 0.102037 0.539282
Si Si5 0.874513 0.395820 0.171975
Si Si6 0.547228 0.602075 0.249190
Si Si7 0.874288 0.895754 0.616194
O O1 0.233199 0.500000 0.141261
O O2 0.249918 0.357665 0.391659
O O3 0.176679 0.370366 0.179376
O O4 0.249817 0.358946 0.891773
O O5 0.545955 0.190230 0.703390
O O6 0.602930 0.325185 0.784094
O O7 0.601994 0.174139 0.005389
O O8 0.545915 0.310674 0.082007
O O9 0.176958 0.871025 0.605301
O O10 0.233783 0.000000 0.642416
O O11 0.500000 0.103755 0.399850
O O12 0.406510 0.107572 0.400455
O O13 0.452373 0.000000 0.652306
O O14 0.876022 0.500000 0.087131
O O15 0.500000 0.604029 0.388544
O O16 0.547725 0.500000 0.136954
O O17 0.593281 0.608052 0.389447
O O18 0.875974 0.000000 0.701050
#
# Coordination Sequence:
#
# PCOD9349999 Si02
#       7
#     8   8   8   8   8   8   8
#     4   9  19  37  66  97 128 174 229 283 345 413
#     4  12  23  38  65  96 132 172 220 283 339 410
#     4   9  19  37  66  97 128 174 229 283 345 413
#     4  10  23  43  66  94 131 176 226 280 343 414
#     4  10  23  41  65  94 131 175 224 279 341 411
#     4  10  23  43  66  94 131 176 226 280 343 414
#     4  10  23  41  65  94 131 175 224 279 341 411
#
# _framework density 22.185148999999999
#
# number of rings (size 3 to 8) (size 9 to 14) (size 15 to 20)
#    0.000    2.000    0.000    2.143    4.000    3.429 
#    0.000    3.571    0.000    0.000    0.000    0.000 
#    0.000    0.000    0.000    0.000    0.000    0.000 
#
# Total GULP energy -155929.923873 kJ/mol
# GULP energy per Si atom -5568.925853 kJ/mol
# Density = 2.213465 g / cm^3
# Si number density = 22.185149 Si / 1000 Ang^3
#
#
#
# Elastic Constant Matrix: (Units=GPa)
#
#
# Indices 1 2 3 4 5 6 
#
# 1 227.1247 74.8566 99.7495 0.0000 0.0000 0.0000
# 2 74.8566 46.8833 27.2853 0.0000 0.0000 0.0000
# 3 99.7495 27.2853 103.2835 0.0000 0.0000 0.0000
# 4 0.0000 0.0000 0.0000 30.8376 0.0000 0.0000
# 5 0.0000 0.0000 0.0000 0.0000 3.0141 0.0000
# 6 0.0000 0.0000 0.0000 0.0000 0.0000 115.5726
#
#
#
# Elastic Compliance Matrix: (Units=1/GPa)
#
#
# Indices 1 2 3 4 5 6 
#
# 1 0.013988 -0.017101 -0.008992 0.000000 0.000000 0.000000
# 2 -0.017101 0.046112 0.004334 0.000000 0.000000 0.000000
# 3 -0.008992 0.004334 0.017221 0.000000 0.000000 0.000000
# 4 0.000000 0.000000 0.000000 0.032428 0.000000 0.000000
# 5 0.000000 0.000000 0.000000 0.000000 0.331772 0.000000
# 6 0.000000 0.000000 0.000000 0.000000 0.000000 0.008653
#
#
# Mechanical properties :
#
#
# Convention : Reuss Voigt Hill
#
# Bulk Modulus (GPa) = 29.58228 86.78601 58.18415
# Shear Modulus (GPa) = 9.90177 41.57821 25.73999
#
# Velocity S-wave (km/s) = 2.11493 4.33384 3.40992
# Velocity P-wave (km/s) = 4.39626 8.01541 6.46428
#
# Compressibility (1/GPa) = 0.03380402
#
# Stress axis : x y z
#
# Youngs Moduli (GPa) = 71.48832 21.68626 58.06793
#
# Poissons Ratio (x) = 0.37087 0.52214
# Poissons Ratio (y) = 1.22255 -0.25169
# Poissons Ratio (z) = 0.64281 -0.09400
#
# Static dielectric constant tensor:
#      x y z
#    x 1.844280 0.000000 0.000000 
#    y 0.000000 1.823010 0.000000 
#    z 0.000000 0.000000 1.841400 
# 
# From -- ./inp_files/4023.got.cif
#   From: 2010.05.17/outbox.cif.g08.bks.cpg/sg35_3_cif.got.tgz:4023.got - 2010.06.03 17:29:28.
