data_PCOD9349457
_publ_section_title
;
Structure prediction by ZEFSAII (Michael W. Deem and Ramdas Pophale) SiO2 
 PCOD9349457
Probable space group: C M M 2
;
_chemical_formula_sum "Si O2"
_cell_formula_units_Z 40
_cell_length_a 15.802219
_cell_length_b 14.371480
_cell_length_c 8.647508
_cell_angle_alpha 90.000000
_cell_angle_beta 90.000000
_cell_angle_gamma 90.000000
_cell_volume 1963.860086
_symmetry_space_group_name_H-M "C M M 2"
_symmetry_group_IT_number 35
_symmetry_cell_setting 'orthorhombic'
loop_
_space_group_symop_operation_xyz
x,y,z
-x,-y,z
-x,y,z
x,-y,z
1/2+x,1/2+y,z
1/2-x,1/2-y,z
1/2-x,1/2+y,z
1/2+x,1/2-y,z
loop_
_atom_site_type_symbol
_atom_site_label
_atom_site_fract_x
_atom_site_fract_y
_atom_site_fract_z
Si Si1 0.838927 0.196098 0.251820
Si Si2 0.750000 0.750000 0.764177
Si Si3 0.786981 0.000000 0.397599
Si Si4 0.592645 0.792203 0.549257
Si Si5 0.158686 0.894251 0.944747
Si Si6 0.409290 0.500000 0.679838
Si Si7 0.906846 0.500000 0.452156
O O1 0.750000 0.250000 0.231888
O O2 0.892440 0.255383 0.374234
O O3 0.821007 0.095911 0.328146
O O4 0.875266 0.169055 0.083824
O O5 0.669350 0.758903 0.654029
O O6 0.762108 0.839764 0.872437
O O7 0.826920 0.000000 0.571110
O O8 0.685617 0.000000 0.373736
O O9 0.500000 0.760979 0.600764
O O10 0.594458 0.904110 0.546427
O O11 0.179570 0.000000 0.999353
O O12 0.097799 0.914478 0.799841
O O13 0.500000 0.500000 0.596776
O O14 0.000000 0.500000 0.369312
#
# Coordination Sequence:
#
# PCOD9349457 Si02
#       7
#     8   4   4   8   8   4   4
#     4  12  22  40  64  94 128 172 216 263 326 389
#     4  12  22  42  70  92 128 170 218 266 330 384
#     4  12  21  39  69  90 124 162 215 274 319 384
#     4  11  24  40  65  98 129 165 220 275 322 383
#     4  10  24  40  63  93 127 176 210 261 324 389
#     4  10  23  42  63  92 130 168 211 264 323 386
#     4  10  20  37  60  90 124 156 200 270 322 362
#
# _framework density 20.368051000000001
#
# number of rings (size 3 to 8) (size 9 to 14) (size 15 to 20)
#    0.600    0.400    5.000    2.400    1.400    4.000 
#    0.000    1.000    0.000    1.200    0.000    4.200 
#    0.000    0.000    0.000    0.000    0.000    0.000 
#
# Total GULP energy -111419.200737 kJ/mol
# GULP energy per Si atom -5570.960037 kJ/mol
# Density = 2.032169 g / cm^3
# Si number density = 20.368051 Si / 1000 Ang^3
#
#
#
# Elastic Constant Matrix: (Units=GPa)
#
#
# Indices 1 2 3 4 5 6 
#
# 1 102.1516 22.8020 22.5138 0.0000 0.0000 0.0000
# 2 22.8020 117.5335 36.0541 0.0000 0.0000 0.0000
# 3 22.5138 36.0541 83.2985 0.0000 0.0000 0.0000
# 4 0.0000 0.0000 0.0000 24.8567 0.0000 0.0000
# 5 0.0000 0.0000 0.0000 0.0000 5.1938 0.0000
# 6 0.0000 0.0000 0.0000 0.0000 0.0000 -5.4948
#
#
#
# Elastic Compliance Matrix: (Units=1/GPa)
#
#
# Indices 1 2 3 4 5 6 
#
# 1 0.010594 -0.001357 -0.002276 0.000000 0.000000 0.000000
# 2 -0.001357 0.009985 -0.003955 0.000000 0.000000 0.000000
# 3 -0.002276 -0.003955 0.014332 0.000000 0.000000 0.000000
# 4 0.000000 0.000000 0.000000 0.040231 0.000000 0.000000
# 5 0.000000 0.000000 0.000000 0.000000 0.192538 0.000000
# 6 0.000000 0.000000 0.000000 0.000000 0.000000 -0.181990
#
#
# Mechanical properties :
#
#
# Convention : Reuss Voigt Hill
#
# Bulk Modulus (GPa) = 50.67210 51.74706 51.20958
# Shear Modulus (GPa) = 46.53625 19.68538 33.11082
#
# Velocity S-wave (km/s) = 4.78511 3.11220 4.03628
# Velocity P-wave (km/s) = 7.44728 6.19480 6.84973
#
# Compressibility (1/GPa) = 0.01973473
#
# Stress axis : x y z
#
# Youngs Moduli (GPa) = 94.39392 100.15341 69.77425
#
# Poissons Ratio (x) = 0.13592 0.15880
# Poissons Ratio (y) = 0.12810 0.27595
# Poissons Ratio (z) = 0.21483 0.39609
#
# Static dielectric constant tensor:
#      x y z
#    x 1.735330 0.000000 0.000000 
#    y 0.000000 1.752170 0.000000 
#    z 0.000000 0.000000 1.751670 
# 
# From -- ./inp_files/7065.got.cif
#   From: 2010.05.17/outbox.cif.g08.bks.cpg/sg35_4_cif.got.tgz:7065.got - 2010.06.03 17:29:28.
