data_PCOD9349653
_publ_section_title
;
Structure prediction by ZEFSAII (Michael W. Deem and Ramdas Pophale) SiO2 
 PCOD9349653
Probable space group: C M M 2
;
_chemical_formula_sum "Si O2"
_cell_formula_units_Z 48
_cell_length_a 35.711190
_cell_length_b 7.858276
_cell_length_c 8.271695
_cell_angle_alpha 90.000000
_cell_angle_beta 90.000000
_cell_angle_gamma 90.000000
_cell_volume 2321.272428
_symmetry_space_group_name_H-M "C M M 2"
_symmetry_group_IT_number 35
_symmetry_cell_setting 'orthorhombic'
loop_
_space_group_symop_operation_xyz
x,y,z
-x,-y,z
-x,y,z
x,-y,z
1/2+x,1/2+y,z
1/2-x,1/2-y,z
1/2-x,1/2+y,z
1/2+x,1/2-y,z
loop_
_atom_site_type_symbol
_atom_site_label
_atom_site_fract_x
_atom_site_fract_y
_atom_site_fract_z
Si Si1 0.500000 0.707713 0.385190
Si Si2 0.418859 0.810577 0.864358
Si Si3 0.000000 0.797709 0.743852
Si Si4 0.839355 0.206185 0.254914
Si Si5 0.077828 0.205869 0.224656
Si Si6 0.206466 0.205767 0.566715
Si Si7 0.837476 0.801949 0.880682
O O1 0.500000 0.500000 0.386172
O O2 0.500000 0.774460 0.564998
O O3 0.539110 0.757159 0.305845
O O4 0.460245 0.750942 0.818285
O O5 0.381053 0.708427 0.825346
O O6 0.413293 0.000000 0.801935
O O7 0.419761 0.801492 0.056868
O O8 0.000000 0.000000 0.738987
O O9 0.882408 0.240543 0.308098
O O10 0.812419 0.267754 0.398435
O O11 0.835922 0.000000 0.246511
O O12 0.833813 0.267258 0.066912
O O13 0.076403 0.000000 0.195687
O O14 0.250000 0.250000 0.568127
O O15 0.186959 0.270972 0.732771
O O16 0.202068 0.000000 0.566756
O O17 0.827307 0.000000 0.894913
#
# Coordination Sequence:
#
# PCOD9349653 Si02
#       7
#     4   8   4   8   8   8   8
#     4   9  19  31  54  84 104 135 188 237 266 310
#     4  11  22  36  54  80 113 147 183 230 283 329
#     4  11  22  35  54  80 110 149 192 229 270 326
#     4   8  16  32  55  80 107 139 180 226 271 326
#     4   9  17  34  57  80 105 139 187 233 273 325
#     4  10  21  36  57  83 112 144 181 227 281 338
#     4   9  19  37  60  81 107 148 191 230 275 331
#
# _framework density 20.678315000000001
#
# number of rings (size 3 to 8) (size 9 to 14) (size 15 to 20)
#    0.000    2.500    0.000    3.250    2.333    2.000 
#    0.000    5.000    0.000    0.000    0.000    0.000 
#    0.000    0.000    0.000    0.000    0.000    0.000 
#
# Total GULP energy -133662.889383 kJ/mol
# GULP energy per Si atom -5569.287058 kJ/mol
# Density = 2.063125 g / cm^3
# Si number density = 20.678315 Si / 1000 Ang^3
#
#
#
# Elastic Constant Matrix: (Units=GPa)
#
#
# Indices 1 2 3 4 5 6 
#
# 1 178.4495 -0.5281 101.5438 0.0000 0.0000 0.0000
# 2 -0.5281 21.5978 7.1911 0.0000 0.0000 0.0000
# 3 101.5438 7.1911 114.4190 0.0000 0.0000 0.0000
# 4 0.0000 0.0000 0.0000 -80.8982 0.0000 0.0000
# 5 0.0000 0.0000 0.0000 0.0000 34.5895 0.0000
# 6 0.0000 0.0000 0.0000 0.0000 0.0000 17.2572
#
#
#
# Elastic Compliance Matrix: (Units=1/GPa)
#
#
# Indices 1 2 3 4 5 6 
#
# 1 0.011618 0.003796 -0.010549 0.000000 0.000000 0.000000
# 2 0.003796 0.048531 -0.006419 0.000000 0.000000 0.000000
# 3 -0.010549 -0.006419 0.018505 0.000000 0.000000 0.000000
# 4 0.000000 0.000000 0.000000 -0.012361 0.000000 0.000000
# 5 0.000000 0.000000 0.000000 0.000000 0.028911 0.000000
# 6 0.000000 0.000000 0.000000 0.000000 0.000000 0.057947
#
#
# Mechanical properties :
#
#
# Convention : Reuss Voigt Hill
#
# Bulk Modulus (GPa) = 19.11671 58.98664 39.05168
# Shear Modulus (GPa) = 25.38954 7.94033 16.66493
#
# Velocity S-wave (km/s) = 3.50785 1.96170 2.84194
# Velocity P-wave (km/s) = 5.06671 5.80679 5.44933
#
# Compressibility (1/GPa) = 0.05231024
#
# Stress axis : x y z
#
# Youngs Moduli (GPa) = 86.07410 20.60533 54.03839
#
# Poissons Ratio (x) = -0.07823 0.57006
# Poissons Ratio (y) = -0.32678 0.34689
# Poissons Ratio (z) = 0.90801 0.13227
#
# Static dielectric constant tensor:
#      x y z
#    x 1.900020 0.000000 0.000000 
#    y 0.000000 1.784030 0.000000 
#    z 0.000000 0.000000 1.753550 
# 
# From -- ./inp_files/5421.got.cif
#   From: 2010.05.17/outbox.cif.g08.bks.cpg/sg35_3_cif.got.tgz:5421.got - 2010.06.03 17:29:28.
