data_PCOD9349320
_publ_section_title
;
Structure prediction by ZEFSAII (Michael W. Deem and Ramdas Pophale) SiO2 
 PCOD9349320
Probable space group: C M M 2
;
_chemical_formula_sum "Si O2"
_cell_formula_units_Z 58
_cell_length_a 31.084672
_cell_length_b 7.989820
_cell_length_c 12.867352
_cell_angle_alpha 90.000000
_cell_angle_beta 90.000000
_cell_angle_gamma 90.000000
_cell_volume 3195.747561
_symmetry_space_group_name_H-M "C M M 2"
_symmetry_group_IT_number 35
_symmetry_cell_setting 'orthorhombic'
loop_
_space_group_symop_operation_xyz
x,y,z
-x,-y,z
-x,y,z
x,-y,z
1/2+x,1/2+y,z
1/2-x,1/2-y,z
1/2-x,1/2+y,z
1/2+x,1/2-y,z
loop_
_atom_site_type_symbol
_atom_site_label
_atom_site_fract_x
_atom_site_fract_y
_atom_site_fract_z
Si Si1 0.952126 0.699652 0.382860
Si Si2 0.860619 0.798892 0.307000
Si Si3 0.200874 0.200700 0.122967
Si Si4 0.154053 0.804396 0.686926
Si Si5 0.000000 0.000000 0.689515
Si Si6 0.061469 0.695235 0.628251
Si Si7 0.797912 0.200697 0.487380
Si Si8 0.700793 0.196291 0.886711
O O1 0.953686 0.500000 0.372450
O O2 0.910875 0.758165 0.318021
O O3 0.943905 0.734627 0.505057
O O4 0.000000 0.766657 0.355990
O O5 0.834315 0.738435 0.206133
O O6 0.834264 0.736038 0.407819
O O7 0.857546 0.000000 0.306515
O O8 0.250000 0.250000 0.151084
O O9 0.199790 0.000000 0.120047
O O10 0.191481 0.264436 0.007029
O O11 0.110764 0.706530 0.662329
O O12 0.190111 0.746017 0.604167
O O13 0.170510 0.784527 0.803548
O O14 0.145666 0.000000 0.665794
O O15 0.963346 0.152461 0.683952
O O16 0.047474 0.500000 0.643490
O O17 0.750000 0.250000 0.456653
O O18 0.799166 0.000000 0.484174
O O19 0.750000 0.250000 0.868458
O O20 0.697036 0.000000 0.869447
#
# Coordination Sequence:
#
# PCOD9349320 Si02
#       8
#     8   8   8   8   2   8   8   8
#     4  10  21  35  53  81 112 146 190 237 282 343
#     4  10  21  35  54  80 111 146 188 230 284 350
#     4  10  20  36  57  82 110 145 191 239 285 345
#     4  11  21  36  56  82 116 154 192 236 292 348
#     4  12  22  36  60  82 116 162 194 248 304 330
#     4  11  22  36  56  86 117 154 199 240 293 356
#     4  10  21  33  49  75 112 152 187 221 276 347
#     4  11  22  37  57  81 111 149 195 246 289 341
#
# _framework density 18.149118000000001
#
# number of rings (size 3 to 8) (size 9 to 14) (size 15 to 20)
#    0.000    1.517    2.759    3.931    0.966    4.138 
#    0.000    0.000    0.000    0.000    1.793    0.000 
#    0.000    0.000    0.000    0.000    0.000    0.000 
#
# Total GULP energy -161550.746658 kJ/mol
# GULP energy per Si atom -5570.715402 kJ/mol
# Density = 1.810781 g / cm^3
# Si number density = 18.149118 Si / 1000 Ang^3
#
#
#
# Elastic Constant Matrix: (Units=GPa)
#
#
# Indices 1 2 3 4 5 6 
#
# 1 143.6507 10.1086 58.9584 0.0000 0.0000 0.0000
# 2 10.1086 61.2950 4.3474 0.0000 0.0000 0.0000
# 3 58.9584 4.3474 68.3623 0.0000 0.0000 0.0000
# 4 0.0000 0.0000 0.0000 7.8341 0.0000 0.0000
# 5 0.0000 0.0000 0.0000 0.0000 -40.9834 0.0000
# 6 0.0000 0.0000 0.0000 0.0000 0.0000 25.9441
#
#
#
# Elastic Compliance Matrix: (Units=1/GPa)
#
#
# Indices 1 2 3 4 5 6 
#
# 1 0.010853 -0.001131 -0.009288 0.000000 0.000000 0.000000
# 2 -0.001131 0.016506 -0.000074 0.000000 0.000000 0.000000
# 3 -0.009288 -0.000074 0.022643 0.000000 0.000000 0.000000
# 4 0.000000 0.000000 0.000000 0.127646 0.000000 0.000000
# 5 0.000000 0.000000 0.000000 0.000000 -0.024400 0.000000
# 6 0.000000 0.000000 0.000000 0.000000 0.000000 0.038544
#
#
# Mechanical properties :
#
#
# Convention : Reuss Voigt Hill
#
# Bulk Modulus (GPa) = 34.46416 46.68185 40.57301
# Shear Modulus (GPa) = 22.47675 11.88520 17.18097
#
# Velocity S-wave (km/s) = 3.52298 2.56181 3.08012
# Velocity P-wave (km/s) = 5.96483 5.87602 5.92059
#
# Compressibility (1/GPa) = 0.02901565
#
# Stress axis : x y z
#
# Youngs Moduli (GPa) = 92.13976 60.58273 44.16337
#
# Poissons Ratio (x) = 0.06852 0.41020
# Poissons Ratio (y) = 0.10422 0.00328
# Poissons Ratio (z) = 0.85581 0.00449
#
# Static dielectric constant tensor:
#      x y z
#    x 1.629930 0.000000 0.000000 
#    y 0.000000 1.644640 0.000000 
#    z 0.000000 0.000000 1.617240 
# 
# From -- ./inp_files/14500.got.cif
#   From: 2010.05.17/outbox.cif.g08.bks.cpg/sg35_8_cif.got.tgz:14500.got - 2010.06.03 17:29:28.
