data_PCOD9349439
_publ_section_title
;
Structure prediction by ZEFSAII (Michael W. Deem and Ramdas Pophale) SiO2 
 PCOD9349439
Probable space group: C M M 2
;
_chemical_formula_sum "Si O2"
_cell_formula_units_Z 58
_cell_length_a 7.303895
_cell_length_b 27.106975
_cell_length_c 11.935796
_cell_angle_alpha 90.000000
_cell_angle_beta 90.000000
_cell_angle_gamma 90.000000
_cell_volume 2363.126465
_symmetry_space_group_name_H-M "C M M 2"
_symmetry_group_IT_number 35
_symmetry_cell_setting 'orthorhombic'
loop_
_space_group_symop_operation_xyz
x,y,z
-x,-y,z
-x,y,z
x,-y,z
1/2+x,1/2+y,z
1/2-x,1/2-y,z
1/2-x,1/2+y,z
1/2+x,1/2-y,z
loop_
_atom_site_type_symbol
_atom_site_label
_atom_site_fract_x
_atom_site_fract_y
_atom_site_fract_z
Si Si1 0.776246 0.591464 0.902160
Si Si2 0.289812 0.162013 0.239246
Si Si3 0.282249 0.195865 0.013324
Si Si4 0.701308 0.132991 0.668192
Si Si5 0.780457 0.946409 0.492146
Si Si6 0.718246 0.192967 0.476915
Si Si7 0.500000 0.500000 0.950500
Si Si8 0.220584 0.053298 0.229673
O O1 0.724845 0.601663 0.771523
O O2 0.660643 0.544711 0.946058
O O3 0.000000 0.583863 0.912446
O O4 0.723893 0.645082 0.954449
O O5 0.500000 0.177213 0.254388
O O6 0.206440 0.194489 0.140613
O O7 0.210023 0.165318 0.364724
O O8 0.287752 0.106170 0.190961
O O9 0.500000 0.191198 0.020911
O O10 0.250000 0.250000 0.961584
O O11 0.500000 0.149555 0.708231
O O12 0.691634 0.094927 0.565433
O O13 0.793682 0.177341 0.599186
O O14 0.731209 0.946182 0.361636
O O15 0.000000 0.940786 0.497362
O O16 0.732823 0.000000 0.538381
O O17 0.500000 0.184527 0.485732
O O18 0.750000 0.250000 0.455628
O O19 0.000000 0.053424 0.218757
O O20 0.282640 0.000000 0.184663
#
# Coordination Sequence:
#
# PCOD9349439 Si02
#       8
#     8   8   8   8   8   8   2   8
#     4  10  25  47  69 104 143 178 229 291 348 413
#     4  10  20  37  59  87 122 163 213 266 333 401
#     4  10  23  44  70  96 130 172 225 292 349 410
#     4  10  21  37  57  84 124 163 201 260 322 382
#     4   9  18  30  50  78 114 154 199 245 295 364
#     4  10  21  36  55  85 121 162 212 264 329 401
#     4  12  26  48  80 106 138 188 238 282 356 436
#     4   9  18  33  50  80 121 162 204 260 317 378
#
# _framework density 24.543758
#
# number of rings (size 3 to 8) (size 9 to 14) (size 15 to 20)
#    0.000    2.207    1.379    1.448    2.897    2.759 
#    1.241    1.379    0.000    0.000    0.000    0.000 
#    0.000    0.000    0.000    0.000    0.000    0.000 
#
# Total GULP energy -161495.353654 kJ/mol
# GULP energy per Si atom -5568.805298 kJ/mol
# Density = 2.448790 g / cm^3
# Si number density = 24.543758 Si / 1000 Ang^3
#
#
#
# Elastic Constant Matrix: (Units=GPa)
#
#
# Indices 1 2 3 4 5 6 
#
# 1 121.6495 18.5162 12.3336 0.0000 0.0000 0.0000
# 2 18.5162 181.9988 31.2235 0.0000 0.0000 0.0000
# 3 12.3336 31.2235 63.4457 0.0000 0.0000 0.0000
# 4 0.0000 0.0000 0.0000 22.8609 0.0000 0.0000
# 5 0.0000 0.0000 0.0000 0.0000 -6.2301 0.0000
# 6 0.0000 0.0000 0.0000 0.0000 0.0000 36.1815
#
#
#
# Elastic Compliance Matrix: (Units=1/GPa)
#
#
# Indices 1 2 3 4 5 6 
#
# 1 0.008451 -0.000631 -0.001332 0.000000 0.000000 0.000000
# 2 -0.000631 0.006048 -0.002854 0.000000 0.000000 0.000000
# 3 -0.001332 -0.002854 0.017425 0.000000 0.000000 0.000000
# 4 0.000000 0.000000 0.000000 0.043743 0.000000 0.000000
# 5 0.000000 0.000000 0.000000 0.000000 -0.160511 0.000000
# 6 0.000000 0.000000 0.000000 0.000000 0.000000 0.027638
#
#
# Mechanical properties :
#
#
# Convention : Reuss Voigt Hill
#
# Bulk Modulus (GPa) = 44.86313 54.58231 49.72272
# Shear Modulus (GPa) = -124.56377 30.89717 -46.83330
#
# Velocity S-wave (km/s) = -7.13175 3.55189 -4.37298
# Velocity P-wave (km/s) = 7.03543 6.25366 2.27915
#
# Compressibility (1/GPa) = 0.02229002
#
# Stress axis : x y z
#
# Youngs Moduli (GPa) = 118.32220 165.33371 57.38889
#
# Poissons Ratio (x) = 0.10437 0.07646
# Poissons Ratio (y) = 0.07469 0.16378
# Poissons Ratio (z) = 0.15764 0.47184
#
# Static dielectric constant tensor:
#      x y z
#    x 1.973030 0.000000 0.000000 
#    y 0.000000 2.013010 0.000000 
#    z 0.000000 0.000000 2.016570 
# 
# From -- ./inp_files/11606.got.cif
#   From: 2010.05.17/outbox.cif.g08.bks.cpg/sg35_6_cif.got.tgz:11606.got - 2010.06.03 17:29:28.
