data_PCOD9349232
_publ_section_title
;
Structure prediction by ZEFSAII (Michael W. Deem and Ramdas Pophale) SiO2 
 PCOD9349232
Probable space group: C M M 2
;
_chemical_formula_sum "Si O2"
_cell_formula_units_Z 48
_cell_length_a 16.846580
_cell_length_b 10.847706
_cell_length_c 14.357564
_cell_angle_alpha 90.000000
_cell_angle_beta 90.000000
_cell_angle_gamma 90.000000
_cell_volume 2623.798115
_symmetry_space_group_name_H-M "C M M 2"
_symmetry_group_IT_number 35
_symmetry_cell_setting 'orthorhombic'
loop_
_space_group_symop_operation_xyz
x,y,z
-x,-y,z
-x,y,z
x,-y,z
1/2+x,1/2+y,z
1/2-x,1/2-y,z
1/2-x,1/2+y,z
1/2+x,1/2-y,z
loop_
_atom_site_type_symbol
_atom_site_label
_atom_site_fract_x
_atom_site_fract_y
_atom_site_fract_z
Si Si1 0.656612 0.500000 0.767330
Si Si2 0.093586 0.500000 0.484871
Si Si3 0.588376 0.643581 0.278882
Si Si4 0.309334 0.357196 0.108177
Si Si5 0.655592 0.255101 0.459158
Si Si6 0.406522 0.500000 0.971103
Si Si7 0.406353 0.258638 0.668879
Si Si8 0.834929 0.500000 0.688826
O O1 0.645899 0.500000 0.877992
O O2 0.614880 0.622788 0.728965
O O3 0.745808 0.500000 0.726484
O O4 0.116525 0.623856 0.432961
O O5 0.149945 0.500000 0.576744
O O6 0.000000 0.500000 0.510364
O O7 0.500000 0.698143 0.271275
O O8 0.582113 0.500000 0.253933
O O9 0.652241 0.690511 0.204648
O O10 0.619553 0.653308 0.383927
O O11 0.276102 0.500000 0.119620
O O12 0.250000 0.250000 0.076156
O O13 0.379609 0.383640 0.034097
O O14 0.750000 0.250000 0.452661
O O15 0.631539 0.278231 0.566230
O O16 0.500000 0.500000 0.951189
O O17 0.500000 0.246282 0.656057
O O18 0.374289 0.131325 0.713802
#
# Coordination Sequence:
#
# PCOD9349232 Si02
#       8
#     4   4   8   8   8   4   8   4
#     4  12  24  38  59  92 117 147 199 258 292 341
#     4  10  20  38  55  75 116 168 203 229 292 355
#     4  10  20  35  57  85 117 156 196 235 290 351
#     4   9  20  39  66  92 117 148 195 240 292 353
#     4  11  22  34  55  81 117 157 200 246 284 335
#     4  10  22  42  66  86 120 160 188 231 308 377
#     4  11  22  38  58  84 121 162 203 244 294 349
#     4  10  20  38  58  79 115 159 198 236 294 351
#
# _framework density 18.294089
#
# number of rings (size 3 to 8) (size 9 to 14) (size 15 to 20)
#    0.500    1.167    0.000    7.500    2.333    1.333 
#    1.500    0.000    0.000    1.500    0.000    0.000 
#    0.000    0.000    0.000    0.000    0.000    0.000 
#
# Total GULP energy -133692.797716 kJ/mol
# GULP energy per Si atom -5570.533238 kJ/mol
# Density = 1.825245 g / cm^3
# Si number density = 18.294089 Si / 1000 Ang^3
#
#
#
# Elastic Constant Matrix: (Units=GPa)
#
#
# Indices 1 2 3 4 5 6 
#
# 1 115.3102 19.2503 15.8539 0.0000 0.0000 0.0000
# 2 19.2503 81.4941 13.7439 0.0000 0.0000 0.0000
# 3 15.8539 13.7439 48.8202 0.0000 0.0000 0.0000
# 4 0.0000 0.0000 0.0000 1.2867 0.0000 0.0000
# 5 0.0000 0.0000 0.0000 0.0000 14.2627 0.0000
# 6 0.0000 0.0000 0.0000 0.0000 0.0000 30.2293
#
#
#
# Elastic Compliance Matrix: (Units=1/GPa)
#
#
# Indices 1 2 3 4 5 6 
#
# 1 0.009316 -0.001775 -0.002526 0.000000 0.000000 0.000000
# 2 -0.001775 0.013221 -0.003146 0.000000 0.000000 0.000000
# 3 -0.002526 -0.003146 0.022189 0.000000 0.000000 0.000000
# 4 0.000000 0.000000 0.000000 0.777198 0.000000 0.000000
# 5 0.000000 0.000000 0.000000 0.000000 0.070113 0.000000
# 6 0.000000 0.000000 0.000000 0.000000 0.000000 0.033080
#
#
# Mechanical properties :
#
#
# Convention : Reuss Voigt Hill
#
# Bulk Modulus (GPa) = 33.51912 38.14677 35.83294
# Shear Modulus (GPa) = 5.26342 22.27417 13.76880
#
# Velocity S-wave (km/s) = 1.69805 3.49314 2.74640
# Velocity P-wave (km/s) = 4.71239 6.09644 5.44854
#
# Compressibility (1/GPa) = 0.02983372
#
# Stress axis : x y z
#
# Youngs Moduli (GPa) = 107.34491 75.64003 45.06729
#
# Poissons Ratio (x) = 0.13423 0.11382
# Poissons Ratio (y) = 0.19049 0.14176
# Poissons Ratio (z) = 0.27111 0.23793
#
# Static dielectric constant tensor:
#      x y z
#    x 1.644110 0.000000 0.000000 
#    y 0.000000 1.673830 0.000000 
#    z 0.000000 0.000000 1.609120 
# 
# From -- ./inp_files/16730.got.cif
#   From: 2010.05.17/outbox.cif.g08.bks.cpg/sg35_9_cif.got.tgz:16730.got - 2010.06.03 17:29:28.
