data_PCOD9349737
_publ_section_title
;
Structure prediction by ZEFSAII (Michael W. Deem and Ramdas Pophale) SiO2 
 PCOD9349737
Probable space group: C M M 2
;
_chemical_formula_sum "Si O2"
_cell_formula_units_Z 48
_cell_length_a 17.466918
_cell_length_b 13.979145
_cell_length_c 10.113547
_cell_angle_alpha 90.000000
_cell_angle_beta 90.000000
_cell_angle_gamma 90.000000
_cell_volume 2469.450858
_symmetry_space_group_name_H-M "C M M 2"
_symmetry_group_IT_number 35
_symmetry_cell_setting 'orthorhombic'
loop_
_space_group_symop_operation_xyz
x,y,z
-x,-y,z
-x,y,z
x,-y,z
1/2+x,1/2+y,z
1/2-x,1/2-y,z
1/2-x,1/2+y,z
1/2+x,1/2-y,z
loop_
_atom_site_type_symbol
_atom_site_label
_atom_site_fract_x
_atom_site_fract_y
_atom_site_fract_z
Si Si1 0.911234 0.110016 0.825330
Si Si2 0.813087 0.111288 0.557563
Si Si3 0.408801 0.109408 0.224700
Si Si4 0.085115 0.611201 0.768137
Si Si5 0.661413 0.774373 0.988633
Si Si6 0.642495 0.813957 0.504876
O O1 0.852601 0.119753 0.702013
O O2 0.885761 0.182419 0.938793
O O3 0.000000 0.128414 0.785371
O O4 0.907000 0.000000 0.869382
O O5 0.723716 0.140135 0.551391
O O6 0.850195 0.200228 0.478156
O O7 0.822835 0.000000 0.515517
O O8 0.500000 0.116925 0.211138
O O9 0.385846 0.133660 0.374439
O O10 0.386422 0.000000 0.193661
O O11 0.368930 0.181168 0.123709
O O12 0.096937 0.500000 0.738869
O O13 0.146134 0.649348 0.871889
O O14 0.089787 0.668080 0.631582
O O15 0.000000 0.622561 0.827466
O O16 0.750000 0.750000 0.998194
#
# Coordination Sequence:
#
# PCOD9349737 Si02
#       6
#     8   8   8   8   8   8
#     4  10  21  39  63  92 127 166 208 256 311 372
#     4  10  21  37  62  94 131 167 205 255 315 377
#     4  11  25  45  67  92 127 169 211 263 325 381
#     4  11  22  38  64  96 126 160 211 269 320 377
#     4  12  25  40  62  92 124 168 210 262 317 377
#     4  11  22  38  65  97 128 165 210 261 318 378
#
# _framework density 19.437519000000002
#
# number of rings (size 3 to 8) (size 9 to 14) (size 15 to 20)
#    0.000    1.167    1.667    5.000    2.333    6.000 
#    0.000    0.833    0.000    1.000    0.000    0.000 
#    0.000    0.000    0.000    0.000    0.000    0.000 
#
# Total GULP energy -134051.184603 kJ/mol
# GULP energy per Si atom -5585.466025 kJ/mol
# Density = 1.939328 g / cm^3
# Si number density = 19.437519 Si / 1000 Ang^3
#
#
#
# Elastic Constant Matrix: (Units=GPa)
#
#
# Indices 1 2 3 4 5 6 
#
# 1 89.7679 36.8485 28.6093 0.0000 0.0000 0.0000
# 2 36.8485 129.6618 11.2974 0.0000 0.0000 0.0000
# 3 28.6093 11.2974 69.3788 0.0000 0.0000 0.0000
# 4 0.0000 0.0000 0.0000 33.0738 0.0000 0.0000
# 5 0.0000 0.0000 0.0000 0.0000 39.3719 0.0000
# 6 0.0000 0.0000 0.0000 0.0000 0.0000 42.5092
#
#
#
# Elastic Compliance Matrix: (Units=1/GPa)
#
#
# Indices 1 2 3 4 5 6 
#
# 1 0.014314 -0.003605 -0.005315 0.000000 0.000000 0.000000
# 2 -0.003605 0.008731 0.000065 0.000000 0.000000 0.000000
# 3 -0.005315 0.000065 0.016595 0.000000 0.000000 0.000000
# 4 0.000000 0.000000 0.000000 0.030235 0.000000 0.000000
# 5 0.000000 0.000000 0.000000 0.000000 0.025399 0.000000
# 6 0.000000 0.000000 0.000000 0.000000 0.000000 0.023524
#
#
# Mechanical properties :
#
#
# Convention : Reuss Voigt Hill
#
# Bulk Modulus (GPa) = 45.60194 49.14657 47.37426
# Shear Modulus (GPa) = 34.76604 37.12787 35.94695
#
# Velocity S-wave (km/s) = 4.23378 4.37523 4.30508
# Velocity P-wave (km/s) = 6.88560 7.13181 7.00979
#
# Compressibility (1/GPa) = 0.02192889
#
# Stress axis : x y z
#
# Youngs Moduli (GPa) = 69.86405 114.53271 60.25926
#
# Poissons Ratio (x) = 0.41285 0.32030
# Poissons Ratio (y) = 0.25183 -0.00390
# Poissons Ratio (z) = 0.37136 -0.00741
#
# Static dielectric constant tensor:
#      x y z
#    x 1.699120 0.000000 0.000000 
#    y 0.000000 1.712690 0.000000 
#    z 0.000000 0.000000 1.631640 
# 
# From -- ./inp_files/8371.got.cif
#   From: 2010.05.17/outbox.cif.g08.bks.cpg/sg35_5_cif.got.tgz:8371.got - 2010.06.03 17:29:28.
