data_PCOD9349989
_publ_section_title
;
Structure prediction by ZEFSAII (Michael W. Deem and Ramdas Pophale) SiO2 
 PCOD9349989
Probable space group: C M M 2
;
_chemical_formula_sum "Si O2"
_cell_formula_units_Z 34
_cell_length_a 15.266026
_cell_length_b 11.016580
_cell_length_c 10.954499
_cell_angle_alpha 90.000000
_cell_angle_beta 90.000000
_cell_angle_gamma 90.000000
_cell_volume 1842.321033
_symmetry_space_group_name_H-M "C M M 2"
_symmetry_group_IT_number 35
_symmetry_cell_setting 'orthorhombic'
loop_
_space_group_symop_operation_xyz
x,y,z
-x,-y,z
-x,y,z
x,-y,z
1/2+x,1/2+y,z
1/2-x,1/2-y,z
1/2-x,1/2+y,z
1/2+x,1/2-y,z
loop_
_atom_site_type_symbol
_atom_site_label
_atom_site_fract_x
_atom_site_fract_y
_atom_site_fract_z
Si Si1 0.000000 0.500000 0.113030
Si Si2 0.605911 0.000000 0.545172
Si Si3 0.750000 0.750000 0.313405
Si Si4 0.824583 0.500000 0.268681
Si Si5 0.850489 0.731826 0.711826
Si Si6 0.900519 0.141533 0.479674
Si Si7 0.500000 0.859787 0.876604
O O1 0.085862 0.500000 0.194191
O O2 0.000000 0.384762 0.020598
O O3 0.651930 0.000000 0.413305
O O4 0.636591 0.116124 0.622533
O O5 0.500000 0.000000 0.531623
O O6 0.773706 0.625894 0.243278
O O7 0.831937 0.784687 0.399260
O O8 0.750000 0.750000 0.747021
O O9 0.879901 0.840229 0.622594
O O10 0.915295 0.707625 0.823854
O O11 0.000000 0.183649 0.457567
O O12 0.893502 0.000000 0.448526
O O13 0.500000 0.000000 0.826219
#
# Coordination Sequence:
#
# PCOD9349989 Si02
#       7
#     2   4   4   4   8   8   4
#     4  10  26  48  70  84 114 164 254 280 302 358
#     4  12  19  34  58  92 125 161 204 248 318 383
#     4  12  24  38  62 100 138 168 212 254 330 402
#     4  12  24  41  65  95 127 174 213 279 316 379
#     4  12  21  33  63  91 128 159 204 261 323 390
#     4  11  22  34  52  92 147 170 193 243 323 413
#     4  10  22  45  61  85 115 164 221 280 306 365
#
# _framework density 18.454981
#
# number of rings (size 3 to 8) (size 9 to 14) (size 15 to 20)
#    0.353    0.235    8.824    0.000    3.294    0.000 
#    2.118    0.000    0.000    0.000    3.059    0.000 
#    0.000    0.000    0.000    0.000    0.000    0.000 
#
# Total GULP energy -94920.446805 kJ/mol
# GULP energy per Si atom -5583.555694 kJ/mol
# Density = 1.841298 g / cm^3
# Si number density = 18.454981 Si / 1000 Ang^3
#
#
#
# Elastic Constant Matrix: (Units=GPa)
#
#
# Indices 1 2 3 4 5 6 
#
# 1 155.0165 45.1900 19.9673 0.0000 0.0000 0.0000
# 2 45.1900 94.2829 14.2432 0.0000 0.0000 0.0000
# 3 19.9673 14.2432 53.1499 0.0000 0.0000 0.0000
# 4 0.0000 0.0000 0.0000 15.3890 0.0000 0.0000
# 5 0.0000 0.0000 0.0000 0.0000 4.3421 0.0000
# 6 0.0000 0.0000 0.0000 0.0000 0.0000 29.7648
#
#
#
# Elastic Compliance Matrix: (Units=1/GPa)
#
#
# Indices 1 2 3 4 5 6 
#
# 1 0.007694 -0.003388 -0.001982 0.000000 0.000000 0.000000
# 2 -0.003388 0.012546 -0.002089 0.000000 0.000000 0.000000
# 3 -0.001982 -0.002089 0.020119 0.000000 0.000000 0.000000
# 4 0.000000 0.000000 0.000000 0.064982 0.000000 0.000000
# 5 0.000000 0.000000 0.000000 0.000000 0.230302 0.000000
# 6 0.000000 0.000000 0.000000 0.000000 0.000000 0.033597
#
#
# Mechanical properties :
#
#
# Convention : Reuss Voigt Hill
#
# Bulk Modulus (GPa) = 39.30900 51.25002 45.27951
# Shear Modulus (GPa) = 12.73432 24.76911 18.75171
#
# Velocity S-wave (km/s) = 2.62967 3.66749 3.19106
# Velocity P-wave (km/s) = 5.52869 6.76495 6.17782
#
# Compressibility (1/GPa) = 0.02543947
#
# Stress axis : x y z
#
# Youngs Moduli (GPa) = 129.97090 79.70667 49.70345
#
# Poissons Ratio (x) = 0.27007 0.09854
# Poissons Ratio (y) = 0.44038 0.10384
# Poissons Ratio (z) = 0.25767 0.16652
#
# Static dielectric constant tensor:
#      x y z
#    x 1.638890 0.000000 0.000000 
#    y 0.000000 1.702090 0.000000 
#    z 0.000000 0.000000 1.604710 
# 
# From -- ./inp_files/12140.got.cif
#   From: 2010.05.17/outbox.cif.g08.bks.cpg/sg35_7_cif.got.tgz:12140.got - 2010.06.03 17:29:28.
