data_PCOD9349546
_publ_section_title
;
Structure prediction by ZEFSAII (Michael W. Deem and Ramdas Pophale) SiO2 
 PCOD9349546
Probable space group: C M M 2
;
_chemical_formula_sum "Si O2"
_cell_formula_units_Z 56
_cell_length_a 21.086914
_cell_length_b 22.055769
_cell_length_c 5.371119
_cell_angle_alpha 90.000000
_cell_angle_beta 90.000000
_cell_angle_gamma 90.000000
_cell_volume 2498.043553
_symmetry_space_group_name_H-M "C M M 2"
_symmetry_group_IT_number 35
_symmetry_cell_setting 'orthorhombic'
loop_
_space_group_symop_operation_xyz
x,y,z
-x,-y,z
-x,y,z
x,-y,z
1/2+x,1/2+y,z
1/2-x,1/2-y,z
1/2-x,1/2+y,z
1/2+x,1/2-y,z
loop_
_atom_site_type_symbol
_atom_site_label
_atom_site_fract_x
_atom_site_fract_y
_atom_site_fract_z
Si Si1 0.804202 0.632767 0.647960
Si Si2 0.607247 0.837103 0.251900
Si Si3 0.361700 0.359950 0.169778
Si Si4 0.570284 0.072078 0.880914
Si Si5 0.932050 0.221407 0.508657
Si Si6 0.329764 0.747523 0.889249
Si Si7 0.328013 0.571750 0.678824
O O1 0.823991 0.645454 0.363291
O O2 0.869100 0.601112 0.743821
O O3 0.788280 0.699506 0.761427
O O4 0.745878 0.589985 0.706304
O O5 0.571716 0.792657 0.440368
O O6 0.573509 0.896397 0.152050
O O7 0.619586 0.791618 0.024712
O O8 0.422280 0.321941 0.269601
O O9 0.344471 0.400771 0.407235
O O10 0.314477 0.303462 0.095901
O O11 0.363912 0.400484 0.920750
O O12 0.500000 0.085394 0.775274
O O13 0.577387 0.000000 0.894163
O O14 0.869715 0.213460 0.676779
O O15 0.000000 0.208256 0.626548
O O16 0.336611 0.500000 0.676104
#
# Coordination Sequence:
#
# PCOD9349546 Si02
#       7
#     8   8   8   8   8   8   8
#     4  10  23  41  62  96 128 180 234 281 341 400
#     4   9  20  36  59  95 128 170 219 277 330 404
#     4  11  24  47  67 105 135 178 224 285 347 406
#     4  10  21  36  55  84 128 177 228 283 334 392
#     4  10  20  40  72 104 138 173 214 277 358 433
#     4   9  20  41  62 100 137 165 214 274 345 402
#     4  12  27  47  71  96 137 188 238 286 337 411
#
# _framework density 22.417542000000001
#
# number of rings (size 3 to 8) (size 9 to 14) (size 15 to 20)
#    0.000    1.857    1.429    1.286    4.000    9.714 
#    5.143    1.429    0.000    2.571    0.000    0.000 
#    0.000    0.000    0.000    0.000    0.000    0.000 
#
# Total GULP energy -155959.820367 kJ/mol
# GULP energy per Si atom -5569.993585 kJ/mol
# Density = 2.236652 g / cm^3
# Si number density = 22.417542 Si / 1000 Ang^3
#
#
#
# Elastic Constant Matrix: (Units=GPa)
#
#
# Indices 1 2 3 4 5 6 
#
# 1 40.6707 15.9614 11.2662 0.0000 0.0000 0.0000
# 2 15.9614 164.6353 51.1854 0.0000 0.0000 0.0000
# 3 11.2662 51.1854 103.9427 0.0000 0.0000 0.0000
# 4 0.0000 0.0000 0.0000 35.6168 0.0000 0.0000
# 5 0.0000 0.0000 0.0000 0.0000 17.1494 0.0000
# 6 0.0000 0.0000 0.0000 0.0000 0.0000 14.7351
#
#
#
# Elastic Compliance Matrix: (Units=1/GPa)
#
#
# Indices 1 2 3 4 5 6 
#
# 1 0.025859 -0.001931 -0.001852 0.000000 0.000000 0.000000
# 2 -0.001931 0.007316 -0.003394 0.000000 0.000000 0.000000
# 3 -0.001852 -0.003394 0.011492 0.000000 0.000000 0.000000
# 4 0.000000 0.000000 0.000000 0.028077 0.000000 0.000000
# 5 0.000000 0.000000 0.000000 0.000000 0.058311 0.000000
# 6 0.000000 0.000000 0.000000 0.000000 0.000000 0.067865
#
#
# Mechanical properties :
#
#
# Convention : Reuss Voigt Hill
#
# Bulk Modulus (GPa) = 32.98768 51.78607 42.38688
# Shear Modulus (GPa) = 22.38357 28.88931 25.63644
#
# Velocity S-wave (km/s) = 3.16331 3.59373 3.38537
# Velocity P-wave (km/s) = 5.29991 6.35379 5.85063
#
# Compressibility (1/GPa) = 0.03031435
#
# Stress axis : x y z
#
# Youngs Moduli (GPa) = 38.67182 136.68082 87.01340
#
# Poissons Ratio (x) = 0.26397 0.16113
# Poissons Ratio (y) = 0.07469 0.29528
# Poissons Ratio (z) = 0.07161 0.46383
#
# Static dielectric constant tensor:
#      x y z
#    x 2.046230 0.000000 0.000000 
#    y 0.000000 1.808610 0.000000 
#    z 0.000000 0.000000 1.951730 
# 
# From -- ./inp_files/3415.got.cif
#   From: 2010.05.17/outbox.cif.g08.bks.cpg/sg35_2_cif.got.tgz:3415.got - 2010.06.03 17:29:28.
