data_PCOD9349115
_publ_section_title
;
Structure prediction by ZEFSAII (Michael W. Deem and Ramdas Pophale) SiO2 
 PCOD9349115
Probable space group: C M M 2
;
_chemical_formula_sum "Si O2"
_cell_formula_units_Z 56
_cell_length_a 19.426709
_cell_length_b 8.743582
_cell_length_c 18.385977
_cell_angle_alpha 90.000000
_cell_angle_beta 90.000000
_cell_angle_gamma 90.000000
_cell_volume 3123.024093
_symmetry_space_group_name_H-M "C M M 2"
_symmetry_group_IT_number 35
_symmetry_cell_setting 'orthorhombic'
loop_
_space_group_symop_operation_xyz
x,y,z
-x,-y,z
-x,y,z
x,-y,z
1/2+x,1/2+y,z
1/2-x,1/2-y,z
1/2-x,1/2+y,z
1/2+x,1/2-y,z
loop_
_atom_site_type_symbol
_atom_site_label
_atom_site_fract_x
_atom_site_fract_y
_atom_site_fract_z
Si Si1 0.581317 0.817853 0.747900
Si Si2 0.173391 0.315957 0.026154
Si Si3 0.673766 0.318422 0.873053
Si Si4 0.673361 0.316410 0.453481
Si Si5 0.579651 0.184143 0.161942
Si Si6 0.420162 0.815540 0.580132
Si Si7 0.579550 0.684331 0.317833
O O1 0.500000 0.792339 0.759657
O O2 0.626150 0.728525 0.806038
O O3 0.596201 0.775858 0.663992
O O4 0.593990 0.000000 0.755723
O O5 0.176042 0.500000 0.022816
O O6 0.250000 0.250000 0.035727
O O7 0.126314 0.269137 0.094052
O O8 0.147127 0.252605 0.948951
O O9 0.678621 0.500000 0.880274
O O10 0.750000 0.250000 0.861802
O O11 0.676681 0.500000 0.453564
O O12 0.750000 0.250000 0.452516
O O13 0.631274 0.260364 0.523689
O O14 0.629745 0.266223 0.382509
O O15 0.500000 0.228784 0.149917
O O16 0.601412 0.253091 0.239262
O O17 0.582395 0.000000 0.167101
O O18 0.500000 0.771928 0.565684
O O19 0.416187 0.000000 0.574195
O O20 0.500000 0.733514 0.330949
O O21 0.579888 0.500000 0.315614
#
# Coordination Sequence:
#
# PCOD9349115 Si02
#       7
#     8   8   8   8   8   8   8
#     4   9  19  37  59  82 109 140 175 218 268 319
#     4  10  20  35  54  76 105 140 177 217 264 317
#     4  11  22  36  55  79 108 143 183 222 265 318
#     4  11  23  37  54  79 111 144 180 222 267 315
#     4   9  19  35  55  79 104 134 174 216 260 313
#     4   9  19  37  60  83 107 139 178 218 265 321
#     4   9  19  36  56  77 103 137 175 216 265 317
#
# _framework density 17.931336999999999
#
# number of rings (size 3 to 8) (size 9 to 14) (size 15 to 20)
#    0.000    2.286    0.000    4.286    0.000    5.714 
#    0.000    7.143    0.000    0.000    0.000    0.000 
#    0.000    0.000    0.000    0.000    0.000    0.000 
#
# Total GULP energy -156305.837559 kJ/mol
# GULP energy per Si atom -5582.351341 kJ/mol
# Density = 1.789052 g / cm^3
# Si number density = 17.931337 Si / 1000 Ang^3
#
#
#
# Elastic Constant Matrix: (Units=GPa)
#
#
# Indices 1 2 3 4 5 6 
#
# 1 90.8949 43.5814 102.5722 0.0000 0.0000 0.0000
# 2 43.5814 55.3169 59.0433 0.0000 0.0000 0.0000
# 3 102.5722 59.0433 169.2058 0.0000 0.0000 0.0000
# 4 0.0000 0.0000 0.0000 32.7592 0.0000 0.0000
# 5 0.0000 0.0000 0.0000 0.0000 77.6513 0.0000
# 6 0.0000 0.0000 0.0000 0.0000 0.0000 23.7839
#
#
#
# Elastic Compliance Matrix: (Units=1/GPa)
#
#
# Indices 1 2 3 4 5 6 
#
# 1 0.037081 -0.008321 -0.019575 0.000000 0.000000 0.000000
# 2 -0.008321 0.030674 -0.005659 0.000000 0.000000 0.000000
# 3 -0.019575 -0.005659 0.019751 0.000000 0.000000 0.000000
# 4 0.000000 0.000000 0.000000 0.030526 0.000000 0.000000
# 5 0.000000 0.000000 0.000000 0.000000 0.012878 0.000000
# 6 0.000000 0.000000 0.000000 0.000000 0.000000 0.042045
#
#
# Mechanical properties :
#
#
# Convention : Reuss Voigt Hill
#
# Bulk Modulus (GPa) = 49.02986 80.64572 64.83779
# Shear Modulus (GPa) = 20.25407 34.18694 27.22050
#
# Velocity S-wave (km/s) = 3.36450 4.37114 3.90043
# Velocity P-wave (km/s) = 6.51887 8.39930 7.51811
#
# Compressibility (1/GPa) = 0.02039574
#
# Stress axis : x y z
#
# Youngs Moduli (GPa) = 26.96796 32.60107 50.63000
#
# Poissons Ratio (x) = 0.27126 0.99108
# Poissons Ratio (y) = 0.22439 0.28654
# Poissons Ratio (z) = 0.52790 0.18451
#
# Static dielectric constant tensor:
#      x y z
#    x 1.592880 0.000000 0.000000 
#    y 0.000000 1.603560 0.000000 
#    z 0.000000 0.000000 1.598510 
# 
# From -- ./inp_files/17399.got.cif
#   From: 2010.05.17/outbox.cif.g08.bks.cpg/sg35_9_cif.got.tgz:17399.got - 2010.06.03 17:29:28.
