data_PCOD9349632
_publ_section_title
;
Structure prediction by ZEFSAII (Michael W. Deem and Ramdas Pophale) SiO2 
 PCOD9349632
Probable space group: C M M 2
;
_chemical_formula_sum "Si O2"
_cell_formula_units_Z 56
_cell_length_a 19.347230
_cell_length_b 9.075696
_cell_length_c 18.187670
_cell_angle_alpha 90.000000
_cell_angle_beta 90.000000
_cell_angle_gamma 90.000000
_cell_volume 3193.565299
_symmetry_space_group_name_H-M "C M M 2"
_symmetry_group_IT_number 35
_symmetry_cell_setting 'orthorhombic'
loop_
_space_group_symop_operation_xyz
x,y,z
-x,-y,z
-x,y,z
x,-y,z
1/2+x,1/2+y,z
1/2-x,1/2-y,z
1/2-x,1/2+y,z
1/2+x,1/2-y,z
loop_
_atom_site_type_symbol
_atom_site_label
_atom_site_fract_x
_atom_site_fract_y
_atom_site_fract_z
Si Si1 0.917986 0.326083 0.668460
Si Si2 0.674664 0.323145 0.962148
Si Si3 0.175667 0.175053 0.548080
Si Si4 0.581208 0.822856 0.838244
Si Si5 0.419560 0.676083 0.102720
Si Si6 0.175067 0.176098 0.380088
Si Si7 0.417624 0.173500 0.257392
O O1 0.903052 0.500000 0.659462
O O2 0.876044 0.235546 0.608932
O O3 0.902051 0.286763 0.753224
O O4 0.000000 0.305750 0.658693
O O5 0.680772 0.500000 0.957104
O O6 0.750000 0.250000 0.964262
O O7 0.630681 0.260881 0.893971
O O8 0.630899 0.287181 0.035672
O O9 0.250000 0.250000 0.558331
O O10 0.152529 0.208189 0.464237
O O11 0.182953 0.000000 0.554451
O O12 0.500000 0.787448 0.851033
O O13 0.588397 0.000000 0.846792
O O14 0.500000 0.711049 0.084507
O O15 0.415817 0.500000 0.115511
O O16 0.400661 0.760090 0.177380
O O17 0.250000 0.250000 0.370138
O O18 0.123247 0.242571 0.320792
O O19 0.180528 0.000000 0.371842
O O20 0.500000 0.192256 0.267498
O O21 0.401728 0.000000 0.259444
#
# Coordination Sequence:
#
# PCOD9349632 Si02
#       7
#     8   8   8   8   8   8   8
#     4   9  19  36  57  81 109 141 177 219 268 319
#     4  11  23  37  55  81 111 143 180 221 266 315
#     4  10  21  36  55  79 107 142 182 222 267 319
#     4   9  19  37  59  81 107 141 179 219 267 321
#     4   9  19  37  58  78 104 140 180 222 269 318
#     4  10  21  37  56  78 107 143 181 222 269 319
#     4  10  21  36  56  83 111 141 179 219 262 316
#
# _framework density 17.535260999999998
#
# number of rings (size 3 to 8) (size 9 to 14) (size 15 to 20)
#    0.000    2.286    0.000    3.000    0.000    7.143 
#    0.000    7.143    0.000    0.000    0.000    0.000 
#    0.000    0.000    0.000    0.000    0.000    0.000 
#
# Total GULP energy -156312.941744 kJ/mol
# GULP energy per Si atom -5582.605062 kJ/mol
# Density = 1.749535 g / cm^3
# Si number density = 17.535261 Si / 1000 Ang^3
#
#
#
# Elastic Constant Matrix: (Units=GPa)
#
#
# Indices 1 2 3 4 5 6 
#
# 1 89.9783 70.8397 103.6806 0.0000 0.0000 0.0000
# 2 70.8397 82.9725 97.2582 0.0000 0.0000 0.0000
# 3 103.6806 97.2582 166.6290 0.0000 0.0000 0.0000
# 4 0.0000 0.0000 0.0000 32.9055 0.0000 0.0000
# 5 0.0000 0.0000 0.0000 0.0000 86.5521 0.0000
# 6 0.0000 0.0000 0.0000 0.0000 0.0000 30.4871
#
#
#
# Elastic Compliance Matrix: (Units=1/GPa)
#
#
# Indices 1 2 3 4 5 6 
#
# 1 0.046731 -0.018410 -0.018332 0.000000 0.000000 0.000000
# 2 -0.018410 0.045413 -0.015052 0.000000 0.000000 0.000000
# 3 -0.018332 -0.015052 0.026194 0.000000 0.000000 0.000000
# 4 0.000000 0.000000 0.000000 0.030390 0.000000 0.000000
# 5 0.000000 0.000000 0.000000 0.000000 0.011554 0.000000
# 6 0.000000 0.000000 0.000000 0.000000 0.000000 0.032801
#
#
# Mechanical properties :
#
#
# Convention : Reuss Voigt Hill
#
# Bulk Modulus (GPa) = 67.79221 98.12630 82.95925
# Shear Modulus (GPa) = 16.57895 34.50902 25.54399
#
# Velocity S-wave (km/s) = 3.07818 4.44100 3.82084
# Velocity P-wave (km/s) = 7.16784 9.07621 8.17788
#
# Compressibility (1/GPa) = 0.01475096
#
# Stress axis : x y z
#
# Youngs Moduli (GPa) = 21.39895 22.01989 38.17735
#
# Poissons Ratio (x) = 0.40538 0.69987
# Poissons Ratio (y) = 0.39395 0.57465
# Poissons Ratio (z) = 0.39228 0.33144
#
# Static dielectric constant tensor:
#      x y z
#    x 1.568480 0.000000 0.000000 
#    y 0.000000 1.582340 0.000000 
#    z 0.000000 0.000000 1.577990 
# 
# From -- ./inp_files/15599.got.cif
#   From: 2010.05.17/outbox.cif.g08.bks.cpg/sg35_8_cif.got.tgz:15599.got - 2010.06.03 17:29:28.
