data_PCOD9349199
_publ_section_title
;
Structure prediction by ZEFSAII (Michael W. Deem and Ramdas Pophale) SiO2 
 PCOD9349199
Probable space group: C M M 2
;
_chemical_formula_sum "Si O2"
_cell_formula_units_Z 56
_cell_length_a 23.624767
_cell_length_b 8.215750
_cell_length_c 12.253917
_cell_angle_alpha 90.000000
_cell_angle_beta 90.000000
_cell_angle_gamma 90.000000
_cell_volume 2378.426219
_symmetry_space_group_name_H-M "C M M 2"
_symmetry_group_IT_number 35
_symmetry_cell_setting 'orthorhombic'
loop_
_space_group_symop_operation_xyz
x,y,z
-x,-y,z
-x,y,z
x,-y,z
1/2+x,1/2+y,z
1/2-x,1/2-y,z
1/2-x,1/2+y,z
1/2+x,1/2-y,z
loop_
_atom_site_type_symbol
_atom_site_label
_atom_site_fract_x
_atom_site_fract_y
_atom_site_fract_z
Si Si1 0.438394 0.809988 0.989750
Si Si2 0.809783 0.313078 0.269337
Si Si3 0.000000 0.196808 0.419534
Si Si4 0.376375 0.311001 0.716357
Si Si5 0.923834 0.186211 0.222386
Si Si6 0.688359 0.812159 0.531028
Si Si7 0.500000 0.699729 0.671202
Si Si8 0.314428 0.810985 0.913045
O O1 0.500000 0.739300 0.951357
O O2 0.375331 0.741075 0.959832
O O3 0.437569 0.000000 0.957804
O O4 0.441256 0.793532 0.120432
O O5 0.819823 0.500000 0.237904
O O6 0.750000 0.250000 0.230414
O O7 0.857178 0.197084 0.225386
O O8 0.812123 0.301989 0.400517
O O9 0.052136 0.242473 0.339811
O O10 0.000000 0.256469 0.543786
O O11 0.000000 0.000000 0.428330
O O12 0.374167 0.500000 0.747726
O O13 0.359143 0.293142 0.590053
O O14 0.440841 0.249020 0.726225
O O15 0.329531 0.215457 0.785461
O O16 0.941108 0.000000 0.204884
O O17 0.750000 0.750000 0.566130
O O18 0.680186 0.000000 0.560759
O O19 0.500000 0.500000 0.671061
O O20 0.250000 0.750000 0.935702
O O21 0.313730 0.000000 0.943297
#
# Coordination Sequence:
#
# PCOD9349199 Si02
#       8
#     8   8   4   8   8   8   4   8
#     4  10  23  44  68  93 124 165 212 265 325 384
#     4  10  21  36  55  83 119 161 207 255 309 370
#     4   9  18  34  56  87 126 164 207 249 298 361
#     4  11  22  38  61  89 123 163 208 259 318 377
#     4  11  21  36  61  91 123 162 205 254 310 372
#     4  10  20  35  56  83 117 159 207 255 307 369
#     4   9  20  36  56  87 126 168 207 253 306 365
#     4  11  25  45  69  95 126 165 211 266 327 388
#
# _framework density 23.544979999999999
#
# number of rings (size 3 to 8) (size 9 to 14) (size 15 to 20)
#    0.000    1.714    0.714    3.429    1.000    4.571 
#    0.000    2.500    0.000    4.286    0.000    0.000 
#    0.000    0.000    0.000    0.000    0.000    0.000 
#
# Total GULP energy -156255.281998 kJ/mol
# GULP energy per Si atom -5580.545786 kJ/mol
# Density = 2.349139 g / cm^3
# Si number density = 23.544980 Si / 1000 Ang^3
#
#
#
# Elastic Constant Matrix: (Units=GPa)
#
#
# Indices 1 2 3 4 5 6 
#
# 1 224.1447 28.1796 22.5297 0.0000 0.0000 0.0000
# 2 28.1796 39.1627 11.7650 0.0000 0.0000 0.0000
# 3 22.5297 11.7650 52.0742 0.0000 0.0000 0.0000
# 4 0.0000 0.0000 0.0000 20.5638 0.0000 0.0000
# 5 0.0000 0.0000 0.0000 0.0000 106.0308 0.0000
# 6 0.0000 0.0000 0.0000 0.0000 0.0000 -6.5115
#
#
#
# Elastic Compliance Matrix: (Units=1/GPa)
#
#
# Indices 1 2 3 4 5 6 
#
# 1 0.005005 -0.003166 -0.001450 0.000000 0.000000 0.000000
# 2 -0.003166 0.029396 -0.005272 0.000000 0.000000 0.000000
# 3 -0.001450 -0.005272 0.021022 0.000000 0.000000 0.000000
# 4 0.000000 0.000000 0.000000 0.048629 0.000000 0.000000
# 5 0.000000 0.000000 0.000000 0.000000 0.009431 0.000000
# 6 0.000000 0.000000 0.000000 0.000000 0.000000 -0.153575
#
#
# Mechanical properties :
#
#
# Convention : Reuss Voigt Hill
#
# Bulk Modulus (GPa) = 28.05236 48.92557 38.48896
# Shear Modulus (GPa) = -592.89294 40.87711 -276.00791
#
# Velocity S-wave (km/s) = -15.88583 4.17121 -10.83883
# Velocity P-wave (km/s) = 18.01497 6.63501 11.84305
#
# Compressibility (1/GPa) = 0.03564763
#
# Stress axis : x y z
#
# Youngs Moduli (GPa) = 199.79304 34.01801 47.56963
#
# Poissons Ratio (x) = 0.10769 0.06899
# Poissons Ratio (y) = 0.63251 0.25077
# Poissons Ratio (z) = 0.28974 0.17933
#
# Static dielectric constant tensor:
#      x y z
#    x 1.895540 0.000000 0.000000 
#    y 0.000000 1.854180 0.000000 
#    z 0.000000 0.000000 1.955720 
# 
# From -- ./inp_files/17437.got.cif
#   From: 2010.05.17/outbox.cif.g08.bks.cpg/sg35_9_cif.got.tgz:17437.got - 2010.06.03 17:29:28.
