data_PCOD9349929
_publ_section_title
;
Structure prediction by ZEFSAII (Michael W. Deem and Ramdas Pophale) SiO2 
 PCOD9349929
Probable space group: C M M 2
;
_chemical_formula_sum "Si O2"
_cell_formula_units_Z 56
_cell_length_a 8.879615
_cell_length_b 22.430182
_cell_length_c 14.817823
_cell_angle_alpha 90.000000
_cell_angle_beta 90.000000
_cell_angle_gamma 90.000000
_cell_volume 2951.286264
_symmetry_space_group_name_H-M "C M M 2"
_symmetry_group_IT_number 35
_symmetry_cell_setting 'orthorhombic'
loop_
_space_group_symop_operation_xyz
x,y,z
-x,-y,z
-x,y,z
x,-y,z
1/2+x,1/2+y,z
1/2-x,1/2-y,z
1/2-x,1/2+y,z
1/2+x,1/2-y,z
loop_
_atom_site_type_symbol
_atom_site_label
_atom_site_fract_x
_atom_site_fract_y
_atom_site_fract_z
Si Si1 0.321693 0.500000 0.080420
Si Si2 0.816916 0.067665 0.583500
Si Si3 0.679133 0.430330 0.794103
Si Si4 0.319187 0.313620 0.476603
Si Si5 0.679307 0.000000 0.280086
Si Si6 0.177021 0.313614 0.132270
Si Si7 0.676524 0.893676 0.968981
Si Si8 0.679234 0.621992 0.297081
O O1 0.500000 0.500000 0.096898
O O2 0.235910 0.500000 0.175936
O O3 0.272178 0.443478 0.021416
O O4 0.780252 0.077237 0.689270
O O5 0.766859 0.126452 0.529264
O O6 0.000000 0.066093 0.576175
O O7 0.765373 0.000000 0.557891
O O8 0.500000 0.420300 0.802865
O O9 0.707975 0.500000 0.816240
O O10 0.767207 0.391343 0.866687
O O11 0.500000 0.309967 0.487152
O O12 0.250000 0.250000 0.503370
O O13 0.286005 0.328149 0.371753
O O14 0.746685 0.059430 0.323785
O O15 0.500000 0.000000 0.282409
O O16 0.250000 0.250000 0.146381
O O17 0.255942 0.358907 0.200889
O O18 0.000000 0.312723 0.152770
O O19 0.195911 0.334984 0.029419
O O20 0.500000 0.910115 0.971720
O O21 0.500000 0.614487 0.292425
#
# Coordination Sequence:
#
# PCOD9349929 Si02
#       8
#     4   8   8   8   4   8   8   8
#     4  12  22  34  56  83 112 149 190 227 272 334
#     4   8  16  34  60  87 115 148 193 245 295 350
#     4   9  17  31  55  85 112 145 190 236 284 345
#     4  10  22  39  62  88 116 154 198 246 298 355
#     4  12  24  38  56  85 122 155 188 239 298 344
#     4  11  24  40  57  77 110 154 198 241 290 342
#     4  11  22  35  54  82 117 151 184 234 289 336
#     4  11  23  38  60  87 115 152 197 240 290 354
#
# _framework density 18.974778000000001
#
# number of rings (size 3 to 8) (size 9 to 14) (size 15 to 20)
#    0.000    1.714    2.143    3.857    1.000    4.000 
#    0.000    1.429    0.000    4.286    0.000    0.000 
#    0.000    0.000    0.000    0.000    0.000    0.000 
#
# Total GULP energy -156308.344123 kJ/mol
# GULP energy per Si atom -5582.440862 kJ/mol
# Density = 1.893159 g / cm^3
# Si number density = 18.974778 Si / 1000 Ang^3
#
#
#
# Elastic Constant Matrix: (Units=GPa)
#
#
# Indices 1 2 3 4 5 6 
#
# 1 58.4594 36.5567 27.7348 0.0000 0.0000 0.0000
# 2 36.5567 121.8337 39.5467 0.0000 0.0000 0.0000
# 3 27.7348 39.5467 77.1603 0.0000 0.0000 0.0000
# 4 0.0000 0.0000 0.0000 17.7660 0.0000 0.0000
# 5 0.0000 0.0000 0.0000 0.0000 15.4427 0.0000
# 6 0.0000 0.0000 0.0000 0.0000 0.0000 26.8911
#
#
#
# Elastic Compliance Matrix: (Units=1/GPa)
#
#
# Indices 1 2 3 4 5 6 
#
# 1 0.022949 -0.005048 -0.005661 0.000000 0.000000 0.000000
# 2 -0.005048 0.010956 -0.003801 0.000000 0.000000 0.000000
# 3 -0.005661 -0.003801 0.016943 0.000000 0.000000 0.000000
# 4 0.000000 0.000000 0.000000 0.056287 0.000000 0.000000
# 5 0.000000 0.000000 0.000000 0.000000 0.064756 0.000000
# 6 0.000000 0.000000 0.000000 0.000000 0.000000 0.037187
#
#
# Mechanical properties :
#
#
# Convention : Reuss Voigt Hill
#
# Bulk Modulus (GPa) = 45.81462 51.68109 48.74785
# Shear Modulus (GPa) = 20.37700 22.26096 21.31898
#
# Velocity S-wave (km/s) = 3.28060 3.42890 3.35557
# Velocity P-wave (km/s) = 6.20864 6.55533 6.38434
#
# Compressibility (1/GPa) = 0.02182709
#
# Stress axis : x y z
#
# Youngs Moduli (GPa) = 43.57559 91.27093 59.02119
#
# Poissons Ratio (x) = 0.46075 0.33414
# Poissons Ratio (y) = 0.21998 0.22433
# Poissons Ratio (z) = 0.24670 0.34691
#
# Static dielectric constant tensor:
#      x y z
#    x 1.634020 0.000000 0.000000 
#    y 0.000000 1.646860 0.000000 
#    z 0.000000 0.000000 1.665270 
# 
# From -- ./inp_files/15788.got.cif
#   From: 2010.05.17/outbox.cif.g08.bks.cpg/sg35_8_cif.got.tgz:15788.got - 2010.06.03 17:29:28.
