data_PCOD9349417
_publ_section_title
;
Structure prediction by ZEFSAII (Michael W. Deem and Ramdas Pophale) SiO2 
 PCOD9349417
Probable space group: C M M 2
;
_chemical_formula_sum "Si O2"
_cell_formula_units_Z 64
_cell_length_a 15.756924
_cell_length_b 24.005065
_cell_length_c 7.333063
_cell_angle_alpha 90.000000
_cell_angle_beta 90.000000
_cell_angle_gamma 90.000000
_cell_volume 2773.701636
_symmetry_space_group_name_H-M "C M M 2"
_symmetry_group_IT_number 35
_symmetry_cell_setting 'orthorhombic'
loop_
_space_group_symop_operation_xyz
x,y,z
-x,-y,z
-x,y,z
x,-y,z
1/2+x,1/2+y,z
1/2-x,1/2-y,z
1/2-x,1/2+y,z
1/2+x,1/2-y,z
loop_
_atom_site_type_symbol
_atom_site_label
_atom_site_fract_x
_atom_site_fract_y
_atom_site_fract_z
Si Si1 0.091008 0.865063 0.752080
Si Si2 0.100898 0.770034 0.301613
Si Si3 0.094701 0.104066 0.170602
Si Si4 0.406578 0.870045 0.604583
Si Si5 0.346329 0.753090 0.706506
Si Si6 0.758880 0.062086 0.671617
Si Si7 0.729386 0.060465 0.104510
Si Si8 0.095717 0.343099 0.176775
O O1 0.103529 0.799409 0.785040
O O2 0.167009 0.892847 0.639646
O O3 0.000000 0.873317 0.660129
O O4 0.089242 0.893116 0.950190
O O5 0.110428 0.832596 0.233927
O O6 0.150613 0.760714 0.489060
O O7 0.123489 0.721422 0.157402
O O8 0.000000 0.762306 0.339956
O O9 0.181455 0.070913 0.208320
O O10 0.000000 0.085482 0.232966
O O11 0.500000 0.891210 0.655936
O O12 0.383342 0.815189 0.723263
O O13 0.331428 0.914336 0.610051
O O14 0.410229 0.850054 0.395887
O O15 0.250000 0.750000 0.770731
O O16 0.777543 0.000000 0.603290
O O17 0.750190 0.058333 0.890361
O O18 0.663767 0.111089 0.121024
O O19 0.693596 0.000000 0.159490
O O20 0.000000 0.351550 0.103177
#
# Coordination Sequence:
#
# PCOD9349417 Si02
#       8
#     8   8   8   8   8   8   8   8
#     4  10  20  37  57  81 112 144 178 222 271 322
#     4   9  19  35  54  82 111 140 177 216 264 326
#     4   9  20  36  56  81 110 142 178 219 267 320
#     4  10  21  38  57  80 111 145 179 220 270 326
#     4  11  20  33  56  85 112 142 176 219 270 326
#     4  10  22  39  55  79 108 141 188 229 268 319
#     4  10  22  37  55  78 107 142 182 226 268 313
#     4   9  20  37  56  79 108 141 178 218 267 322
#
# _framework density 23.07386
#
# number of rings (size 3 to 8) (size 9 to 14) (size 15 to 20)
#    0.000    2.250    1.250    1.875    3.500    3.000 
#    0.000    6.250    0.000    0.000    0.000    3.500 
#    0.000    0.000    0.000    0.000    0.000    0.000 
#
# Total GULP energy -178768.259996 kJ/mol
# GULP energy per Si atom -5586.508125 kJ/mol
# Density = 2.302134 g / cm^3
# Si number density = 23.073860 Si / 1000 Ang^3
#
#
#
# Elastic Constant Matrix: (Units=GPa)
#
#
# Indices 1 2 3 4 5 6 
#
# 1 129.9640 47.1646 -3.7881 0.0000 0.0000 0.0000
# 2 47.1646 101.7015 -3.3519 0.0000 0.0000 0.0000
# 3 -3.7881 -3.3519 34.6753 0.0000 0.0000 0.0000
# 4 0.0000 0.0000 0.0000 19.9104 0.0000 0.0000
# 5 0.0000 0.0000 0.0000 0.0000 17.8879 0.0000
# 6 0.0000 0.0000 0.0000 0.0000 0.0000 -1.5083
#
#
#
# Elastic Compliance Matrix: (Units=1/GPa)
#
#
# Indices 1 2 3 4 5 6 
#
# 1 0.009264 -0.004276 0.000599 0.000000 0.000000 0.000000
# 2 -0.004276 0.011838 0.000677 0.000000 0.000000 0.000000
# 3 0.000599 0.000677 0.028970 0.000000 0.000000 0.000000
# 4 0.000000 0.000000 0.000000 0.050225 0.000000 0.000000
# 5 0.000000 0.000000 0.000000 0.000000 0.055904 0.000000
# 6 0.000000 0.000000 0.000000 0.000000 0.000000 -0.662994
#
#
# Mechanical properties :
#
#
# Convention : Reuss Voigt Hill
#
# Bulk Modulus (GPa) = 22.69083 38.48778 30.58930
# Shear Modulus (GPa) = -10.28591 22.34574 6.02992
#
# Velocity S-wave (km/s) = -2.11364 3.11536 1.61833
# Velocity P-wave (km/s) = 1.97451 5.44583 4.09608
#
# Compressibility (1/GPa) = 0.04407068
#
# Stress axis : x y z
#
# Youngs Moduli (GPa) = 107.94679 84.47207 34.51866
#
# Poissons Ratio (x) = 0.36124 -0.02067
# Poissons Ratio (y) = 0.46163 -0.02337
# Poissons Ratio (z) = -0.06462 -0.05720
#
# Static dielectric constant tensor:
#      x y z
#    x 1.864270 0.000000 0.000000 
#    y 0.000000 1.872110 0.000000 
#    z 0.000000 0.000000 1.925780 
# 
# From -- ./inp_files/7852.got.cif
#   From: 2010.05.17/outbox.cif.g08.bks.cpg/sg35_4_cif.got.tgz:7852.got - 2010.06.03 17:29:28.
