data_PCOD9349451
_publ_section_title
;
Structure prediction by ZEFSAII (Michael W. Deem and Ramdas Pophale) SiO2 
 PCOD9349451
Probable space group: C M M 2
;
_chemical_formula_sum "Si O2"
_cell_formula_units_Z 58
_cell_length_a 25.485563
_cell_length_b 17.105658
_cell_length_c 6.877112
_cell_angle_alpha 90.000000
_cell_angle_beta 90.000000
_cell_angle_gamma 90.000000
_cell_volume 2998.058577
_symmetry_space_group_name_H-M "C M M 2"
_symmetry_group_IT_number 35
_symmetry_cell_setting 'orthorhombic'
loop_
_space_group_symop_operation_xyz
x,y,z
-x,-y,z
-x,y,z
x,-y,z
1/2+x,1/2+y,z
1/2-x,1/2-y,z
1/2-x,1/2+y,z
1/2+x,1/2-y,z
loop_
_atom_site_type_symbol
_atom_site_label
_atom_site_fract_x
_atom_site_fract_y
_atom_site_fract_z
Si Si1 0.500000 0.500000 0.255821
Si Si2 0.592379 0.371832 0.230072
Si Si3 0.059807 0.412346 0.773330
Si Si4 0.331403 0.683181 0.554503
Si Si5 0.560094 0.200145 0.136544
Si Si6 0.813068 0.910957 0.942696
Si Si7 0.640516 0.857406 0.459512
Si Si8 0.249298 0.589724 0.302900
O O1 0.545889 0.432269 0.252424
O O2 0.617767 0.350517 0.439572
O O3 0.572311 0.292119 0.129892
O O4 0.638850 0.404637 0.094325
O O5 0.063302 0.500000 0.859270
O O6 0.105361 0.402025 0.616387
O O7 0.000000 0.404996 0.692488
O O8 0.065771 0.345375 0.934350
O O9 0.323342 0.647903 0.767503
O O10 0.337484 0.776291 0.549768
O O11 0.283063 0.651261 0.426228
O O12 0.500000 0.189543 0.202193
O O13 0.601020 0.165259 0.287727
O O14 0.809669 0.000000 0.867620
O O15 0.761855 0.894430 0.075571
O O16 0.689595 0.902434 0.368506
O O17 0.267249 0.500000 0.338533
#
# Coordination Sequence:
#
# PCOD9349451 Si02
#       8
#     2   8   8   8   8   8   8   8
#     4  12  20  36  62  92 130 162 208 256 288 348
#     4  10  21  37  59  89 126 163 202 249 295 351
#     4  10  22  39  61  89 122 158 200 253 308 368
#     4  10  22  39  61  85 121 160 198 243 307 366
#     4  10  21  39  60  84 122 163 198 246 310 368
#     4  10  20  37  60  86 118 158 196 243 299 357
#     4  11  22  39  61  89 117 155 203 252 302 367
#     4  10  22  39  60  85 115 151 198 254 305 360
#
# _framework density 19.345853000000002
#
# number of rings (size 3 to 8) (size 9 to 14) (size 15 to 20)
#    0.000    1.793    1.379    2.483    1.931    2.207 
#    0.000    8.276    0.000    0.000    0.000    0.000 
#    0.000    0.000    0.000    0.000    0.000    0.000 
#
# Total GULP energy -161624.772410 kJ/mol
# GULP energy per Si atom -5573.268014 kJ/mol
# Density = 1.930182 g / cm^3
# Si number density = 19.345853 Si / 1000 Ang^3
#
#
#
# Elastic Constant Matrix: (Units=GPa)
#
#
# Indices 1 2 3 4 5 6 
#
# 1 110.3025 46.8429 36.3037 0.0000 0.0000 0.0000
# 2 46.8429 106.1313 38.0853 0.0000 0.0000 0.0000
# 3 36.3037 38.0853 73.3263 0.0000 0.0000 0.0000
# 4 0.0000 0.0000 0.0000 66.5776 0.0000 0.0000
# 5 0.0000 0.0000 0.0000 0.0000 30.5836 0.0000
# 6 0.0000 0.0000 0.0000 0.0000 0.0000 37.9299
#
#
#
# Elastic Compliance Matrix: (Units=1/GPa)
#
#
# Indices 1 2 3 4 5 6 
#
# 1 0.012011 -0.003893 -0.003925 0.000000 0.000000 0.000000
# 2 -0.003893 0.012843 -0.004743 0.000000 0.000000 0.000000
# 3 -0.003925 -0.004743 0.018044 0.000000 0.000000 0.000000
# 4 0.000000 0.000000 0.000000 0.015020 0.000000 0.000000
# 5 0.000000 0.000000 0.000000 0.000000 0.032697 0.000000
# 6 0.000000 0.000000 0.000000 0.000000 0.000000 0.026364
#
#
# Mechanical properties :
#
#
# Convention : Reuss Voigt Hill
#
# Bulk Modulus (GPa) = 56.25350 59.13598 57.69474
# Shear Modulus (GPa) = 33.77788 38.25343 36.01565
#
# Velocity S-wave (km/s) = 4.18305 4.45156 4.31939
# Velocity P-wave (km/s) = 7.24372 7.55354 7.40025
#
# Compressibility (1/GPa) = 0.01777667
#
# Stress axis : x y z
#
# Youngs Moduli (GPa) = 83.25777 77.86645 55.41941
#
# Poissons Ratio (x) = 0.30312 0.21750
# Poissons Ratio (y) = 0.32411 0.26285
# Poissons Ratio (z) = 0.32676 0.36932
#
# Static dielectric constant tensor:
#      x y z
#    x 1.532930 0.000000 0.000000 
#    y 0.000000 1.607600 0.000000 
#    z 0.000000 0.000000 1.657990 
# 
# From -- ./inp_files/3756.got.cif
#   From: 2010.05.17/outbox.cif.g08.bks.cpg/sg35_2_cif.got.tgz:3756.got - 2010.06.03 17:29:28.
