data_PCOD9349202
_publ_section_title
;
Structure prediction by ZEFSAII (Michael W. Deem and Ramdas Pophale) SiO2 
 PCOD9349202
Probable space group: C M M 2
;
_chemical_formula_sum "Si O2"
_cell_formula_units_Z 48
_cell_length_a 18.371792
_cell_length_b 8.774964
_cell_length_c 15.935579
_cell_angle_alpha 90.000000
_cell_angle_beta 90.000000
_cell_angle_gamma 90.000000
_cell_volume 2569.003588
_symmetry_space_group_name_H-M "C M M 2"
_symmetry_group_IT_number 35
_symmetry_cell_setting 'orthorhombic'
loop_
_space_group_symop_operation_xyz
x,y,z
-x,-y,z
-x,y,z
x,-y,z
1/2+x,1/2+y,z
1/2-x,1/2-y,z
1/2-x,1/2+y,z
1/2+x,1/2-y,z
loop_
_atom_site_type_symbol
_atom_site_label
_atom_site_fract_x
_atom_site_fract_y
_atom_site_fract_z
Si Si1 0.585968 0.317893 0.052080
Si Si2 0.915986 0.685661 0.726689
Si Si3 0.912961 0.820785 0.367444
Si Si4 0.330588 0.183443 0.893139
Si Si5 0.411483 0.823826 0.542364
Si Si6 0.669363 0.181072 0.211460
O O1 0.500000 0.285877 0.054981
O O2 0.596283 0.500000 0.049949
O O3 0.624657 0.251095 0.134083
O O4 0.621324 0.244264 0.969809
O O5 0.916997 0.500000 0.724074
O O6 0.867052 0.731813 0.804958
O O7 0.888750 0.734336 0.634407
O O8 0.000000 0.734893 0.738655
O O9 0.890108 0.772065 0.461235
O O10 0.870814 0.726876 0.297342
O O11 0.000000 0.793178 0.360133
O O12 0.900244 0.000000 0.354367
O O13 0.250000 0.250000 0.900355
O O14 0.328358 0.000000 0.895799
O O15 0.500000 0.823858 0.545603
O O16 0.388639 0.000000 0.531599
O O17 0.750000 0.250000 0.211209
O O18 0.672921 0.000000 0.202830
#
# Coordination Sequence:
#
# PCOD9349202 Si02
#       6
#     8   8   8   8   8   8
#     4  11  24  42  63  87 114 143 180 228 278 329
#     4   8  15  30  54  81 107 141 189 240 283 327
#     4  10  20  35  56  84 117 150 187 232 279 328
#     4  11  22  37  57  82 115 152 190 230 277 332
#     4   8  14  28  52  80 108 142 188 237 282 328
#     4  12  25  41  61  84 113 148 186 227 276 333
#
# _framework density 18.684287000000001
#
# number of rings (size 3 to 8) (size 9 to 14) (size 15 to 20)
#    0.000    2.000    0.000    5.500    0.000    5.000 
#    0.000    2.500    0.000    6.000    0.000    0.000 
#    0.000    0.000    0.000    0.000    0.000    0.000 
#
# Total GULP energy -134044.014540 kJ/mol
# GULP energy per Si atom -5585.167273 kJ/mol
# Density = 1.864176 g / cm^3
# Si number density = 18.684287 Si / 1000 Ang^3
#
#
#
# Elastic Constant Matrix: (Units=GPa)
#
#
# Indices 1 2 3 4 5 6 
#
# 1 85.1655 58.1908 63.6608 0.0000 0.0000 0.0000
# 2 58.1908 75.0631 50.8024 0.0000 0.0000 0.0000
# 3 63.6608 50.8024 160.2002 0.0000 0.0000 0.0000
# 4 0.0000 0.0000 0.0000 337.2195 0.0000 0.0000
# 5 0.0000 0.0000 0.0000 0.0000 -90.5802 0.0000
# 6 0.0000 0.0000 0.0000 0.0000 0.0000 17.9196
#
#
#
# Elastic Compliance Matrix: (Units=1/GPa)
#
#
# Indices 1 2 3 4 5 6 
#
# 1 0.028273 -0.018225 -0.005455 0.000000 0.000000 0.000000
# 2 -0.018225 0.028711 -0.001862 0.000000 0.000000 0.000000
# 3 -0.005455 -0.001862 0.009001 0.000000 0.000000 0.000000
# 4 0.000000 0.000000 0.000000 0.002965 0.000000 0.000000
# 5 0.000000 0.000000 0.000000 0.000000 -0.011040 0.000000
# 6 0.000000 0.000000 0.000000 0.000000 0.000000 0.055805
#
#
# Mechanical properties :
#
#
# Convention : Reuss Voigt Hill
#
# Bulk Modulus (GPa) = 67.12254 73.97077 70.54666
# Shear Modulus (GPa) = 29.45204 62.76344 46.10774
#
# Velocity S-wave (km/s) = 3.97457 5.80211 4.97301
# Velocity P-wave (km/s) = 7.55417 9.19575 8.41508
#
# Compressibility (1/GPa) = 0.01489813
#
# Stress axis : x y z
#
# Youngs Moduli (GPa) = 35.36998 34.82937 111.10250
#
# Poissons Ratio (x) = 0.63478 0.60611
# Poissons Ratio (y) = 0.64463 0.20692
# Poissons Ratio (z) = 0.19296 0.06487
#
# Static dielectric constant tensor:
#      x y z
#    x 1.617890 0.000000 0.000000 
#    y 0.000000 1.624260 0.000000 
#    z 0.000000 0.000000 1.642820 
# 
# From -- ./inp_files/17076.got.cif
#   From: 2010.05.17/outbox.cif.g08.bks.cpg/sg35_9_cif.got.tgz:17076.got - 2010.06.03 17:29:28.
