data_PCOD9349687
_publ_section_title
;
Structure prediction by ZEFSAII (Michael W. Deem and Ramdas Pophale) SiO2 
 PCOD9349687
Probable space group: C M M 2
;
_chemical_formula_sum "Si O2"
_cell_formula_units_Z 58
_cell_length_a 8.167022
_cell_length_b 30.724024
_cell_length_c 12.676589
_cell_angle_alpha 90.000000
_cell_angle_beta 90.000000
_cell_angle_gamma 90.000000
_cell_volume 3180.857629
_symmetry_space_group_name_H-M "C M M 2"
_symmetry_group_IT_number 35
_symmetry_cell_setting 'orthorhombic'
loop_
_space_group_symop_operation_xyz
x,y,z
-x,-y,z
-x,y,z
x,-y,z
1/2+x,1/2+y,z
1/2-x,1/2-y,z
1/2-x,1/2+y,z
1/2+x,1/2-y,z
loop_
_atom_site_type_symbol
_atom_site_label
_atom_site_fract_x
_atom_site_fract_y
_atom_site_fract_z
Si Si1 0.689830 0.939119 0.197950
Si Si2 0.806293 0.451621 0.945848
Si Si3 0.000000 0.000000 0.253417
Si Si4 0.696453 0.200668 0.704687
Si Si5 0.304022 0.799153 0.461984
Si Si6 0.687285 0.652277 0.260062
Si Si7 0.188376 0.296121 0.070595
Si Si8 0.188981 0.141660 0.893160
O O1 0.500000 0.952509 0.223432
O O2 0.703554 0.888378 0.225358
O O3 0.848555 0.962933 0.248498
O O4 0.711516 0.946439 0.072257
O O5 0.743157 0.500000 0.917333
O O6 0.726480 0.409628 0.892671
O O7 0.000000 0.450496 0.922972
O O8 0.500000 0.198499 0.711668
O O9 0.750000 0.250000 0.731460
O O10 0.746281 0.192271 0.583230
O O11 0.771210 0.165888 0.784413
O O12 0.500000 0.801768 0.456525
O O13 0.250000 0.750000 0.437063
O O14 0.229088 0.831137 0.376282
O O15 0.500000 0.638782 0.253581
O O16 0.716035 0.690558 0.175671
O O17 0.250000 0.250000 0.027018
O O18 0.000000 0.291911 0.098910
O O19 0.210035 0.333856 0.984210
O O20 0.000000 0.148123 0.920580
#
# Coordination Sequence:
#
# PCOD9349687 Si02
#       8
#     8   8   2   8   8   8   8   8
#     4  11  22  37  57  85 120 156 197 248 297 356
#     4  10  21  37  57  82 113 152 192 239 293 347
#     4  12  22  36  60  86 116 158 206 240 308 350
#     4  10  21  39  61  84 114 150 196 242 293 348
#     4  10  21  38  60  85 113 152 196 246 293 344
#     4  12  23  37  56  85 119 156 197 239 294 355
#     4  12  24  38  54  77 115 158 195 235 287 352
#     4  12  24  36  56  84 117 150 191 238 292 351
#
# _framework density 18.234076999999999
#
# number of rings (size 3 to 8) (size 9 to 14) (size 15 to 20)
#    0.000    0.966    2.759    5.586    0.966    1.931 
#    0.000    0.000    0.000    0.000    1.793    0.000 
#    0.000    0.000    0.000    0.000    0.000    0.000 
#
# Total GULP energy -161712.251745 kJ/mol
# GULP energy per Si atom -5576.284543 kJ/mol
# Density = 1.819258 g / cm^3
# Si number density = 18.234077 Si / 1000 Ang^3
#
#
#
# Elastic Constant Matrix: (Units=GPa)
#
#
# Indices 1 2 3 4 5 6 
#
# 1 85.5427 21.5007 9.8392 0.0000 0.0000 0.0000
# 2 21.5007 117.7169 39.1606 0.0000 0.0000 0.0000
# 3 9.8392 39.1606 56.4773 0.0000 0.0000 0.0000
# 4 0.0000 0.0000 0.0000 233.3980 0.0000 0.0000
# 5 0.0000 0.0000 0.0000 0.0000 29.2342 0.0000
# 6 0.0000 0.0000 0.0000 0.0000 0.0000 31.4605
#
#
#
# Elastic Compliance Matrix: (Units=1/GPa)
#
#
# Indices 1 2 3 4 5 6 
#
# 1 0.012278 -0.001990 -0.000759 0.000000 0.000000 0.000000
# 2 -0.001990 0.011365 -0.007533 0.000000 0.000000 0.000000
# 3 -0.000759 -0.007533 0.023062 0.000000 0.000000 0.000000
# 4 0.000000 0.000000 0.000000 0.004285 0.000000 0.000000
# 5 0.000000 0.000000 0.000000 0.000000 0.034207 0.000000
# 6 0.000000 0.000000 0.000000 0.000000 0.000000 0.031786
#
#
# Mechanical properties :
#
#
# Convention : Reuss Voigt Hill
#
# Bulk Modulus (GPa) = 38.25663 44.52642 41.39152
# Shear Modulus (GPa) = 34.18598 71.43430 52.81014
#
# Velocity S-wave (km/s) = 4.33464 6.26588 5.38750
# Velocity P-wave (km/s) = 6.78812 8.76475 7.83898
#
# Compressibility (1/GPa) = 0.02613926
#
# Stress axis : x y z
#
# Youngs Moduli (GPa) = 81.44950 87.99328 43.36142
#
# Poissons Ratio (x) = 0.17510 0.03292
# Poissons Ratio (y) = 0.16208 0.32666
# Poissons Ratio (z) = 0.06183 0.66288
#
# Static dielectric constant tensor:
#      x y z
#    x 1.632710 0.000000 0.000000 
#    y 0.000000 1.357530 0.000000 
#    z 0.000000 0.000000 1.603000 
# 
# From -- ./inp_files/11808.got.cif
#   From: 2010.05.17/outbox.cif.g08.bks.cpg/sg35_6_cif.got.tgz:11808.got - 2010.06.03 17:29:28.
