data_PCOD9349049
_publ_section_title
;
Structure prediction by ZEFSAII (Michael W. Deem and Ramdas Pophale) SiO2 
 PCOD9349049
Probable space group: C M M 2
;
_chemical_formula_sum "Si O2"
_cell_formula_units_Z 64
_cell_length_a 8.865548
_cell_length_b 30.341355
_cell_length_c 12.470976
_cell_angle_alpha 90.000000
_cell_angle_beta 90.000000
_cell_angle_gamma 90.000000
_cell_volume 3354.601994
_symmetry_space_group_name_H-M "C M M 2"
_symmetry_group_IT_number 35
_symmetry_cell_setting 'orthorhombic'
loop_
_space_group_symop_operation_xyz
x,y,z
-x,-y,z
-x,y,z
x,-y,z
1/2+x,1/2+y,z
1/2-x,1/2-y,z
1/2-x,1/2+y,z
1/2+x,1/2-y,z
loop_
_atom_site_type_symbol
_atom_site_label
_atom_site_fract_x
_atom_site_fract_y
_atom_site_fract_z
Si Si1 0.320294 0.799201 0.660390
Si Si2 0.181269 0.951091 0.941048
Si Si3 0.178835 0.145277 0.470205
Si Si4 0.181681 0.048112 0.400154
Si Si5 0.821078 0.840323 0.223721
Si Si6 0.319368 0.639008 0.843007
Si Si7 0.322225 0.068367 0.171932
Si Si8 0.676748 0.707185 0.022502
O O1 0.500000 0.795093 0.664889
O O2 0.250000 0.750000 0.666904
O O3 0.268200 0.824707 0.552962
O O4 0.261575 0.831523 0.754380
O O5 0.252370 0.946870 0.059367
O O6 0.000000 0.946760 0.953842
O O7 0.214500 0.000000 0.898907
O O8 0.229213 0.911403 0.862622
O O9 0.227426 0.093480 0.460429
O O10 0.196237 0.164615 0.350269
O O11 0.000000 0.145873 0.497639
O O12 0.247917 0.048953 0.279886
O O13 0.000000 0.050867 0.391376
O O14 0.219808 0.000000 0.448609
O O15 0.718568 0.880399 0.185267
O O16 0.781080 0.800343 0.146011
O O17 0.000000 0.851160 0.204954
O O18 0.500000 0.639746 0.821761
O O19 0.290299 0.663608 0.955485
O O20 0.500000 0.060155 0.172340
O O21 0.500000 0.714244 0.017551
O O22 0.750000 0.750000 0.973055
#
# Coordination Sequence:
#
# PCOD9349049 Si02
#       8
#     8   8   8   8   8   8   8   8
#     4  12  26  44  66  88 113 148 195 245 297 353
#     4  10  20  36  59  84 114 156 200 239 284 342
#     4   9  19  37  62  88 116 149 194 247 292 341
#     4   9  18  34  57  84 117 160 203 239 281 339
#     4   9  18  36  57  80 115 157 194 235 286 343
#     4  10  21  40  63  86 115 149 194 246 292 343
#     4  11  20  29  48  81 121 161 198 240 284 334
#     4  10  20  34  55  83 115 148 183 232 289 349
#
# _framework density 19.078268999999999
#
# number of rings (size 3 to 8) (size 9 to 14) (size 15 to 20)
#    0.000    2.000    1.250    3.750    0.000    7.000 
#    0.000    1.875    0.000    3.750    0.000    0.000 
#    0.000    0.000    0.000    0.000    0.000    0.000 
#
# Total GULP energy -178444.749498 kJ/mol
# GULP energy per Si atom -5576.398422 kJ/mol
# Density = 1.903485 g / cm^3
# Si number density = 19.078269 Si / 1000 Ang^3
#
#
#
# Elastic Constant Matrix: (Units=GPa)
#
#
# Indices 1 2 3 4 5 6 
#
# 1 46.8642 57.0154 44.8325 0.0000 0.0000 0.0000
# 2 57.0154 160.0789 59.3329 0.0000 0.0000 0.0000
# 3 44.8325 59.3329 72.1817 0.0000 0.0000 0.0000
# 4 0.0000 0.0000 0.0000 17.5381 0.0000 0.0000
# 5 0.0000 0.0000 0.0000 0.0000 22.7835 0.0000
# 6 0.0000 0.0000 0.0000 0.0000 0.0000 15.9592
#
#
#
# Elastic Compliance Matrix: (Units=1/GPa)
#
#
# Indices 1 2 3 4 5 6 
#
# 1 0.065079 -0.011789 -0.030731 0.000000 0.000000 0.000000
# 2 -0.011789 0.011120 -0.001818 0.000000 0.000000 0.000000
# 3 -0.030731 -0.001818 0.034435 0.000000 0.000000 0.000000
# 4 0.000000 0.000000 0.000000 0.057019 0.000000 0.000000
# 5 0.000000 0.000000 0.000000 0.000000 0.043891 0.000000
# 6 0.000000 0.000000 0.000000 0.000000 0.000000 0.062660
#
#
# Mechanical properties :
#
#
# Convention : Reuss Voigt Hill
#
# Bulk Modulus (GPa) = 45.53976 66.83183 56.18579
# Shear Modulus (GPa) = 13.50622 19.11907 16.31265
#
# Velocity S-wave (km/s) = 2.66360 3.16909 2.92728
# Velocity P-wave (km/s) = 5.77767 6.96400 6.39839
#
# Compressibility (1/GPa) = 0.02195884
#
# Stress axis : x y z
#
# Youngs Moduli (GPa) = 15.36586 89.93051 29.03991
#
# Poissons Ratio (x) = 1.06020 0.89242
# Poissons Ratio (y) = 0.18115 0.05280
# Poissons Ratio (z) = 0.47220 0.16350
#
# Static dielectric constant tensor:
#      x y z
#    x 1.649530 0.000000 0.000000 
#    y 0.000000 1.735830 0.000000 
#    z 0.000000 0.000000 1.662470 
# 
# From -- ./inp_files/11873.got.cif
#   From: 2010.05.17/outbox.cif.g08.bks.cpg/sg35_6_cif.got.tgz:11873.got - 2010.06.03 17:29:28.
