data_PCOD9350349
_publ_section_title
;
Structure prediction by ZEFSAII (Michael W. Deem and Ramdas Pophale) SiO2 
 PCOD9350349
Probable space group: C M M 2
;
_chemical_formula_sum "Si O2"
_cell_formula_units_Z 64
_cell_length_a 7.568860
_cell_length_b 28.649026
_cell_length_c 14.753505
_cell_angle_alpha 90.000000
_cell_angle_beta 90.000000
_cell_angle_gamma 90.000000
_cell_volume 3199.156913
_symmetry_space_group_name_H-M "C M M 2"
_symmetry_group_IT_number 35
_symmetry_cell_setting 'orthorhombic'
loop_
_space_group_symop_operation_xyz
x,y,z
-x,-y,z
-x,y,z
x,-y,z
1/2+x,1/2+y,z
1/2-x,1/2-y,z
1/2-x,1/2+y,z
1/2+x,1/2-y,z
loop_
_atom_site_type_symbol
_atom_site_label
_atom_site_fract_x
_atom_site_fract_y
_atom_site_fract_z
Si Si1 0.197281 0.872995 0.993620
Si Si2 0.211056 0.619461 0.495194
Si Si3 0.289946 0.552379 0.128210
Si Si4 0.286453 0.052340 0.340719
Si Si5 0.711102 0.945054 0.851179
Si Si6 0.791939 0.195484 0.636522
Si Si7 0.284310 0.946942 0.651830
Si Si8 0.787442 0.194859 0.838504
O O1 0.188625 0.916071 0.924526
O O2 0.279549 0.833417 0.927263
O O3 0.000000 0.856648 0.020593
O O4 0.282342 0.900965 0.078476
O O5 0.276627 0.596182 0.401527
O O6 0.239544 0.669068 0.544062
O O7 0.280927 0.584969 0.572524
O O8 0.000000 0.615329 0.489579
O O9 0.500000 0.551903 0.109472
O O10 0.221142 0.500000 0.101499
O O11 0.265587 0.556484 0.235946
O O12 0.500000 0.051827 0.343845
O O13 0.229541 0.000000 0.372953
O O14 0.500000 0.937106 0.860639
O O15 0.768876 0.930653 0.750958
O O16 0.740379 0.000000 0.859482
O O17 0.750000 0.250000 0.628292
O O18 0.718986 0.180621 0.737050
O O19 0.000000 0.189451 0.643800
O O20 0.500000 0.946641 0.651141
O O21 0.229185 0.000000 0.639402
O O22 0.750000 0.250000 0.847455
O O23 0.000000 0.187958 0.838738
#
# Coordination Sequence:
#
# PCOD9350349 Si02
#       8
#     8   8   8   8   8   8   8   8
#     4  10  19  31  48  69  93 123 160 199 241 288
#     4  10  18  29  49  73  95 123 160 199 240 285
#     4   9  18  32  49  69  95 128 163 199 242 290
#     4   9  18  32  50  73 100 129 163 203 242 281
#     4   9  17  27  40  63  94 125 156 188 224 273
#     4  10  20  34  51  72  99 129 161 198 241 287
#     4   8  14  25  41  63  93 126 156 185 222 276
#     4   9  19  34  51  72  98 127 160 199 241 288
#
# _framework density 20.005271
#
# number of rings (size 3 to 8) (size 9 to 14) (size 15 to 20)
#    0.000    2.750    0.000    2.625    0.000    4.250 
#    0.000    1.250    0.000    2.625    0.000    3.500 
#    0.000    0.000    0.000    0.000    0.000    0.000 
#
# Total GULP energy -178167.152035 kJ/mol
# GULP energy per Si atom -5567.723501 kJ/mol
# Density = 1.995974 g / cm^3
# Si number density = 20.005271 Si / 1000 Ang^3
#
#
#
# Elastic Constant Matrix: (Units=GPa)
#
#
# Indices 1 2 3 4 5 6 
#
# 1 43.8452 3.5567 0.3399 0.0000 0.0000 0.0000
# 2 3.5567 97.0684 61.5642 0.0000 0.0000 0.0000
# 3 0.3399 61.5642 97.6296 0.0000 0.0000 0.0000
# 4 0.0000 0.0000 0.0000 44.3567 0.0000 0.0000
# 5 0.0000 0.0000 0.0000 0.0000 14.3802 0.0000
# 6 0.0000 0.0000 0.0000 0.0000 0.0000 4.0345
#
#
#
# Elastic Compliance Matrix: (Units=1/GPa)
#
#
# Indices 1 2 3 4 5 6 
#
# 1 0.022908 -0.001315 0.000749 0.000000 0.000000 0.000000
# 2 -0.001315 0.017244 -0.010869 0.000000 0.000000 0.000000
# 3 0.000749 -0.010869 0.017094 0.000000 0.000000 0.000000
# 4 0.000000 0.000000 0.000000 0.022545 0.000000 0.000000
# 5 0.000000 0.000000 0.000000 0.000000 0.069540 0.000000
# 6 0.000000 0.000000 0.000000 0.000000 0.000000 0.247860
#
#
# Mechanical properties :
#
#
# Convention : Reuss Voigt Hill
#
# Bulk Modulus (GPa) = 29.08901 41.05163 35.07032
# Shear Modulus (GPa) = 11.58697 24.09311 17.84004
#
# Velocity S-wave (km/s) = 2.40926 3.47412 2.98949
# Velocity P-wave (km/s) = 4.72352 6.05456 5.42998
#
# Compressibility (1/GPa) = 0.03437724
#
# Stress axis : x y z
#
# Youngs Moduli (GPa) = 43.65220 57.99182 58.49940
#
# Poissons Ratio (x) = 0.07623 -0.04383
# Poissons Ratio (y) = 0.05738 0.63584
# Poissons Ratio (z) = -0.03270 0.63032
#
# Static dielectric constant tensor:
#      x y z
#    x 1.757790 0.000000 0.000000 
#    y 0.000000 1.732870 0.000000 
#    z 0.000000 0.000000 1.745580 
# 
# From -- ./inp_files/16225.got.cif
#   From: 2010.05.17/outbox.cif.g08.bks.cpg/sg35_9_cif.got.tgz:16225.got - 2010.06.03 17:29:28.
