data_PCOD9350951
_publ_section_title
;
Structure prediction by ZEFSAII (Michael W. Deem and Ramdas Pophale) SiO2 
 PCOD9350951
Probable space group: C M C 21
;
_chemical_formula_sum "Si O2"
_cell_formula_units_Z 48
_cell_length_a 9.287331
_cell_length_b 15.904659
_cell_length_c 13.990849
_cell_angle_alpha 90.000000
_cell_angle_beta 90.000000
_cell_angle_gamma 90.000000
_cell_volume 2066.613945
_symmetry_space_group_name_H-M "C M C 21"
_symmetry_group_IT_number 36
_symmetry_cell_setting 'orthorhombic'
loop_
_space_group_symop_operation_xyz
x,y,z
-x,-y,1/2+z
x,-y,1/2+z
-x,y,z
1/2+x,1/2+y,z
1/2-x,1/2-y,1/2+z
1/2+x,1/2-y,1/2+z
1/2-x,1/2+y,z
loop_
_atom_site_type_symbol
_atom_site_label
_atom_site_fract_x
_atom_site_fract_y
_atom_site_fract_z
Si Si1 0.337973 0.958396 0.558280
Si Si2 0.166092 0.046691 0.716548
Si Si3 0.332460 0.370162 0.398181
Si Si4 0.667620 0.624249 0.341987
Si Si5 0.333783 0.217176 0.178077
Si Si6 0.330601 0.805712 0.011341
O O1 0.500000 0.982460 0.535940
O O2 0.263798 0.026218 0.626475
O O3 0.252973 0.934552 0.463815
O O4 0.340169 0.870737 0.618218
O O5 0.172831 0.963889 0.785075
O O6 0.000000 0.056825 0.686126
O O7 0.212625 0.120927 0.787975
O O8 0.500000 0.394256 0.399496
O O9 0.321417 0.280062 0.447718
O O10 0.500000 0.643979 0.361365
O O11 0.737957 0.691240 0.268755
O O12 0.757557 0.627501 0.440085
O O13 0.500000 0.238464 0.203557
O O14 0.260269 0.283516 0.106088
O O15 0.500000 0.819994 0.030789
#
# Coordination Sequence:
#
# PCOD9350951 Si02
#       6
#     8   8   8   8   8   8
#     4   9  17  29  48  73  98 125 157 197 242 285
#     4   9  18  33  52  72  95 127 164 198 234 282
#     4   9  18  33  52  72  95 127 164 198 234 282
#     4  10  19  32  51  74  99 127 161 200 241 286
#     4   9  17  31  50  71  96 127 163 199 238 287
#     4  10  19  32  51  74  99 127 161 200 241 286
#
# _framework density 23.226400000000002
#
# number of rings (size 3 to 8) (size 9 to 14) (size 15 to 20)
#    0.000    2.667    0.000    2.000    0.000    6.000 
#    0.000    1.667    0.000    4.000    0.000    0.000 
#    0.000    0.000    0.000    0.000    0.000    0.000 
#
# Total GULP energy -134289.413685 kJ/mol
# GULP energy per Si atom -5595.392237 kJ/mol
# Density = 2.317354 g / cm^3
# Si number density = 23.226400 Si / 1000 Ang^3
#
#
#
# Elastic Constant Matrix: (Units=GPa)
#
#
# Indices 1 2 3 4 5 6 
#
# 1 99.7333 19.6202 50.3553 0.0000 0.0000 0.0000
# 2 19.6202 93.7994 6.7692 0.0000 0.0000 0.0000
# 3 50.3553 6.7692 112.0431 0.0000 0.0000 0.0000
# 4 0.0000 0.0000 0.0000 49.0164 0.0000 0.0000
# 5 0.0000 0.0000 0.0000 0.0000 37.5412 0.0000
# 6 0.0000 0.0000 0.0000 0.0000 0.0000 14.3735
#
#
#
# Elastic Compliance Matrix: (Units=1/GPa)
#
#
# Indices 1 2 3 4 5 6 
#
# 1 0.013484 -0.002394 -0.005916 0.000000 0.000000 0.000000
# 2 -0.002394 0.011133 0.000403 0.000000 0.000000 0.000000
# 3 -0.005916 0.000403 0.011559 0.000000 0.000000 0.000000
# 4 0.000000 0.000000 0.000000 0.020401 0.000000 0.000000
# 5 0.000000 0.000000 0.000000 0.000000 0.026637 0.000000
# 6 0.000000 0.000000 0.000000 0.000000 0.000000 0.069572
#
#
# Mechanical properties :
#
#
# Convention : Reuss Voigt Hill
#
# Bulk Modulus (GPa) = 49.10566 51.00725 50.05646
# Shear Modulus (GPa) = 28.50821 35.44163 31.97492
#
# Velocity S-wave (km/s) = 3.50724 3.91054 3.71437
# Velocity P-wave (km/s) = 6.13099 6.51140 6.32406
#
# Compressibility (1/GPa) = 0.02036425
#
# Stress axis : x y z
#
# Youngs Moduli (GPa) = 74.15941 89.82594 86.50933
#
# Poissons Ratio (x) = 0.21501 0.51176
# Poissons Ratio (y) = 0.17751 -0.03488
# Poissons Ratio (z) = 0.43870 -0.03622
#
# Static dielectric constant tensor:
#      x y z
#    x 1.778560 0.000000 0.000000 
#    y 0.000000 1.981980 0.000000 
#    z 0.000000 0.000000 1.815660 
# 
# From -- ./inp_files/6739.got.cif
#   From: 2010.05.17/outbox.cif.g08.bks.cpg/sg36_4_cif.got.tgz:6739.got - 2010.06.03 17:41:39.
