data_PCOD9350211
_publ_section_title
;
Structure prediction by ZEFSAII (Michael W. Deem and Ramdas Pophale) SiO2 
 PCOD9350211
Probable space group: C M M 2
;
_chemical_formula_sum "Si O2"
_cell_formula_units_Z 48
_cell_length_a 18.147849
_cell_length_b 8.633874
_cell_length_c 16.438581
_cell_angle_alpha 90.000000
_cell_angle_beta 90.000000
_cell_angle_gamma 90.000000
_cell_volume 2575.699475
_symmetry_space_group_name_H-M "C M M 2"
_symmetry_group_IT_number 35
_symmetry_cell_setting 'orthorhombic'
loop_
_space_group_symop_operation_xyz
x,y,z
-x,-y,z
-x,y,z
x,-y,z
1/2+x,1/2+y,z
1/2-x,1/2-y,z
1/2-x,1/2+y,z
1/2+x,1/2-y,z
loop_
_atom_site_type_symbol
_atom_site_label
_atom_site_fract_x
_atom_site_fract_y
_atom_site_fract_z
Si Si1 0.666145 0.686045 0.349450
Si Si2 0.167421 0.683554 0.847880
Si Si3 0.333922 0.315291 0.015696
Si Si4 0.665855 0.815350 0.182749
Si Si5 0.167158 0.186705 0.527657
Si Si6 0.587183 0.315454 0.692078
O O1 0.667705 0.500000 0.341438
O O2 0.750000 0.750000 0.352525
O O3 0.631731 0.757095 0.267716
O O4 0.635062 0.728847 0.438490
O O5 0.171790 0.500000 0.858582
O O6 0.250000 0.750000 0.837722
O O7 0.122596 0.728461 0.768002
O O8 0.133795 0.757778 0.930129
O O9 0.331934 0.500000 0.018883
O O10 0.250000 0.250000 0.013830
O O11 0.367983 0.249207 0.099009
O O12 0.750000 0.750000 0.183592
O O13 0.668530 0.000000 0.180713
O O14 0.250000 0.250000 0.534163
O O15 0.121453 0.236843 0.606157
O O16 0.170581 0.000000 0.528510
O O17 0.500000 0.294147 0.690763
O O18 0.602478 0.500000 0.701139
#
# Coordination Sequence:
#
# PCOD9350211 Si02
#       6
#     8   8   8   8   8   8
#     4   9  15  24  38  60  90 122 157 194 236 285
#     4  11  21  34  52  75 102 131 167 207 250 298
#     4  10  17  27  43  65  94 127 161 197 241 289
#     4  10  16  23  36  59  92 126 157 191 236 286
#     4   9  18  31  49  72  97 128 164 204 246 290
#     4  10  21  37  54  73  99 131 167 207 253 302
#
# _framework density 18.635714
#
# number of rings (size 3 to 8) (size 9 to 14) (size 15 to 20)
#    0.000    2.167    0.000    8.500    0.000    3.000 
#    0.000    0.000    0.000    0.000    0.000    1.167 
#    0.000    6.667    0.000    0.000    0.000    0.000 
#
# Total GULP energy -133802.049296 kJ/mol
# GULP energy per Si atom -5575.085387 kJ/mol
# Density = 1.859330 g / cm^3
# Si number density = 18.635714 Si / 1000 Ang^3
#
#
#
# Elastic Constant Matrix: (Units=GPa)
#
#
# Indices 1 2 3 4 5 6 
#
# 1 9.0712 18.5622 25.7276 0.0000 0.0000 0.0000
# 2 18.5622 129.7870 76.9408 0.0000 0.0000 0.0000
# 3 25.7276 76.9408 212.9636 0.0000 0.0000 0.0000
# 4 0.0000 0.0000 0.0000 33.8947 0.0000 0.0000
# 5 0.0000 0.0000 0.0000 0.0000 -5.8777 0.0000
# 6 0.0000 0.0000 0.0000 0.0000 0.0000 9.8748
#
#
#
# Elastic Compliance Matrix: (Units=1/GPa)
#
#
# Indices 1 2 3 4 5 6 
#
# 1 0.195272 -0.017743 -0.017180 0.000000 0.000000 0.000000
# 2 -0.017743 0.011417 -0.001981 0.000000 0.000000 0.000000
# 3 -0.017180 -0.001981 0.007487 0.000000 0.000000 0.000000
# 4 0.000000 0.000000 0.000000 0.029503 0.000000 0.000000
# 5 0.000000 0.000000 0.000000 0.000000 -0.170135 0.000000
# 6 0.000000 0.000000 0.000000 0.000000 0.000000 0.101268
#
#
# Mechanical properties :
#
#
# Convention : Reuss Voigt Hill
#
# Bulk Modulus (GPa) = 7.12418 66.03146 36.57782
# Shear Modulus (GPa) = 16.92564 22.95112 19.93838
#
# Velocity S-wave (km/s) = 3.01697 3.51318 3.27448
# Velocity P-wave (km/s) = 3.99591 7.20876 5.82810
#
# Compressibility (1/GPa) = 0.14036694
#
# Stress axis : x y z
#
# Youngs Moduli (GPa) = 5.12107 87.58736 133.56607
#
# Poissons Ratio (x) = 1.55409 2.29465
# Poissons Ratio (y) = 0.09086 0.26464
# Poissons Ratio (z) = 0.08798 0.17354
#
# Static dielectric constant tensor:
#      x y z
#    x 1.595780 0.000000 0.000000 
#    y 0.000000 1.622860 0.000000 
#    z 0.000000 0.000000 1.734030 
# 
# From -- ./inp_files/18748.got.cif
#   From: 2010.05.17/outbox.cif.g08.bks.cpg/sg35_10_cif.got.tgz:18748.got - 2010.06.03 17:29:28.
