data_PCOD9350237
_publ_section_title
;
Structure prediction by ZEFSAII (Michael W. Deem and Ramdas Pophale) SiO2 
 PCOD9350237
Probable space group: C M M 2
;
_chemical_formula_sum "Si O2"
_cell_formula_units_Z 48
_cell_length_a 8.678205
_cell_length_b 17.398014
_cell_length_c 16.531974
_cell_angle_alpha 90.000000
_cell_angle_beta 90.000000
_cell_angle_gamma 90.000000
_cell_volume 2496.055827
_symmetry_space_group_name_H-M "C M M 2"
_symmetry_group_IT_number 35
_symmetry_cell_setting 'orthorhombic'
loop_
_space_group_symop_operation_xyz
x,y,z
-x,-y,z
-x,y,z
x,-y,z
1/2+x,1/2+y,z
1/2-x,1/2-y,z
1/2-x,1/2+y,z
1/2+x,1/2-y,z
loop_
_atom_site_type_symbol
_atom_site_label
_atom_site_fract_x
_atom_site_fract_y
_atom_site_fract_z
Si Si1 0.182495 0.664123 0.000000
Si Si2 0.675661 0.408508 0.842379
Si Si3 0.185383 0.663264 0.682006
Si Si4 0.683660 0.337480 0.165497
Si Si5 0.314516 0.163201 0.505775
Si Si6 0.814611 0.337602 0.330699
O O1 0.250000 0.750000 0.992001
O O2 0.256171 0.628039 0.081286
O O3 0.000000 0.668208 0.010365
O O4 0.227871 0.620758 0.918614
O O5 0.500000 0.379047 0.849850
O O6 0.673066 0.500000 0.843461
O O7 0.746132 0.380829 0.757971
O O8 0.250000 0.750000 0.685137
O O9 0.229747 0.629495 0.593260
O O10 0.000000 0.664794 0.687433
O O11 0.500000 0.334675 0.166281
O O12 0.750000 0.250000 0.164791
O O13 0.745350 0.373347 0.249107
O O14 0.500000 0.167525 0.505302
O O15 0.250000 0.250000 0.506113
O O16 0.270952 0.127729 0.418635
O O17 0.750000 0.250000 0.333188
O O18 0.000000 0.335351 0.323691
#
# Coordination Sequence:
#
# PCOD9350237 Si02
#       6
#     8   8   8   8   8   8
#     4  11  21  35  55  77 102 132 168 207 249 297
#     4  11  24  40  55  73  99 130 165 207 255 304
#     4  10  19  33  53  77 104 134 170 208 249 296
#     4  10  17  26  41  65  97 130 164 200 243 290
#     4   8  15  25  40  64  95 129 162 199 240 285
#     4   9  14  22  36  59  93 129 162 196 239 286
#
# _framework density 19.230339000000001
#
# number of rings (size 3 to 8) (size 9 to 14) (size 15 to 20)
#    0.000    2.167    0.000    7.000    0.000    2.667 
#    0.000    0.000    0.000    0.000    0.000    1.167 
#    0.000    6.667    0.000    0.000    0.000    0.000 
#
# Total GULP energy -133774.519354 kJ/mol
# GULP energy per Si atom -5573.938306 kJ/mol
# Density = 1.918657 g / cm^3
# Si number density = 19.230339 Si / 1000 Ang^3
#
#
#
# Elastic Constant Matrix: (Units=GPa)
#
#
# Indices 1 2 3 4 5 6 
#
# 1 121.7521 10.5968 62.6788 0.0000 0.0000 0.0000
# 2 10.5968 12.6766 26.5650 0.0000 0.0000 0.0000
# 3 62.6788 26.5650 220.4488 0.0000 0.0000 0.0000
# 4 0.0000 0.0000 0.0000 -11.5543 0.0000 0.0000
# 5 0.0000 0.0000 0.0000 0.0000 32.9630 0.0000
# 6 0.0000 0.0000 0.0000 0.0000 0.0000 11.6845
#
#
#
# Elastic Compliance Matrix: (Units=1/GPa)
#
#
# Indices 1 2 3 4 5 6 
#
# 1 0.009713 -0.003120 -0.002386 0.000000 0.000000 0.000000
# 2 -0.003120 0.106539 -0.011951 0.000000 0.000000 0.000000
# 3 -0.002386 -0.011951 0.006655 0.000000 0.000000 0.000000
# 4 0.000000 0.000000 0.000000 -0.086548 0.000000 0.000000
# 5 0.000000 0.000000 0.000000 0.000000 0.030337 0.000000
# 6 0.000000 0.000000 0.000000 0.000000 0.000000 0.085583
#
#
# Mechanical properties :
#
#
# Convention : Reuss Voigt Hill
#
# Bulk Modulus (GPa) = 11.36460 61.61764 36.49112
# Shear Modulus (GPa) = 23.09207 23.62109 23.35658
#
# Velocity S-wave (km/s) = 3.46904 3.50855 3.48885
# Velocity P-wave (km/s) = 4.68702 6.96596 5.93687
#
# Compressibility (1/GPa) = 0.08799257
#
# Stress axis : x y z
#
# Youngs Moduli (GPa) = 102.95324 9.38624 150.27015
#
# Poissons Ratio (x) = 0.02929 0.35850
# Poissons Ratio (y) = 0.32123 1.79591
# Poissons Ratio (z) = 0.24561 0.11218
#
# Static dielectric constant tensor:
#      x y z
#    x 1.653670 0.000000 0.000000 
#    y 0.000000 1.624820 0.000000 
#    z 0.000000 0.000000 1.759690 
# 
# From -- ./inp_files/17823.got.cif
#   From: 2010.05.17/outbox.cif.g08.bks.cpg/sg35_9_cif.got.tgz:17823.got - 2010.06.03 17:29:28.
