data_PCOD9350585
_publ_section_title
;
Structure prediction by ZEFSAII (Michael W. Deem and Ramdas Pophale) SiO2 
 PCOD9350585
Probable space group: C M C 21
;
_chemical_formula_sum "Si O2"
_cell_formula_units_Z 48
_cell_length_a 16.696004
_cell_length_b 20.198006
_cell_length_c 5.508414
_cell_angle_alpha 90.000000
_cell_angle_beta 90.000000
_cell_angle_gamma 90.000000
_cell_volume 1857.580359
_symmetry_space_group_name_H-M "C M C 21"
_symmetry_group_IT_number 36
_symmetry_cell_setting 'orthorhombic'
loop_
_space_group_symop_operation_xyz
x,y,z
-x,-y,1/2+z
x,-y,1/2+z
-x,y,z
1/2+x,1/2+y,z
1/2-x,1/2-y,1/2+z
1/2+x,1/2-y,1/2+z
1/2-x,1/2+y,z
loop_
_atom_site_type_symbol
_atom_site_label
_atom_site_fract_x
_atom_site_fract_y
_atom_site_fract_z
Si Si1 0.361832 0.263805 0.771420
Si Si2 0.910376 0.912241 0.788009
Si Si3 0.674423 0.593508 0.788486
Si Si4 0.091176 0.579610 0.470776
Si Si5 0.672615 0.244585 0.271600
Si Si6 0.648914 0.071588 0.970499
O O1 0.408942 0.331954 0.783087
O O2 0.373723 0.228096 0.516642
O O3 0.264892 0.278850 0.770401
O O4 0.371884 0.227631 0.024783
O O5 0.881282 0.927523 0.514777
O O6 0.000000 0.936607 0.830789
O O7 0.854846 0.928578 0.021548
O O8 0.677279 0.674122 0.778172
O O9 0.761436 0.568667 0.866090
O O10 0.102957 0.604548 0.745145
O O11 0.111601 0.501363 0.501747
O O12 0.000000 0.588260 0.392297
O O13 0.146442 0.601225 0.243214
#
# Coordination Sequence:
#
# PCOD9350585 Si02
#       6
#     8   8   8   8   8   8
#     4   8  14  25  42  61  83 114 149 187 230 273
#     4  10  19  31  46  66  94 127 164 206 242 271
#     4  10  19  30  47  73  95 121 162 199 240 278
#     4  10  19  33  53  76  98 123 150 178 226 283
#     4   8  14  25  41  63  87 110 145 191 230 271
#     4  10  18  30  49  75 100 123 152 189 223 276
#
# _framework density 25.840064000000002
#
# number of rings (size 3 to 8) (size 9 to 14) (size 15 to 20)
#    0.000    2.667    0.000    4.000    0.000    0.000 
#    0.000    0.000    0.000    3.000    0.000   46.667 
#    0.000    0.000    0.000    0.000    0.000    0.000 
#
# Total GULP energy -134167.588303 kJ/mol
# GULP energy per Si atom -5590.316179 kJ/mol
# Density = 2.578125 g / cm^3
# Si number density = 25.840064 Si / 1000 Ang^3
#
#
#
# Elastic Constant Matrix: (Units=GPa)
#
#
# Indices 1 2 3 4 5 6 
#
# 1 103.2453 -3.4163 27.6844 0.0000 0.0000 0.0000
# 2 -3.4163 87.0503 12.3883 0.0000 0.0000 0.0000
# 3 27.6844 12.3883 260.6314 0.0000 0.0000 0.0000
# 4 0.0000 0.0000 0.0000 -0.5906 0.0000 0.0000
# 5 0.0000 0.0000 0.0000 0.0000 36.2894 0.0000
# 6 0.0000 0.0000 0.0000 0.0000 0.0000 11.0701
#
#
#
# Elastic Compliance Matrix: (Units=1/GPa)
#
#
# Indices 1 2 3 4 5 6 
#
# 1 0.009995 0.000547 -0.001088 0.000000 0.000000 0.000000
# 2 0.000547 0.011596 -0.000609 0.000000 0.000000 0.000000
# 3 -0.001088 -0.000609 0.003981 0.000000 0.000000 0.000000
# 4 0.000000 0.000000 0.000000 -1.693168 0.000000 0.000000
# 5 0.000000 0.000000 0.000000 0.000000 0.027556 0.000000
# 6 0.000000 0.000000 0.000000 0.000000 0.000000 0.090334
#
#
# Mechanical properties :
#
#
# Convention : Reuss Voigt Hill
#
# Bulk Modulus (GPa) = 42.96879 58.24886 50.60883
# Shear Modulus (GPa) = -3.24750 36.97182 16.86216
#
# Velocity S-wave (km/s) = -1.12227 3.78669 2.55729
# Velocity P-wave (km/s) = 3.87111 6.45830 5.32425
#
# Compressibility (1/GPa) = 0.02327270
#
# Stress axis : x y z
#
# Youngs Moduli (GPa) = 100.04565 86.23816 251.17209
#
# Poissons Ratio (x) = -0.04718 0.27321
# Poissons Ratio (y) = -0.05473 0.15303
# Poissons Ratio (z) = 0.10882 0.05254
#
# Static dielectric constant tensor:
#      x y z
#    x 1.932390 0.000000 0.000000 
#    y 0.000000 2.411540 0.000000 
#    z 0.000000 0.000000 2.113250 
# 
# From -- ./inp_files/830.got.cif
#   From: 2010.05.17/outbox.cif.g08.bks.cpg/sg36_1_cif.got.tgz:830.got - 2010.06.03 17:41:39.
