data_PCOD9350072
_publ_section_title
;
Structure prediction by ZEFSAII (Michael W. Deem and Ramdas Pophale) SiO2 
 PCOD9350072
Probable space group: C M M 2
;
_chemical_formula_sum "Si O2"
_cell_formula_units_Z 56
_cell_length_a 7.967698
_cell_length_b 19.042831
_cell_length_c 18.971826
_cell_angle_alpha 90.000000
_cell_angle_beta 90.000000
_cell_angle_gamma 90.000000
_cell_volume 2878.548232
_symmetry_space_group_name_H-M "C M M 2"
_symmetry_group_IT_number 35
_symmetry_cell_setting 'orthorhombic'
loop_
_space_group_symop_operation_xyz
x,y,z
-x,-y,z
-x,y,z
x,-y,z
1/2+x,1/2+y,z
1/2-x,1/2-y,z
1/2-x,1/2+y,z
1/2+x,1/2-y,z
loop_
_atom_site_type_symbol
_atom_site_label
_atom_site_fract_x
_atom_site_fract_y
_atom_site_fract_z
Si Si1 0.300589 0.331146 0.968210
Si Si2 0.298865 0.082832 0.678028
Si Si3 0.797358 0.169150 0.394981
Si Si4 0.294159 0.581044 0.103045
Si Si5 0.702324 0.918997 0.831981
Si Si6 0.701070 0.580002 0.526709
Si Si7 0.797579 0.168872 0.237667
O O1 0.500000 0.333593 0.972685
O O2 0.250000 0.250000 0.969663
O O3 0.250334 0.369828 0.896323
O O4 0.234618 0.374520 0.035602
O O5 0.500000 0.087710 0.676627
O O6 0.239415 0.108288 0.754855
O O7 0.236460 0.112344 0.603773
O O8 0.252928 0.000000 0.677738
O O9 0.750000 0.250000 0.405573
O O10 0.733344 0.123181 0.460062
O O11 0.737629 0.148811 0.316341
O O12 0.000000 0.163998 0.394398
O O13 0.500000 0.581538 0.102947
O O14 0.241857 0.500000 0.099103
O O15 0.238157 0.619061 0.174829
O O16 0.500000 0.921877 0.829039
O O17 0.760979 0.000000 0.842249
O O18 0.500000 0.576364 0.520190
O O19 0.767409 0.500000 0.525389
O O20 0.750000 0.250000 0.224764
O O21 0.000000 0.165300 0.238353
#
# Coordination Sequence:
#
# PCOD9350072 Si02
#       7
#     8   8   8   8   8   8   8
#     4  11  22  35  52  74 102 134 168 205 246 295
#     4   8  15  29  49  72  97 126 159 195 240 293
#     4   9  18  31  47  69  96 128 163 197 238 286
#     4   9  18  32  51  76 101 125 159 202 244 288
#     4   9  18  34  55  77 101 129 164 206 250 298
#     4   9  17  29  46  70  98 125 159 203 243 281
#     4   9  17  31  51  71  95 128 162 197 238 286
#
# _framework density 19.454249000000001
#
# number of rings (size 3 to 8) (size 9 to 14) (size 15 to 20)
#    0.000    2.857    0.000    2.143    0.000    2.571 
#    0.000    5.714    0.000    3.857    0.000    4.000 
#    0.000    0.000    0.000    0.000    0.000    0.000 
#
# Total GULP energy -156075.932376 kJ/mol
# GULP energy per Si atom -5574.140442 kJ/mol
# Density = 1.940997 g / cm^3
# Si number density = 19.454249 Si / 1000 Ang^3
#
#
#
# Elastic Constant Matrix: (Units=GPa)
#
#
# Indices 1 2 3 4 5 6 
#
# 1 13.6269 7.2437 15.1571 0.0000 0.0000 0.0000
# 2 7.2437 108.9749 119.0594 0.0000 0.0000 0.0000
# 3 15.1571 119.0594 237.9183 0.0000 0.0000 0.0000
# 4 0.0000 0.0000 0.0000 -48.3305 0.0000 0.0000
# 5 0.0000 0.0000 0.0000 0.0000 19.6651 0.0000
# 6 0.0000 0.0000 0.0000 0.0000 0.0000 12.6969
#
#
#
# Elastic Compliance Matrix: (Units=1/GPa)
#
#
# Indices 1 2 3 4 5 6 
#
# 1 0.078996 0.000546 -0.005306 0.000000 0.000000 0.000000
# 2 0.000546 0.020249 -0.010168 0.000000 0.000000 0.000000
# 3 -0.005306 -0.010168 0.009629 0.000000 0.000000 0.000000
# 4 0.000000 0.000000 0.000000 -0.020691 0.000000 0.000000
# 5 0.000000 0.000000 0.000000 0.000000 0.050852 0.000000
# 6 0.000000 0.000000 0.000000 0.000000 0.000000 0.078759
#
#
# Mechanical properties :
#
#
# Convention : Reuss Voigt Hill
#
# Bulk Modulus (GPa) = 12.65526 71.49338 42.07432
# Shear Modulus (GPa) = 18.24894 11.41030 14.82962
#
# Velocity S-wave (km/s) = 3.06607 2.42444 2.76394
# Velocity P-wave (km/s) = 4.36505 6.68330 5.64447
#
# Compressibility (1/GPa) = 0.07901855
#
# Stress axis : x y z
#
# Youngs Moduli (GPa) = 12.65889 49.38586 103.85039
#
# Poissons Ratio (x) = -0.02695 0.55099
# Poissons Ratio (y) = -0.00691 1.05591
# Poissons Ratio (z) = 0.06716 0.50214
#
# Static dielectric constant tensor:
#      x y z
#    x 1.702490 0.000000 0.000000 
#    y 0.000000 1.639220 0.000000 
#    z 0.000000 0.000000 1.719450 
# 
# From -- ./inp_files/18241.got.cif
#   From: 2010.05.17/outbox.cif.g08.bks.cpg/sg35_10_cif.got.tgz:18241.got - 2010.06.03 17:29:28.
