data_PCOD9350815
_publ_section_title
;
Structure prediction by ZEFSAII (Michael W. Deem and Ramdas Pophale) SiO2 
 PCOD9350815
Probable space group: C M C 21
;
_chemical_formula_sum "Si O2"
_cell_formula_units_Z 64
_cell_length_a 21.519149
_cell_length_b 26.541504
_cell_length_c 5.407707
_cell_angle_alpha 90.000000
_cell_angle_beta 90.000000
_cell_angle_gamma 90.000000
_cell_volume 3088.614986
_symmetry_space_group_name_H-M "C M C 21"
_symmetry_group_IT_number 36
_symmetry_cell_setting 'orthorhombic'
loop_
_space_group_symop_operation_xyz
x,y,z
-x,-y,1/2+z
x,-y,1/2+z
-x,y,z
1/2+x,1/2+y,z
1/2-x,1/2-y,1/2+z
1/2+x,1/2-y,1/2+z
1/2-x,1/2+y,z
loop_
_atom_site_type_symbol
_atom_site_label
_atom_site_fract_x
_atom_site_fract_y
_atom_site_fract_z
Si Si1 0.425165 0.526853 0.106730
Si Si2 0.075801 0.471777 0.141450
Si Si3 0.615257 0.359222 0.689273
Si Si4 0.924527 0.358987 0.020526
Si Si5 0.881816 0.196123 0.688997
Si Si6 0.751194 0.820756 0.706771
Si Si7 0.574767 0.194537 0.018967
Si Si8 0.230951 0.297228 0.206218
O O1 0.402523 0.495572 0.345729
O O2 0.500000 0.523276 0.103607
O O3 0.407624 0.584882 0.140708
O O4 0.095209 0.505194 0.904863
O O5 0.000000 0.471586 0.143124
O O6 0.097219 0.414559 0.098675
O O7 0.596070 0.324076 0.455923
O O8 0.690632 0.357432 0.697849
O O9 0.596041 0.338121 0.958129
O O10 0.906448 0.319403 0.237404
O O11 0.000000 0.360311 0.032015
O O12 0.911099 0.345571 0.735742
O O13 0.900288 0.252400 0.619442
O O14 0.806417 0.195417 0.700941
O O15 0.779312 0.762904 0.706506
O O16 0.711562 0.822032 0.460380
O O17 0.711602 0.822984 0.953947
O O18 0.500000 0.198983 0.012356
#
# Coordination Sequence:
#
# PCOD9350815 Si02
#       8
#     8   8   8   8   8   8   8   8
#     4  10  21  36  51  67  91 123 156 197 249 290
#     4   9  15  23  37  55  71  89 121 166 209 245
#     4  10  19  31  48  68  88 113 150 188 224 269
#     4   9  17  28  39  52  76 108 136 169 213 253
#     4  10  19  29  44  66  90 119 151 185 220 266
#     4   8  14  25  42  63  87 112 133 164 209 257
#     4  10  19  29  39  54  82 118 149 175 209 254
#     4   8  14  25  40  61  89 114 134 162 209 256
#
# _framework density 20.721260999999998
#
# number of rings (size 3 to 8) (size 9 to 14) (size 15 to 20)
#    0.000    2.750    0.000    2.250    0.000    4.000 
#    0.000    0.000    0.000    0.000    0.000    0.000 
#    0.000    6.000    0.000    0.000    0.000    0.000 
#
# Total GULP energy -178597.317949 kJ/mol
# GULP energy per Si atom -5581.166186 kJ/mol
# Density = 2.067410 g / cm^3
# Si number density = 20.721261 Si / 1000 Ang^3
#
#
#
# Elastic Constant Matrix: (Units=GPa)
#
#
# Indices 1 2 3 4 5 6 
#
# 1 18.4386 -13.9691 14.9159 0.0000 0.0000 0.0000
# 2 -13.9691 59.6813 15.2616 0.0000 0.0000 0.0000
# 3 14.9159 15.2616 159.9408 0.0000 0.0000 0.0000
# 4 0.0000 0.0000 0.0000 37.0085 0.0000 0.0000
# 5 0.0000 0.0000 0.0000 0.0000 19.9084 0.0000
# 6 0.0000 0.0000 0.0000 0.0000 0.0000 15.1002
#
#
#
# Elastic Compliance Matrix: (Units=1/GPa)
#
#
# Indices 1 2 3 4 5 6 
#
# 1 0.077051 0.020369 -0.009129 0.000000 0.000000 0.000000
# 2 0.020369 0.022560 -0.004052 0.000000 0.000000 0.000000
# 3 -0.009129 -0.004052 0.007490 0.000000 0.000000 0.000000
# 4 0.000000 0.000000 0.000000 0.027021 0.000000 0.000000
# 5 0.000000 0.000000 0.000000 0.000000 0.050230 0.000000
# 6 0.000000 0.000000 0.000000 0.000000 0.000000 0.066224
#
#
# Mechanical properties :
#
#
# Convention : Reuss Voigt Hill
#
# Bulk Modulus (GPa) = 8.23205 30.05306 19.14256
# Shear Modulus (GPa) = 18.07057 29.19357 23.63207
#
# Velocity S-wave (km/s) = 2.95630 3.75756 3.38075
# Velocity P-wave (km/s) = 3.95403 5.77587 4.94950
#
# Compressibility (1/GPa) = 0.12147637
#
# Stress axis : x y z
#
# Youngs Moduli (GPa) = 12.97838 44.32710 133.50458
#
# Poissons Ratio (x) = -0.90291 1.21881
# Poissons Ratio (y) = -0.26436 0.54100
# Poissons Ratio (z) = 0.11848 0.17962
#
# Static dielectric constant tensor:
#      x y z
#    x 1.800470 0.000000 0.000000 
#    y 0.000000 1.687300 0.000000 
#    z 0.000000 0.000000 1.835560 
# 
# From -- ./inp_files/1806.got.cif
#   From: 2010.05.17/outbox.cif.g08.bks.cpg/sg36_1_cif.got.tgz:1806.got - 2010.06.03 17:41:39.
