data_PCOD9350430
_publ_section_title
;
Structure prediction by ZEFSAII (Michael W. Deem and Ramdas Pophale) SiO2 
 PCOD9350430
Probable space group: C M M 2
;
_chemical_formula_sum "Si O2"
_cell_formula_units_Z 64
_cell_length_a 8.911970
_cell_length_b 28.580522
_cell_length_c 14.175674
_cell_angle_alpha 90.000000
_cell_angle_beta 90.000000
_cell_angle_gamma 90.000000
_cell_volume 3610.668271
_symmetry_space_group_name_H-M "C M M 2"
_symmetry_group_IT_number 35
_symmetry_cell_setting 'orthorhombic'
loop_
_space_group_symop_operation_xyz
x,y,z
-x,-y,z
-x,y,z
x,-y,z
1/2+x,1/2+y,z
1/2-x,1/2-y,z
1/2-x,1/2+y,z
1/2+x,1/2-y,z
loop_
_atom_site_type_symbol
_atom_site_label
_atom_site_fract_x
_atom_site_fract_y
_atom_site_fract_z
Si Si1 0.324760 0.393305 0.133410
Si Si2 0.680733 0.638092 0.743480
Si Si3 0.178374 0.553334 0.287352
Si Si4 0.320043 0.699309 0.562643
Si Si5 0.322584 0.797811 0.128322
Si Si6 0.819997 0.893505 0.457636
Si Si7 0.176692 0.838939 0.956852
Si Si8 0.820101 0.554286 0.635541
O O1 0.500000 0.397070 0.156056
O O2 0.233661 0.434043 0.182681
O O3 0.256960 0.343880 0.170458
O O4 0.309958 0.386277 0.020385
O O5 0.500000 0.631999 0.738580
O O6 0.722031 0.676478 0.664104
O O7 0.718497 0.654116 0.849014
O O8 0.758310 0.589616 0.714607
O O9 0.218657 0.500000 0.311658
O O10 0.257906 0.588609 0.358911
O O11 0.000000 0.558281 0.294220
O O12 0.500000 0.703686 0.561081
O O13 0.250000 0.750000 0.548553
O O14 0.277163 0.659558 0.486338
O O15 0.500000 0.798742 0.141099
O O16 0.250000 0.750000 0.163600
O O17 0.278485 0.803698 0.017270
O O18 0.752164 0.926994 0.538533
O O19 0.000000 0.896453 0.460136
O O20 0.000000 0.825090 0.963240
O O21 0.781181 0.500000 0.651546
O O22 0.000000 0.557992 0.629194
#
# Coordination Sequence:
#
# PCOD9350430 Si02
#       8
#     8   8   8   8   8   8   8   8
#     4   9  19  36  56  78 107 142 180 224 271 322
#     4   9  18  34  53  76 108 143 183 226 266 318
#     4  11  23  38  58  85 112 139 175 224 281 336
#     4   9  19  34  53  78 109 143 178 218 266 319
#     4  10  18  31  52  77 106 140 176 217 266 317
#     4  10  21  37  57  80 106 140 182 226 270 323
#     4   8  17  33  52  75 106 142 182 228 269 316
#     4  10  20  33  50  76 108 140 177 222 272 326
#
# _framework density 17.725249999999999
#
# number of rings (size 3 to 8) (size 9 to 14) (size 15 to 20)
#    0.750    1.750    0.000    3.375    0.000    7.000 
#    0.000    2.500    0.000    5.250    0.000    0.000 
#    0.000    0.000    0.000    0.000    0.000    0.000 
#
# Total GULP energy -178229.766654 kJ/mol
# GULP energy per Si atom -5569.680208 kJ/mol
# Density = 1.768491 g / cm^3
# Si number density = 17.725250 Si / 1000 Ang^3
#
#
#
# Elastic Constant Matrix: (Units=GPa)
#
#
# Indices 1 2 3 4 5 6 
#
# 1 42.9765 35.5179 13.9191 0.0000 0.0000 0.0000
# 2 35.5179 110.6377 24.1322 0.0000 0.0000 0.0000
# 3 13.9191 24.1322 43.4874 0.0000 0.0000 0.0000
# 4 0.0000 0.0000 0.0000 14.6077 0.0000 0.0000
# 5 0.0000 0.0000 0.0000 0.0000 23.7630 0.0000
# 6 0.0000 0.0000 0.0000 0.0000 0.0000 30.4258
#
#
#
# Elastic Compliance Matrix: (Units=1/GPa)
#
#
# Indices 1 2 3 4 5 6 
#
# 1 0.032704 -0.009347 -0.005281 0.000000 0.000000 0.000000
# 2 -0.009347 0.012955 -0.004197 0.000000 0.000000 0.000000
# 3 -0.005281 -0.004197 0.027014 0.000000 0.000000 0.000000
# 4 0.000000 0.000000 0.000000 0.068457 0.000000 0.000000
# 5 0.000000 0.000000 0.000000 0.000000 0.042082 0.000000
# 6 0.000000 0.000000 0.000000 0.000000 0.000000 0.032867
#
#
# Mechanical properties :
#
#
# Convention : Reuss Voigt Hill
#
# Bulk Modulus (GPa) = 28.55255 38.24890 33.40072
# Shear Modulus (GPa) = 18.83928 21.99478 20.41703
#
# Velocity S-wave (km/s) = 3.26367 3.52642 3.39759
# Velocity P-wave (km/s) = 5.50867 6.18114 5.85457
#
# Compressibility (1/GPa) = 0.03502314
#
# Stress axis : x y z
#
# Youngs Moduli (GPa) = 30.57765 77.19242 37.01719
#
# Poissons Ratio (x) = 0.72152 0.19548
# Poissons Ratio (y) = 0.28581 0.15537
# Poissons Ratio (z) = 0.16147 0.32399
#
# Static dielectric constant tensor:
#      x y z
#    x 1.588410 0.000000 0.000000 
#    y 0.000000 1.599270 0.000000 
#    z 0.000000 0.000000 1.621120 
# 
# From -- ./inp_files/16207.got.cif
#   From: 2010.05.17/outbox.cif.g08.bks.cpg/sg35_9_cif.got.tgz:16207.got - 2010.06.03 17:29:28.
