data_PCOD9350781
_publ_section_title
;
Structure prediction by ZEFSAII (Michael W. Deem and Ramdas Pophale) SiO2 
 PCOD9350781
Probable space group: C M C 21
;
_chemical_formula_sum "Si O2"
_cell_formula_units_Z 64
_cell_length_a 13.566150
_cell_length_b 18.770412
_cell_length_c 13.152748
_cell_angle_alpha 90.000000
_cell_angle_beta 90.000000
_cell_angle_gamma 90.000000
_cell_volume 3349.245012
_symmetry_space_group_name_H-M "C M C 21"
_symmetry_group_IT_number 36
_symmetry_cell_setting 'orthorhombic'
loop_
_space_group_symop_operation_xyz
x,y,z
-x,-y,1/2+z
x,-y,1/2+z
-x,y,z
1/2+x,1/2+y,z
1/2-x,1/2-y,1/2+z
1/2+x,1/2-y,1/2+z
1/2-x,1/2+y,z
loop_
_atom_site_type_symbol
_atom_site_label
_atom_site_fract_x
_atom_site_fract_y
_atom_site_fract_z
Si Si1 0.880949 0.765050 0.455290
Si Si2 0.118645 0.569058 0.219699
Si Si3 0.882271 0.272304 0.173232
Si Si4 0.382290 0.281217 0.891172
Si Si5 0.726081 0.885887 0.918113
Si Si6 0.618396 0.347006 0.252344
Si Si7 0.618851 0.787252 0.603280
Si Si8 0.786660 0.425287 0.143550
O O1 0.852611 0.774348 0.574435
O O2 0.834775 0.688575 0.427348
O O3 0.857271 0.822843 0.368101
O O4 0.000000 0.758050 0.451372
O O5 0.173336 0.574474 0.327229
O O6 0.149985 0.637525 0.151403
O O7 0.153832 0.494865 0.173675
O O8 0.000000 0.571444 0.231495
O O9 0.846419 0.247582 0.283012
O O10 0.849767 0.353381 0.159034
O O11 0.000000 0.269525 0.176562
O O12 0.500000 0.282839 0.892548
O O13 0.336632 0.359199 0.899517
O O14 0.350033 0.234181 0.988799
O O15 0.729458 0.927546 0.023094
O O16 0.500000 0.360674 0.245917
O O17 0.640694 0.278857 0.178729
O O18 0.686913 0.409841 0.208042
O O19 0.500000 0.791328 0.599367
#
# Coordination Sequence:
#
# PCOD9350781 Si02
#       8
#     8   8   8   8   8   8   8   8
#     4   9  17  31  55  85 114 149 197 249 298 347
#     4  11  24  40  59  87 123 158 199 247 303 370
#     4   9  19  33  51  83 125 160 192 242 304 359
#     4  10  20  35  58  89 121 153 198 254 300 345
#     4  11  21  36  59  82 115 159 198 242 304 367
#     4  10  18  35  63  91 114 148 204 256 293 344
#     4   9  18  35  61  89 112 146 196 248 291 338
#     4  11  23  37  57  88 120 161 201 242 304 364
#
# _framework density 19.108784
#
# number of rings (size 3 to 8) (size 9 to 14) (size 15 to 20)
#    0.000    2.000    2.500    1.500    0.000    2.500 
#    0.000    3.125    0.000    0.000    0.000    1.750 
#    0.000    0.000    0.000    0.000    0.000    0.000 
#
# Total GULP energy -178509.242001 kJ/mol
# GULP energy per Si atom -5578.413813 kJ/mol
# Density = 1.906529 g / cm^3
# Si number density = 19.108784 Si / 1000 Ang^3
#
#
#
# Elastic Constant Matrix: (Units=GPa)
#
#
# Indices 1 2 3 4 5 6 
#
# 1 65.1986 11.1329 40.4779 0.0000 0.0000 0.0000
# 2 11.1329 42.4805 37.5030 0.0000 0.0000 0.0000
# 3 40.4779 37.5030 123.8207 0.0000 0.0000 0.0000
# 4 0.0000 0.0000 0.0000 22.4950 0.0000 0.0000
# 5 0.0000 0.0000 0.0000 0.0000 25.5155 0.0000
# 6 0.0000 0.0000 0.0000 0.0000 0.0000 32.0167
#
#
#
# Elastic Compliance Matrix: (Units=1/GPa)
#
#
# Indices 1 2 3 4 5 6 
#
# 1 0.019258 0.000697 -0.006507 0.000000 0.000000 0.000000
# 2 0.000697 0.032157 -0.009968 0.000000 0.000000 0.000000
# 3 -0.006507 -0.009968 0.013222 0.000000 0.000000 0.000000
# 4 0.000000 0.000000 0.000000 0.044454 0.000000 0.000000
# 5 0.000000 0.000000 0.000000 0.000000 0.039192 0.000000
# 6 0.000000 0.000000 0.000000 0.000000 0.000000 0.031234
#
#
# Mechanical properties :
#
#
# Convention : Reuss Voigt Hill
#
# Bulk Modulus (GPa) = 30.22655 45.52528 37.87592
# Shear Modulus (GPa) = 22.51228 25.49783 24.00506
#
# Velocity S-wave (km/s) = 3.43609 3.65684 3.54818
# Velocity P-wave (km/s) = 5.62092 6.45802 6.05395
#
# Compressibility (1/GPa) = 0.03308349
#
# Stress axis : x y z
#
# Youngs Moduli (GPa) = 51.92522 31.09702 75.62878
#
# Poissons Ratio (x) = -0.02169 0.49212
# Poissons Ratio (y) = -0.03622 0.75386
# Poissons Ratio (z) = 0.33788 0.30997
#
# Static dielectric constant tensor:
#      x y z
#    x 1.710230 0.000000 0.000000 
#    y 0.000000 1.613120 0.000000 
#    z 0.000000 0.000000 1.731980 
# 
# From -- ./inp_files/8624.got.cif
#   From: 2010.05.17/outbox.cif.g08.bks.cpg/sg36_5_cif.got.tgz:8624.got - 2010.06.03 17:41:39.
