data_PCOD9350124
_publ_section_title
;
Structure prediction by ZEFSAII (Michael W. Deem and Ramdas Pophale) SiO2 
 PCOD9350124
Probable space group: C M M 2
;
_chemical_formula_sum "Si O2"
_cell_formula_units_Z 26
_cell_length_a 27.669218
_cell_length_b 7.958889
_cell_length_c 4.785804
_cell_angle_alpha 90.000000
_cell_angle_beta 90.000000
_cell_angle_gamma 90.000000
_cell_volume 1053.911737
_symmetry_space_group_name_H-M "C M M 2"
_symmetry_group_IT_number 35
_symmetry_cell_setting 'orthorhombic'
loop_
_space_group_symop_operation_xyz
x,y,z
-x,-y,z
-x,y,z
x,-y,z
1/2+x,1/2+y,z
1/2-x,1/2-y,z
1/2-x,1/2+y,z
1/2+x,1/2-y,z
loop_
_atom_site_type_symbol
_atom_site_label
_atom_site_fract_x
_atom_site_fract_y
_atom_site_fract_z
Si Si1 0.500000 0.000000 0.120850
Si Si2 0.802133 0.806109 0.233851
Si Si3 0.861373 0.307403 0.721905
Si Si4 0.448241 0.687089 0.348800
O O1 0.541889 0.151602 0.150622
O O2 0.750000 0.750000 0.124537
O O3 0.843389 0.777727 0.003810
O O4 0.800493 0.000000 0.312775
O O5 0.816794 0.702474 0.505596
O O6 0.873434 0.500000 0.772186
O O7 0.905136 0.219078 0.561097
O O8 0.500000 0.687617 0.510736
O O9 0.443385 0.500000 0.221267
#
# Coordination Sequence:
#
# PCOD9350124 Si02
#       4
#     2   8   8   8
#     4   8  14  32  56  88 132 158 218 250 324 360
#     4  12  26  44  65  94 127 168 216 269 324 383
#     4  12  23  43  67  95 128 171 213 265 324 383
#     4   9  17  33  59  91 127 166 211 259 316 380
#
# _framework density 24.669996999999999
#
# number of rings (size 3 to 8) (size 9 to 14) (size 15 to 20)
#    0.923    0.308    1.538    6.462    0.000    0.000 
#    0.000    1.538    0.000   11.077    0.000    0.000 
#    0.000    0.000    0.000    0.000    0.000    0.000 
#
# Total GULP energy -72450.536234 kJ/mol
# GULP energy per Si atom -5573.118172 kJ/mol
# Density = 2.461385 g / cm^3
# Si number density = 24.669997 Si / 1000 Ang^3
#
#
#
# Elastic Constant Matrix: (Units=GPa)
#
#
# Indices 1 2 3 4 5 6 
#
# 1 96.8532 42.7686 19.1205 0.0000 0.0000 0.0000
# 2 42.7686 205.5832 13.1393 0.0000 0.0000 0.0000
# 3 19.1205 13.1393 71.6428 0.0000 0.0000 0.0000
# 4 0.0000 0.0000 0.0000 22.1684 0.0000 0.0000
# 5 0.0000 0.0000 0.0000 0.0000 20.6498 0.0000
# 6 0.0000 0.0000 0.0000 0.0000 0.0000 46.4132
#
#
#
# Elastic Compliance Matrix: (Units=1/GPa)
#
#
# Indices 1 2 3 4 5 6 
#
# 1 0.011882 -0.002296 -0.002750 0.000000 0.000000 0.000000
# 2 -0.002296 0.005366 -0.000371 0.000000 0.000000 0.000000
# 3 -0.002750 -0.000371 0.014760 0.000000 0.000000 0.000000
# 4 0.000000 0.000000 0.000000 0.045109 0.000000 0.000000
# 5 0.000000 0.000000 0.000000 0.000000 0.048427 0.000000
# 6 0.000000 0.000000 0.000000 0.000000 0.000000 0.021546
#
#
# Mechanical properties :
#
#
# Convention : Reuss Voigt Hill
#
# Bulk Modulus (GPa) = 47.23024 58.23732 52.73378
# Shear Modulus (GPa) = 30.30648 37.78300 34.04474
#
# Velocity S-wave (km/s) = 3.50876 3.91773 3.71887
# Velocity P-wave (km/s) = 5.96671 6.64248 6.31364
#
# Compressibility (1/GPa) = 0.02117288
#
# Stress axis : x y z
#
# Youngs Moduli (GPa) = 84.16311 186.37248 67.74998
#
# Poissons Ratio (x) = 0.42792 0.18631
# Poissons Ratio (y) = 0.19324 0.02515
# Poissons Ratio (z) = 0.23145 0.06919
#
# Static dielectric constant tensor:
#      x y z
#    x 2.047510 0.000000 0.000000 
#    y 0.000000 1.876360 0.000000 
#    z 0.000000 0.000000 1.927990 
# 
# From -- ./inp_files/464.got.cif
#   From: 2010.05.17/outbox.cif.g08.bks.cpg/sg35_1_cif.got.tgz:464.got - 2010.06.03 17:29:28.
