data_PCOD9350824
_publ_section_title
;
Structure prediction by ZEFSAII (Michael W. Deem and Ramdas Pophale) SiO2 
 PCOD9350824
Probable space group: C M C 21
;
_chemical_formula_sum "Si O2"
_cell_formula_units_Z 64
_cell_length_a 7.569255
_cell_length_b 20.837936
_cell_length_c 20.224430
_cell_angle_alpha 90.000000
_cell_angle_beta 90.000000
_cell_angle_gamma 90.000000
_cell_volume 3189.951842
_symmetry_space_group_name_H-M "C M C 21"
_symmetry_group_IT_number 36
_symmetry_cell_setting 'orthorhombic'
loop_
_space_group_symop_operation_xyz
x,y,z
-x,-y,1/2+z
x,-y,1/2+z
-x,y,z
1/2+x,1/2+y,z
1/2-x,1/2-y,1/2+z
1/2+x,1/2-y,1/2+z
1/2-x,1/2+y,z
loop_
_atom_site_type_symbol
_atom_site_label
_atom_site_fract_x
_atom_site_fract_y
_atom_site_fract_z
Si Si1 0.716690 0.677347 0.100630
Si Si2 0.293843 0.245340 0.862549
Si Si3 0.296663 0.788838 0.005775
Si Si4 0.795451 0.968785 0.816972
Si Si5 0.285915 0.397797 0.361074
Si Si6 0.713085 0.562367 0.008330
Si Si7 0.707709 0.925716 0.963902
Si Si8 0.283077 0.657171 0.249942
O O1 0.500000 0.677817 0.098492
O O2 0.772453 0.611488 0.064534
O O3 0.770872 0.677388 0.176762
O O4 0.779750 0.738566 0.058293
O O5 0.500000 0.259508 0.873088
O O6 0.205572 0.255684 0.933636
O O7 0.273877 0.172131 0.839841
O O8 0.225595 0.293766 0.806961
O O9 0.500000 0.798866 0.026251
O O10 0.219372 0.859961 0.994915
O O11 0.789954 0.942306 0.892488
O O12 0.720084 0.913818 0.770230
O O13 0.000000 0.975871 0.797861
O O14 0.719860 0.040539 0.820294
O O15 0.500000 0.398668 0.360373
O O16 0.229806 0.409772 0.437042
O O17 0.500000 0.561784 0.008552
O O18 0.770857 0.488407 0.009451
O O19 0.500000 0.915944 0.950776
O O20 0.500000 0.656918 0.250928
#
# Coordination Sequence:
#
# PCOD9350824 Si02
#       8
#     8   8   8   8   8   8   8   8
#     4   9  17  33  54  73  97 134 178 210 245 305
#     4  11  20  30  50  78 104 129 164 216 258 290
#     4  10  19  33  52  74 100 135 172 204 249 306
#     4   9  17  32  51  72  98 129 167 207 248 295
#     4   9  17  30  49  72  99 129 163 202 249 302
#     4   9  17  31  52  73  96 130 168 208 247 293
#     4  10  19  29  48  76 103 128 160 207 255 296
#     4   9  18  32  52  76  99 130 174 216 251 295
#
# _framework density 20.062998
#
# number of rings (size 3 to 8) (size 9 to 14) (size 15 to 20)
#    0.000    2.500    2.500    1.500    0.000    2.500 
#    0.000    1.250    0.000    4.500    0.000    0.000 
#    0.000    0.000    0.000    0.000    0.000    0.000 
#
# Total GULP energy -178508.004173 kJ/mol
# GULP energy per Si atom -5578.375130 kJ/mol
# Density = 2.001733 g / cm^3
# Si number density = 20.062998 Si / 1000 Ang^3
#
#
#
# Elastic Constant Matrix: (Units=GPa)
#
#
# Indices 1 2 3 4 5 6 
#
# 1 45.6211 -6.0729 -4.7275 0.0000 0.0000 0.0000
# 2 -6.0729 113.7942 10.0941 0.0000 0.0000 0.0000
# 3 -4.7275 10.0941 49.9611 0.0000 0.0000 0.0000
# 4 0.0000 0.0000 0.0000 28.1359 0.0000 0.0000
# 5 0.0000 0.0000 0.0000 0.0000 8.1470 0.0000
# 6 0.0000 0.0000 0.0000 0.0000 0.0000 15.5669
#
#
#
# Elastic Compliance Matrix: (Units=1/GPa)
#
#
# Indices 1 2 3 4 5 6 
#
# 1 0.022252 0.001019 0.001900 0.000000 0.000000 0.000000
# 2 0.001019 0.008995 -0.001721 0.000000 0.000000 0.000000
# 3 0.001900 -0.001721 0.020543 0.000000 0.000000 0.000000
# 4 0.000000 0.000000 0.000000 0.035542 0.000000 0.000000
# 5 0.000000 0.000000 0.000000 0.000000 0.122745 0.000000
# 6 0.000000 0.000000 0.000000 0.000000 0.000000 0.064239
#
#
# Mechanical properties :
#
#
# Convention : Reuss Voigt Hill
#
# Bulk Modulus (GPa) = 18.45506 23.10709 20.78107
# Shear Modulus (GPa) = 17.24247 24.37547 20.80897
#
# Velocity S-wave (km/s) = 2.93476 3.48939 3.22402
# Velocity P-wave (km/s) = 4.54998 5.27036 4.92336
#
# Compressibility (1/GPa) = 0.05418570
#
# Stress axis : x y z
#
# Youngs Moduli (GPa) = 44.93939 111.17498 48.67837
#
# Poissons Ratio (x) = -0.11329 -0.09247
# Poissons Ratio (y) = -0.04579 0.08377
# Poissons Ratio (z) = -0.08537 0.19132
#
# Static dielectric constant tensor:
#      x y z
#    x 1.772630 0.000000 0.000000 
#    y 0.000000 1.734580 0.000000 
#    z 0.000000 0.000000 1.662870 
# 
# From -- ./inp_files/13981.got.cif
#   From: 2010.05.17/outbox.cif.g08.bks.cpg/sg36_7_cif.got.tgz:13981.got - 2010.06.03 17:41:39.
