data_PCOD9350181
_publ_section_title
;
Structure prediction by ZEFSAII (Michael W. Deem and Ramdas Pophale) SiO2 
 PCOD9350181
Probable space group: C M M 2
;
_chemical_formula_sum "Si O2"
_cell_formula_units_Z 32
_cell_length_a 9.000000
_cell_length_b 30.000000
_cell_length_c 12.000000
_cell_angle_alpha 90.000000
_cell_angle_beta 90.000000
_cell_angle_gamma 90.000000
_cell_volume 3240.000000
_symmetry_space_group_name_H-M "C M M 2"
_symmetry_group_IT_number 35
_symmetry_cell_setting 'orthorhombic'
loop_
_space_group_symop_operation_xyz
x,y,z
-x,-y,z
-x,y,z
x,-y,z
1/2+x,1/2+y,z
1/2-x,1/2-y,z
1/2-x,1/2+y,z
1/2+x,1/2-y,z
loop_
_atom_site_type_symbol
_atom_site_label
_atom_site_fract_x
_atom_site_fract_y
_atom_site_fract_z
Si Si1 0.177428 0.052205 0.130250
Si Si2 0.833732 0.913625 0.719550
Si Si3 0.175412 0.610080 0.319758
Si Si4 0.168831 0.813569 0.638581
Si Si5 0.821275 0.204433 0.895055
Si Si6 0.675673 0.110933 0.940402
Si Si7 0.668478 0.951854 0.528382
Si Si8 0.177096 0.295169 0.406529
O O1 0.229052 0.081012 0.235831
O O2 0.000000 0.054603 0.116829
O O3 0.218733 0.000000 0.140351
O O4 0.257992 0.076343 0.028014
O O5 0.834912 0.866720 0.654003
O O6 0.719573 0.907946 0.819479
O O7 0.781105 0.948710 0.629478
O O8 0.000000 0.921472 0.763229
O O9 0.189226 0.586734 0.439581
O O10 0.221945 0.661233 0.336179
O O11 0.000000 0.608596 0.288040
O O12 0.214537 0.797664 0.761946
O O13 0.270282 0.801185 0.534778
O O14 0.000000 0.797702 0.616591
O O15 0.750000 0.250000 0.939471
O O16 0.753576 0.159555 0.947650
O O17 0.000000 0.204062 0.905009
O O18 0.500000 0.115908 0.953097
O O19 0.500000 0.947722 0.572491
O O20 0.681045 0.000000 0.471364
O O21 0.250000 0.250000 0.363455
O O22 0.000000 0.292488 0.404247
#
# Coordination Sequence:
#
# PCOD9350181 Si02
#       8
#     8   8   8   8   8   8   8   8
#     4  11  25  45  69  94 118 150 197 255 314 371
#     4  10  20  35  56  84 122 161 198 247 301 358
#     4  10  22  41  63  88 120 158 201 250 300 360
#     4   9  18  32  52  80 117 161 203 244 289 343
#     4  10  20  35  56  88 127 166 208 251 299 357
#     4  11  23  40  64  90 120 159 204 254 306 363
#     4  10  20  35  57  86 120 157 197 243 298 364
#     4  11  22  35  56  85 120 160 202 246 295 350
#
# _framework density 9.8765429999999999
#
# number of rings (size 3 to 8) (size 9 to 14) (size 15 to 20)
#    0.000    1.750    1.250    4.125    0.000    7.250 
#    0.000    0.625    0.000    1.500    0.000    0.000 
#    0.000    0.000    0.000    0.000    0.000    0.000 
#
# Total GULP energy -178631.966238 kJ/mol
# GULP energy per Si atom -5582.248945 kJ/mol
# Density = 0.985406 g / cm^3
# Si number density = 9.876543 Si / 1000 Ang^3
#
#
#
# Elastic Constant Matrix: (Units=GPa)
#
#
# Indices 1 2 3 4 5 6 
#
# 1 82.7209 66.1359 40.5986 0.0000 0.0000 0.0000
# 2 66.1359 158.6238 48.2387 0.0000 0.0000 0.0000
# 3 40.5986 48.2387 38.3238 0.0000 0.0000 0.0000
# 4 0.0000 0.0000 0.0000 -7.7240 0.0000 0.0000
# 5 0.0000 0.0000 0.0000 0.0000 29.7060 0.0000
# 6 0.0000 0.0000 0.0000 0.0000 0.0000 89.0887
#
#
#
# Elastic Compliance Matrix: (Units=1/GPa)
#
#
# Indices 1 2 3 4 5 6 
#
# 1 0.026735 -0.004105 -0.023155 0.000000 0.000000 0.000000
# 2 -0.004105 0.010844 -0.009301 0.000000 0.000000 0.000000
# 3 -0.023155 -0.009301 0.062330 0.000000 0.000000 0.000000
# 4 0.000000 0.000000 0.000000 -0.129467 0.000000 0.000000
# 5 0.000000 0.000000 0.000000 0.000000 0.033663 0.000000
# 6 0.000000 0.000000 0.000000 0.000000 0.000000 0.011225
#
#
# Mechanical properties :
#
#
# Convention : Reuss Voigt Hill
#
# Bulk Modulus (GPa) = 37.33100 65.51277 51.42188
# Shear Modulus (GPa) = 51.34446 30.52715 40.93580
#
# Velocity S-wave (km/s) = 5.10388 3.93547 4.55727
# Velocity P-wave (km/s) = 7.32616 7.34087 7.33352
#
# Compressibility (1/GPa) = 0.02678739
#
# Stress axis : x y z
#
# Youngs Moduli (GPa) = 37.40394 92.21370 16.04373
#
# Poissons Ratio (x) = 0.37857 0.37149
# Poissons Ratio (y) = 0.15356 0.14922
# Poissons Ratio (z) = 0.86607 0.85767
#
# Static dielectric constant tensor:
#      x y z
#    x 1.693420 0.000000 0.000000 
#    y 0.000000 1.765480 0.000000 
#    z 0.000000 0.000000 1.693820 
# 
# From -- ./inp_files/12012.got.cif
#   From: 2010.05.17/outbox.ucp.g08.bks.cvg/sg35_7_cif.got.tgz:12012.got - 2010.06.11 10:36:28.
