data_PCOD9350782
_publ_section_title
;
Structure prediction by ZEFSAII (Michael W. Deem and Ramdas Pophale) SiO2 
 PCOD9350782
Probable space group: C M C 21
;
_chemical_formula_sum "Si O2"
_cell_formula_units_Z 64
_cell_length_a 14.934312
_cell_length_b 11.448399
_cell_length_c 16.861041
_cell_angle_alpha 90.000000
_cell_angle_beta 90.000000
_cell_angle_gamma 90.000000
_cell_volume 2882.798993
_symmetry_space_group_name_H-M "C M C 21"
_symmetry_group_IT_number 36
_symmetry_cell_setting 'orthorhombic'
loop_
_space_group_symop_operation_xyz
x,y,z
-x,-y,1/2+z
x,-y,1/2+z
-x,y,z
1/2+x,1/2+y,z
1/2-x,1/2-y,1/2+z
1/2+x,1/2-y,1/2+z
1/2-x,1/2+y,z
loop_
_atom_site_type_symbol
_atom_site_label
_atom_site_fract_x
_atom_site_fract_y
_atom_site_fract_z
Si Si1 0.402035 0.541216 0.854600
Si Si2 0.160441 0.748107 0.449664
Si Si3 0.394610 0.136036 0.286841
Si Si4 0.097599 0.370228 0.317166
Si Si5 0.145546 0.348419 0.493005
Si Si6 0.598672 0.594238 0.501396
Si Si7 0.790966 0.432900 0.073919
Si Si8 0.769762 0.171214 0.739622
O O1 0.500000 0.542329 0.816424
O O2 0.399032 0.641393 0.923599
O O3 0.392150 0.424384 0.906171
O O4 0.325799 0.578120 0.793033
O O5 0.147564 0.665515 0.373223
O O6 0.257167 0.804755 0.463744
O O7 0.152736 0.665766 0.526143
O O8 0.500000 0.168998 0.286023
O O9 0.335792 0.218451 0.229996
O O10 0.390678 0.997488 0.276612
O O11 0.101166 0.391654 0.411542
O O12 0.181053 0.294755 0.288470
O O13 0.000000 0.322315 0.296502
O O14 0.099137 0.230881 0.521621
O O15 0.156518 0.447322 0.558858
O O16 0.500000 0.547357 0.524524
O O17 0.691825 0.546861 0.535672
O O18 0.765702 0.384604 0.159333
#
# Coordination Sequence:
#
# PCOD9350782 Si02
#       8
#     8   8   8   8   8   8   8   8
#     4  10  20  40  69  96 121 169 228 272 318 387
#     4  10  18  35  64  88 118 158 216 261 305 372
#     4  10  21  39  66  93 120 166 218 260 308 380
#     4  11  22  38  62  92 123 163 212 261 311 379
#     4  11  20  38  62  90 124 164 209 264 322 376
#     4  10  22  39  62  93 126 165 221 274 316 383
#     4  11  23  38  61  94 129 175 206 263 338 390
#     4  11  23  39  60  94 133 166 205 267 329 389
#
# _framework density 22.200647
#
# number of rings (size 3 to 8) (size 9 to 14) (size 15 to 20)
#    0.000    1.500    5.000    1.875    1.750    3.000 
#    0.000    3.750    0.000    0.750    0.000    0.000 
#    0.000    0.000    0.000    0.000    0.000    0.000 
#
# Total GULP energy -178472.682231 kJ/mol
# GULP energy per Si atom -5577.271320 kJ/mol
# Density = 2.215012 g / cm^3
# Si number density = 22.200647 Si / 1000 Ang^3
#
#
#
# Elastic Constant Matrix: (Units=GPa)
#
#
# Indices 1 2 3 4 5 6 
#
# 1 95.6925 9.7835 13.7423 0.0000 0.0000 0.0000
# 2 9.7835 64.2899 13.8600 0.0000 0.0000 0.0000
# 3 13.7423 13.8600 69.5322 0.0000 0.0000 0.0000
# 4 0.0000 0.0000 0.0000 17.6372 0.0000 0.0000
# 5 0.0000 0.0000 0.0000 0.0000 5.7078 0.0000
# 6 0.0000 0.0000 0.0000 0.0000 0.0000 21.5533
#
#
#
# Elastic Compliance Matrix: (Units=1/GPa)
#
#
# Indices 1 2 3 4 5 6 
#
# 1 0.010850 -0.001242 -0.001897 0.000000 0.000000 0.000000
# 2 -0.001242 0.016395 -0.003023 0.000000 0.000000 0.000000
# 3 -0.001897 -0.003023 0.015359 0.000000 0.000000 0.000000
# 4 0.000000 0.000000 0.000000 0.056698 0.000000 0.000000
# 5 0.000000 0.000000 0.000000 0.000000 0.175199 0.000000
# 6 0.000000 0.000000 0.000000 0.000000 0.000000 0.046397
#
#
# Mechanical properties :
#
#
# Convention : Reuss Voigt Hill
#
# Bulk Modulus (GPa) = 33.02399 33.80959 33.41679
# Shear Modulus (GPa) = 14.56390 21.78824 18.17607
#
# Velocity S-wave (km/s) = 2.56405 3.13617 2.86443
# Velocity P-wave (km/s) = 4.86553 5.32693 5.10145
#
# Compressibility (1/GPa) = 0.03028101
#
# Stress axis : x y z
#
# Youngs Moduli (GPa) = 92.16994 60.99346 65.10765
#
# Poissons Ratio (x) = 0.07576 0.12349
# Poissons Ratio (y) = 0.11449 0.19679
# Poissons Ratio (z) = 0.17482 0.18436
#
# Static dielectric constant tensor:
#      x y z
#    x 1.832830 0.000000 0.000000 
#    y 0.000000 1.888880 0.000000 
#    z 0.000000 0.000000 1.836770 
# 
# From -- ./inp_files/14738.got.cif
#   From: 2010.05.17/outbox.cif.g08.bks.cpg/sg36_8_cif.got.tgz:14738.got - 2010.06.03 17:41:39.
