data_PCOD9350546
_publ_section_title
;
Structure prediction by ZEFSAII (Michael W. Deem and Ramdas Pophale) SiO2 
 PCOD9350546
Probable space group: C M C 21
;
_chemical_formula_sum "Si O2"
_cell_formula_units_Z 64
_cell_length_a 7.391763
_cell_length_b 20.786863
_cell_length_c 20.734390
_cell_angle_alpha 90.000000
_cell_angle_beta 90.000000
_cell_angle_gamma 90.000000
_cell_volume 3185.871469
_symmetry_space_group_name_H-M "C M C 21"
_symmetry_group_IT_number 36
_symmetry_cell_setting 'orthorhombic'
loop_
_space_group_symop_operation_xyz
x,y,z
-x,-y,1/2+z
x,-y,1/2+z
-x,y,z
1/2+x,1/2+y,z
1/2-x,1/2-y,1/2+z
1/2+x,1/2-y,1/2+z
1/2-x,1/2+y,z
loop_
_atom_site_type_symbol
_atom_site_label
_atom_site_fract_x
_atom_site_fract_y
_atom_site_fract_z
Si Si1 0.218758 0.231873 0.121680
Si Si2 0.719765 0.446788 0.458626
Si Si3 0.211047 0.269835 0.979581
Si Si4 0.221586 0.170502 0.872714
Si Si5 0.712287 0.661759 0.728412
Si Si6 0.282125 0.414305 0.992495
Si Si7 0.779039 0.050556 0.637539
Si Si8 0.780084 0.910968 0.603943
O O1 0.272919 0.279616 0.178447
O O2 0.278722 0.158010 0.129996
O O3 0.000000 0.232657 0.120885
O O4 0.285102 0.255858 0.051334
O O5 0.500000 0.447314 0.458432
O O6 0.775838 0.398023 0.403165
O O7 0.778818 0.521032 0.456059
O O8 0.772929 0.419160 0.528852
O O9 0.284685 0.225667 0.922262
O O10 0.000000 0.252325 0.984338
O O11 0.224453 0.345534 0.966252
O O12 0.285160 0.176880 0.799311
O O13 0.000000 0.173100 0.872321
O O14 0.500000 0.648681 0.737669
O O15 0.786691 0.598311 0.692833
O O16 0.500000 0.414618 0.992416
O O17 0.224415 0.422299 0.067241
O O18 0.000000 0.051165 0.637788
O O19 0.722600 0.976016 0.640114
O O20 0.000000 0.910839 0.604539
#
# Coordination Sequence:
#
# PCOD9350546 Si02
#       8
#     8   8   8   8   8   8   8   8
#     4  10  18  29  48  71  94 123 157 194 231 275
#     4   8  13  25  46  70  91 114 152 196 230 265
#     4  10  18  29  47  70  94 123 159 192 225 275
#     4   9  17  30  47  68  93 125 162 192 226 279
#     4  10  19  31  48  69  96 125 154 192 237 285
#     4   9  16  27  47  72  96 116 144 194 242 271
#     4   8  14  25  43  68  91 114 146 187 233 271
#     4   8  13  24  44  68  91 114 148 193 230 261
#
# _framework density 20.088694
#
# number of rings (size 3 to 8) (size 9 to 14) (size 15 to 20)
#    0.000    3.000    2.500    1.500    0.000    0.000 
#    0.000    1.875    0.000    8.250    0.000    0.000 
#    0.000    0.000    0.000    0.000    0.000    0.000 
#
# Total GULP energy -178471.353778 kJ/mol
# GULP energy per Si atom -5577.229806 kJ/mol
# Density = 2.004297 g / cm^3
# Si number density = 20.088694 Si / 1000 Ang^3
#
#
#
# Elastic Constant Matrix: (Units=GPa)
#
#
# Indices 1 2 3 4 5 6 
#
# 1 63.9727 -9.9277 3.2787 0.0000 0.0000 0.0000
# 2 -9.9277 169.7734 103.7067 0.0000 0.0000 0.0000
# 3 3.2787 103.7067 154.6097 0.0000 0.0000 0.0000
# 4 0.0000 0.0000 0.0000 25.5977 0.0000 0.0000
# 5 0.0000 0.0000 0.0000 0.0000 3.9966 0.0000
# 6 0.0000 0.0000 0.0000 0.0000 0.0000 25.7923
#
#
#
# Elastic Compliance Matrix: (Units=1/GPa)
#
#
# Indices 1 2 3 4 5 6 
#
# 1 0.016016 0.001938 -0.001640 0.000000 0.000000 0.000000
# 2 0.001938 0.010214 -0.006892 0.000000 0.000000 0.000000
# 3 -0.001640 -0.006892 0.011126 0.000000 0.000000 0.000000
# 4 0.000000 0.000000 0.000000 0.039066 0.000000 0.000000
# 5 0.000000 0.000000 0.000000 0.000000 0.250215 0.000000
# 6 0.000000 0.000000 0.000000 0.000000 0.000000 0.038771
#
#
# Mechanical properties :
#
#
# Convention : Reuss Voigt Hill
#
# Bulk Modulus (GPa) = 41.37600 64.71904 53.04752
# Shear Modulus (GPa) = 12.93157 30.49717 21.71437
#
# Velocity S-wave (km/s) = 2.53992 3.90054 3.29131
# Velocity P-wave (km/s) = 5.40768 7.25067 6.39591
#
# Compressibility (1/GPa) = 0.02416860
#
# Stress axis : x y z
#
# Youngs Moduli (GPa) = 62.43562 97.90928 89.88303
#
# Poissons Ratio (x) = -0.18977 0.14739
# Poissons Ratio (y) = -0.12101 0.61947
# Poissons Ratio (z) = 0.10238 0.67479
#
# Static dielectric constant tensor:
#      x y z
#    x 1.801200 0.000000 0.000000 
#    y 0.000000 1.710760 0.000000 
#    z 0.000000 0.000000 1.678400 
# 
# From -- ./inp_files/13985.got.cif
#   From: 2010.05.17/outbox.cif.g08.bks.cpg/sg36_7_cif.got.tgz:13985.got - 2010.06.03 17:41:39.
