data_PCOD9350968
_publ_section_title
;
Structure prediction by ZEFSAII (Michael W. Deem and Ramdas Pophale) SiO2 
 PCOD9350968
Probable space group: C M C 21
;
_chemical_formula_sum "Si O2"
_cell_formula_units_Z 64
_cell_length_a 8.754474
_cell_length_b 21.556973
_cell_length_c 18.982956
_cell_angle_alpha 90.000000
_cell_angle_beta 90.000000
_cell_angle_gamma 90.000000
_cell_volume 3582.462690
_symmetry_space_group_name_H-M "C M C 21"
_symmetry_group_IT_number 36
_symmetry_cell_setting 'orthorhombic'
loop_
_space_group_symop_operation_xyz
x,y,z
-x,-y,1/2+z
x,-y,1/2+z
-x,y,z
1/2+x,1/2+y,z
1/2-x,1/2-y,1/2+z
1/2+x,1/2-y,1/2+z
1/2-x,1/2+y,z
loop_
_atom_site_type_symbol
_atom_site_label
_atom_site_fract_x
_atom_site_fract_y
_atom_site_fract_z
Si Si1 0.313435 0.869220 0.778330
Si Si2 0.676192 0.004703 0.781726
Si Si3 0.323347 0.004172 0.610477
Si Si4 0.316685 0.250447 0.529684
Si Si5 0.814865 0.366284 0.614463
Si Si6 0.313477 0.249448 0.367069
Si Si7 0.816682 0.133655 0.776064
Si Si8 0.182390 0.134222 0.612389
O O1 0.500000 0.871293 0.778642
O O2 0.269395 0.859198 0.696727
O O3 0.263483 0.812812 0.827060
O O4 0.261945 0.937348 0.803651
O O5 0.500000 0.010218 0.803871
O O6 0.678513 0.002429 0.696105
O O7 0.763479 0.066560 0.802735
O O8 0.500000 0.011622 0.588710
O O9 0.230554 0.064978 0.588980
O O10 0.268334 0.935477 0.589084
O O11 0.252027 0.310562 0.569471
O O12 0.266962 0.250979 0.448165
O O13 0.257884 0.188194 0.567103
O O14 0.000000 0.248295 0.032182
O O15 0.000000 0.364523 0.612301
O O16 0.500000 0.249484 0.365505
O O17 0.261442 0.309827 0.323970
O O18 0.767723 0.141223 0.694454
O O19 0.000000 0.134692 0.775714
O O20 0.000000 0.140375 0.609754
#
# Coordination Sequence:
#
# PCOD9350968 Si02
#       8
#     8   8   8   8   8   8   8   8
#     4   8  14  29  53  74  92 121 161 198 234 282
#     4   8  14  26  48  76  98 115 145 195 244 282
#     4   8  15  29  50  76 101 122 151 196 246 291
#     4  11  22  33  47  69 100 135 166 200 240 283
#     4   9  17  32  55  77  97 125 161 202 244 286
#     4   9  18  32  48  67  94 129 165 196 231 280
#     4   9  17  31  52  73  93 122 158 194 235 286
#     4  10  19  32  53  76  97 125 161 201 242 286
#
# _framework density 17.864805
#
# number of rings (size 3 to 8) (size 9 to 14) (size 15 to 20)
#    0.000    3.000    0.000    3.000    0.000    3.000 
#    0.000    4.375    0.000    8.250    0.000    0.000 
#    0.000    0.000    0.000    0.000    0.000    0.000 
#
# Total GULP energy -178304.263350 kJ/mol
# GULP energy per Si atom -5572.008230 kJ/mol
# Density = 1.782414 g / cm^3
# Si number density = 17.864805 Si / 1000 Ang^3
#
#
#
# Elastic Constant Matrix: (Units=GPa)
#
#
# Indices 1 2 3 4 5 6 
#
# 1 14.2153 28.1083 18.3413 0.0000 0.0000 0.0000
# 2 28.1083 189.6143 78.9652 0.0000 0.0000 0.0000
# 3 18.3413 78.9652 77.7076 0.0000 0.0000 0.0000
# 4 0.0000 0.0000 0.0000 -4.9239 0.0000 0.0000
# 5 0.0000 0.0000 0.0000 0.0000 13.7677 0.0000
# 6 0.0000 0.0000 0.0000 0.0000 0.0000 33.5055
#
#
#
# Elastic Compliance Matrix: (Units=1/GPa)
#
#
# Indices 1 2 3 4 5 6 
#
# 1 0.110300 -0.009551 -0.016329 0.000000 0.000000 0.000000
# 2 -0.009551 0.009970 -0.007877 0.000000 0.000000 0.000000
# 3 -0.016329 -0.007877 0.024728 0.000000 0.000000 0.000000
# 4 0.000000 0.000000 0.000000 -0.203092 0.000000 0.000000
# 5 0.000000 0.000000 0.000000 0.000000 0.072634 0.000000
# 6 0.000000 0.000000 0.000000 0.000000 0.000000 0.029846
#
#
# Mechanical properties :
#
#
# Convention : Reuss Voigt Hill
#
# Bulk Modulus (GPa) = 12.90585 59.15185 36.02885
# Shear Modulus (GPa) = 36.30377 18.87802 27.59090
#
# Velocity S-wave (km/s) = 4.51282 3.25424 3.93418
# Velocity P-wave (km/s) = 5.86463 6.87771 6.39127
#
# Compressibility (1/GPa) = 0.07748426
#
# Stress axis : x y z
#
# Youngs Moduli (GPa) = 9.06619 100.29943 40.44067
#
# Poissons Ratio (x) = 0.95792 0.66035
# Poissons Ratio (y) = 0.08659 0.31856
# Poissons Ratio (z) = 0.14804 0.79009
#
# Static dielectric constant tensor:
#      x y z
#    x 1.609590 0.000000 0.000000 
#    y 0.000000 1.621030 0.000000 
#    z 0.000000 0.000000 1.592580 
# 
# From -- ./inp_files/14109.got.cif
#   From: 2010.05.17/outbox.cif.g08.bks.cpg/sg36_8_cif.got.tgz:14109.got - 2010.06.03 17:41:39.
