data_PCOD9350162
_publ_section_title
;
Structure prediction by ZEFSAII (Michael W. Deem and Ramdas Pophale) SiO2 
 PCOD9350162
Probable space group: C M M 2
;
_chemical_formula_sum "Si O2"
_cell_formula_units_Z 24
_cell_length_a 9.000000
_cell_length_b 21.000000
_cell_length_c 15.000000
_cell_angle_alpha 90.000000
_cell_angle_beta 90.000000
_cell_angle_gamma 90.000000
_cell_volume 2835.000000
_symmetry_space_group_name_H-M "C M M 2"
_symmetry_group_IT_number 35
_symmetry_cell_setting 'orthorhombic'
loop_
_space_group_symop_operation_xyz
x,y,z
-x,-y,z
-x,y,z
x,-y,z
1/2+x,1/2+y,z
1/2-x,1/2-y,z
1/2-x,1/2+y,z
1/2+x,1/2-y,z
loop_
_atom_site_type_symbol
_atom_site_label
_atom_site_fract_x
_atom_site_fract_y
_atom_site_fract_z
Si Si1 0.821704 0.815633 0.576940
Si Si2 0.819331 0.572414 0.248429
Si Si3 0.832722 0.077060 0.874712
Si Si4 0.828969 0.422498 0.050712
Si Si5 0.320206 0.814982 0.381116
Si Si6 0.824074 0.424770 0.692217
O O1 0.750000 0.750000 0.614215
O O2 0.751943 0.822133 0.478393
O O3 0.769247 0.877164 0.631349
O O4 0.000000 0.810367 0.573692
O O5 0.768385 0.500000 0.266654
O O6 0.771798 0.593302 0.149347
O O7 0.779999 0.624101 0.321772
O O8 0.000000 0.570035 0.244903
O O9 0.722230 0.090458 0.793678
O O10 0.000000 0.099825 0.856433
O O11 0.839067 0.000000 0.880471
O O12 0.769981 0.100305 0.968915
O O13 0.831769 0.500000 0.048605
O O14 0.000000 0.401468 0.040224
O O15 0.500000 0.810048 0.387464
O O16 0.250000 0.750000 0.342939
O O17 0.790876 0.500000 0.676367
O O18 0.000000 0.415721 0.678455
#
# Coordination Sequence:
#
# PCOD9350162 Si02
#       6
#     8   8   8   8   8   8
#     4  11  22  37  55  74  99 131 168 207 250 301
#     4   8  15  28  48  73  97 124 162 205 244 284
#     4   9  16  26  42  68 101 132 161 197 243 292
#     4   8  13  24  43  66  92 123 160 200 241 287
#     4  10  19  33  52  72  96 128 165 202 244 296
#     4  10  20  34  53  77 103 132 167 206 249 296
#
# _framework density 8.4656079999999996
#
# number of rings (size 3 to 8) (size 9 to 14) (size 15 to 20)
#    0.000    2.667    0.000    5.000    0.000    3.667 
#    0.000    3.333    0.000    4.500    0.000    4.667 
#    0.000    0.000    0.000    0.000    0.000    0.000 
#
# Total GULP energy -133685.170834 kJ/mol
# GULP energy per Si atom -5570.215451 kJ/mol
# Density = 0.844634 g / cm^3
# Si number density = 8.465608 Si / 1000 Ang^3
#
#
#
# Elastic Constant Matrix: (Units=GPa)
#
#
# Indices 1 2 3 4 5 6 
#
# 1 89.6485 37.0662 31.9958 0.0000 0.0000 0.0000
# 2 37.0662 77.8881 54.0897 0.0000 0.0000 0.0000
# 3 31.9958 54.0897 76.7361 0.0000 0.0000 0.0000
# 4 0.0000 0.0000 0.0000 -21.0994 0.0000 0.0000
# 5 0.0000 0.0000 0.0000 0.0000 21.2336 0.0000
# 6 0.0000 0.0000 0.0000 0.0000 0.0000 23.3820
#
#
#
# Elastic Compliance Matrix: (Units=1/GPa)
#
#
# Indices 1 2 3 4 5 6 
#
# 1 0.014082 -0.005140 -0.002249 0.000000 0.000000 0.000000
# 2 -0.005140 0.027026 -0.016907 0.000000 0.000000 0.000000
# 3 -0.002249 -0.016907 0.025887 0.000000 0.000000 0.000000
# 4 0.000000 0.000000 0.000000 -0.047395 0.000000 0.000000
# 5 0.000000 0.000000 0.000000 0.000000 0.047095 0.000000
# 6 0.000000 0.000000 0.000000 0.000000 0.000000 0.042768
#
#
# Mechanical properties :
#
#
# Convention : Reuss Voigt Hill
#
# Bulk Modulus (GPa) = 54.33659 54.50846 54.42253
# Shear Modulus (GPa) = 30.45253 12.77797 21.61525
#
# Velocity S-wave (km/s) = 4.24559 2.75016 3.57690
# Velocity P-wave (km/s) = 7.49638 6.50757 7.01941
#
# Compressibility (1/GPa) = 0.01840380
#
# Stress axis : x y z
#
# Youngs Moduli (GPa) = 71.01029 37.00110 38.62993
#
# Poissons Ratio (x) = 0.19019 0.08686
# Poissons Ratio (y) = 0.36500 0.65312
# Poissons Ratio (z) = 0.15968 0.62558
#
# Static dielectric constant tensor:
#      x y z
#    x 1.568180 0.000000 0.000000 
#    y 0.000000 1.567670 0.000000 
#    z 0.000000 0.000000 1.587790 
# 
# From -- ./inp_files/15374.got.cif
#   From: 2010.05.17/outbox.ucp.g08.bks.cvg/sg35_8_cif.got.tgz:15374.got - 2010.06.11 10:36:28.
