data_PCOD9350432
_publ_section_title
;
Structure prediction by ZEFSAII (Michael W. Deem and Ramdas Pophale) SiO2 
 PCOD9350432
Probable space group: C M M 2
;
_chemical_formula_sum "Si O2"
_cell_formula_units_Z 64
_cell_length_a 17.488037
_cell_length_b 27.806679
_cell_length_c 6.964351
_cell_angle_alpha 90.000000
_cell_angle_beta 90.000000
_cell_angle_gamma 90.000000
_cell_volume 3386.654072
_symmetry_space_group_name_H-M "C M M 2"
_symmetry_group_IT_number 35
_symmetry_cell_setting 'orthorhombic'
loop_
_space_group_symop_operation_xyz
x,y,z
-x,-y,z
-x,y,z
x,-y,z
1/2+x,1/2+y,z
1/2-x,1/2-y,z
1/2-x,1/2+y,z
1/2+x,1/2-y,z
loop_
_atom_site_type_symbol
_atom_site_label
_atom_site_fract_x
_atom_site_fract_y
_atom_site_fract_z
Si Si1 0.088499 0.794277 0.072350
Si Si2 0.411159 0.113068 0.680185
Si Si3 0.088393 0.862937 0.754122
Si Si4 0.589373 0.226277 0.707405
Si Si5 0.717151 0.885666 0.366980
Si Si6 0.818686 0.054335 0.652808
Si Si7 0.821216 0.797562 0.455121
Si Si8 0.311758 0.943465 0.977860
O O1 0.139926 0.785539 0.253998
O O2 0.000000 0.799520 0.132122
O O3 0.114574 0.842311 0.959248
O O4 0.092926 0.752962 0.911918
O O5 0.500000 0.103837 0.643774
O O6 0.401585 0.169436 0.733234
O O7 0.359933 0.107222 0.490316
O O8 0.379814 0.078994 0.849195
O O9 0.106660 0.917893 0.721773
O O10 0.131276 0.834306 0.587804
O O11 0.000000 0.851267 0.741929
O O12 0.500000 0.234331 0.633890
O O13 0.659001 0.249220 0.581104
O O14 0.779739 0.918599 0.474997
O O15 0.747560 0.830513 0.394692
O O16 0.704360 0.907909 0.156396
O O17 0.833290 0.000000 0.601422
O O18 0.759612 0.057226 0.830478
O O19 0.324402 0.000000 0.032261
#
# Coordination Sequence:
#
# PCOD9350432 Si02
#       8
#     8   8   8   8   8   8   8   8
#     4   9  16  28  49  75 105 144 184 219 255 300
#     4  10  23  42  59  79 109 139 173 225 285 341
#     4   9  17  28  45  74 108 142 184 225 258 304
#     4   9  19  35  54  78 111 150 186 220 264 321
#     4  10  21  36  57  82 107 139 177 222 278 338
#     4   9  18  33  52  74 104 140 176 219 270 323
#     4  10  18  31  52  79 110 145 184 221 263 318
#     4  10  21  39  61  82 105 138 181 229 285 344
#
# _framework density 18.897708000000002
#
# number of rings (size 3 to 8) (size 9 to 14) (size 15 to 20)
#    0.000    2.500    0.000    3.000    0.000    4.000 
#    0.000    2.500    0.000    0.000    0.000    3.500 
#    0.000    0.000    0.000    0.000    0.000    0.000 
#
# Total GULP energy -178147.741448 kJ/mol
# GULP energy per Si atom -5567.116920 kJ/mol
# Density = 1.885470 g / cm^3
# Si number density = 18.897708 Si / 1000 Ang^3
#
#
#
# Elastic Constant Matrix: (Units=GPa)
#
#
# Indices 1 2 3 4 5 6 
#
# 1 25.4287 12.8692 15.3301 0.0000 0.0000 0.0000
# 2 12.8692 80.3967 4.4893 0.0000 0.0000 0.0000
# 3 15.3301 4.4893 75.0043 0.0000 0.0000 0.0000
# 4 0.0000 0.0000 0.0000 18.3551 0.0000 0.0000
# 5 0.0000 0.0000 0.0000 0.0000 -94.7599 0.0000
# 6 0.0000 0.0000 0.0000 0.0000 0.0000 27.2301
#
#
#
# Elastic Compliance Matrix: (Units=1/GPa)
#
#
# Indices 1 2 3 4 5 6 
#
# 1 0.048750 -0.007271 -0.009529 0.000000 0.000000 0.000000
# 2 -0.007271 0.013565 0.000674 0.000000 0.000000 0.000000
# 3 -0.009529 0.000674 0.015240 0.000000 0.000000 0.000000
# 4 0.000000 0.000000 0.000000 0.054481 0.000000 0.000000
# 5 0.000000 0.000000 0.000000 0.000000 -0.010553 0.000000
# 6 0.000000 0.000000 0.000000 0.000000 0.000000 0.036724
#
#
# Mechanical properties :
#
#
# Convention : Reuss Voigt Hill
#
# Bulk Modulus (GPa) = 22.07371 27.35634 24.71503
# Shear Modulus (GPa) = 24.32388 0.04112 12.18250
#
# Velocity S-wave (km/s) = 3.59156 0.14768 2.54176
# Velocity P-wave (km/s) = 5.37634 3.81268 4.66056
#
# Compressibility (1/GPa) = 0.04530275
#
# Stress axis : x y z
#
# Youngs Moduli (GPa) = 20.51273 73.72123 65.61770
#
# Poissons Ratio (x) = 0.53606 0.62526
# Poissons Ratio (y) = 0.14916 -0.04425
# Poissons Ratio (z) = 0.19546 -0.04971
#
# Static dielectric constant tensor:
#      x y z
#    x 1.811520 0.000000 0.000000 
#    y 0.000000 1.729090 0.000000 
#    z 0.000000 0.000000 1.625610 
# 
# From -- ./inp_files/2731.got.cif
#   From: 2010.05.17/outbox.cif.g08.bks.cpg/sg35_2_cif.got.tgz:2731.got - 2010.06.03 17:29:28.
