data_PCOD9350486
_publ_section_title
;
Structure prediction by ZEFSAII (Michael W. Deem and Ramdas Pophale) SiO2 
 PCOD9350486
Probable space group: C M C 21
;
_chemical_formula_sum "Si O2"
_cell_formula_units_Z 52
_cell_length_a 29.241071
_cell_length_b 23.312417
_cell_length_c 5.326651
_cell_angle_alpha 90.000000
_cell_angle_beta 90.000000
_cell_angle_gamma 90.000000
_cell_volume 3631.071670
_symmetry_space_group_name_H-M "C M C 21"
_symmetry_group_IT_number 36
_symmetry_cell_setting 'orthorhombic'
loop_
_space_group_symop_operation_xyz
x,y,z
-x,-y,1/2+z
x,-y,1/2+z
-x,y,z
1/2+x,1/2+y,z
1/2-x,1/2-y,1/2+z
1/2+x,1/2-y,1/2+z
1/2-x,1/2+y,z
loop_
_atom_site_type_symbol
_atom_site_label
_atom_site_fract_x
_atom_site_fract_y
_atom_site_fract_z
Si Si1 0.791796 0.692564 0.527200
Si Si2 0.639323 0.636382 0.046513
Si Si3 0.892885 0.269829 0.044128
Si Si4 0.000000 0.036389 0.490386
Si Si5 0.054501 0.250532 0.544477
Si Si6 0.740345 0.326525 0.526940
Si Si7 0.587181 0.382517 0.046730
O O1 0.846624 0.693186 0.536282
O O2 0.771078 0.666185 0.273934
O O3 0.776125 0.759695 0.526897
O O4 0.769222 0.665450 0.774125
O O5 0.615681 0.609528 0.802042
O O6 0.624111 0.703435 0.044351
O O7 0.694085 0.636616 0.033912
O O8 0.619524 0.611442 0.304231
O O9 0.921924 0.276855 0.297351
O O10 0.923455 0.276529 0.796247
O O11 0.955184 0.074964 0.528379
O O12 0.000000 0.989092 0.710187
O O13 0.067414 0.182640 0.545695
O O14 0.000000 0.256361 0.539535
#
# Coordination Sequence:
#
# PCOD9350486 Si02
#       7
#     8   8   8   4   8   8   8
#     4   9  15  23  33  49  74  91 110 132 158 196
#     4   9  17  27  42  56  70  87 110 132 170 210
#     4   9  17  24  35  52  69  92 114 140 172 208
#     4  12  24  36  48  60  72  92 116 144 196 248
#     4  10  17  27  39  51  67  89 120 150 184 210
#     4   9  15  23  36  52  69  92 109 128 156 202
#     4  10  19  32  43  56  71  85 107 148 180 220
#
# _framework density 14.32084
#
# number of rings (size 3 to 8) (size 9 to 14) (size 15 to 20)
#    0.000    2.462    0.769    3.231    0.000    7.385 
#    0.000    0.000    0.000    0.000    0.000    0.000 
#    0.000    0.000    0.000    0.000    0.000    0.000 
#
# Total GULP energy -144905.102461 kJ/mol
# GULP energy per Si atom -5573.273172 kJ/mol
# Density = 1.428825 g / cm^3
# Si number density = 14.320840 Si / 1000 Ang^3
#
#
#
# Elastic Constant Matrix: (Units=GPa)
#
#
# Indices 1 2 3 4 5 6 
#
# 1 112.3656 7.8819 50.1340 0.0000 0.0000 0.0000
# 2 7.8819 5.9755 -0.1910 0.0000 0.0000 0.0000
# 3 50.1340 -0.1910 113.7737 0.0000 0.0000 0.0000
# 4 0.0000 0.0000 0.0000 8.4535 0.0000 0.0000
# 5 0.0000 0.0000 0.0000 0.0000 28.6598 0.0000
# 6 0.0000 0.0000 0.0000 0.0000 0.0000 6.3201
#
#
#
# Elastic Compliance Matrix: (Units=1/GPa)
#
#
# Indices 1 2 3 4 5 6 
#
# 1 0.012554 -0.016737 -0.005560 0.000000 0.000000 0.000000
# 2 -0.016737 0.189673 0.007694 0.000000 0.000000 0.000000
# 3 -0.005560 0.007694 0.011252 0.000000 0.000000 0.000000
# 4 0.000000 0.000000 0.000000 0.118294 0.000000 0.000000
# 5 0.000000 0.000000 0.000000 0.000000 0.034892 0.000000
# 6 0.000000 0.000000 0.000000 0.000000 0.000000 0.158225
#
#
# Mechanical properties :
#
#
# Convention : Reuss Voigt Hill
#
# Bulk Modulus (GPa) = 5.42676 38.64050 22.03363
# Shear Modulus (GPa) = 8.12320 20.30602 14.21461
#
# Velocity S-wave (km/s) = 2.38424 3.76963 3.15394
# Velocity P-wave (km/s) = 3.37300 6.78140 5.35558
#
# Compressibility (1/GPa) = 0.18427191
#
# Stress axis : x y z
#
# Youngs Moduli (GPa) = 79.65398 5.27224 88.87038
#
# Poissons Ratio (x) = 0.08824 0.49413
# Poissons Ratio (y) = 1.33319 -0.68374
# Poissons Ratio (z) = 0.44289 -0.04056
#
# Static dielectric constant tensor:
#      x y z
#    x 1.464520 0.000000 0.000000 
#    y 0.000000 1.427570 0.000000 
#    z 0.000000 0.000000 1.482420 
# 
# From -- ./inp_files/1764.got.cif
#   From: 2010.05.17/outbox.cif.g08.bks.cpg/sg36_1_cif.got.tgz:1764.got - 2010.06.03 17:41:39.
