data_PCOD9350324
_publ_section_title
;
Structure prediction by ZEFSAII (Michael W. Deem and Ramdas Pophale) SiO2 
 PCOD9350324
Probable space group: C M M 2
;
_chemical_formula_sum "Si O2"
_cell_formula_units_Z 48
_cell_length_a 17.466352
_cell_length_b 16.504313
_cell_length_c 9.449578
_cell_angle_alpha 90.000000
_cell_angle_beta 90.000000
_cell_angle_gamma 90.000000
_cell_volume 2724.031177
_symmetry_space_group_name_H-M "C M M 2"
_symmetry_group_IT_number 35
_symmetry_cell_setting 'orthorhombic'
loop_
_space_group_symop_operation_xyz
x,y,z
-x,-y,z
-x,y,z
x,-y,z
1/2+x,1/2+y,z
1/2-x,1/2-y,z
1/2-x,1/2+y,z
1/2+x,1/2-y,z
loop_
_atom_site_type_symbol
_atom_site_label
_atom_site_fract_x
_atom_site_fract_y
_atom_site_fract_z
Si Si1 0.174959 0.589898 0.694300
Si Si2 0.842966 0.738706 0.511190
Si Si3 0.088898 0.257864 0.202698
Si Si4 0.835501 0.087366 0.529559
Si Si5 0.834209 0.091382 0.195175
Si Si6 0.706596 0.166449 0.993162
O O1 0.140562 0.500000 0.679436
O O2 0.135747 0.664020 0.611178
O O3 0.259479 0.585709 0.624014
O O4 0.185541 0.614903 0.856537
O O5 0.750000 0.750000 0.512639
O O6 0.870343 0.723120 0.352070
O O7 0.875642 0.826613 0.558290
O O8 0.103302 0.161878 0.177389
O O9 0.132799 0.306272 0.081293
O O10 0.000000 0.276093 0.209344
O O11 0.813627 0.091872 0.362595
O O12 0.875774 0.000000 0.549398
O O13 0.763133 0.118337 0.098518
O O14 0.858579 0.000000 0.159803
O O15 0.750000 0.250000 0.949698
#
# Coordination Sequence:
#
# PCOD9350324 Si02
#       6
#     8   8   8   8   8   8
#     4  10  18  28  48  74  96 122 163 215 258 290
#     4   9  16  31  51  72  97 126 163 207 249 294
#     4  10  20  33  50  72 101 137 169 200 246 300
#     4   8  14  25  44  72  99 121 149 192 246 293
#     4   9  17  31  53  78 102 127 160 205 251 299
#     4  10  18  30  49  73 100 130 166 205 247 295
#
# _framework density 17.620943
#
# number of rings (size 3 to 8) (size 9 to 14) (size 15 to 20)
#    0.000    2.667    0.000    5.500    0.000    0.333 
#    0.000    1.667    0.000    5.500    0.000    0.000 
#    0.000   25.333    0.000    0.000    0.000    0.000 
#
# Total GULP energy -133625.386219 kJ/mol
# GULP energy per Si atom -5567.724426 kJ/mol
# Density = 1.758084 g / cm^3
# Si number density = 17.620943 Si / 1000 Ang^3
#
#
#
# Elastic Constant Matrix: (Units=GPa)
#
#
# Indices 1 2 3 4 5 6 
#
# 1 28.3448 5.2042 12.6538 0.0000 0.0000 0.0000
# 2 5.2042 142.6000 52.3157 0.0000 0.0000 0.0000
# 3 12.6538 52.3157 63.4228 0.0000 0.0000 0.0000
# 4 0.0000 0.0000 0.0000 20.2293 0.0000 0.0000
# 5 0.0000 0.0000 0.0000 0.0000 -0.7895 0.0000
# 6 0.0000 0.0000 0.0000 0.0000 0.0000 3.0239
#
#
#
# Elastic Compliance Matrix: (Units=1/GPa)
#
#
# Indices 1 2 3 4 5 6 
#
# 1 0.039147 0.002060 -0.009510 0.000000 0.000000 0.000000
# 2 0.002060 0.010164 -0.008795 0.000000 0.000000 0.000000
# 3 -0.009510 -0.008795 0.024919 0.000000 0.000000 0.000000
# 4 0.000000 0.000000 0.000000 0.049433 0.000000 0.000000
# 5 0.000000 0.000000 0.000000 0.000000 -1.266615 0.000000
# 6 0.000000 0.000000 0.000000 0.000000 0.000000 0.330694
#
#
# Mechanical properties :
#
#
# Convention : Reuss Voigt Hill
#
# Bulk Modulus (GPa) = 23.95725 41.63498 32.79611
# Shear Modulus (GPa) = -6.52866 15.43901 4.45517
#
# Velocity S-wave (km/s) = -1.92694 2.96323 1.59180
# Velocity P-wave (km/s) = 2.94527 5.94871 4.69370
#
# Compressibility (1/GPa) = 0.04174102
#
# Stress axis : x y z
#
# Youngs Moduli (GPa) = 25.54477 98.38539 40.12938
#
# Poissons Ratio (x) = -0.20269 0.38162
# Poissons Ratio (y) = -0.05263 0.35294
# Poissons Ratio (z) = 0.24293 0.86531
#
# Static dielectric constant tensor:
#      x y z
#    x 1.548610 0.000000 0.000000 
#    y 0.000000 1.684480 0.000000 
#    z 0.000000 0.000000 1.584750 
# 
# From -- ./inp_files/8463.got.cif
#   From: 2010.05.17/outbox.cif.g08.bks.cpg/sg35_5_cif.got.tgz:8463.got - 2010.06.03 17:29:28.
