data_PCOD9350760
_publ_section_title
;
Structure prediction by ZEFSAII (Michael W. Deem and Ramdas Pophale) SiO2 
 PCOD9350760
Probable space group: C M C 21
;
_chemical_formula_sum "Si O2"
_cell_formula_units_Z 64
_cell_length_a 7.775489
_cell_length_b 15.993257
_cell_length_c 24.384771
_cell_angle_alpha 90.000000
_cell_angle_beta 90.000000
_cell_angle_gamma 90.000000
_cell_volume 3032.377802
_symmetry_space_group_name_H-M "C M C 21"
_symmetry_group_IT_number 36
_symmetry_cell_setting 'orthorhombic'
loop_
_space_group_symop_operation_xyz
x,y,z
-x,-y,1/2+z
x,-y,1/2+z
-x,y,z
1/2+x,1/2+y,z
1/2-x,1/2-y,1/2+z
1/2+x,1/2-y,1/2+z
1/2-x,1/2+y,z
loop_
_atom_site_type_symbol
_atom_site_label
_atom_site_fract_x
_atom_site_fract_y
_atom_site_fract_z
Si Si1 0.292832 0.084492 0.771380
Si Si2 0.288733 0.918666 0.035015
Si Si3 0.790704 0.354562 0.153098
Si Si4 0.700255 0.104073 0.029706
Si Si5 0.793602 0.101401 0.268162
Si Si6 0.708565 0.658586 0.149524
Si Si7 0.699117 0.764256 0.962206
Si Si8 0.203240 0.742791 0.837993
O O1 0.500000 0.088695 0.769877
O O2 0.230170 0.103668 0.709495
O O3 0.227421 0.157158 0.811682
O O4 0.247492 0.991024 0.788300
O O5 0.500000 0.918409 0.035524
O O6 0.233071 0.898959 0.097295
O O7 0.233329 0.011044 0.016982
O O8 0.229382 0.843475 0.995878
O O9 0.743965 0.256647 0.151776
O O10 0.000000 0.357212 0.153383
O O11 0.500000 0.107551 0.014344
O O12 0.718164 0.117708 0.094833
O O13 0.787177 0.181349 0.999150
O O14 0.732357 0.115300 0.205703
O O15 0.726147 0.175599 0.306796
O O16 0.000000 0.108452 0.265997
O O17 0.500000 0.654282 0.146179
O O18 0.500000 0.782774 0.952523
O O19 0.777300 0.749073 0.902825
O O20 0.000000 0.741896 0.826166
#
# Coordination Sequence:
#
# PCOD9350760 Si02
#       8
#     8   8   8   8   8   8   8   8
#     4  10  20  36  61  86 112 152 194 229 279 346
#     4   9  19  35  58  83 111 147 187 227 277 343
#     4   9  15  31  59  84 109 149 190 223 269 340
#     4  11  22  37  59  89 118 147 188 238 285 339
#     4  10  21  37  59  87 119 152 188 237 290 334
#     4  10  18  34  60  86 117 155 189 227 284 346
#     4  11  23  41  62  82 109 152 197 240 288 339
#     4  10  22  41  60  81 113 154 195 237 286 339
#
# _framework density 21.105550000000001
#
# number of rings (size 3 to 8) (size 9 to 14) (size 15 to 20)
#    0.000    2.000    2.500    1.500    0.000    3.500 
#    0.000    6.875    0.000    0.000    0.000    0.000 
#    0.000    0.000    0.000    0.000    0.000    0.000 
#
# Total GULP energy -178775.414307 kJ/mol
# GULP energy per Si atom -5586.731697 kJ/mol
# Density = 2.105751 g / cm^3
# Si number density = 21.105550 Si / 1000 Ang^3
#
#
#
# Elastic Constant Matrix: (Units=GPa)
#
#
# Indices 1 2 3 4 5 6 
#
# 1 26.9134 -3.1401 -6.1983 0.0000 0.0000 0.0000
# 2 -3.1401 172.1683 63.4168 0.0000 0.0000 0.0000
# 3 -6.1983 63.4168 113.9013 0.0000 0.0000 0.0000
# 4 0.0000 0.0000 0.0000 0.6804 0.0000 0.0000
# 5 0.0000 0.0000 0.0000 0.0000 23.4356 0.0000
# 6 0.0000 0.0000 0.0000 0.0000 0.0000 17.0571
#
#
#
# Elastic Compliance Matrix: (Units=1/GPa)
#
#
# Indices 1 2 3 4 5 6 
#
# 1 0.037629 -0.000085 0.002095 0.000000 0.000000 0.000000
# 2 -0.000085 0.007307 -0.004073 0.000000 0.000000 0.000000
# 3 0.002095 -0.004073 0.011161 0.000000 0.000000 0.000000
# 4 0.000000 0.000000 0.000000 1.469781 0.000000 0.000000
# 5 0.000000 0.000000 0.000000 0.000000 0.042670 0.000000
# 6 0.000000 0.000000 0.000000 0.000000 0.000000 0.058627
#
#
# Mechanical properties :
#
#
# Convention : Reuss Voigt Hill
#
# Bulk Modulus (GPa) = 19.24160 46.79331 33.01746
# Shear Modulus (GPa) = 3.03283 25.49491 14.26387
#
# Velocity S-wave (km/s) = 1.20004 3.47936 2.60250
# Velocity P-wave (km/s) = 3.32517 6.19358 4.97078
#
# Compressibility (1/GPa) = 0.05197072
#
# Stress axis : x y z
#
# Youngs Moduli (GPa) = 26.57538 136.85611 89.59584
#
# Poissons Ratio (x) = 0.01170 -0.18773
# Poissons Ratio (y) = 0.00227 0.36492
# Poissons Ratio (z) = -0.05568 0.55741
#
# Static dielectric constant tensor:
#      x y z
#    x 1.780640 0.000000 0.000000 
#    y 0.000000 1.756850 0.000000 
#    z 0.000000 0.000000 1.721860 
# 
# From -- ./inp_files/16599.got.cif
#   From: 2010.05.17/outbox.cif.g08.bks.cpg/sg36_9_cif.got.tgz:16599.got - 2010.06.03 17:41:39.
