data_PCOD9350752
_publ_section_title
;
Structure prediction by ZEFSAII (Michael W. Deem and Ramdas Pophale) SiO2 
 PCOD9350752
Probable space group: C M C 21
;
_chemical_formula_sum "Si O2"
_cell_formula_units_Z 64
_cell_length_a 8.614695
_cell_length_b 21.105506
_cell_length_c 19.880550
_cell_angle_alpha 90.000000
_cell_angle_beta 90.000000
_cell_angle_gamma 90.000000
_cell_volume 3614.631840
_symmetry_space_group_name_H-M "C M C 21"
_symmetry_group_IT_number 36
_symmetry_cell_setting 'orthorhombic'
loop_
_space_group_symop_operation_xyz
x,y,z
-x,-y,1/2+z
x,-y,1/2+z
-x,y,z
1/2+x,1/2+y,z
1/2-x,1/2-y,1/2+z
1/2+x,1/2-y,1/2+z
1/2-x,1/2+y,z
loop_
_atom_site_type_symbol
_atom_site_label
_atom_site_fract_x
_atom_site_fract_y
_atom_site_fract_z
Si Si1 0.689179 0.938862 0.135180
Si Si2 0.812910 0.437450 0.552819
Si Si3 0.313722 0.187429 0.557824
Si Si4 0.186640 0.360489 0.774880
Si Si5 0.314195 0.638105 0.421097
Si Si6 0.188094 0.688826 0.131537
Si Si7 0.315083 0.491064 0.420406
Si Si8 0.313320 0.009253 0.775537
O O1 0.500000 0.939104 0.134727
O O2 0.740272 0.874741 0.099280
O O3 0.740651 0.000493 0.093651
O O4 0.737432 0.948958 0.212210
O O5 0.762631 0.373553 0.589873
O O6 0.755338 0.446540 0.477282
O O7 0.000000 0.437808 0.553400
O O8 0.500000 0.187868 0.556765
O O9 0.253419 0.179306 0.481761
O O10 0.253038 0.249369 0.595516
O O11 0.259446 0.342485 0.846496
O O12 0.236290 0.320960 0.709388
O O13 0.223533 0.434968 0.762239
O O14 0.000000 0.356112 0.780531
O O15 0.500000 0.639505 0.423725
O O16 0.261829 0.564455 0.430874
O O17 0.000000 0.690968 0.130824
O O18 0.500000 0.490428 0.425033
O O19 0.262361 0.472562 0.345869
O O20 0.500000 0.013291 0.781637
#
# Coordination Sequence:
#
# PCOD9350752 Si02
#       8
#     8   8   8   8   8   8   8   8
#     4   9  17  32  56  82 103 132 181 226 261 312
#     4  10  18  34  58  80 104 140 182 222 263 319
#     4  11  22  36  56  81 112 147 184 227 272 325
#     4   9  17  32  56  81 104 137 180 226 273 325
#     4  10  20  34  53  79 111 144 181 225 271 324
#     4  10  21  37  57  82 112 144 182 226 275 326
#     4  10  20  32  49  81 116 142 174 225 280 323
#     4   9  16  31  55  80 104 136 182 229 269 320
#
# _framework density 17.705815000000001
#
# number of rings (size 3 to 8) (size 9 to 14) (size 15 to 20)
#    0.000    2.250    2.500    1.125    0.000    2.000 
#    0.000    3.125    0.000    4.500    0.000    0.000 
#    0.000    0.000    0.000    0.000    0.000    0.000 
#
# Total GULP energy -178533.212324 kJ/mol
# GULP energy per Si atom -5579.162885 kJ/mol
# Density = 1.766552 g / cm^3
# Si number density = 17.705815 Si / 1000 Ang^3
#
#
#
# Elastic Constant Matrix: (Units=GPa)
#
#
# Indices 1 2 3 4 5 6 
#
# 1 19.4843 27.7801 33.6178 0.0000 0.0000 0.0000
# 2 27.7801 112.9476 84.4152 0.0000 0.0000 0.0000
# 3 33.6178 84.4152 173.6273 0.0000 0.0000 0.0000
# 4 0.0000 0.0000 0.0000 30.2121 0.0000 0.0000
# 5 0.0000 0.0000 0.0000 0.0000 16.4557 0.0000
# 6 0.0000 0.0000 0.0000 0.0000 0.0000 22.4228
#
#
#
# Elastic Compliance Matrix: (Units=1/GPa)
#
#
# Indices 1 2 3 4 5 6 
#
# 1 0.089634 -0.014255 -0.010424 0.000000 0.000000 0.000000
# 2 -0.014255 0.016174 -0.005104 0.000000 0.000000 0.000000
# 3 -0.010424 -0.005104 0.010259 0.000000 0.000000 0.000000
# 4 0.000000 0.000000 0.000000 0.033099 0.000000 0.000000
# 5 0.000000 0.000000 0.000000 0.000000 0.060769 0.000000
# 6 0.000000 0.000000 0.000000 0.000000 0.000000 0.044597
#
#
# Mechanical properties :
#
#
# Convention : Reuss Voigt Hill
#
# Bulk Modulus (GPa) = 17.69873 66.40950 42.05411
# Shear Modulus (GPa) = 15.01805 24.50118 19.75962
#
# Velocity S-wave (km/s) = 2.91554 3.72397 3.34428
# Velocity P-wave (km/s) = 4.62078 7.48861 6.22217
#
# Compressibility (1/GPa) = 0.05650122
#
# Stress axis : x y z
#
# Youngs Moduli (GPa) = 11.15650 61.82743 97.47426
#
# Poissons Ratio (x) = 0.88135 1.01611
# Poissons Ratio (y) = 0.15904 0.49746
# Poissons Ratio (z) = 0.11630 0.31554
#
# Static dielectric constant tensor:
#      x y z
#    x 1.601020 0.000000 0.000000 
#    y 0.000000 1.587590 0.000000 
#    z 0.000000 0.000000 1.600330 
# 
# From -- ./inp_files/13899.got.cif
#   From: 2010.05.17/outbox.cif.g08.bks.cpg/sg36_7_cif.got.tgz:13899.got - 2010.06.03 17:41:39.
