data_PCOD9350570
_publ_section_title
;
Structure prediction by ZEFSAII (Michael W. Deem and Ramdas Pophale) SiO2 
 PCOD9350570
Probable space group: C M C 21
;
_chemical_formula_sum "Si O2"
_cell_formula_units_Z 60
_cell_length_a 15.202922
_cell_length_b 31.141578
_cell_length_c 5.389382
_cell_angle_alpha 90.000000
_cell_angle_beta 90.000000
_cell_angle_gamma 90.000000
_cell_volume 2551.565081
_symmetry_space_group_name_H-M "C M C 21"
_symmetry_group_IT_number 36
_symmetry_cell_setting 'orthorhombic'
loop_
_space_group_symop_operation_xyz
x,y,z
-x,-y,1/2+z
x,-y,1/2+z
-x,y,z
1/2+x,1/2+y,z
1/2-x,1/2-y,1/2+z
1/2+x,1/2-y,1/2+z
1/2-x,1/2+y,z
loop_
_atom_site_type_symbol
_atom_site_label
_atom_site_fract_x
_atom_site_fract_y
_atom_site_fract_z
Si Si1 0.308361 0.254198 0.522530
Si Si2 0.652579 0.647756 0.026961
Si Si3 0.176423 0.119802 0.527947
Si Si4 0.302434 0.472282 0.968223
Si Si5 0.137916 0.663174 0.540457
Si Si6 0.641569 0.879558 0.540495
Si Si7 0.500000 0.523431 0.391014
Si Si8 0.894433 0.522466 0.151530
O O1 0.254189 0.247557 0.266267
O O2 0.351720 0.301103 0.513778
O O3 0.373927 0.214040 0.547836
O O4 0.619565 0.629860 0.286255
O O5 0.755592 0.633062 0.036300
O O6 0.621482 0.624936 0.778268
O O7 0.233080 0.075638 0.512229
O O8 0.254944 0.155797 0.538705
O O9 0.290586 0.504166 0.202342
O O10 0.406016 0.457986 0.962136
O O11 0.104187 0.642464 0.287025
O O12 0.104550 0.639037 0.784639
O O13 0.631756 0.930349 0.565697
O O14 0.500000 0.516172 0.093501
O O15 0.865551 0.509854 0.430694
O O16 0.000000 0.520834 0.158354
#
# Coordination Sequence:
#
# PCOD9350570 Si02
#       8
#     8   8   8   8   8   8   4   8
#     4  12  16  30  48  69 100 125 154 180 226 270
#     4  10  19  30  45  70 101 122 149 190 222 284
#     4  10  18  30  43  65  98 122 150 188 224 271
#     4  10  19  32  47  64  88 121 156 195 230 265
#     4  10  19  30  46  72 101 125 148 193 226 288
#     4  10  18  32  48  69  97 121 156 199 233 279
#     4   8  16  30  48  64  80 106 152 200 224 244
#     4  10  21  37  54  70  91 125 169 215 251 285
#
# _framework density 23.514979
#
# number of rings (size 3 to 8) (size 9 to 14) (size 15 to 20)
#    0.000    1.867    5.333    1.600    0.000    0.000 
#    0.000   16.000    0.000    0.000    0.000    0.000 
#   22.000    0.000    0.000    0.000    0.000    0.000 
#
# Total GULP energy -167514.856419 kJ/mol
# GULP energy per Si atom -5583.828547 kJ/mol
# Density = 2.346146 g / cm^3
# Si number density = 23.514979 Si / 1000 Ang^3
#
#
#
# Elastic Constant Matrix: (Units=GPa)
#
#
# Indices 1 2 3 4 5 6 
#
# 1 29.9801 -19.5109 1.8461 0.0000 0.0000 0.0000
# 2 -19.5109 202.8271 86.0644 0.0000 0.0000 0.0000
# 3 1.8461 86.0644 241.6751 0.0000 0.0000 0.0000
# 4 0.0000 0.0000 0.0000 44.7682 0.0000 0.0000
# 5 0.0000 0.0000 0.0000 0.0000 41.1206 0.0000
# 6 0.0000 0.0000 0.0000 0.0000 0.0000 -4.6145
#
#
#
# Elastic Compliance Matrix: (Units=1/GPa)
#
#
# Indices 1 2 3 4 5 6 
#
# 1 0.036227 0.004244 -0.001788 0.000000 0.000000 0.000000
# 2 0.004244 0.006305 -0.002278 0.000000 0.000000 0.000000
# 3 -0.001788 -0.002278 0.004963 0.000000 0.000000 0.000000
# 4 0.000000 0.000000 0.000000 0.022337 0.000000 0.000000
# 5 0.000000 0.000000 0.000000 0.000000 0.024319 0.000000
# 6 0.000000 0.000000 0.000000 0.000000 0.000000 -0.216710
#
#
# Mechanical properties :
#
#
# Convention : Reuss Voigt Hill
#
# Bulk Modulus (GPa) = 20.89836 67.92017 44.40926
# Shear Modulus (GPa) = -46.74459 43.32704 -1.70877
#
# Velocity S-wave (km/s) = -4.46338 4.29713 -0.85338
# Velocity P-wave (km/s) = 4.20189 7.31894 4.23740
#
# Compressibility (1/GPa) = 0.04785064
#
# Stress axis : x y z
#
# Youngs Moduli (GPa) = 27.60350 158.60399 201.50802
#
# Poissons Ratio (x) = -0.67304 0.36028
# Poissons Ratio (y) = -0.11714 0.45898
# Poissons Ratio (z) = 0.04935 0.36126
#
# Static dielectric constant tensor:
#      x y z
#    x 1.953320 0.000000 0.000000 
#    y 0.000000 1.904300 0.000000 
#    z 0.000000 0.000000 2.013530 
# 
# From -- ./inp_files/1220.got.cif
#   From: 2010.05.17/outbox.cif.g08.bks.cpg/sg36_1_cif.got.tgz:1220.got - 2010.06.03 17:41:39.
