data_PCOD9350754
_publ_section_title
;
Structure prediction by ZEFSAII (Michael W. Deem and Ramdas Pophale) SiO2 
 PCOD9350754
Probable space group: C M C 21
;
_chemical_formula_sum "Si O2"
_cell_formula_units_Z 32
_cell_length_a 11.853859
_cell_length_b 13.691111
_cell_length_c 9.097359
_cell_angle_alpha 90.000000
_cell_angle_beta 90.000000
_cell_angle_gamma 90.000000
_cell_volume 1476.433130
_symmetry_space_group_name_H-M "C M C 21"
_symmetry_group_IT_number 36
_symmetry_cell_setting 'orthorhombic'
loop_
_space_group_symop_operation_xyz
x,y,z
-x,-y,1/2+z
x,-y,1/2+z
-x,y,z
1/2+x,1/2+y,z
1/2-x,1/2-y,1/2+z
1/2+x,1/2-y,1/2+z
1/2-x,1/2+y,z
loop_
_atom_site_type_symbol
_atom_site_label
_atom_site_fract_x
_atom_site_fract_y
_atom_site_fract_z
Si Si1 0.000000 0.501755 0.866771
Si Si2 0.500000 0.858125 0.631774
Si Si3 0.759075 0.403398 0.332576
Si Si4 0.874382 0.771977 0.917058
Si Si5 0.632638 0.478092 0.053828
O O1 0.000000 0.392027 0.800360
O O2 0.882463 0.548546 0.812373
O O3 0.000000 0.540155 0.036621
O O4 0.601857 0.791239 0.567373
O O5 0.782790 0.288328 0.328676
O O6 0.675157 0.444605 0.211758
O O7 0.705730 0.435483 0.487067
O O8 0.000000 0.769442 0.845731
O O9 0.846731 0.882474 0.952619
O O10 0.500000 0.499388 0.054725
#
# Coordination Sequence:
#
# PCOD9350754 Si02
#       5
#     4   4   8   8   8
#     4  10  18  34  58  96 104 150 208 262 298 338
#     4   8  16  32  56  78 126 142 190 262 296 354
#     4  11  21  38  68  89 125 162 212 258 311 366
#     4   8  19  39  58  87 124 156 199 262 302 356
#     4  11  24  41  61  91 131 170 201 252 317 378
#
# _framework density 21.673855
#
# number of rings (size 3 to 8) (size 9 to 14) (size 15 to 20)
#    0.750    1.500    1.250    3.750    0.000    4.000 
#    0.000    0.000    8.250    0.000    0.000    0.000 
#    0.000    0.000    0.000    0.000    0.000    0.000 
#
# Total GULP energy -89121.120160 kJ/mol
# GULP energy per Si atom -5570.070010 kJ/mol
# Density = 2.162452 g / cm^3
# Si number density = 21.673855 Si / 1000 Ang^3
#
#
#
# Elastic Constant Matrix: (Units=GPa)
#
#
# Indices 1 2 3 4 5 6 
#
# 1 79.6522 25.6009 1.9547 0.0000 0.0000 0.0000
# 2 25.6009 37.7386 2.7528 0.0000 0.0000 0.0000
# 3 1.9547 2.7528 21.7941 0.0000 0.0000 0.0000
# 4 0.0000 0.0000 0.0000 22.0003 0.0000 0.0000
# 5 0.0000 0.0000 0.0000 0.0000 28.3836 0.0000
# 6 0.0000 0.0000 0.0000 0.0000 0.0000 22.7657
#
#
#
# Elastic Compliance Matrix: (Units=1/GPa)
#
#
# Indices 1 2 3 4 5 6 
#
# 1 0.016055 -0.010887 -0.000065 0.000000 0.000000 0.000000
# 2 -0.010887 0.034127 -0.003334 0.000000 0.000000 0.000000
# 3 -0.000065 -0.003334 0.046311 0.000000 0.000000 0.000000
# 4 0.000000 0.000000 0.000000 0.045454 0.000000 0.000000
# 5 0.000000 0.000000 0.000000 0.000000 0.035232 0.000000
# 6 0.000000 0.000000 0.000000 0.000000 0.000000 0.043926
#
#
# Mechanical properties :
#
#
# Convention : Reuss Voigt Hill
#
# Bulk Modulus (GPa) = 14.72291 22.20019 18.46155
# Shear Modulus (GPa) = 18.36104 21.88836 20.12470
#
# Velocity S-wave (km/s) = 2.91374 3.18134 3.05048
# Velocity P-wave (km/s) = 4.25765 4.87438 4.57642
#
# Compressibility (1/GPa) = 0.06792135
#
# Stress axis : x y z
#
# Youngs Moduli (GPa) = 62.28490 29.30271 21.59319
#
# Poissons Ratio (x) = 0.31901 0.00140
# Poissons Ratio (y) = 0.67808 0.07199
# Poissons Ratio (z) = 0.00404 0.09770
#
# Static dielectric constant tensor:
#      x y z
#    x 1.753150 0.000000 0.000000 
#    y 0.000000 1.796730 0.000000 
#    z 0.000000 0.000000 1.850190 
# 
# From -- ./inp_files/2942.got.cif
#   From: 2010.05.17/outbox.cif.g08.bks.cpg/sg36_2_cif.got.tgz:2942.got - 2010.06.03 17:41:39.
