data_PCOD9351929
_publ_section_title
;
Structure prediction by ZEFSAII (Michael W. Deem and Ramdas Pophale) SiO2 
 PCOD9351929
Probable space group: C M C 21
;
_chemical_formula_sum "Si O2"
_cell_formula_units_Z 64
_cell_length_a 8.529607
_cell_length_b 22.026037
_cell_length_c 14.465808
_cell_angle_alpha 90.000000
_cell_angle_beta 90.000000
_cell_angle_gamma 90.000000
_cell_volume 2717.741102
_symmetry_space_group_name_H-M "C M C 21"
_symmetry_group_IT_number 36
_symmetry_cell_setting 'orthorhombic'
loop_
_space_group_symop_operation_xyz
x,y,z
-x,-y,1/2+z
x,-y,1/2+z
-x,y,z
1/2+x,1/2+y,z
1/2-x,1/2-y,1/2+z
1/2+x,1/2-y,1/2+z
1/2-x,1/2+y,z
loop_
_atom_site_type_symbol
_atom_site_label
_atom_site_fract_x
_atom_site_fract_y
_atom_site_fract_z
Si Si1 0.680140 0.465742 0.654980
Si Si2 0.808571 0.726121 0.005641
Si Si3 0.820608 0.656715 0.725523
Si Si4 0.684065 0.974127 0.325761
Si Si5 0.313962 0.904834 0.491916
Si Si6 0.683693 0.218294 0.218228
Si Si7 0.686921 0.655183 0.390323
Si Si8 0.816554 0.420186 0.048613
O O1 0.500000 0.449332 0.648792
O O2 0.727748 0.479578 0.759693
O O3 0.780307 0.417043 0.598771
O O4 0.715883 0.527777 0.598101
O O5 0.756571 0.661603 0.964259
O O6 0.757680 0.723049 0.112508
O O7 0.761328 0.784202 0.946966
O O8 0.000000 0.727113 0.006291
O O9 0.803760 0.592946 0.778767
O O10 0.712214 0.712547 0.752669
O O11 0.799248 0.637034 0.618478
O O12 0.000000 0.677332 0.740305
O O13 0.500000 0.990815 0.326686
O O14 0.747410 0.959210 0.427548
O O15 0.500000 0.905476 0.477389
O O16 0.500000 0.204270 0.217658
O O17 0.767357 0.170469 0.285375
O O18 0.500000 0.647969 0.397712
O O19 0.767697 0.600487 0.446464
O O20 0.000000 0.438910 0.050936
#
# Coordination Sequence:
#
# PCOD9351929 Si02
#       8
#     8   8   8   8   8   8   8   8
#     4  11  23  39  60  88 121 153 192 248 305 355
#     4   9  20  38  60  85 119 157 196 240 292 351
#     4   9  17  32  56  84 114 146 189 242 287 336
#     4   9  19  37  63  90 113 150 204 250 296 353
#     4  10  20  40  65  86 114 158 206 248 293 352
#     4  11  21  34  53  84 120 158 198 233 287 360
#     4  11  21  37  59  87 120 156 195 243 298 348
#     4  10  20  37  60  84 111 148 196 242 290 351
#
# _framework density 23.548967999999999
#
# number of rings (size 3 to 8) (size 9 to 14) (size 15 to 20)
#    0.000    2.000    1.250    3.750    0.000    4.500 
#    2.250    3.750    0.000    0.000    0.000    0.000 
#    0.000    0.000    0.000    0.000    0.000    0.000 
#
# Total GULP energy -178897.888553 kJ/mol
# GULP energy per Si atom -5590.559017 kJ/mol
# Density = 2.349537 g / cm^3
# Si number density = 23.548968 Si / 1000 Ang^3
#
#
#
# Elastic Constant Matrix: (Units=GPa)
#
#
# Indices 1 2 3 4 5 6 
#
# 1 22.4759 -7.3213 1.1430 0.0000 0.0000 0.0000
# 2 -7.3213 58.9414 1.8878 0.0000 0.0000 0.0000
# 3 1.1430 1.8878 112.6510 0.0000 0.0000 0.0000
# 4 0.0000 0.0000 0.0000 37.3180 0.0000 0.0000
# 5 0.0000 0.0000 0.0000 0.0000 23.1193 0.0000
# 6 0.0000 0.0000 0.0000 0.0000 0.0000 19.1025
#
#
#
# Elastic Compliance Matrix: (Units=1/GPa)
#
#
# Indices 1 2 3 4 5 6 
#
# 1 0.046404 0.005782 -0.000568 0.000000 0.000000 0.000000
# 2 0.005782 0.017696 -0.000355 0.000000 0.000000 0.000000
# 3 -0.000568 -0.000355 0.008889 0.000000 0.000000 0.000000
# 4 0.000000 0.000000 0.000000 0.026797 0.000000 0.000000
# 5 0.000000 0.000000 0.000000 0.000000 0.043254 0.000000
# 6 0.000000 0.000000 0.000000 0.000000 0.000000 0.052349
#
#
# Mechanical properties :
#
#
# Convention : Reuss Voigt Hill
#
# Bulk Modulus (GPa) = 12.09084 20.60970 16.35027
# Shear Modulus (GPa) = 23.44787 29.13188 26.28988
#
# Velocity S-wave (km/s) = 3.15891 3.52103 3.34487
# Velocity P-wave (km/s) = 4.29539 5.03001 4.67715
#
# Compressibility (1/GPa) = 0.08270727
#
# Stress axis : x y z
#
# Youngs Moduli (GPa) = 21.54968 56.51115 112.50252
#
# Poissons Ratio (x) = -0.32676 0.06387
# Poissons Ratio (y) = -0.12461 0.03996
# Poissons Ratio (z) = 0.01223 0.02007
#
# Static dielectric constant tensor:
#      x y z
#    x 1.797970 0.000000 0.000000 
#    y 0.000000 1.937360 0.000000 
#    z 0.000000 0.000000 1.960110 
# 
# From -- ./inp_files/11113.got.cif
#   From: 2010.05.17/outbox.cif.g08.bks.cpg/sg36_6_cif.got.tgz:11113.got - 2010.06.03 17:41:39.
