data_PCOD9351659
_publ_section_title
;
Structure prediction by ZEFSAII (Michael W. Deem and Ramdas Pophale) SiO2 
 PCOD9351659
Probable space group: C M C 21
;
_chemical_formula_sum "Si O2"
_cell_formula_units_Z 36
_cell_length_a 16.787084
_cell_length_b 20.481310
_cell_length_c 5.050867
_cell_angle_alpha 90.000000
_cell_angle_beta 90.000000
_cell_angle_gamma 90.000000
_cell_volume 1736.596524
_symmetry_space_group_name_H-M "C M C 21"
_symmetry_group_IT_number 36
_symmetry_cell_setting 'orthorhombic'
loop_
_space_group_symop_operation_xyz
x,y,z
-x,-y,1/2+z
x,-y,1/2+z
-x,y,z
1/2+x,1/2+y,z
1/2-x,1/2-y,1/2+z
1/2+x,1/2-y,1/2+z
1/2-x,1/2+y,z
loop_
_atom_site_type_symbol
_atom_site_label
_atom_site_fract_x
_atom_site_fract_y
_atom_site_fract_z
Si Si1 0.672581 0.544585 0.465330
Si Si2 0.759811 0.349234 0.268036
Si Si3 0.349232 0.735326 0.044657
Si Si4 0.088611 0.300739 0.522702
Si Si5 0.000000 0.043753 0.576955
O O1 0.677915 0.483557 0.670848
O O2 0.739550 0.593829 0.567071
O O3 0.584739 0.575690 0.512143
O O4 0.685854 0.333756 0.460343
O O5 0.841862 0.351338 0.434652
O O6 0.773048 0.282624 0.100390
O O7 0.395974 0.770323 0.808385
O O8 0.400109 0.742457 0.308962
O O9 0.000000 0.328038 0.503860
O O10 0.000000 0.019389 0.879537
#
# Coordination Sequence:
#
# PCOD9351659 Si02
#       5
#     8   8   8   8   4
#     4  10  22  35  58  78 108 147 184 224 270 332
#     4  10  21  37  58  82 115 138 192 222 285 321
#     4  10  20  35  57  81 112 144 178 231 276 328
#     4  10  20  35  55  82 114 145 179 222 286 332
#     4   8  16  36  50  74 106 140 178 216 266 306
#
# _framework density 20.730204000000001
#
# number of rings (size 3 to 8) (size 9 to 14) (size 15 to 20)
#    1.333    0.889    2.222    0.667    3.111    0.000 
#    4.000    0.000    4.889    1.333    0.000    0.000 
#    0.000    0.000    0.000    0.000    0.000    0.000 
#
# Total GULP energy -100311.197151 kJ/mol
# GULP energy per Si atom -5572.844286 kJ/mol
# Density = 2.068302 g / cm^3
# Si number density = 20.730204 Si / 1000 Ang^3
#
#
#
# Elastic Constant Matrix: (Units=GPa)
#
#
# Indices 1 2 3 4 5 6 
#
# 1 72.9626 2.4742 -10.7004 0.0000 0.0000 0.0000
# 2 2.4742 37.4709 -0.8886 0.0000 0.0000 0.0000
# 3 -10.7004 -0.8886 85.1319 0.0000 0.0000 0.0000
# 4 0.0000 0.0000 0.0000 19.4528 0.0000 0.0000
# 5 0.0000 0.0000 0.0000 0.0000 20.4290 0.0000
# 6 0.0000 0.0000 0.0000 0.0000 0.0000 13.1047
#
#
#
# Elastic Compliance Matrix: (Units=1/GPa)
#
#
# Indices 1 2 3 4 5 6 
#
# 1 0.013992 -0.000882 0.001749 0.000000 0.000000 0.000000
# 2 -0.000882 0.026750 0.000168 0.000000 0.000000 0.000000
# 3 0.001749 0.000168 0.011968 0.000000 0.000000 0.000000
# 4 0.000000 0.000000 0.000000 0.051406 0.000000 0.000000
# 5 0.000000 0.000000 0.000000 0.000000 0.048950 0.000000
# 6 0.000000 0.000000 0.000000 0.000000 0.000000 0.076309
#
#
# Mechanical properties :
#
#
# Convention : Reuss Voigt Hill
#
# Bulk Modulus (GPa) = 18.25462 19.70398 18.97930
# Shear Modulus (GPa) = 20.36124 24.24264 22.30194
#
# Velocity S-wave (km/s) = 3.13741 3.42341 3.28353
# Velocity P-wave (km/s) = 4.68502 5.01517 4.85290
#
# Compressibility (1/GPa) = 0.05478064
#
# Stress axis : x y z
#
# Youngs Moduli (GPa) = 71.46869 37.38371 83.55524
#
# Poissons Ratio (x) = 0.03299 -0.14618
# Poissons Ratio (y) = 0.06306 -0.01406
# Poissons Ratio (z) = -0.12503 -0.00629
#
# Static dielectric constant tensor:
#      x y z
#    x 1.805540 0.000000 0.000000 
#    y 0.000000 1.749700 0.000000 
#    z 0.000000 0.000000 1.797020 
# 
# From -- ./inp_files/1031.got.cif
#   From: 2010.05.17/outbox.cif.g08.bks.cpg/sg36_1_cif.got.tgz:1031.got - 2010.06.03 17:41:39.
