data_PCOD9351752
_publ_section_title
;
Structure prediction by ZEFSAII (Michael W. Deem and Ramdas Pophale) SiO2 
 PCOD9351752
Probable space group: C M C 21
;
_chemical_formula_sum "Si O2"
_cell_formula_units_Z 40
_cell_length_a 10.576861
_cell_length_b 19.038584
_cell_length_c 9.729180
_cell_angle_alpha 90.000000
_cell_angle_beta 90.000000
_cell_angle_gamma 90.000000
_cell_volume 1959.149961
_symmetry_space_group_name_H-M "C M C 21"
_symmetry_group_IT_number 36
_symmetry_cell_setting 'orthorhombic'
loop_
_space_group_symop_operation_xyz
x,y,z
-x,-y,1/2+z
x,-y,1/2+z
-x,y,z
1/2+x,1/2+y,z
1/2-x,1/2-y,1/2+z
1/2+x,1/2-y,1/2+z
1/2-x,1/2+y,z
loop_
_atom_site_type_symbol
_atom_site_label
_atom_site_fract_x
_atom_site_fract_y
_atom_site_fract_z
Si Si1 0.355320 0.707971 0.944770
Si Si2 0.850615 0.298072 0.224444
Si Si3 0.641816 0.582928 0.133542
Si Si4 0.291389 0.951023 0.124546
Si Si5 0.366471 0.926963 0.813716
O O1 0.500000 0.715028 0.891262
O O2 0.243441 0.728907 0.842619
O O3 0.347799 0.752317 0.085622
O O4 0.337494 0.627129 0.994970
O O5 0.792587 0.374027 0.186209
O O6 0.000000 0.304041 0.264329
O O7 0.500000 0.596510 0.180357
O O8 0.666200 0.499771 0.111866
O O9 0.744050 0.607963 0.245616
O O10 0.369063 0.000725 0.227550
O O11 0.347475 0.943555 0.972615
O O12 0.500000 0.888846 0.794497
#
# Coordination Sequence:
#
# PCOD9351752 Si02
#       5
#     8   8   8   8   8
#     4  10  24  45  66  93 131 168 212 262 317 382
#     4  11  24  43  67  94 128 167 215 265 315 379
#     4   9  22  40  60  90 126 163 202 253 313 373
#     4  10  22  37  63  91 123 159 208 256 311 370
#     4  10  20  35  60  90 122 159 203 256 308 366
#
# _framework density 20.417017999999999
#
# number of rings (size 3 to 8) (size 9 to 14) (size 15 to 20)
#    1.200    0.800    0.000    3.000    2.800    3.200 
#    0.000    0.000    0.000    0.000    0.000    0.000 
#    0.000    0.000    0.000    0.000    0.000    0.000 
#
# Total GULP energy -111358.101461 kJ/mol
# GULP energy per Si atom -5567.905073 kJ/mol
# Density = 2.037055 g / cm^3
# Si number density = 20.417018 Si / 1000 Ang^3
#
#
#
# Elastic Constant Matrix: (Units=GPa)
#
#
# Indices 1 2 3 4 5 6 
#
# 1 136.7948 34.9749 67.6808 0.0000 0.0000 0.0000
# 2 34.9749 64.9100 4.8184 0.0000 0.0000 0.0000
# 3 67.6808 4.8184 88.8490 0.0000 0.0000 0.0000
# 4 0.0000 0.0000 0.0000 25.4242 0.0000 0.0000
# 5 0.0000 0.0000 0.0000 0.0000 111.7544 0.0000
# 6 0.0000 0.0000 0.0000 0.0000 0.0000 -1.8918
#
#
#
# Elastic Compliance Matrix: (Units=1/GPa)
#
#
# Indices 1 2 3 4 5 6 
#
# 1 0.014269 -0.006910 -0.010495 0.000000 0.000000 0.000000
# 2 -0.006910 0.018814 0.004243 0.000000 0.000000 0.000000
# 3 -0.010495 0.004243 0.019019 0.000000 0.000000 0.000000
# 4 0.000000 0.000000 0.000000 0.039333 0.000000 0.000000
# 5 0.000000 0.000000 0.000000 0.000000 0.008948 0.000000
# 6 0.000000 0.000000 0.000000 0.000000 0.000000 -0.528608
#
#
# Mechanical properties :
#
#
# Convention : Reuss Voigt Hill
#
# Bulk Modulus (GPa) = 38.78990 56.16688 47.47839
# Shear Modulus (GPa) = -12.71267 39.26267 13.27500
#
# Velocity S-wave (km/s) = -2.49800 4.39000 2.55265
# Velocity P-wave (km/s) = 3.27414 7.29834 5.65622
#
# Compressibility (1/GPa) = 0.02577991
#
# Stress axis : x y z
#
# Youngs Moduli (GPa) = 70.08045 53.15188 52.57765
#
# Poissons Ratio (x) = 0.36726 0.55180
# Poissons Ratio (y) = 0.48422 -0.22309
# Poissons Ratio (z) = 0.73549 -0.22553
#
# Static dielectric constant tensor:
#      x y z
#    x 1.729320 0.000000 0.000000 
#    y 0.000000 1.772510 0.000000 
#    z 0.000000 0.000000 1.704500 
# 
# From -- ./inp_files/3062.got.cif
#   From: 2010.05.17/outbox.cif.g08.bks.cpg/sg36_2_cif.got.tgz:3062.got - 2010.06.03 17:41:39.
