data_PCOD9351770
_publ_section_title
;
Structure prediction by ZEFSAII (Michael W. Deem and Ramdas Pophale) SiO2 
 PCOD9351770
Probable space group: C M C 21
;
_chemical_formula_sum "Si O2"
_cell_formula_units_Z 64
_cell_length_a 11.249907
_cell_length_b 8.442672
_cell_length_c 32.976175
_cell_angle_alpha 90.000000
_cell_angle_beta 90.000000
_cell_angle_gamma 90.000000
_cell_volume 3132.053188
_symmetry_space_group_name_H-M "C M C 21"
_symmetry_group_IT_number 36
_symmetry_cell_setting 'orthorhombic'
loop_
_space_group_symop_operation_xyz
x,y,z
-x,-y,1/2+z
x,-y,1/2+z
-x,y,z
1/2+x,1/2+y,z
1/2-x,1/2-y,1/2+z
1/2+x,1/2-y,1/2+z
1/2-x,1/2+y,z
loop_
_atom_site_type_symbol
_atom_site_label
_atom_site_fract_x
_atom_site_fract_y
_atom_site_fract_z
Si Si1 0.367316 0.487804 0.408070
Si Si2 0.871396 0.259158 0.620863
Si Si3 0.864375 0.161963 0.528427
Si Si4 0.367257 0.324370 0.496397
Si Si5 0.635531 0.149728 0.375765
Si Si6 0.315370 0.789860 0.232134
Si Si7 0.187013 0.034260 0.171783
Si Si8 0.870981 0.583257 0.282301
O O1 0.500000 0.564209 0.404141
O O2 0.363658 0.406355 0.452265
O O3 0.362424 0.340304 0.377016
O O4 0.249248 0.590577 0.401228
O O5 0.849304 0.230311 0.573488
O O6 0.877057 0.087678 0.642188
O O7 0.774704 0.364296 0.643430
O O8 0.000000 0.338475 0.625686
O O9 0.750441 0.220604 0.502942
O O10 0.000000 0.205496 0.514153
O O11 0.861788 0.971495 0.527554
O O12 0.500000 0.248205 0.500338
O O13 0.500000 0.104607 0.389756
O O14 0.651317 0.086794 0.330209
O O15 0.256017 0.915392 0.201699
O O16 0.373788 0.661119 0.201926
O O17 0.222724 0.687277 0.258041
O O18 0.374922 0.905804 0.264619
O O19 0.000000 0.658159 0.275375
#
# Coordination Sequence:
#
# PCOD9351770 Si02
#       8
#     8   8   8   8   8   8   8   8
#     4  10  21  37  57  82 113 148 186 231 281 331
#     4  10  20  36  55  75 106 142 175 220 273 324
#     4  10  21  36  56  82 111 146 185 225 275 332
#     4  10  21  37  57  83 114 146 185 233 279 329
#     4  10  21  36  56  82 112 149 189 229 279 336
#     4   9  19  34  53  78 104 135 178 220 266 325
#     4   9  19  34  53  78 104 135 178 219 264 326
#     4  10  20  36  55  76 108 143 178 227 277 325
#
# _framework density 20.433879000000001
#
# number of rings (size 3 to 8) (size 9 to 14) (size 15 to 20)
#    0.000    2.250    0.000    2.250    0.000    6.500 
#    0.000    5.000    0.000    0.000    0.000    0.000 
#    0.000    0.000    0.000    0.000    0.000    0.000 
#
# Total GULP energy -178179.275410 kJ/mol
# GULP energy per Si atom -5568.102357 kJ/mol
# Density = 2.038737 g / cm^3
# Si number density = 20.433879 Si / 1000 Ang^3
#
#
#
# Elastic Constant Matrix: (Units=GPa)
#
#
# Indices 1 2 3 4 5 6 
#
# 1 144.1385 35.6785 37.1393 0.0000 0.0000 0.0000
# 2 35.6785 55.2689 -0.2362 0.0000 0.0000 0.0000
# 3 37.1393 -0.2362 45.2100 0.0000 0.0000 0.0000
# 4 0.0000 0.0000 0.0000 28.1388 0.0000 0.0000
# 5 0.0000 0.0000 0.0000 0.0000 99.9588 0.0000
# 6 0.0000 0.0000 0.0000 0.0000 0.0000 16.5758
#
#
#
# Elastic Compliance Matrix: (Units=1/GPa)
#
#
# Indices 1 2 3 4 5 6 
#
# 1 0.011069 -0.007184 -0.009130 0.000000 0.000000 0.000000
# 2 -0.007184 0.022757 0.006021 0.000000 0.000000 0.000000
# 3 -0.009130 0.006021 0.029651 0.000000 0.000000 0.000000
# 4 0.000000 0.000000 0.000000 0.035538 0.000000 0.000000
# 5 0.000000 0.000000 0.000000 0.000000 0.010004 0.000000
# 6 0.000000 0.000000 0.000000 0.000000 0.000000 0.060329
#
#
# Mechanical properties :
#
#
# Convention : Reuss Voigt Hill
#
# Bulk Modulus (GPa) = 23.31622 43.30895 33.31259
# Shear Modulus (GPa) = 24.48204 40.40373 32.44288
#
# Velocity S-wave (km/s) = 3.46513 4.45150 3.98892
# Velocity P-wave (km/s) = 5.23878 6.90375 6.12808
#
# Compressibility (1/GPa) = 0.04288860
#
# Stress axis : x y z
#
# Youngs Moduli (GPa) = 90.34544 43.94277 33.72590
#
# Poissons Ratio (x) = 0.31570 0.30793
# Poissons Ratio (y) = 0.64907 -0.20305
# Poissons Ratio (z) = 0.82488 -0.26457
#
# Static dielectric constant tensor:
#      x y z
#    x 1.778540 0.000000 0.000000 
#    y 0.000000 1.710560 0.000000 
#    z 0.000000 0.000000 1.742570 
# 
# From -- ./inp_files/17392.got.cif
#   From: 2010.05.17/outbox.cif.g08.bks.cpg/sg36_9_cif.got.tgz:17392.got - 2010.06.03 17:41:39.
