data_PCOD9351943
_publ_section_title
;
Structure prediction by ZEFSAII (Michael W. Deem and Ramdas Pophale) SiO2 
 PCOD9351943
Probable space group: C M C 21
;
_chemical_formula_sum "Si O2"
_cell_formula_units_Z 64
_cell_length_a 8.303959
_cell_length_b 23.705472
_cell_length_c 16.603624
_cell_angle_alpha 90.000000
_cell_angle_beta 90.000000
_cell_angle_gamma 90.000000
_cell_volume 3268.411223
_symmetry_space_group_name_H-M "C M C 21"
_symmetry_group_IT_number 36
_symmetry_cell_setting 'orthorhombic'
loop_
_space_group_symop_operation_xyz
x,y,z
-x,-y,1/2+z
x,-y,1/2+z
-x,y,z
1/2+x,1/2+y,z
1/2-x,1/2-y,1/2+z
1/2+x,1/2-y,1/2+z
1/2-x,1/2+y,z
loop_
_atom_site_type_symbol
_atom_site_label
_atom_site_fract_x
_atom_site_fract_y
_atom_site_fract_z
Si Si1 0.307165 0.117233 0.976920
Si Si2 0.684749 0.702673 0.856139
Si Si3 0.189485 0.774848 0.098772
Si Si4 0.307457 0.650875 0.146504
Si Si5 0.806029 0.910084 0.811413
Si Si6 0.693538 0.037380 0.829987
Si Si7 0.684091 0.866346 0.217347
Si Si8 0.695003 0.687814 0.422100
O O1 0.500000 0.124122 0.971239
O O2 0.219196 0.172291 0.940908
O O3 0.258034 0.066846 0.915188
O O4 0.260497 0.115646 0.070338
O O5 0.500000 0.693201 0.831675
O O6 0.807783 0.673169 0.796015
O O7 0.725788 0.767668 0.862043
O O8 0.262965 0.717051 0.134281
O O9 0.219836 0.829856 0.153182
O O10 0.000000 0.763598 0.092608
O O11 0.249312 0.793467 0.010585
O O12 0.500000 0.647463 0.144835
O O13 0.251102 0.623038 0.230688
O O14 0.760910 0.873715 0.890203
O O15 0.000000 0.911759 0.807999
O O16 0.744869 0.973431 0.819522
O O17 0.500000 0.041041 0.827894
O O18 0.751803 0.075444 0.754207
O O19 0.500000 0.873891 0.190145
O O20 0.500000 0.693057 0.418677
#
# Coordination Sequence:
#
# PCOD9351943 Si02
#       8
#     8   8   8   8   8   8   8   8
#     4  10  20  37  60  86 118 155 193 243 297 345
#     4  11  20  32  57  89 116 148 193 237 290 355
#     4  11  22  36  59  90 122 155 196 242 297 361
#     4  11  22  37  60  91 122 156 199 244 300 361
#     4  10  23  41  60  84 118 159 197 246 300 351
#     4   9  21  41  62  83 111 153 202 245 292 352
#     4  10  21  38  59  83 116 153 192 243 297 347
#     4  10  21  38  57  82 121 159 190 238 303 354
#
# _framework density 19.581378000000001
#
# number of rings (size 3 to 8) (size 9 to 14) (size 15 to 20)
#    0.000    1.750    1.250    4.125    0.000    6.000 
#    2.250    0.000    0.000    0.000    0.000    0.000 
#    0.000    0.000    0.000    0.000    0.000    0.000 
#
# Total GULP energy -178503.325122 kJ/mol
# GULP energy per Si atom -5578.228910 kJ/mol
# Density = 1.953681 g / cm^3
# Si number density = 19.581378 Si / 1000 Ang^3
#
#
#
# Elastic Constant Matrix: (Units=GPa)
#
#
# Indices 1 2 3 4 5 6 
#
# 1 24.6528 19.9829 8.4082 0.0000 0.0000 0.0000
# 2 19.9829 161.3647 58.8486 0.0000 0.0000 0.0000
# 3 8.4082 58.8486 84.8800 0.0000 0.0000 0.0000
# 4 0.0000 0.0000 0.0000 25.1744 0.0000 0.0000
# 5 0.0000 0.0000 0.0000 0.0000 23.4645 0.0000
# 6 0.0000 0.0000 0.0000 0.0000 0.0000 30.0182
#
#
#
# Elastic Compliance Matrix: (Units=1/GPa)
#
#
# Indices 1 2 3 4 5 6 
#
# 1 0.045130 -0.005298 -0.000797 0.000000 0.000000 0.000000
# 2 -0.005298 0.008916 -0.005657 0.000000 0.000000 0.000000
# 3 -0.000797 -0.005657 0.015782 0.000000 0.000000 0.000000
# 4 0.000000 0.000000 0.000000 0.039723 0.000000 0.000000
# 5 0.000000 0.000000 0.000000 0.000000 0.042618 0.000000
# 6 0.000000 0.000000 0.000000 0.000000 0.000000 0.033313
#
#
# Mechanical properties :
#
#
# Convention : Reuss Voigt Hill
#
# Bulk Modulus (GPa) = 21.58720 49.48633 35.53676
# Shear Modulus (GPa) = 22.27888 27.97528 25.12708
#
# Velocity S-wave (km/s) = 3.37673 3.78387 3.58608
# Velocity P-wave (km/s) = 5.12360 6.66463 5.94427
#
# Compressibility (1/GPa) = 0.04632375
#
# Stress axis : x y z
#
# Youngs Moduli (GPa) = 22.15835 112.15446 63.36172
#
# Poissons Ratio (x) = 0.59418 0.05053
# Poissons Ratio (y) = 0.11739 0.35844
# Poissons Ratio (z) = 0.01767 0.63446
#
# Static dielectric constant tensor:
#      x y z
#    x 1.676200 0.000000 0.000000 
#    y 0.000000 1.676850 0.000000 
#    z 0.000000 0.000000 1.759110 
# 
# From -- ./inp_files/13954.got.cif
#   From: 2010.05.17/outbox.cif.g08.bks.cpg/sg36_7_cif.got.tgz:13954.got - 2010.06.03 17:41:39.
