data_PCOD9351436
_publ_section_title
;
Structure prediction by ZEFSAII (Michael W. Deem and Ramdas Pophale) SiO2 
 PCOD9351436
Probable space group: C M C 21
;
_chemical_formula_sum "Si O2"
_cell_formula_units_Z 64
_cell_length_a 7.227765
_cell_length_b 21.753176
_cell_length_c 18.018968
_cell_angle_alpha 90.000000
_cell_angle_beta 90.000000
_cell_angle_gamma 90.000000
_cell_volume 2833.065473
_symmetry_space_group_name_H-M "C M C 21"
_symmetry_group_IT_number 36
_symmetry_cell_setting 'orthorhombic'
loop_
_space_group_symop_operation_xyz
x,y,z
-x,-y,1/2+z
x,-y,1/2+z
-x,y,z
1/2+x,1/2+y,z
1/2-x,1/2-y,1/2+z
1/2+x,1/2-y,1/2+z
1/2-x,1/2+y,z
loop_
_atom_site_type_symbol
_atom_site_label
_atom_site_fract_x
_atom_site_fract_y
_atom_site_fract_z
Si Si1 0.274018 0.595374 0.285680
Si Si2 0.788369 0.862481 0.623494
Si Si3 0.276163 0.667736 0.428283
Si Si4 0.276341 0.728127 0.576049
Si Si5 0.723822 0.414312 0.469424
Si Si6 0.222928 0.047450 0.518719
Si Si7 0.775617 0.894781 0.162596
Si Si8 0.774015 0.047286 0.815076
O O1 0.500000 0.595416 0.286607
O O2 0.213460 0.612089 0.201657
O O3 0.217610 0.649146 0.344573
O O4 0.219591 0.525492 0.310167
O O5 0.787044 0.788988 0.617802
O O6 0.706930 0.880393 0.542973
O O7 0.000000 0.885959 0.622543
O O8 0.500000 0.672739 0.425093
O O9 0.217784 0.720042 0.488745
O O10 0.220819 0.606396 0.472775
O O11 0.500000 0.728279 0.574887
O O12 0.218253 0.669250 0.625110
O O13 0.500000 0.406070 0.468967
O O14 0.776821 0.484611 0.483590
O O15 0.783750 0.409930 0.384450
O O16 0.279291 0.053593 0.603296
O O17 0.000000 0.048710 0.517018
O O18 0.713885 0.916586 0.242089
O O19 0.000000 0.892518 0.165160
O O20 0.000000 0.044599 0.817308
#
# Coordination Sequence:
#
# PCOD9351436 Si02
#       8
#     8   8   8   8   8   8   8   8
#     4   9  15  25  43  68  95 118 145 186 237 282
#     4  10  20  31  44  68  98 122 148 188 233 271
#     4   8  13  24  44  65  84 114 154 190 217 259
#     4   9  18  33  48  62  87 124 164 189 211 260
#     4   9  15  23  37  61  95 120 133 172 237 284
#     4   8  11  19  36  59  85 108 135 176 226 265
#     4   8  14  23  39  61  82 110 147 184 215 256
#     4   9  14  22  39  66  96 116 136 177 238 287
#
# _framework density 22.590371999999999
#
# number of rings (size 3 to 8) (size 9 to 14) (size 15 to 20)
#    0.000    3.250    1.250    2.250    0.000    3.000 
#    2.250    0.000    0.000    0.000    0.000    8.750 
#    0.000    0.000    0.000    0.000    0.000    0.000 
#
# Total GULP energy -178159.385365 kJ/mol
# GULP energy per Si atom -5567.480793 kJ/mol
# Density = 2.253896 g / cm^3
# Si number density = 22.590372 Si / 1000 Ang^3
#
#
#
# Elastic Constant Matrix: (Units=GPa)
#
#
# Indices 1 2 3 4 5 6 
#
# 1 104.1471 -7.5705 5.3710 0.0000 0.0000 0.0000
# 2 -7.5705 19.1357 23.0573 0.0000 0.0000 0.0000
# 3 5.3710 23.0573 206.7308 0.0000 0.0000 0.0000
# 4 0.0000 0.0000 0.0000 32.9326 0.0000 0.0000
# 5 0.0000 0.0000 0.0000 0.0000 -31.9251 0.0000
# 6 0.0000 0.0000 0.0000 0.0000 0.0000 -3.8813
#
#
#
# Elastic Compliance Matrix: (Units=1/GPa)
#
#
# Indices 1 2 3 4 5 6 
#
# 1 0.010002 0.004933 -0.000810 0.000000 0.000000 0.000000
# 2 0.004933 0.062805 -0.007133 0.000000 0.000000 0.000000
# 3 -0.000810 -0.007133 0.005654 0.000000 0.000000 0.000000
# 4 0.000000 0.000000 0.000000 0.030365 0.000000 0.000000
# 5 0.000000 0.000000 0.000000 0.000000 -0.031323 0.000000
# 6 0.000000 0.000000 0.000000 0.000000 0.000000 -0.257648
#
#
# Mechanical properties :
#
#
# Convention : Reuss Voigt Hill
#
# Bulk Modulus (GPa) = 13.80431 41.30322 27.55376
# Shear Modulus (GPa) = -33.33801 20.03564 -6.65119
#
# Velocity S-wave (km/s) = -3.84573 2.98133 -1.71775
# Velocity P-wave (km/s) = 3.68722 5.49312 2.87913
#
# Compressibility (1/GPa) = 0.07244116
#
# Stress axis : x y z
#
# Youngs Moduli (GPa) = 99.97822 15.92233 176.87176
#
# Poissons Ratio (x) = -0.07855 0.14328
# Poissons Ratio (y) = -0.49321 1.26162
# Poissons Ratio (z) = 0.08099 0.11357
#
# Static dielectric constant tensor:
#      x y z
#    x 1.916420 0.000000 0.000000 
#    y 0.000000 1.796610 0.000000 
#    z 0.000000 0.000000 1.871480 
# 
# From -- ./inp_files/14072.got.cif
#   From: 2010.05.17/outbox.cif.g08.bks.cpg/sg36_8_cif.got.tgz:14072.got - 2010.06.03 17:41:39.
