data_PCOD9351967
_publ_section_title
;
Structure prediction by ZEFSAII (Michael W. Deem and Ramdas Pophale) SiO2 
 PCOD9351967
Probable space group: C M C 21
;
_chemical_formula_sum "Si O2"
_cell_formula_units_Z 64
_cell_length_a 8.855679
_cell_length_b 14.737217
_cell_length_c 22.752881
_cell_angle_alpha 90.000000
_cell_angle_beta 90.000000
_cell_angle_gamma 90.000000
_cell_volume 2969.434429
_symmetry_space_group_name_H-M "C M C 21"
_symmetry_group_IT_number 36
_symmetry_cell_setting 'orthorhombic'
loop_
_space_group_symop_operation_xyz
x,y,z
-x,-y,1/2+z
x,-y,1/2+z
-x,y,z
1/2+x,1/2+y,z
1/2-x,1/2-y,1/2+z
1/2+x,1/2-y,1/2+z
1/2-x,1/2+y,z
loop_
_atom_site_type_symbol
_atom_site_label
_atom_site_fract_x
_atom_site_fract_y
_atom_site_fract_z
Si Si1 0.176314 0.409141 0.406580
Si Si2 0.327588 0.310837 0.613527
Si Si3 0.178475 0.799248 0.302657
Si Si4 0.181288 0.862775 0.743533
Si Si5 0.673204 0.756934 0.498144
Si Si6 0.173940 0.026930 0.592172
Si Si7 0.320216 0.942881 0.215071
Si Si8 0.320442 0.916861 0.969195
O O1 0.273714 0.353312 0.360799
O O2 0.184372 0.355492 0.468369
O O3 0.225774 0.512055 0.418828
O O4 0.000000 0.408267 0.387504
O O5 0.500000 0.277175 0.608639
O O6 0.282061 0.311613 0.681656
O O7 0.226654 0.261240 0.565450
O O8 0.325986 0.417533 0.596947
O O9 0.261172 0.702754 0.294684
O O10 0.237621 0.864647 0.250962
O O11 0.000000 0.786150 0.299622
O O12 0.000000 0.875349 0.744986
O O13 0.261980 0.960039 0.739835
O O14 0.500000 0.727893 0.494534
O O15 0.773231 0.686791 0.461233
O O16 0.271839 0.061510 0.646941
O O17 0.241204 0.055347 0.530051
O O18 0.000000 0.056600 0.598424
O O19 0.500000 0.935536 0.221123
O O20 0.500000 0.925392 0.975336
#
# Coordination Sequence:
#
# PCOD9351967 Si02
#       8
#     8   8   8   8   8   8   8   8
#     4  10  24  46  65  87 125 169 214 265 317 375
#     4   9  19  36  61  91 127 164 202 254 314 373
#     4  12  26  43  67  95 126 171 218 264 318 380
#     4  10  22  42  65  94 130 168 211 264 318 377
#     4  11  23  39  62  92 125 164 208 259 314 374
#     4  10  20  37  62  93 130 166 207 260 316 376
#     4  11  23  41  65  94 130 169 211 263 320 379
#     4  11  23  40  63  92 125 165 211 259 317 378
#
# _framework density 21.552927
#
# number of rings (size 3 to 8) (size 9 to 14) (size 15 to 20)
#    0.000    1.500    1.250    4.500    1.750    5.500 
#    0.000    2.500    0.000    0.000    0.000    0.000 
#    0.000    0.000    0.000    0.000    0.000    0.000 
#
# Total GULP energy -179005.532351 kJ/mol
# GULP energy per Si atom -5593.922886 kJ/mol
# Density = 2.150387 g / cm^3
# Si number density = 21.552927 Si / 1000 Ang^3
#
#
#
# Elastic Constant Matrix: (Units=GPa)
#
#
# Indices 1 2 3 4 5 6 
#
# 1 68.3115 -0.5660 2.3502 0.0000 0.0000 0.0000
# 2 -0.5660 49.7140 -4.4846 0.0000 0.0000 0.0000
# 3 2.3502 -4.4846 18.5241 0.0000 0.0000 0.0000
# 4 0.0000 0.0000 0.0000 24.0427 0.0000 0.0000
# 5 0.0000 0.0000 0.0000 0.0000 30.7416 0.0000
# 6 0.0000 0.0000 0.0000 0.0000 0.0000 31.5126
#
#
#
# Elastic Compliance Matrix: (Units=1/GPa)
#
#
# Indices 1 2 3 4 5 6 
#
# 1 0.014703 -0.000001 -0.001866 0.000000 0.000000 0.000000
# 2 -0.000001 0.020564 0.004979 0.000000 0.000000 0.000000
# 3 -0.001866 0.004979 0.055426 0.000000 0.000000 0.000000
# 4 0.000000 0.000000 0.000000 0.041593 0.000000 0.000000
# 5 0.000000 0.000000 0.000000 0.000000 0.032529 0.000000
# 6 0.000000 0.000000 0.000000 0.000000 0.000000 0.031733
#
#
# Mechanical properties :
#
#
# Convention : Reuss Voigt Hill
#
# Bulk Modulus (GPa) = 10.31809 14.57208 12.44509
# Shear Modulus (GPa) = 22.45884 26.54273 24.50078
#
# Velocity S-wave (km/s) = 3.23155 3.51310 3.37526
# Velocity P-wave (km/s) = 4.32685 4.81991 4.58002
#
# Compressibility (1/GPa) = 0.09691713
#
# Stress axis : x y z
#
# Youngs Moduli (GPa) = 68.01333 48.62827 18.04216
#
# Poissons Ratio (x) = 0.00004 0.03366
# Poissons Ratio (y) = 0.00006 -0.08982
# Poissons Ratio (z) = 0.12689 -0.24210
#
# Static dielectric constant tensor:
#      x y z
#    x 1.718040 0.000000 0.000000 
#    y 0.000000 1.815440 0.000000 
#    z 0.000000 0.000000 1.785760 
# 
# From -- ./inp_files/16684.got.cif
#   From: 2010.05.17/outbox.cif.g08.bks.cpg/sg36_9_cif.got.tgz:16684.got - 2010.06.03 17:41:39.
