data_PCOD9351618
_publ_section_title
;
Structure prediction by ZEFSAII (Michael W. Deem and Ramdas Pophale) SiO2 
 PCOD9351618
Probable space group: C M C 21
;
_chemical_formula_sum "Si O2"
_cell_formula_units_Z 40
_cell_length_a 7.585073
_cell_length_b 26.074622
_cell_length_c 10.205878
_cell_angle_alpha 90.000000
_cell_angle_beta 90.000000
_cell_angle_gamma 90.000000
_cell_volume 2018.497234
_symmetry_space_group_name_H-M "C M C 21"
_symmetry_group_IT_number 36
_symmetry_cell_setting 'orthorhombic'
loop_
_space_group_symop_operation_xyz
x,y,z
-x,-y,1/2+z
x,-y,1/2+z
-x,y,z
1/2+x,1/2+y,z
1/2-x,1/2-y,1/2+z
1/2+x,1/2-y,1/2+z
1/2-x,1/2+y,z
loop_
_atom_site_type_symbol
_atom_site_label
_atom_site_fract_x
_atom_site_fract_y
_atom_site_fract_z
Si Si1 0.795627 0.626732 0.881700
Si Si2 0.799956 0.145873 0.316940
Si Si3 0.299583 0.787574 0.578355
Si Si4 0.000000 0.043594 0.937111
Si Si5 0.214603 0.828134 0.104041
Si Si6 0.500000 0.550140 0.238805
O O1 0.670512 0.578601 0.907303
O O2 0.787089 0.643526 0.730852
O O3 0.000000 0.617168 0.919029
O O4 0.722752 0.674231 0.969490
O O5 0.701772 0.181196 0.213885
O O6 0.734344 0.146907 0.465116
O O7 0.000000 0.168108 0.322012
O O8 0.834175 0.088655 0.262862
O O9 0.500000 0.778507 0.534505
O O10 0.223913 0.731087 0.598154
O O11 0.000000 0.030440 0.090999
O O12 0.000000 0.994345 0.844726
O O13 0.000000 0.829958 0.116508
#
# Coordination Sequence:
#
# PCOD9351618 Si02
#       6
#     8   8   8   4   8   4
#     4  11  23  41  63  93 130 167 207 269 316 378
#     4   9  19  38  57  86 119 162 207 254 312 367
#     4  10  20  35  56  90 128 170 209 252 311 373
#     4  12  24  46  70  94 122 164 220 268 331 368
#     4  10  20  34  59  90 131 171 207 251 301 386
#     4  10  24  40  74  88 116 174 208 272 327 370
#
# _framework density 19.816724000000001
#
# number of rings (size 3 to 8) (size 9 to 14) (size 15 to 20)
#    0.600    1.200    3.000    1.200    2.800    3.200 
#    0.000    2.000    0.000    0.000    0.000    0.000 
#    0.000    0.000    0.000    0.000    0.000    0.000 
#
# Total GULP energy -111564.437258 kJ/mol
# GULP energy per Si atom -5578.221863 kJ/mol
# Density = 1.977162 g / cm^3
# Si number density = 19.816724 Si / 1000 Ang^3
#
#
#
# Elastic Constant Matrix: (Units=GPa)
#
#
# Indices 1 2 3 4 5 6 
#
# 1 63.8571 15.3751 0.6601 0.0000 0.0000 0.0000
# 2 15.3751 86.5124 44.3491 0.0000 0.0000 0.0000
# 3 0.6601 44.3491 154.4457 0.0000 0.0000 0.0000
# 4 0.0000 0.0000 0.0000 43.2949 0.0000 0.0000
# 5 0.0000 0.0000 0.0000 0.0000 16.3120 0.0000
# 6 0.0000 0.0000 0.0000 0.0000 0.0000 24.1726
#
#
#
# Elastic Compliance Matrix: (Units=1/GPa)
#
#
# Indices 1 2 3 4 5 6 
#
# 1 0.016467 -0.003389 0.000903 0.000000 0.000000 0.000000
# 2 -0.003389 0.014252 -0.004078 0.000000 0.000000 0.000000
# 3 0.000903 -0.004078 0.007642 0.000000 0.000000 0.000000
# 4 0.000000 0.000000 0.000000 0.023097 0.000000 0.000000
# 5 0.000000 0.000000 0.000000 0.000000 0.061304 0.000000
# 6 0.000000 0.000000 0.000000 0.000000 0.000000 0.041369
#
#
# Mechanical properties :
#
#
# Convention : Reuss Voigt Hill
#
# Bulk Modulus (GPa) = 39.63275 47.28710 43.45992
# Shear Modulus (GPa) = 26.92940 33.05132 29.99036
#
# Velocity S-wave (km/s) = 3.69036 4.08836 3.89445
# Velocity P-wave (km/s) = 6.18073 6.79708 6.49622
#
# Compressibility (1/GPa) = 0.02523166
#
# Stress axis : x y z
#
# Youngs Moduli (GPa) = 60.72871 70.16622 130.85773
#
# Poissons Ratio (x) = 0.23781 -0.11815
# Poissons Ratio (y) = 0.20583 0.53363
# Poissons Ratio (z) = -0.05483 0.28613
#
# Static dielectric constant tensor:
#      x y z
#    x 1.749360 0.000000 0.000000 
#    y 0.000000 1.676390 0.000000 
#    z 0.000000 0.000000 1.690270 
# 
# From -- ./inp_files/2539.got.cif
#   From: 2010.05.17/outbox.cif.g08.bks.cpg/sg36_2_cif.got.tgz:2539.got - 2010.06.03 17:41:39.
