data_PCOD9351057
_publ_section_title
;
Structure prediction by ZEFSAII (Michael W. Deem and Ramdas Pophale) SiO2 
 PCOD9351057
Probable space group: C M C 21
;
_chemical_formula_sum "Si O2"
_cell_formula_units_Z 40
_cell_length_a 14.695683
_cell_length_b 10.710879
_cell_length_c 8.986984
_cell_angle_alpha 90.000000
_cell_angle_beta 90.000000
_cell_angle_gamma 90.000000
_cell_volume 1414.584376
_symmetry_space_group_name_H-M "C M C 21"
_symmetry_group_IT_number 36
_symmetry_cell_setting 'orthorhombic'
loop_
_space_group_symop_operation_xyz
x,y,z
-x,-y,1/2+z
x,-y,1/2+z
-x,y,z
1/2+x,1/2+y,z
1/2-x,1/2-y,1/2+z
1/2+x,1/2-y,1/2+z
1/2-x,1/2+y,z
loop_
_atom_site_type_symbol
_atom_site_label
_atom_site_fract_x
_atom_site_fract_y
_atom_site_fract_z
Si Si1 0.855505 0.601172 0.925060
Si Si2 0.627854 0.682609 0.606969
Si Si3 0.660744 0.506426 0.862483
Si Si4 0.000000 0.547686 0.236134
Si Si5 0.823817 0.782632 0.658827
Si Si6 0.000000 0.306354 0.000706
O O1 0.751464 0.558584 0.942749
O O2 0.852547 0.710552 0.806872
O O3 0.911694 0.500069 0.835707
O O4 0.902483 0.671954 0.067221
O O5 0.614165 0.613827 0.763543
O O6 0.605955 0.578673 0.480556
O O7 0.736589 0.709595 0.597921
O O8 0.696096 0.415532 0.731465
O O9 0.000000 0.681809 0.323051
O O10 0.000000 0.439584 0.100880
O O11 0.910265 0.768584 0.553462
#
# Coordination Sequence:
#
# PCOD9351057 Si02
#       6
#     8   8   8   4   8   4
#     4   9  19  34  55  81 111 148 191 235 287 340
#     4  10  19  33  54  81 110 146 189 232 279 340
#     4  10  19  34  54  79 111 149 187 234 283 334
#     4  10  20  36  57  82 114 148 187 246 297 334
#     4   9  19  33  54  81 112 147 190 234 284 344
#     4  10  20  36  55  82 114 152 193 238 291 346
#
# _framework density 28.276855000000001
#
# number of rings (size 3 to 8) (size 9 to 14) (size 15 to 20)
#    0.000    2.400    0.000    2.400    0.000    3.200 
#    0.000    5.000    0.000    6.000    0.000    4.200 
#    0.000    0.000    0.000    0.000    0.000    0.000 
#
# Total GULP energy -111546.152290 kJ/mol
# GULP energy per Si atom -5577.307615 kJ/mol
# Density = 2.821250 g / cm^3
# Si number density = 28.276855 Si / 1000 Ang^3
#
#
#
# Elastic Constant Matrix: (Units=GPa)
#
#
# Indices 1 2 3 4 5 6 
#
# 1 85.2759 -14.9357 4.3480 0.0000 0.0000 0.0000
# 2 -14.9357 129.3447 -2.4773 0.0000 0.0000 0.0000
# 3 4.3480 -2.4773 127.6637 0.0000 0.0000 0.0000
# 4 0.0000 0.0000 0.0000 47.9553 0.0000 0.0000
# 5 0.0000 0.0000 0.0000 0.0000 -23.2284 0.0000
# 6 0.0000 0.0000 0.0000 0.0000 0.0000 123.3090
#
#
#
# Elastic Compliance Matrix: (Units=1/GPa)
#
#
# Indices 1 2 3 4 5 6 
#
# 1 0.011987 0.001377 -0.000382 0.000000 0.000000 0.000000
# 2 0.001377 0.007892 0.000106 0.000000 0.000000 0.000000
# 3 -0.000382 0.000106 0.007848 0.000000 0.000000 0.000000
# 4 0.000000 0.000000 0.000000 0.020853 0.000000 0.000000
# 5 0.000000 0.000000 0.000000 0.000000 -0.043051 0.000000
# 6 0.000000 0.000000 0.000000 0.000000 0.000000 0.008110
#
#
# Mechanical properties :
#
#
# Convention : Reuss Voigt Hill
#
# Bulk Modulus (GPa) = 33.41031 35.12826 34.26929
# Shear Modulus (GPa) = 233.50114 53.29712 143.39913
#
# Velocity S-wave (km/s) = 9.09703 4.34618 7.12900
# Velocity P-wave (km/s) = 11.05362 6.13479 8.93918
#
# Compressibility (1/GPa) = 0.02993088
#
# Stress axis : x y z
#
# Youngs Moduli (GPa) = 83.42195 126.70572 127.41873
#
# Poissons Ratio (x) = -0.17446 0.04862
# Poissons Ratio (y) = -0.11486 -0.01354
# Poissons Ratio (z) = 0.03183 -0.01346
#
# Static dielectric constant tensor:
#      x y z
#    x 2.278860 0.000000 0.000000 
#    y 0.000000 2.357990 0.000000 
#    z 0.000000 0.000000 2.253550 
# 
# From -- ./inp_files/8271.got.cif
#   From: 2010.05.17/outbox.cif.g08.bks.cpg/sg36_5_cif.got.tgz:8271.got - 2010.06.03 17:41:39.
