data_PCOD9351485
_publ_section_title
;
Structure prediction by ZEFSAII (Michael W. Deem and Ramdas Pophale) SiO2 
 PCOD9351485
Probable space group: C M C 21
;
_chemical_formula_sum "Si O2"
_cell_formula_units_Z 64
_cell_length_a 8.766228
_cell_length_b 14.503730
_cell_length_c 28.963115
_cell_angle_alpha 90.000000
_cell_angle_beta 90.000000
_cell_angle_gamma 90.000000
_cell_volume 3682.457447
_symmetry_space_group_name_H-M "C M C 21"
_symmetry_group_IT_number 36
_symmetry_cell_setting 'orthorhombic'
loop_
_space_group_symop_operation_xyz
x,y,z
-x,-y,1/2+z
x,-y,1/2+z
-x,y,z
1/2+x,1/2+y,z
1/2-x,1/2-y,1/2+z
1/2+x,1/2-y,1/2+z
1/2-x,1/2+y,z
loop_
_atom_site_type_symbol
_atom_site_label
_atom_site_fract_x
_atom_site_fract_y
_atom_site_fract_z
Si Si1 0.182234 0.248748 0.677460
Si Si2 0.815837 0.394314 0.108907
Si Si3 0.316756 0.883689 0.355935
Si Si4 0.816629 0.088027 0.355620
Si Si5 0.683972 0.105097 0.099711
Si Si6 0.816291 0.264506 0.924780
Si Si7 0.683632 0.748128 0.031307
Si Si8 0.817363 0.764097 0.778622
O O1 0.250068 0.157763 0.653371
O O2 0.229372 0.333773 0.644182
O O3 0.239624 0.261976 0.729181
O O4 0.000000 0.243453 0.676887
O O5 0.765151 0.499727 0.104329
O O6 0.000000 0.393231 0.111834
O O7 0.770755 0.333536 0.064262
O O8 0.500000 0.885185 0.360308
O O9 0.246593 0.824820 0.397909
O O10 0.278578 0.825178 0.309801
O O11 0.251374 0.986160 0.354313
O O12 0.751298 0.147126 0.398278
O O13 0.776062 0.147200 0.309830
O O14 0.000000 0.084961 0.358747
O O15 0.500000 0.105859 0.097085
O O16 0.748688 0.157227 0.055105
O O17 0.770393 0.261592 0.978394
O O18 0.000000 0.266548 0.921879
O O19 0.500000 0.742146 0.032548
O O20 0.000000 0.764864 0.772488
#
# Coordination Sequence:
#
# PCOD9351485 Si02
#       8
#     8   8   8   8   8   8   8   8
#     4  10  20  33  51  77 104 132 171 215 258 304
#     4   9  18  35  54  72 101 138 172 209 256 309
#     4  10  21  37  56  78 104 138 179 220 266 316
#     4  10  21  37  56  80 108 139 176 217 265 317
#     4   9  19  34  52  75 103 136 172 211 256 308
#     4  10  20  35  54  79 110 141 177 219 263 313
#     4   9  19  34  53  77 103 134 172 213 257 305
#     4   9  20  37  54  74 103 138 173 210 259 316
#
# _framework density 17.379698999999999
#
# number of rings (size 3 to 8) (size 9 to 14) (size 15 to 20)
#    0.000    2.500    0.000    2.250    0.000    7.000 
#    0.000    5.000    0.000    0.000    0.000    0.000 
#    0.000    0.000    0.000    0.000    0.000    0.000 
#
# Total GULP energy -178546.608790 kJ/mol
# GULP energy per Si atom -5579.581525 kJ/mol
# Density = 1.734014 g / cm^3
# Si number density = 17.379699 Si / 1000 Ang^3
#
#
#
# Elastic Constant Matrix: (Units=GPa)
#
#
# Indices 1 2 3 4 5 6 
#
# 1 33.7897 37.1128 39.8985 0.0000 0.0000 0.0000
# 2 37.1128 154.2399 58.8131 0.0000 0.0000 0.0000
# 3 39.8985 58.8131 137.4808 0.0000 0.0000 0.0000
# 4 0.0000 0.0000 0.0000 6.5855 0.0000 0.0000
# 5 0.0000 0.0000 0.0000 0.0000 29.6384 0.0000
# 6 0.0000 0.0000 0.0000 0.0000 0.0000 27.6550
#
#
#
# Elastic Compliance Matrix: (Units=1/GPa)
#
#
# Indices 1 2 3 4 5 6 
#
# 1 0.052362 -0.008131 -0.011718 0.000000 0.000000 0.000000
# 2 -0.008131 0.009010 -0.001495 0.000000 0.000000 0.000000
# 3 -0.011718 -0.001495 0.011314 0.000000 0.000000 0.000000
# 4 0.000000 0.000000 0.000000 0.151848 0.000000 0.000000
# 5 0.000000 0.000000 0.000000 0.000000 0.033740 0.000000
# 6 0.000000 0.000000 0.000000 0.000000 0.000000 0.036160
#
#
# Mechanical properties :
#
#
# Convention : Reuss Voigt Hill
#
# Bulk Modulus (GPa) = 33.33487 66.35102 49.84295
# Shear Modulus (GPa) = 14.40428 25.42150 19.91289
#
# Velocity S-wave (km/s) = 2.88201 3.82869 3.38857
# Velocity P-wave (km/s) = 5.50424 7.60298 6.63709
#
# Compressibility (1/GPa) = 0.02999862
#
# Stress axis : x y z
#
# Youngs Moduli (GPa) = 19.09799 110.99044 88.38875
#
# Poissons Ratio (x) = 0.90248 1.03570
# Poissons Ratio (y) = 0.15529 0.13210
# Poissons Ratio (z) = 0.22378 0.16588
#
# Static dielectric constant tensor:
#      x y z
#    x 1.582370 0.000000 0.000000 
#    y 0.000000 1.572230 0.000000 
#    z 0.000000 0.000000 1.568260 
# 
# From -- ./inp_files/16699.got.cif
#   From: 2010.05.17/outbox.cif.g08.bks.cpg/sg36_9_cif.got.tgz:16699.got - 2010.06.03 17:41:39.
