data_PCOD9351671
_publ_section_title
;
Structure prediction by ZEFSAII (Michael W. Deem and Ramdas Pophale) SiO2 
 PCOD9351671
Probable space group: C M C 21
;
_chemical_formula_sum "Si O2"
_cell_formula_units_Z 48
_cell_length_a 7.620854
_cell_length_b 17.333545
_cell_length_c 15.411393
_cell_angle_alpha 90.000000
_cell_angle_beta 90.000000
_cell_angle_gamma 90.000000
_cell_volume 2035.789777
_symmetry_space_group_name_H-M "C M C 21"
_symmetry_group_IT_number 36
_symmetry_cell_setting 'orthorhombic'
loop_
_space_group_symop_operation_xyz
x,y,z
-x,-y,1/2+z
x,-y,1/2+z
-x,y,z
1/2+x,1/2+y,z
1/2-x,1/2-y,1/2+z
1/2+x,1/2-y,1/2+z
1/2-x,1/2+y,z
loop_
_atom_site_type_symbol
_atom_site_label
_atom_site_fract_x
_atom_site_fract_y
_atom_site_fract_z
Si Si1 0.784621 0.293852 0.470420
Si Si2 0.712214 0.049000 0.569306
Si Si3 0.205548 0.462219 0.732734
Si Si4 0.700511 0.700520 0.308514
Si Si5 0.294592 0.715955 0.644002
Si Si6 0.284897 0.961776 0.403917
O O1 0.723310 0.231748 0.398727
O O2 0.727889 0.271810 0.567112
O O3 0.731466 0.378227 0.438442
O O4 0.000000 0.292265 0.470716
O O5 0.500000 0.050713 0.565219
O O6 0.771897 0.130338 0.607069
O O7 0.772901 0.983596 0.637745
O O8 0.771884 0.026234 0.473355
O O9 0.219233 0.374638 0.764126
O O10 0.280149 0.516278 0.808673
O O11 0.000000 0.480340 0.727867
O O12 0.500000 0.680013 0.325941
O O13 0.707149 0.767889 0.236277
O O14 0.500000 0.731640 0.657090
O O15 0.500000 0.961724 0.401989
#
# Coordination Sequence:
#
# PCOD9351671 Si02
#       6
#     8   8   8   8   8   8
#     4   9  19  36  57  81 110 147 186 225 274 328
#     4  10  20  35  56  80 108 144 184 226 274 327
#     4  10  20  35  56  80 108 144 184 226 274 327
#     4  11  22  37  58  83 113 147 185 229 276 328
#     4  11  22  37  58  83 113 147 185 229 276 328
#     4   9  17  32  55  79 104 139 184 227 268 324
#
# _framework density 23.578073
#
# number of rings (size 3 to 8) (size 9 to 14) (size 15 to 20)
#    0.000    2.000    0.000    4.000    0.000    6.000 
#    0.000    2.500    0.000    4.000    0.000    0.000 
#    0.000    0.000    0.000    0.000    0.000    0.000 
#
# Total GULP energy -134197.019997 kJ/mol
# GULP energy per Si atom -5591.542500 kJ/mol
# Density = 2.352441 g / cm^3
# Si number density = 23.578073 Si / 1000 Ang^3
#
#
#
# Elastic Constant Matrix: (Units=GPa)
#
#
# Indices 1 2 3 4 5 6 
#
# 1 48.3619 -9.6799 8.2671 0.0000 0.0000 0.0000
# 2 -9.6799 49.6086 -24.9122 0.0000 0.0000 0.0000
# 3 8.2671 -24.9122 64.1401 0.0000 0.0000 0.0000
# 4 0.0000 0.0000 0.0000 44.7534 0.0000 0.0000
# 5 0.0000 0.0000 0.0000 0.0000 4.2233 0.0000
# 6 0.0000 0.0000 0.0000 0.0000 0.0000 -14.1212
#
#
#
# Elastic Compliance Matrix: (Units=1/GPa)
#
#
# Indices 1 2 3 4 5 6 
#
# 1 0.021622 0.003503 -0.001426 0.000000 0.000000 0.000000
# 2 0.003503 0.025610 0.009495 0.000000 0.000000 0.000000
# 3 -0.001426 0.009495 0.019463 0.000000 0.000000 0.000000
# 4 0.000000 0.000000 0.000000 0.022345 0.000000 0.000000
# 5 0.000000 0.000000 0.000000 0.000000 0.236780 0.000000
# 6 0.000000 0.000000 0.000000 0.000000 0.000000 -0.070816
#
#
# Mechanical properties :
#
#
# Convention : Reuss Voigt Hill
#
# Bulk Modulus (GPa) = 11.13115 12.16230 11.64672
# Shear Modulus (GPa) = 19.09804 19.53349 19.31576
#
# Velocity S-wave (km/s) = 2.84912 2.88142 2.86532
# Velocity P-wave (km/s) = 3.94393 4.02984 3.98712
#
# Compressibility (1/GPa) = 0.08983800
#
# Stress axis : x y z
#
# Youngs Moduli (GPa) = 46.24846 39.04783 51.38023
#
# Poissons Ratio (x) = -0.13677 0.07329
# Poissons Ratio (y) = -0.16200 -0.48787
# Poissons Ratio (z) = 0.06597 -0.37077
#
# Static dielectric constant tensor:
#      x y z
#    x 1.886590 0.000000 0.000000 
#    y 0.000000 1.873620 0.000000 
#    z 0.000000 0.000000 1.875910 
# 
# From -- ./inp_files/10358.got.cif
#   From: 2010.05.17/outbox.cif.g08.bks.cpg/sg36_6_cif.got.tgz:10358.got - 2010.06.03 17:41:39.
