data_PCOD9351629
_publ_section_title
;
Structure prediction by ZEFSAII (Michael W. Deem and Ramdas Pophale) SiO2 
 PCOD9351629
Probable space group: C M C 21
;
_chemical_formula_sum "Si O2"
_cell_formula_units_Z 64
_cell_length_a 27.747649
_cell_length_b 14.704241
_cell_length_c 8.264844
_cell_angle_alpha 90.000000
_cell_angle_beta 90.000000
_cell_angle_gamma 90.000000
_cell_volume 3372.123447
_symmetry_space_group_name_H-M "C M C 21"
_symmetry_group_IT_number 36
_symmetry_cell_setting 'orthorhombic'
loop_
_space_group_symop_operation_xyz
x,y,z
-x,-y,1/2+z
x,-y,1/2+z
-x,y,z
1/2+x,1/2+y,z
1/2-x,1/2-y,1/2+z
1/2+x,1/2-y,1/2+z
1/2-x,1/2+y,z
loop_
_atom_site_type_symbol
_atom_site_label
_atom_site_fract_x
_atom_site_fract_y
_atom_site_fract_z
Si Si1 0.167575 0.127949 0.800480
Si Si2 0.722357 0.128781 0.839757
Si Si3 0.943684 0.371132 0.409304
Si Si4 0.281528 0.062250 0.468096
Si Si5 0.556199 0.061543 0.277412
Si Si6 0.171026 0.064701 0.429995
Si Si7 0.636993 0.257450 0.791340
Si Si8 0.867218 0.308314 0.921580
O O1 0.221664 0.154256 0.861082
O O2 0.167877 0.095073 0.615744
O O3 0.135393 0.216992 0.816716
O O4 0.154482 0.038639 0.903566
O O5 0.719630 0.091532 0.655520
O O6 0.685744 0.211196 0.860951
O O7 0.706860 0.044366 0.951382
O O8 0.939560 0.406519 0.592874
O O9 0.927789 0.457136 0.299585
O O10 0.908833 0.287185 0.377736
O O11 0.000000 0.350605 0.376914
O O12 0.228321 0.069870 0.390470
O O13 0.321110 0.127115 0.388597
O O14 0.500000 0.063602 0.325609
O O15 0.586990 0.129534 0.385827
O O16 0.142375 0.135875 0.320587
O O17 0.634427 0.227699 0.604959
#
# Coordination Sequence:
#
# PCOD9351629 Si02
#       8
#     8   8   8   8   8   8   8   8
#     4  10  20  35  52  72 102 139 177 216 257 300
#     4   9  19  32  48  73 105 139 173 211 253 301
#     4  10  21  37  56  79 107 137 169 208 256 308
#     4   9  19  32  48  73 105 139 173 211 253 301
#     4  10  21  37  56  79 107 137 169 208 256 308
#     4  10  20  35  52  72 102 139 177 216 257 300
#     4  11  21  33  52  78 105 136 175 214 256 306
#     4  11  21  33  52  78 105 136 175 214 256 306
#
# _framework density 18.979140000000001
#
# number of rings (size 3 to 8) (size 9 to 14) (size 15 to 20)
#    0.000    2.000    0.000    3.750    0.000    6.500 
#    0.000    0.000    0.000    0.750    0.000    0.000 
#    0.000    0.000    0.000    0.000    0.000    0.000 
#
# Total GULP energy -178789.965421 kJ/mol
# GULP energy per Si atom -5587.186419 kJ/mol
# Density = 1.893594 g / cm^3
# Si number density = 18.979140 Si / 1000 Ang^3
#
#
#
# Elastic Constant Matrix: (Units=GPa)
#
#
# Indices 1 2 3 4 5 6 
#
# 1 32.9305 20.8826 6.3048 0.0000 0.0000 0.0000
# 2 20.8826 53.8311 -2.5051 0.0000 0.0000 0.0000
# 3 6.3048 -2.5051 22.0555 0.0000 0.0000 0.0000
# 4 0.0000 0.0000 0.0000 32.7130 0.0000 0.0000
# 5 0.0000 0.0000 0.0000 0.0000 22.9293 0.0000
# 6 0.0000 0.0000 0.0000 0.0000 0.0000 28.4324
#
#
#
# Elastic Compliance Matrix: (Units=1/GPa)
#
#
# Indices 1 2 3 4 5 6 
#
# 1 0.044611 -0.017994 -0.014796 0.000000 0.000000 0.000000
# 2 -0.017994 0.025934 0.008090 0.000000 0.000000 0.000000
# 3 -0.014796 0.008090 0.050489 0.000000 0.000000 0.000000
# 4 0.000000 0.000000 0.000000 0.030569 0.000000 0.000000
# 5 0.000000 0.000000 0.000000 0.000000 0.043612 0.000000
# 6 0.000000 0.000000 0.000000 0.000000 0.000000 0.035171
#
#
# Mechanical properties :
#
#
# Convention : Reuss Voigt Hill
#
# Bulk Modulus (GPa) = 13.96050 17.57574 15.76812
# Shear Modulus (GPa) = 16.46552 22.42393 19.44472
#
# Velocity S-wave (km/s) = 2.94863 3.44103 3.20430
# Velocity P-wave (km/s) = 4.35479 5.00682 4.69215
#
# Compressibility (1/GPa) = 0.07163066
#
# Stress axis : x y z
#
# Youngs Moduli (GPa) = 22.41605 38.56004 19.80642
#
# Poissons Ratio (x) = 0.69386 0.29306
# Poissons Ratio (y) = 0.40336 -0.16022
# Poissons Ratio (z) = 0.33168 -0.31193
#
# Static dielectric constant tensor:
#      x y z
#    x 1.652570 0.000000 0.000000 
#    y 0.000000 1.639010 0.000000 
#    z 0.000000 0.000000 1.686390 
# 
# From -- ./inp_files/6091.got.cif
#   From: 2010.05.17/outbox.cif.g08.bks.cpg/sg36_4_cif.got.tgz:6091.got - 2010.06.03 17:41:39.
