data_PCOD9351245
_publ_section_title
;
Structure prediction by ZEFSAII (Michael W. Deem and Ramdas Pophale) SiO2 
 PCOD9351245
Probable space group: C M C 21
;
_chemical_formula_sum "Si O2"
_cell_formula_units_Z 48
_cell_length_a 7.816299
_cell_length_b 29.178179
_cell_length_c 8.296717
_cell_angle_alpha 90.000000
_cell_angle_beta 90.000000
_cell_angle_gamma 90.000000
_cell_volume 1892.193844
_symmetry_space_group_name_H-M "C M C 21"
_symmetry_group_IT_number 36
_symmetry_cell_setting 'orthorhombic'
loop_
_space_group_symop_operation_xyz
x,y,z
-x,-y,1/2+z
x,-y,1/2+z
-x,y,z
1/2+x,1/2+y,z
1/2-x,1/2-y,1/2+z
1/2+x,1/2-y,1/2+z
1/2-x,1/2+y,z
loop_
_atom_site_type_symbol
_atom_site_label
_atom_site_fract_x
_atom_site_fract_y
_atom_site_fract_z
Si Si1 0.693637 0.844225 0.065260
Si Si2 0.709166 0.518387 0.050452
Si Si3 0.704148 0.567237 0.730467
Si Si4 0.802945 0.100498 0.259019
Si Si5 0.293466 0.237710 0.367063
Si Si6 0.702641 0.180222 0.055607
O O1 0.500000 0.833873 0.108887
O O2 0.759350 0.879943 0.196502
O O3 0.700745 0.873886 0.898452
O O4 0.777321 0.796606 0.007104
O O5 0.500000 0.518462 0.041567
O O6 0.763383 0.466600 0.086526
O O7 0.753090 0.550555 0.202615
O O8 0.774264 0.544211 0.892568
O O9 0.500000 0.563355 0.736854
O O10 0.792854 0.132735 0.099488
O O11 0.000000 0.098050 0.314782
O O12 0.500000 0.236160 0.370347
O O13 0.238868 0.214219 0.200787
O O14 0.239787 0.289698 0.398301
O O15 0.500000 0.172334 0.066290
#
# Coordination Sequence:
#
# PCOD9351245 Si02
#       6
#     8   8   8   8   8   8
#     4  10  21  37  54  78 110 142 180 224 267 315
#     4   9  19  34  56  83 107 136 180 225 263 319
#     4  10  19  35  57  80 106 139 179 221 267 318
#     4  10  19  35  58  81 107 142 180 220 269 321
#     4   9  20  37  54  75 106 141 178 219 263 318
#     4  10  21  36  55  81 110 140 179 225 269 317
#
# _framework density 25.367381999999999
#
# number of rings (size 3 to 8) (size 9 to 14) (size 15 to 20)
#    0.000    2.333    0.000    3.500    0.000    8.000 
#    0.000   10.833    0.000    0.000    0.000    0.000 
#    0.000    0.000    0.000    0.000    0.000    0.000 
#
# Total GULP energy -134185.440881 kJ/mol
# GULP energy per Si atom -5591.060037 kJ/mol
# Density = 2.530964 g / cm^3
# Si number density = 25.367382 Si / 1000 Ang^3
#
#
#
# Elastic Constant Matrix: (Units=GPa)
#
#
# Indices 1 2 3 4 5 6 
#
# 1 34.8028 -5.2489 -2.0443 0.0000 0.0000 0.0000
# 2 -5.2489 142.6079 13.5632 0.0000 0.0000 0.0000
# 3 -2.0443 13.5632 63.8791 0.0000 0.0000 0.0000
# 4 0.0000 0.0000 0.0000 44.1139 0.0000 0.0000
# 5 0.0000 0.0000 0.0000 0.0000 12.0716 0.0000
# 6 0.0000 0.0000 0.0000 0.0000 0.0000 15.6557
#
#
#
# Elastic Compliance Matrix: (Units=1/GPa)
#
#
# Indices 1 2 3 4 5 6 
#
# 1 0.028926 0.000997 0.000714 0.000000 0.000000 0.000000
# 2 0.000997 0.007191 -0.001495 0.000000 0.000000 0.000000
# 3 0.000714 -0.001495 0.015995 0.000000 0.000000 0.000000
# 4 0.000000 0.000000 0.000000 0.022669 0.000000 0.000000
# 5 0.000000 0.000000 0.000000 0.000000 0.082839 0.000000
# 6 0.000000 0.000000 0.000000 0.000000 0.000000 0.063875
#
#
# Mechanical properties :
#
#
# Convention : Reuss Voigt Hill
#
# Bulk Modulus (GPa) = 19.03198 28.20333 23.61765
# Shear Modulus (GPa) = 20.95761 30.03621 25.49691
#
# Velocity S-wave (km/s) = 2.87742 3.44473 3.17378
# Velocity P-wave (km/s) = 4.30793 5.19266 4.77085
#
# Compressibility (1/GPa) = 0.05254315
#
# Stress axis : x y z
#
# Youngs Moduli (GPa) = 34.57147 139.06066 62.52015
#
# Poissons Ratio (x) = -0.13861 -0.04464
# Poissons Ratio (y) = -0.03446 0.09347
# Poissons Ratio (z) = -0.02469 0.20789
#
# Static dielectric constant tensor:
#      x y z
#    x 1.907800 0.000000 0.000000 
#    y 0.000000 1.971990 0.000000 
#    z 0.000000 0.000000 2.114940 
# 
# From -- ./inp_files/2666.got.cif
#   From: 2010.05.17/outbox.cif.g08.bks.cpg/sg36_2_cif.got.tgz:2666.got - 2010.06.03 17:41:39.
