data_PCOD9351409
_publ_section_title
;
Structure prediction by ZEFSAII (Michael W. Deem and Ramdas Pophale) SiO2 
 PCOD9351409
Probable space group: C M C 21
;
_chemical_formula_sum "Si O2"
_cell_formula_units_Z 48
_cell_length_a 8.620230
_cell_length_b 15.311385
_cell_length_c 19.046994
_cell_angle_alpha 90.000000
_cell_angle_beta 90.000000
_cell_angle_gamma 90.000000
_cell_volume 2513.968174
_symmetry_space_group_name_H-M "C M C 21"
_symmetry_group_IT_number 36
_symmetry_cell_setting 'orthorhombic'
loop_
_space_group_symop_operation_xyz
x,y,z
-x,-y,1/2+z
x,-y,1/2+z
-x,y,z
1/2+x,1/2+y,z
1/2-x,1/2-y,1/2+z
1/2+x,1/2-y,1/2+z
1/2-x,1/2+y,z
loop_
_atom_site_type_symbol
_atom_site_label
_atom_site_fract_x
_atom_site_fract_y
_atom_site_fract_z
Si Si1 0.812773 0.255738 0.715730
Si Si2 0.311234 0.495346 0.087166
Si Si3 0.185839 0.846496 0.978019
Si Si4 0.314306 0.307692 0.564558
Si Si5 0.687079 0.441121 0.243940
Si Si6 0.814551 0.402639 0.828010
O O1 0.739684 0.269554 0.639466
O O2 0.771069 0.160910 0.746522
O O3 0.765806 0.333195 0.767986
O O4 0.000000 0.257262 0.707581
O O5 0.500000 0.494388 0.087501
O O6 0.261519 0.591400 0.062740
O O7 0.262764 0.476281 0.167096
O O8 0.260269 0.418921 0.034922
O O9 0.244727 0.873902 0.901902
O O10 0.000000 0.845404 0.978682
O O11 0.247088 0.753139 0.003790
O O12 0.500000 0.306236 0.560945
O O13 0.500000 0.447672 0.247978
O O14 0.758812 0.502471 0.302996
O O15 0.000000 0.400584 0.832387
#
# Coordination Sequence:
#
# PCOD9351409 Si02
#       6
#     8   8   8   8   8   8
#     4  10  21  38  61  86 119 158 197 236 290 360
#     4   9  19  36  61  87 114 151 199 238 285 356
#     4  11  23  42  62  84 119 163 199 236 295 362
#     4  11  21  36  61  91 118 147 195 252 293 338
#     4  10  19  38  63  86 113 156 201 235 284 359
#     4  11  24  40  58  90 125 153 193 251 301 339
#
# _framework density 19.093319999999999
#
# number of rings (size 3 to 8) (size 9 to 14) (size 15 to 20)
#    0.000    1.667    3.333    1.500    0.000    2.667 
#    0.000   10.000    0.000    0.000    0.000    0.000 
#    0.000    0.000    0.000    0.000    0.000    0.000 
#
# Total GULP energy -134097.968892 kJ/mol
# GULP energy per Si atom -5587.415370 kJ/mol
# Density = 1.904986 g / cm^3
# Si number density = 19.093320 Si / 1000 Ang^3
#
#
#
# Elastic Constant Matrix: (Units=GPa)
#
#
# Indices 1 2 3 4 5 6 
#
# 1 23.4221 9.9639 5.6186 0.0000 0.0000 0.0000
# 2 9.9639 76.6969 -22.1827 0.0000 0.0000 0.0000
# 3 5.6186 -22.1827 36.6632 0.0000 0.0000 0.0000
# 4 0.0000 0.0000 0.0000 29.8636 0.0000 0.0000
# 5 0.0000 0.0000 0.0000 0.0000 33.4627 0.0000
# 6 0.0000 0.0000 0.0000 0.0000 0.0000 27.3950
#
#
#
# Elastic Compliance Matrix: (Units=1/GPa)
#
#
# Indices 1 2 3 4 5 6 
#
# 1 0.050662 -0.010699 -0.014237 0.000000 0.000000 0.000000
# 2 -0.010699 0.018064 0.012569 0.000000 0.000000 0.000000
# 3 -0.014237 0.012569 0.037062 0.000000 0.000000 0.000000
# 4 0.000000 0.000000 0.000000 0.033486 0.000000 0.000000
# 5 0.000000 0.000000 0.000000 0.000000 0.029884 0.000000
# 6 0.000000 0.000000 0.000000 0.000000 0.000000 0.036503
#
#
# Mechanical properties :
#
#
# Convention : Reuss Voigt Hill
#
# Bulk Modulus (GPa) = 12.33790 13.73130 13.03460
# Shear Modulus (GPa) = 19.42407 27.70311 23.56359
#
# Velocity S-wave (km/s) = 3.19301 3.81324 3.51683
# Velocity P-wave (km/s) = 4.47992 5.15704 4.83036
#
# Compressibility (1/GPa) = 0.08105104
#
# Stress axis : x y z
#
# Youngs Moduli (GPa) = 19.73880 55.36004 26.98193
#
# Poissons Ratio (x) = 0.59232 0.38415
# Poissons Ratio (y) = 0.21119 -0.33913
# Poissons Ratio (z) = 0.28103 -0.69581
#
# Static dielectric constant tensor:
#      x y z
#    x 1.650750 0.000000 0.000000 
#    y 0.000000 1.664920 0.000000 
#    z 0.000000 0.000000 1.627480 
# 
# From -- ./inp_files/13464.got.cif
#   From: 2010.05.17/outbox.cif.g08.bks.cpg/sg36_7_cif.got.tgz:13464.got - 2010.06.03 17:41:39.
