data_PCOD9351924
_publ_section_title
;
Structure prediction by ZEFSAII (Michael W. Deem and Ramdas Pophale) SiO2 
 PCOD9351924
Probable space group: C M C 21
;
_chemical_formula_sum "Si O2"
_cell_formula_units_Z 64
_cell_length_a 8.090876
_cell_length_b 31.648631
_cell_length_c 12.343916
_cell_angle_alpha 90.000000
_cell_angle_beta 90.000000
_cell_angle_gamma 90.000000
_cell_volume 3160.846690
_symmetry_space_group_name_H-M "C M C 21"
_symmetry_group_IT_number 36
_symmetry_cell_setting 'orthorhombic'
loop_
_space_group_symop_operation_xyz
x,y,z
-x,-y,1/2+z
x,-y,1/2+z
-x,y,z
1/2+x,1/2+y,z
1/2-x,1/2-y,1/2+z
1/2+x,1/2-y,1/2+z
1/2-x,1/2+y,z
loop_
_atom_site_type_symbol
_atom_site_label
_atom_site_fract_x
_atom_site_fract_y
_atom_site_fract_z
Si Si1 0.800802 0.627040 0.166770
Si Si2 0.698330 0.540803 0.782053
Si Si3 0.808101 0.793972 0.293829
Si Si4 0.200246 0.946748 0.827576
Si Si5 0.202423 0.699621 0.331086
Si Si6 0.195805 0.622463 0.919590
Si Si7 0.700379 0.583052 0.565299
Si Si8 0.193101 0.323748 0.072363
O O1 0.757326 0.584828 0.233459
O O2 0.741123 0.667379 0.237446
O O3 0.000000 0.630195 0.162574
O O4 0.738038 0.625736 0.043070
O O5 0.500000 0.538402 0.784163
O O6 0.761358 0.494823 0.816188
O O7 0.742712 0.580810 0.856682
O O8 0.747523 0.550157 0.658260
O O9 0.738676 0.747784 0.321155
O O10 0.731904 0.834483 0.353724
O O11 0.789187 0.799184 0.165023
O O12 0.000000 0.794258 0.324060
O O13 0.000000 0.947027 0.825884
O O14 0.252149 0.929444 0.944863
O O15 0.251067 0.683409 0.449822
O O16 0.000000 0.699827 0.326825
O O17 0.000000 0.618081 0.926783
O O18 0.500000 0.587748 0.566872
O O19 0.781507 0.627133 0.596383
O O20 0.000000 0.312446 0.079333
#
# Coordination Sequence:
#
# PCOD9351924 Si02
#       8
#     8   8   8   8   8   8   8   8
#     4  10  22  42  61  83 119 159 194 242 297 347
#     4  10  22  39  61  86 120 158 193 241 297 348
#     4  11  23  40  62  87 119 158 197 241 298 351
#     4  10  22  38  61  91 118 154 199 243 289 348
#     4   9  21  40  61  85 117 157 194 237 297 351
#     4  11  24  40  60  87 119 155 200 245 292 350
#     4  10  20  37  59  87 118 152 197 242 292 347
#     4  11  21  38  63  88 116 151 198 247 292 348
#
# _framework density 20.24774
#
# number of rings (size 3 to 8) (size 9 to 14) (size 15 to 20)
#    0.000    1.750    2.500    1.125    3.500    1.500 
#    0.000    3.125    0.000    0.000    0.000    0.000 
#    0.000    0.000    0.000    0.000    0.000    0.000 
#
# Total GULP energy -178679.959993 kJ/mol
# GULP energy per Si atom -5583.748750 kJ/mol
# Density = 2.020165 g / cm^3
# Si number density = 20.247740 Si / 1000 Ang^3
#
#
#
# Elastic Constant Matrix: (Units=GPa)
#
#
# Indices 1 2 3 4 5 6 
#
# 1 3.1275 -2.1301 1.5678 0.0000 0.0000 0.0000
# 2 -2.1301 119.5783 34.9472 0.0000 0.0000 0.0000
# 3 1.5678 34.9472 118.3839 0.0000 0.0000 0.0000
# 4 0.0000 0.0000 0.0000 31.2637 0.0000 0.0000
# 5 0.0000 0.0000 0.0000 0.0000 20.3987 0.0000
# 6 0.0000 0.0000 0.0000 0.0000 0.0000 10.3230
#
#
#
# Elastic Compliance Matrix: (Units=1/GPa)
#
#
# Indices 1 2 3 4 5 6 
#
# 1 0.328385 0.007793 -0.006649 0.000000 0.000000 0.000000
# 2 0.007793 0.009337 -0.002860 0.000000 0.000000 0.000000
# 3 -0.006649 -0.002860 0.009379 0.000000 0.000000 0.000000
# 4 0.000000 0.000000 0.000000 0.031986 0.000000 0.000000
# 5 0.000000 0.000000 0.000000 0.000000 0.049023 0.000000
# 6 0.000000 0.000000 0.000000 0.000000 0.000000 0.096871
#
#
# Mechanical properties :
#
#
# Convention : Reuss Voigt Hill
#
# Bulk Modulus (GPa) = 2.90977 34.42882 18.66930
# Shear Modulus (GPa) = 7.77642 26.17741 16.97692
#
# Velocity S-wave (km/s) = 1.96188 3.59953 2.89876
# Velocity P-wave (km/s) = 2.56363 5.85800 4.52152
#
# Compressibility (1/GPa) = 0.34366919
#
# Stress axis : x y z
#
# Youngs Moduli (GPa) = 3.04521 107.09776 106.61766
#
# Poissons Ratio (x) = -0.83461 0.70894
# Poissons Ratio (y) = -0.02373 0.30488
# Poissons Ratio (z) = 0.02025 0.30626
#
# Static dielectric constant tensor:
#      x y z
#    x 1.718560 0.000000 0.000000 
#    y 0.000000 1.702120 0.000000 
#    z 0.000000 0.000000 1.703690 
# 
# From -- ./inp_files/7166.got.cif
#   From: 2010.05.17/outbox.cif.g08.bks.cpg/sg36_4_cif.got.tgz:7166.got - 2010.06.03 17:41:39.
