data_PCOD9351017
_publ_section_title
;
Structure prediction by ZEFSAII (Michael W. Deem and Ramdas Pophale) SiO2 
 PCOD9351017
Probable space group: C M C 21
;
_chemical_formula_sum "Si O2"
_cell_formula_units_Z 64
_cell_length_a 8.677946
_cell_length_b 20.662674
_cell_length_c 20.235320
_cell_angle_alpha 90.000000
_cell_angle_beta 90.000000
_cell_angle_gamma 90.000000
_cell_volume 3628.386512
_symmetry_space_group_name_H-M "C M C 21"
_symmetry_group_IT_number 36
_symmetry_cell_setting 'orthorhombic'
loop_
_space_group_symop_operation_xyz
x,y,z
-x,-y,1/2+z
x,-y,1/2+z
-x,y,z
1/2+x,1/2+y,z
1/2-x,1/2-y,1/2+z
1/2+x,1/2-y,1/2+z
1/2-x,1/2+y,z
loop_
_atom_site_type_symbol
_atom_site_label
_atom_site_fract_x
_atom_site_fract_y
_atom_site_fract_z
Si Si1 0.183931 0.673522 0.442280
Si Si2 0.315653 0.230238 0.684542
Si Si3 0.183543 0.277627 0.544129
Si Si4 0.814761 0.091811 0.673695
Si Si5 0.813222 0.951523 0.708355
Si Si6 0.185166 0.917168 0.557978
Si Si7 0.686211 0.665526 0.296716
Si Si8 0.684661 0.947223 0.031034
O O1 0.258301 0.727820 0.488897
O O2 0.242063 0.677848 0.367715
O O3 0.222588 0.603215 0.473234
O O4 0.000000 0.680881 0.445100
O O5 0.500000 0.231168 0.676604
O O6 0.242966 0.253395 0.615528
O O7 0.258806 0.157848 0.698766
O O8 0.274580 0.279196 0.743343
O O9 0.250244 0.349369 0.532924
O O10 0.000000 0.279499 0.544537
O O11 0.759703 0.080104 0.598433
O O12 0.000000 0.096585 0.674535
O O13 0.766618 0.026502 0.712275
O O14 0.768946 0.925460 0.635532
O O15 0.760726 0.902611 0.764785
O O16 0.000000 0.950540 0.709089
O O17 0.000000 0.917431 0.554901
O O18 0.250915 0.980561 0.521932
O O19 0.500000 0.664242 0.302706
O O20 0.500000 0.949358 0.039182
#
# Coordination Sequence:
#
# PCOD9351017 Si02
#       8
#     8   8   8   8   8   8   8   8
#     4  11  24  40  58  83 119 157 196 244 295 349
#     4  11  21  36  58  85 118 154 192 245 298 345
#     4  12  23  36  59  88 117 153 198 244 293 355
#     4  10  19  32  56  86 114 147 191 241 287 343
#     4   8  16  33  55  81 111 145 184 229 282 339
#     4  10  19  35  59  86 117 147 186 240 293 345
#     4  10  21  39  60  81 112 156 199 238 291 355
#     4  10  20  35  55  82 116 151 190 241 291 343
#
# _framework density 17.638694000000001
#
# number of rings (size 3 to 8) (size 9 to 14) (size 15 to 20)
#    0.000    1.750    2.500    3.750    0.000    2.500 
#    0.000    2.500    0.000    6.000    0.000    0.000 
#    0.000    0.000    0.000    0.000    0.000    0.000 
#
# Total GULP energy -178676.185589 kJ/mol
# GULP energy per Si atom -5583.630800 kJ/mol
# Density = 1.759855 g / cm^3
# Si number density = 17.638694 Si / 1000 Ang^3
#
#
#
# Elastic Constant Matrix: (Units=GPa)
#
#
# Indices 1 2 3 4 5 6 
#
# 1 62.5743 53.3246 41.7074 0.0000 0.0000 0.0000
# 2 53.3246 165.1689 69.7178 0.0000 0.0000 0.0000
# 3 41.7074 69.7178 98.9858 0.0000 0.0000 0.0000
# 4 0.0000 0.0000 0.0000 24.4683 0.0000 0.0000
# 5 0.0000 0.0000 0.0000 0.0000 25.9935 0.0000
# 6 0.0000 0.0000 0.0000 0.0000 0.0000 30.7854
#
#
#
# Elastic Compliance Matrix: (Units=1/GPa)
#
#
# Indices 1 2 3 4 5 6 
#
# 1 0.024963 -0.005151 -0.006890 0.000000 0.000000 0.000000
# 2 -0.005151 0.009679 -0.004647 0.000000 0.000000 0.000000
# 3 -0.006890 -0.004647 0.016278 0.000000 0.000000 0.000000
# 4 0.000000 0.000000 0.000000 0.040869 0.000000 0.000000
# 5 0.000000 0.000000 0.000000 0.000000 0.038471 0.000000
# 6 0.000000 0.000000 0.000000 0.000000 0.000000 0.032483
#
#
# Mechanical properties :
#
#
# Convention : Reuss Voigt Hill
#
# Bulk Modulus (GPa) = 56.99754 72.91429 64.95591
# Shear Modulus (GPa) = 24.75655 27.04807 25.90231
#
# Velocity S-wave (km/s) = 3.75044 3.92018 3.83625
# Velocity P-wave (km/s) = 7.15112 7.86879 7.51852
#
# Compressibility (1/GPa) = 0.01754462
#
# Stress axis : x y z
#
# Youngs Moduli (GPa) = 40.05932 103.31961 61.43150
#
# Poissons Ratio (x) = 0.53219 0.42327
# Poissons Ratio (y) = 0.20634 0.28545
# Poissons Ratio (z) = 0.27602 0.48008
#
# Static dielectric constant tensor:
#      x y z
#    x 1.592580 0.000000 0.000000 
#    y 0.000000 1.616580 0.000000 
#    z 0.000000 0.000000 1.566770 
# 
# From -- ./inp_files/13901.got.cif
#   From: 2010.05.17/outbox.cif.g08.bks.cpg/sg36_7_cif.got.tgz:13901.got - 2010.06.03 17:41:39.
