data_PCOD9351117
_publ_section_title
;
Structure prediction by ZEFSAII (Michael W. Deem and Ramdas Pophale) SiO2 
 PCOD9351117
Probable space group: C M C 21
;
_chemical_formula_sum "Si O2"
_cell_formula_units_Z 40
_cell_length_a 8.113914
_cell_length_b 16.252230
_cell_length_c 12.469663
_cell_angle_alpha 90.000000
_cell_angle_beta 90.000000
_cell_angle_gamma 90.000000
_cell_volume 1644.364441
_symmetry_space_group_name_H-M "C M C 21"
_symmetry_group_IT_number 36
_symmetry_cell_setting 'orthorhombic'
loop_
_space_group_symop_operation_xyz
x,y,z
-x,-y,1/2+z
x,-y,1/2+z
-x,y,z
1/2+x,1/2+y,z
1/2-x,1/2-y,1/2+z
1/2+x,1/2-y,1/2+z
1/2-x,1/2+y,z
loop_
_atom_site_type_symbol
_atom_site_label
_atom_site_fract_x
_atom_site_fract_y
_atom_site_fract_z
Si Si1 0.500000 0.525359 0.521870
Si Si2 0.191372 0.693043 0.035887
Si Si3 0.819235 0.629768 0.484190
Si Si4 0.193807 0.176803 0.262974
Si Si5 0.000000 0.976865 0.262233
Si Si6 0.810957 0.371378 0.308615
O O1 0.666469 0.578969 0.526345
O O2 0.500000 0.499044 0.393259
O O3 0.500000 0.480443 0.640787
O O4 0.298518 0.775164 0.020042
O O5 0.214453 0.631762 0.937167
O O6 0.000000 0.719093 0.032938
O O7 0.237534 0.654402 0.148031
O O8 0.795972 0.633639 0.355933
O O9 0.000000 0.599166 0.513899
O O10 0.208975 0.275654 0.275089
O O11 0.000000 0.158617 0.278533
O O12 0.168814 0.925009 0.258775
O O13 0.000000 0.395782 0.285928
#
# Coordination Sequence:
#
# PCOD9351117 Si02
#       6
#     4   8   8   8   4   8
#     4  12  28  50  64 100 124 178 237 282 325 402
#     4  10  19  33  59 100 140 167 210 263 326 406
#     4  11  22  40  64  93 132 173 216 272 335 394
#     4  10  19  33  60 100 140 169 209 262 328 406
#     4  12  28  46  74  86 132 180 229 280 333 388
#     4   9  22  40  60  96 130 168 217 266 327 399
#
# _framework density 24.325507999999999
#
# number of rings (size 3 to 8) (size 9 to 14) (size 15 to 20)
#    0.000    1.600    2.000    3.600    8.400    4.800 
#    0.000    0.000    0.000    0.000    0.000    0.000 
#    0.000    0.000    0.000    0.000    0.000    0.000 
#
# Total GULP energy -111744.073732 kJ/mol
# GULP energy per Si atom -5587.203687 kJ/mol
# Density = 2.427014 g / cm^3
# Si number density = 24.325508 Si / 1000 Ang^3
#
#
#
# Elastic Constant Matrix: (Units=GPa)
#
#
# Indices 1 2 3 4 5 6 
#
# 1 105.9864 19.8189 50.3367 0.0000 0.0000 0.0000
# 2 19.8189 24.2465 31.5543 0.0000 0.0000 0.0000
# 3 50.3367 31.5543 211.9945 0.0000 0.0000 0.0000
# 4 0.0000 0.0000 0.0000 2.7640 0.0000 0.0000
# 5 0.0000 0.0000 0.0000 0.0000 -4.1582 0.0000
# 6 0.0000 0.0000 0.0000 0.0000 0.0000 -226.8868
#
#
#
# Elastic Compliance Matrix: (Units=1/GPa)
#
#
# Indices 1 2 3 4 5 6 
#
# 1 0.011593 -0.007309 -0.001665 0.000000 0.000000 0.000000
# 2 -0.007309 0.055760 -0.006564 0.000000 0.000000 0.000000
# 3 -0.001665 -0.006564 0.006089 0.000000 0.000000 0.000000
# 4 0.000000 0.000000 0.000000 0.361801 0.000000 0.000000
# 5 0.000000 0.000000 0.000000 0.000000 -0.240487 0.000000
# 6 0.000000 0.000000 0.000000 0.000000 0.000000 -0.004407
#
#
# Mechanical properties :
#
#
# Convention : Reuss Voigt Hill
#
# Bulk Modulus (GPa) = 23.60384 60.62747 42.11566
# Shear Modulus (GPa) = 21.22727 -29.62171 -4.19722
#
# Velocity S-wave (km/s) = 2.95724 -3.49337 -1.31498
# Velocity P-wave (km/s) = 4.62437 2.95059 3.87884
#
# Compressibility (1/GPa) = 0.04236598
#
# Stress axis : x y z
#
# Youngs Moduli (GPa) = 86.26222 17.93401 164.22027
#
# Poissons Ratio (x) = 0.13109 0.27337
# Poissons Ratio (y) = 0.63052 1.07795
# Poissons Ratio (z) = 0.14359 0.11772
#
# Static dielectric constant tensor:
#      x y z
#    x 1.873590 0.000000 0.000000 
#    y 0.000000 1.970660 0.000000 
#    z 0.000000 0.000000 1.999350 
# 
# From -- ./inp_files/6629.got.cif
#   From: 2010.05.17/outbox.cif.g08.bks.cpg/sg36_4_cif.got.tgz:6629.got - 2010.06.03 17:41:39.
