data_PCOD9351315
_publ_section_title
;
Structure prediction by ZEFSAII (Michael W. Deem and Ramdas Pophale) SiO2 
 PCOD9351315
Probable space group: C M C 21
;
_chemical_formula_sum "Si O2"
_cell_formula_units_Z 56
_cell_length_a 11.994279
_cell_length_b 16.923935
_cell_length_c 14.563822
_cell_angle_alpha 90.000000
_cell_angle_beta 90.000000
_cell_angle_gamma 90.000000
_cell_volume 2956.316027
_symmetry_space_group_name_H-M "C M C 21"
_symmetry_group_IT_number 36
_symmetry_cell_setting 'orthorhombic'
loop_
_space_group_symop_operation_xyz
x,y,z
-x,-y,1/2+z
x,-y,1/2+z
-x,y,z
1/2+x,1/2+y,z
1/2-x,1/2-y,1/2+z
1/2+x,1/2-y,1/2+z
1/2-x,1/2+y,z
loop_
_atom_site_type_symbol
_atom_site_label
_atom_site_fract_x
_atom_site_fract_y
_atom_site_fract_z
Si Si1 0.368181 0.030471 0.203620
Si Si2 0.872023 0.187012 0.891905
Si Si3 0.706617 0.399895 0.558892
Si Si4 0.722917 0.145035 0.359765
Si Si5 0.125021 0.073007 0.515344
Si Si6 0.873292 0.779397 0.707317
Si Si7 0.722109 0.628782 0.700385
O O1 0.500000 0.017368 0.196160
O O2 0.318493 0.075402 0.113749
O O3 0.339964 0.084348 0.292265
O O4 0.298641 0.949130 0.211596
O O5 0.854225 0.281198 0.887231
O O6 0.844300 0.148977 0.793202
O O7 0.000000 0.169394 0.917555
O O8 0.787181 0.150555 0.966112
O O9 0.644118 0.480380 0.533161
O O10 0.638597 0.346333 0.630218
O O11 0.780385 0.102810 0.445665
O O12 0.821208 0.183913 0.299130
O O13 0.143093 0.114326 0.613578
O O14 0.000000 0.087258 0.480333
O O15 0.799765 0.704048 0.680761
O O16 0.000000 0.755776 0.720008
#
# Coordination Sequence:
#
# PCOD9351315 Si02
#       7
#     8   8   8   8   8   8   8
#     4  10  21  41  60  83 116 150 184 235 288 341
#     4  11  21  38  58  83 115 151 190 240 284 331
#     4  10  22  36  57  83 109 144 193 230 278 343
#     4  10  22  36  57  85 112 146 194 231 282 350
#     4  11  21  37  56  82 115 149 184 235 283 329
#     4  10  19  36  56  80 111 147 186 239 287 332
#     4  10  22  36  58  86 114 149 195 230 280 348
#
# _framework density 18.942492999999999
#
# number of rings (size 3 to 8) (size 9 to 14) (size 15 to 20)
#    0.000    1.714    0.000    4.714    0.000    0.000 
#    0.000   22.857    0.000    0.000    0.000    0.000 
#    0.000    0.000    0.000    0.000    0.000    0.000 
#
# Total GULP energy -156354.408973 kJ/mol
# GULP energy per Si atom -5584.086035 kJ/mol
# Density = 1.889938 g / cm^3
# Si number density = 18.942493 Si / 1000 Ang^3
#
#
#
# Elastic Constant Matrix: (Units=GPa)
#
#
# Indices 1 2 3 4 5 6 
#
# 1 81.9340 20.8536 15.5720 0.0000 0.0000 0.0000
# 2 20.8536 105.6788 35.4708 0.0000 0.0000 0.0000
# 3 15.5720 35.4708 82.1295 0.0000 0.0000 0.0000
# 4 0.0000 0.0000 0.0000 35.7516 0.0000 0.0000
# 5 0.0000 0.0000 0.0000 0.0000 9.8644 0.0000
# 6 0.0000 0.0000 0.0000 0.0000 0.0000 11.0952
#
#
#
# Elastic Compliance Matrix: (Units=1/GPa)
#
#
# Indices 1 2 3 4 5 6 
#
# 1 0.013026 -0.002037 -0.001590 0.000000 0.000000 0.000000
# 2 -0.002037 0.011385 -0.004531 0.000000 0.000000 0.000000
# 3 -0.001590 -0.004531 0.014434 0.000000 0.000000 0.000000
# 4 0.000000 0.000000 0.000000 0.027971 0.000000 0.000000
# 5 0.000000 0.000000 0.000000 0.000000 0.101375 0.000000
# 6 0.000000 0.000000 0.000000 0.000000 0.000000 0.090129
#
#
# Mechanical properties :
#
#
# Convention : Reuss Voigt Hill
#
# Bulk Modulus (GPa) = 44.38599 45.94835 45.16717
# Shear Modulus (GPa) = 17.72136 24.53195 21.12666
#
# Velocity S-wave (km/s) = 3.06197 3.60262 3.34324
# Velocity P-wave (km/s) = 5.99864 6.45094 6.22890
#
# Compressibility (1/GPa) = 0.02252963
#
# Stress axis : x y z
#
# Youngs Moduli (GPa) = 76.77244 87.83214 69.27946
#
# Poissons Ratio (x) = 0.17888 0.11016
# Poissons Ratio (y) = 0.15636 0.31391
# Poissons Ratio (z) = 0.12208 0.39797
#
# Static dielectric constant tensor:
#      x y z
#    x 1.619410 0.000000 0.000000 
#    y 0.000000 1.649230 0.000000 
#    z 0.000000 0.000000 1.658950 
# 
# From -- ./inp_files/11592.got.cif
#   From: 2010.05.17/outbox.cif.g08.bks.cpg/sg36_6_cif.got.tgz:11592.got - 2010.06.03 17:41:39.
