data_PCOD9351075
_publ_section_title
;
Structure prediction by ZEFSAII (Michael W. Deem and Ramdas Pophale) SiO2 
 PCOD9351075
Probable space group: C M C 21
;
_chemical_formula_sum "Si O2"
_cell_formula_units_Z 64
_cell_length_a 7.758298
_cell_length_b 23.783921
_cell_length_c 16.485565
_cell_angle_alpha 90.000000
_cell_angle_beta 90.000000
_cell_angle_gamma 90.000000
_cell_volume 3041.961735
_symmetry_space_group_name_H-M "C M C 21"
_symmetry_group_IT_number 36
_symmetry_cell_setting 'orthorhombic'
loop_
_space_group_symop_operation_xyz
x,y,z
-x,-y,1/2+z
x,-y,1/2+z
-x,y,z
1/2+x,1/2+y,z
1/2-x,1/2-y,1/2+z
1/2+x,1/2-y,1/2+z
1/2-x,1/2+y,z
loop_
_atom_site_type_symbol
_atom_site_label
_atom_site_fract_x
_atom_site_fract_y
_atom_site_fract_z
Si Si1 0.790811 0.041545 0.036180
Si Si2 0.799866 0.842064 0.213823
Si Si3 0.295659 0.824077 0.947726
Si Si4 0.194618 0.865154 0.656354
Si Si5 0.703639 0.880724 0.384104
Si Si6 0.298305 0.416107 0.065556
Si Si7 0.705753 0.210517 0.013006
Si Si8 0.199551 0.275994 0.781016
O O1 0.731239 0.079686 0.112419
O O2 0.000000 0.042989 0.037577
O O3 0.727107 0.978288 0.049413
O O4 0.741405 0.070870 0.950686
O O5 0.791134 0.878922 0.296408
O O6 0.723605 0.878374 0.139409
O O7 0.725690 0.780225 0.238191
O O8 0.000000 0.831296 0.191463
O O9 0.500000 0.832701 0.938490
O O10 0.220717 0.797975 0.864927
O O11 0.217032 0.880326 0.983433
O O12 0.258049 0.774728 0.011305
O O13 0.194013 0.821652 0.582143
O O14 0.294123 0.830713 0.724128
O O15 0.000000 0.876473 0.685017
O O16 0.500000 0.880815 0.369383
O O17 0.749689 0.822497 0.430190
O O18 0.500000 0.424424 0.085310
O O19 0.500000 0.204912 0.026120
O O20 0.000000 0.261583 0.798492
#
# Coordination Sequence:
#
# PCOD9351075 Si02
#       8
#     8   8   8   8   8   8   8   8
#     4   9  20  40  60  81 112 151 198 239 282 342
#     4  10  20  37  60  84 115 151 192 238 291 348
#     4  11  22  36  56  83 118 154 189 233 289 347
#     4  10  20  34  57  84 111 146 190 238 283 335
#     4  10  20  34  58  88 114 146 190 237 286 339
#     4  10  22  40  61  84 113 156 201 241 288 343
#     4  10  19  33  55  82 113 147 186 231 286 345
#     4  10  21  36  55  84 120 153 186 231 293 353
#
# _framework density 21.039055999999999
#
# number of rings (size 3 to 8) (size 9 to 14) (size 15 to 20)
#    0.000    2.000    1.250    2.250    0.000    5.000 
#    2.250    0.000    0.000    0.000    0.000    0.000 
#    0.000    0.000    0.000    0.000    0.000    0.000 
#
# Total GULP energy -178474.029504 kJ/mol
# GULP energy per Si atom -5577.313422 kJ/mol
# Density = 2.099117 g / cm^3
# Si number density = 21.039056 Si / 1000 Ang^3
#
#
#
# Elastic Constant Matrix: (Units=GPa)
#
#
# Indices 1 2 3 4 5 6 
#
# 1 24.9713 -8.3141 1.8208 0.0000 0.0000 0.0000
# 2 -8.3141 173.3203 58.1889 0.0000 0.0000 0.0000
# 3 1.8208 58.1889 74.3037 0.0000 0.0000 0.0000
# 4 0.0000 0.0000 0.0000 25.7891 0.0000 0.0000
# 5 0.0000 0.0000 0.0000 0.0000 15.3943 0.0000
# 6 0.0000 0.0000 0.0000 0.0000 0.0000 25.6152
#
#
#
# Elastic Compliance Matrix: (Units=1/GPa)
#
#
# Indices 1 2 3 4 5 6 
#
# 1 0.041350 0.003153 -0.003482 0.000000 0.000000 0.000000
# 2 0.003153 0.008068 -0.006396 0.000000 0.000000 0.000000
# 3 -0.003482 -0.006396 0.018552 0.000000 0.000000 0.000000
# 4 0.000000 0.000000 0.000000 0.038776 0.000000 0.000000
# 5 0.000000 0.000000 0.000000 0.000000 0.064959 0.000000
# 6 0.000000 0.000000 0.000000 0.000000 0.000000 0.039039
#
#
# Mechanical properties :
#
#
# Convention : Reuss Voigt Hill
#
# Bulk Modulus (GPa) = 18.34206 41.77628 30.05917
# Shear Modulus (GPa) = 20.62984 28.08637 24.35810
#
# Velocity S-wave (km/s) = 3.13477 3.65768 3.40627
# Velocity P-wave (km/s) = 4.67326 6.14311 5.45789
#
# Compressibility (1/GPa) = 0.05451949
#
# Stress axis : x y z
#
# Youngs Moduli (GPa) = 24.18409 123.94545 53.90231
#
# Poissons Ratio (x) = -0.39075 0.18769
# Poissons Ratio (y) = -0.07624 0.34473
# Poissons Ratio (z) = 0.08421 0.79270
#
# Static dielectric constant tensor:
#      x y z
#    x 1.841000 0.000000 0.000000 
#    y 0.000000 1.763830 0.000000 
#    z 0.000000 0.000000 1.818290 
# 
# From -- ./inp_files/10904.got.cif
#   From: 2010.05.17/outbox.cif.g08.bks.cpg/sg36_6_cif.got.tgz:10904.got - 2010.06.03 17:41:39.
