data_PCOD9351579
_publ_section_title
;
Structure prediction by ZEFSAII (Michael W. Deem and Ramdas Pophale) SiO2 
 PCOD9351579
Probable space group: C M C 21
;
_chemical_formula_sum "Si O2"
_cell_formula_units_Z 60
_cell_length_a 25.826367
_cell_length_b 19.955809
_cell_length_c 5.207119
_cell_angle_alpha 90.000000
_cell_angle_beta 90.000000
_cell_angle_gamma 90.000000
_cell_volume 2683.676478
_symmetry_space_group_name_H-M "C M C 21"
_symmetry_group_IT_number 36
_symmetry_cell_setting 'orthorhombic'
loop_
_space_group_symop_operation_xyz
x,y,z
-x,-y,1/2+z
x,-y,1/2+z
-x,y,z
1/2+x,1/2+y,z
1/2-x,1/2-y,1/2+z
1/2+x,1/2-y,1/2+z
1/2-x,1/2+y,z
loop_
_atom_site_type_symbol
_atom_site_label
_atom_site_fract_x
_atom_site_fract_y
_atom_site_fract_z
Si Si1 0.613656 0.954182 0.655300
Si Si2 0.152273 0.343059 0.986081
Si Si3 0.562645 0.460764 0.902626
Si Si4 0.000000 0.542393 0.235393
Si Si5 0.059590 0.295662 0.287303
Si Si6 0.442942 0.345770 0.535779
Si Si7 0.256284 0.706068 0.640906
Si Si8 0.369765 0.288366 0.180014
O O1 0.649220 0.893768 0.748245
O O2 0.619577 0.989929 0.381724
O O3 0.554977 0.924919 0.676816
O O4 0.100600 0.348518 0.165649
O O5 0.208930 0.346105 0.111075
O O6 0.148136 0.267196 0.887270
O O7 0.580213 0.489137 0.174818
O O8 0.500000 0.462009 0.917232
O O9 0.574118 0.387487 0.784174
O O10 0.000000 0.519745 0.532481
O O11 0.052288 0.232959 0.094542
O O12 0.000000 0.318012 0.344632
O O13 0.091801 0.256925 0.507629
O O14 0.500000 0.370468 0.455803
O O15 0.401470 0.346842 0.314282
O O16 0.250598 0.735424 0.927485
O O17 0.315131 0.683727 0.579493
#
# Coordination Sequence:
#
# PCOD9351579 Si02
#       8
#     8   8   8   4   8   8   8   8
#     4  10  22  37  57  80 111 148 192 237 287 343
#     4  10  22  37  57  84 113 151 197 240 291 346
#     4   9  18  31  49  75 103 144 192 227 264 327
#     4   8  16  34  50  74 104 142 184 228 276 332
#     4  10  20  34  54  86 120 149 184 235 301 356
#     4   9  19  33  52  79 116 151 183 230 291 348
#     4  10  20  37  59  83 111 142 189 236 271 335
#     4  10  20  35  56  83 117 151 189 236 291 344
#
# _framework density 22.357389999999999
#
# number of rings (size 3 to 8) (size 9 to 14) (size 15 to 20)
#    0.000    2.400    1.333    0.400    4.667    0.533 
#    0.000    0.000    0.000    1.600    0.000    0.000 
#    0.000    0.000    0.000    0.000    0.000    0.000 
#
# Total GULP energy -167176.714141 kJ/mol
# GULP energy per Si atom -5572.557138 kJ/mol
# Density = 2.230650 g / cm^3
# Si number density = 22.357390 Si / 1000 Ang^3
#
#
#
# Elastic Constant Matrix: (Units=GPa)
#
#
# Indices 1 2 3 4 5 6 
#
# 1 142.1566 7.5404 13.2478 0.0000 0.0000 0.0000
# 2 7.5404 58.2447 18.7682 0.0000 0.0000 0.0000
# 3 13.2478 18.7682 63.2752 0.0000 0.0000 0.0000
# 4 0.0000 0.0000 0.0000 35.2916 0.0000 0.0000
# 5 0.0000 0.0000 0.0000 0.0000 22.3707 0.0000
# 6 0.0000 0.0000 0.0000 0.0000 0.0000 10.9427
#
#
#
# Elastic Compliance Matrix: (Units=1/GPa)
#
#
# Indices 1 2 3 4 5 6 
#
# 1 0.007187 -0.000493 -0.001359 0.000000 0.000000 0.000000
# 2 -0.000493 0.019017 -0.005538 0.000000 0.000000 0.000000
# 3 -0.001359 -0.005538 0.017731 0.000000 0.000000 0.000000
# 4 0.000000 0.000000 0.000000 0.028335 0.000000 0.000000
# 5 0.000000 0.000000 0.000000 0.000000 0.044701 0.000000
# 6 0.000000 0.000000 0.000000 0.000000 0.000000 0.091385
#
#
# Mechanical properties :
#
#
# Convention : Reuss Voigt Hill
#
# Bulk Modulus (GPa) = 34.29645 38.08770 36.19208
# Shear Modulus (GPa) = 21.47270 28.66235 25.06752
#
# Velocity S-wave (km/s) = 3.10244 3.58440 3.35209
# Velocity P-wave (km/s) = 5.31102 5.84836 5.58616
#
# Compressibility (1/GPa) = 0.02915754
#
# Stress axis : x y z
#
# Youngs Moduli (GPa) = 139.13543 52.58428 56.39857
#
# Poissons Ratio (x) = 0.02591 0.07663
# Poissons Ratio (y) = 0.06855 0.31231
# Poissons Ratio (z) = 0.18904 0.29119
#
# Static dielectric constant tensor:
#      x y z
#    x 1.974430 0.000000 0.000000 
#    y 0.000000 1.844930 0.000000 
#    z 0.000000 0.000000 1.922600 
# 
# From -- ./inp_files/1623.got.cif
#   From: 2010.05.17/outbox.cif.g08.bks.cpg/sg36_1_cif.got.tgz:1623.got - 2010.06.03 17:41:39.
