data_PCOD9351406
_publ_section_title
;
Structure prediction by ZEFSAII (Michael W. Deem and Ramdas Pophale) SiO2 
 PCOD9351406
Probable space group: C M C 21
;
_chemical_formula_sum "Si O2"
_cell_formula_units_Z 64
_cell_length_a 18.537827
_cell_length_b 14.218900
_cell_length_c 12.259187
_cell_angle_alpha 90.000000
_cell_angle_beta 90.000000
_cell_angle_gamma 90.000000
_cell_volume 3231.368555
_symmetry_space_group_name_H-M "C M C 21"
_symmetry_group_IT_number 36
_symmetry_cell_setting 'orthorhombic'
loop_
_space_group_symop_operation_xyz
x,y,z
-x,-y,1/2+z
x,-y,1/2+z
-x,y,z
1/2+x,1/2+y,z
1/2-x,1/2-y,1/2+z
1/2+x,1/2-y,1/2+z
1/2-x,1/2+y,z
loop_
_atom_site_type_symbol
_atom_site_label
_atom_site_fract_x
_atom_site_fract_y
_atom_site_fract_z
Si Si1 0.294008 0.146560 0.738400
Si Si2 0.125513 0.165383 0.989005
Si Si3 0.580553 0.203279 0.297283
Si Si4 0.808197 0.440634 0.696885
Si Si5 0.209154 0.669870 0.987037
Si Si6 0.852673 0.141676 0.225731
Si Si7 0.585603 0.534958 0.433221
Si Si8 0.357680 0.331817 0.112672
O O1 0.288913 0.131281 0.866981
O O2 0.332211 0.247788 0.733005
O O3 0.216950 0.152534 0.677892
O O4 0.328425 0.049678 0.698523
O O5 0.102266 0.138674 0.112282
O O6 0.089856 0.244592 0.913641
O O7 0.207866 0.196919 0.007405
O O8 0.121127 0.067764 0.923247
O O9 0.500000 0.163846 0.289304
O O10 0.641962 0.125362 0.273182
O O11 0.591700 0.281247 0.201489
O O12 0.816329 0.406098 0.573497
O O13 0.723661 0.416375 0.721212
O O14 0.160818 0.759252 0.015038
O O15 0.892965 0.099693 0.330345
O O16 0.500000 0.523494 0.435720
O O17 0.611885 0.579525 0.548118
#
# Coordination Sequence:
#
# PCOD9351406 Si02
#       8
#     8   8   8   8   8   8   8   8
#     4  12  20  39  68  97 124 165 216 276 321 367
#     4  11  22  40  63  94 129 169 217 264 325 383
#     4  11  23  41  62  91 132 170 213 264 319 387
#     4  10  23  38  65  99 125 172 221 263 321 381
#     4  10  19  38  62  96 125 159 210 275 320 365
#     4  11  23  42  65  95 130 166 222 278 318 381
#     4  12  27  41  60  93 135 174 209 261 333 404
#     4  11  21  39  67  93 124 163 212 265 329 378
#
# _framework density 19.805848999999998
#
# number of rings (size 3 to 8) (size 9 to 14) (size 15 to 20)
#    0.000    1.000    6.250    3.000    1.750    2.000 
#    0.000    0.625    0.000    3.000    0.000    0.000 
#    0.000    0.000    0.000    0.000    0.000    0.000 
#
# Total GULP energy -178457.997425 kJ/mol
# GULP energy per Si atom -5576.812420 kJ/mol
# Density = 1.976077 g / cm^3
# Si number density = 19.805849 Si / 1000 Ang^3
#
#
#
# Elastic Constant Matrix: (Units=GPa)
#
#
# Indices 1 2 3 4 5 6 
#
# 1 58.4728 11.9421 24.4858 0.0000 0.0000 0.0000
# 2 11.9421 76.7192 6.9416 0.0000 0.0000 0.0000
# 3 24.4858 6.9416 81.4704 0.0000 0.0000 0.0000
# 4 0.0000 0.0000 0.0000 -15.6879 0.0000 0.0000
# 5 0.0000 0.0000 0.0000 0.0000 13.9264 0.0000
# 6 0.0000 0.0000 0.0000 0.0000 0.0000 8.0755
#
#
#
# Elastic Compliance Matrix: (Units=1/GPa)
#
#
# Indices 1 2 3 4 5 6 
#
# 1 0.020065 -0.002598 -0.005809 0.000000 0.000000 0.000000
# 2 -0.002598 0.013472 -0.000367 0.000000 0.000000 0.000000
# 3 -0.005809 -0.000367 0.014052 0.000000 0.000000 0.000000
# 4 0.000000 0.000000 0.000000 -0.063743 0.000000 0.000000
# 5 0.000000 0.000000 0.000000 0.000000 0.071806 0.000000
# 6 0.000000 0.000000 0.000000 0.000000 0.000000 0.123832
#
#
# Mechanical properties :
#
#
# Convention : Reuss Voigt Hill
#
# Bulk Modulus (GPa) = 33.28810 33.71127 33.49969
# Shear Modulus (GPa) = 24.14937 12.81567 18.48252
#
# Velocity S-wave (km/s) = 3.49564 2.54651 3.05812
# Velocity P-wave (km/s) = 5.75642 5.06992 5.42404
#
# Compressibility (1/GPa) = 0.03004076
#
# Stress axis : x y z
#
# Youngs Moduli (GPa) = 49.83765 74.22736 71.16613
#
# Poissons Ratio (x) = 0.19282 0.41342
# Poissons Ratio (y) = 0.12946 0.02613
# Poissons Ratio (z) = 0.28952 0.02725
#
# Static dielectric constant tensor:
#      x y z
#    x 1.685850 0.000000 0.000000 
#    y 0.000000 1.785970 0.000000 
#    z 0.000000 0.000000 1.755830 
# 
# From -- ./inp_files/8984.got.cif
#   From: 2010.05.17/outbox.cif.g08.bks.cpg/sg36_5_cif.got.tgz:8984.got - 2010.06.03 17:41:39.
