data_PCOD9351809
_publ_section_title
;
Structure prediction by ZEFSAII (Michael W. Deem and Ramdas Pophale) SiO2 
 PCOD9351809
Probable space group: C M C 21
;
_chemical_formula_sum "Si O2"
_cell_formula_units_Z 64
_cell_length_a 15.948768
_cell_length_b 22.961414
_cell_length_c 8.668295
_cell_angle_alpha 90.000000
_cell_angle_beta 90.000000
_cell_angle_gamma 90.000000
_cell_volume 3174.383934
_symmetry_space_group_name_H-M "C M C 21"
_symmetry_group_IT_number 36
_symmetry_cell_setting 'orthorhombic'
loop_
_space_group_symop_operation_xyz
x,y,z
-x,-y,1/2+z
x,-y,1/2+z
-x,y,z
1/2+x,1/2+y,z
1/2-x,1/2-y,1/2+z
1/2+x,1/2-y,1/2+z
1/2-x,1/2+y,z
loop_
_atom_site_type_symbol
_atom_site_label
_atom_site_fract_x
_atom_site_fract_y
_atom_site_fract_z
Si Si1 0.900983 0.824511 0.358270
Si Si2 0.680231 0.671388 0.526722
Si Si3 0.233814 0.951779 0.025676
Si Si4 0.590467 0.231684 0.883246
Si Si5 0.227657 0.071733 0.888799
Si Si6 0.904379 0.609432 0.023960
Si Si7 0.408142 0.916034 0.884114
Si Si8 0.370549 0.204292 0.542021
O O1 0.878473 0.819894 0.175935
O O2 0.836227 0.874681 0.414811
O O3 0.882931 0.764215 0.448716
O O4 0.000000 0.838310 0.376963
O O5 0.683909 0.605218 0.466920
O O6 0.656316 0.717237 0.396892
O O7 0.773972 0.688605 0.573797
O O8 0.231068 0.943192 0.208332
O O9 0.328863 0.947400 0.960973
O O10 0.199058 0.013976 0.977748
O O11 0.500000 0.258037 0.916297
O O12 0.590646 0.207007 0.711427
O O13 0.604132 0.179304 0.003108
O O14 0.323244 0.085675 0.936556
O O15 0.898796 0.588061 0.199847
O O16 0.000000 0.595897 0.967788
O O17 0.500000 0.941506 0.921396
O O18 0.405574 0.849849 0.945765
#
# Coordination Sequence:
#
# PCOD9351809 Si02
#       8
#     8   8   8   8   8   8   8   8
#     4  11  23  40  61  87 119 159 201 244 294 350
#     4  10  21  38  59  83 112 152 194 237 289 348
#     4  10  23  39  60  82 109 150 196 246 297 346
#     4  11  21  34  54  85 117 146 182 229 281 340
#     4  11  23  42  61  83 114 152 199 251 297 349
#     4  10  21  36  59  88 121 158 193 234 293 359
#     4  10  20  36  58  88 121 154 190 235 294 362
#     4  11  21  35  57  88 121 151 187 236 293 350
#
# _framework density 20.161391999999999
#
# number of rings (size 3 to 8) (size 9 to 14) (size 15 to 20)
#    0.000    1.500    0.000    6.750    0.000    7.000 
#    0.000    3.125    0.000    0.000    0.000    0.000 
#    0.000    0.000    0.000    0.000    0.000    0.000 
#
# Total GULP energy -178678.660858 kJ/mol
# GULP energy per Si atom -5583.708152 kJ/mol
# Density = 2.011550 g / cm^3
# Si number density = 20.161392 Si / 1000 Ang^3
#
#
#
# Elastic Constant Matrix: (Units=GPa)
#
#
# Indices 1 2 3 4 5 6 
#
# 1 75.2811 27.8871 7.2799 0.0000 0.0000 0.0000
# 2 27.8871 74.7886 -0.7868 0.0000 0.0000 0.0000
# 3 7.2799 -0.7868 22.2852 0.0000 0.0000 0.0000
# 4 0.0000 0.0000 0.0000 32.8788 0.0000 0.0000
# 5 0.0000 0.0000 0.0000 0.0000 -16.3931 0.0000
# 6 0.0000 0.0000 0.0000 0.0000 0.0000 5.8429
#
#
#
# Elastic Compliance Matrix: (Units=1/GPa)
#
#
# Indices 1 2 3 4 5 6 
#
# 1 0.016049 -0.006042 -0.005456 0.000000 0.000000 0.000000
# 2 -0.006042 0.015650 0.002526 0.000000 0.000000 0.000000
# 3 -0.005456 0.002526 0.046744 0.000000 0.000000 0.000000
# 4 0.000000 0.000000 0.000000 0.030415 0.000000 0.000000
# 5 0.000000 0.000000 0.000000 0.000000 -0.061001 0.000000
# 6 0.000000 0.000000 0.000000 0.000000 0.000000 0.171147
#
#
# Mechanical properties :
#
#
# Convention : Reuss Voigt Hill
#
# Bulk Modulus (GPa) = 16.52874 26.79059 21.65966
# Shear Modulus (GPa) = 19.44653 13.66404 16.55528
#
# Velocity S-wave (km/s) = 3.10908 2.60615 2.86866
# Velocity P-wave (km/s) = 4.59396 4.73001 4.66248
#
# Compressibility (1/GPa) = 0.06050070
#
# Stress axis : x y z
#
# Youngs Moduli (GPa) = 62.30799 63.89581 21.39293
#
# Poissons Ratio (x) = 0.38605 0.11672
# Poissons Ratio (y) = 0.37646 -0.05404
# Poissons Ratio (z) = 0.33996 -0.16142
#
# Static dielectric constant tensor:
#      x y z
#    x 2.458300 0.000000 0.000000 
#    y 0.000000 1.724630 0.000000 
#    z 0.000000 0.000000 1.693670 
# 
# From -- ./inp_files/4355.got.cif
#   From: 2010.05.17/outbox.cif.g08.bks.cpg/sg36_3_cif.got.tgz:4355.got - 2010.06.03 17:41:39.
