data_PCOD9351229
_publ_section_title
;
Structure prediction by ZEFSAII (Michael W. Deem and Ramdas Pophale) SiO2 
 PCOD9351229
Probable space group: C M C 21
;
_chemical_formula_sum "Si O2"
_cell_formula_units_Z 64
_cell_length_a 31.188980
_cell_length_b 9.103288
_cell_length_c 10.197676
_cell_angle_alpha 90.000000
_cell_angle_beta 90.000000
_cell_angle_gamma 90.000000
_cell_volume 2895.347292
_symmetry_space_group_name_H-M "C M C 21"
_symmetry_group_IT_number 36
_symmetry_cell_setting 'orthorhombic'
loop_
_space_group_symop_operation_xyz
x,y,z
-x,-y,1/2+z
x,-y,1/2+z
-x,y,z
1/2+x,1/2+y,z
1/2-x,1/2-y,1/2+z
1/2+x,1/2-y,1/2+z
1/2-x,1/2+y,z
loop_
_atom_site_type_symbol
_atom_site_label
_atom_site_fract_x
_atom_site_fract_y
_atom_site_fract_z
Si Si1 0.047576 0.904443 0.429100
Si Si2 0.781237 0.667722 0.414686
Si Si3 0.661771 0.921725 0.500071
Si Si4 0.716212 0.665526 0.174661
Si Si5 0.369082 0.859209 0.224059
Si Si6 0.135301 0.139200 0.855226
Si Si7 0.836106 0.086665 0.578897
Si Si8 0.951863 0.159642 0.220799
O O1 0.088484 0.804327 0.395031
O O2 0.048602 0.930548 0.584455
O O3 0.000000 0.845973 0.396862
O O4 0.053725 0.052000 0.344378
O O5 0.795001 0.504454 0.455563
O O6 0.767518 0.751321 0.545915
O O7 0.825527 0.747401 0.369710
O O8 0.747465 0.670037 0.297875
O O9 0.632941 0.920818 0.370483
O O10 0.669251 0.754537 0.540291
O O11 0.640936 0.015248 0.617509
O O12 0.670819 0.744767 0.208263
O O13 0.633615 0.414301 0.206200
O O14 0.705389 0.499518 0.132627
O O15 0.413714 0.775545 0.208678
O O16 0.146780 0.008131 0.956674
O O17 0.000000 0.224968 0.230472
#
# Coordination Sequence:
#
# PCOD9351229 Si02
#       8
#     8   8   8   8   8   8   8   8
#     4  10  19  34  63 101 135 168 215 272 327 386
#     4  10  24  44  67  94 131 171 217 268 328 394
#     4  11  24  44  67  93 127 175 223 269 327 391
#     4  10  23  44  69  96 129 171 219 272 332 393
#     4  11  24  45  69  95 133 176 217 272 335 394
#     4  11  22  41  66  96 131 172 214 267 332 392
#     4  11  23  41  67  94 126 171 221 269 327 391
#     4  10  21  39  66 101 138 176 220 273 334 399
#
# _framework density 22.104431000000002
#
# number of rings (size 3 to 8) (size 9 to 14) (size 15 to 20)
#    0.000    1.500    0.000    6.000    0.000    4.000 
#    0.000   14.375    0.000    6.750    0.000    0.000 
#    0.000    0.000    0.000    0.000    0.000    0.000 
#
# Total GULP energy -179158.238231 kJ/mol
# GULP energy per Si atom -5598.694945 kJ/mol
# Density = 2.205412 g / cm^3
# Si number density = 22.104431 Si / 1000 Ang^3
#
#
#
# Elastic Constant Matrix: (Units=GPa)
#
#
# Indices 1 2 3 4 5 6 
#
# 1 181.2286 70.3400 71.5843 0.0000 0.0000 0.0000
# 2 70.3400 126.9423 77.1362 0.0000 0.0000 0.0000
# 3 71.5843 77.1362 173.5657 0.0000 0.0000 0.0000
# 4 0.0000 0.0000 0.0000 25.4872 0.0000 0.0000
# 5 0.0000 0.0000 0.0000 0.0000 33.4565 0.0000
# 6 0.0000 0.0000 0.0000 0.0000 0.0000 15.7295
#
#
#
# Elastic Compliance Matrix: (Units=1/GPa)
#
#
# Indices 1 2 3 4 5 6 
#
# 1 0.007370 -0.003064 -0.001678 0.000000 0.000000 0.000000
# 2 -0.003064 0.012066 -0.004099 0.000000 0.000000 0.000000
# 3 -0.001678 -0.004099 0.008275 0.000000 0.000000 0.000000
# 4 0.000000 0.000000 0.000000 0.039235 0.000000 0.000000
# 5 0.000000 0.000000 0.000000 0.000000 0.029890 0.000000
# 6 0.000000 0.000000 0.000000 0.000000 0.000000 0.063575
#
#
# Mechanical properties :
#
#
# Convention : Reuss Voigt Hill
#
# Bulk Modulus (GPa) = 99.70413 102.20642 100.95527
# Shear Modulus (GPa) = 27.55805 32.44639 30.00222
#
# Velocity S-wave (km/s) = 3.53472 3.83543 3.68814
# Velocity P-wave (km/s) = 7.86530 8.12111 7.99423
#
# Compressibility (1/GPa) = 0.01002967
#
# Stress axis : x y z
#
# Youngs Moduli (GPa) = 135.68648 82.87735 120.84616
#
# Poissons Ratio (x) = 0.25396 0.20275
# Poissons Ratio (y) = 0.41578 0.49530
# Poissons Ratio (z) = 0.22765 0.33968
#
# Static dielectric constant tensor:
#      x y z
#    x 1.877250 0.000000 0.000000 
#    y 0.000000 1.815890 0.000000 
#    z 0.000000 0.000000 1.827280 
# 
# From -- ./inp_files/9738.got.cif
#   From: 2010.05.17/outbox.cif.g08.bks.cpg/sg36_5_cif.got.tgz:9738.got - 2010.06.03 17:41:39.
