data_PCOD9352737
_publ_section_title
;
Structure prediction by ZEFSAII (Michael W. Deem and Ramdas Pophale) SiO2 
 PCOD9352737
Probable space group: C M C 21
;
_chemical_formula_sum "Si O2"
_cell_formula_units_Z 44
_cell_length_a 28.026987
_cell_length_b 15.493421
_cell_length_c 4.968922
_cell_angle_alpha 90.000000
_cell_angle_beta 90.000000
_cell_angle_gamma 90.000000
_cell_volume 2157.674423
_symmetry_space_group_name_H-M "C M C 21"
_symmetry_group_IT_number 36
_symmetry_cell_setting 'orthorhombic'
loop_
_space_group_symop_operation_xyz
x,y,z
-x,-y,1/2+z
x,-y,1/2+z
-x,y,z
1/2+x,1/2+y,z
1/2-x,1/2-y,1/2+z
1/2+x,1/2-y,1/2+z
1/2-x,1/2+y,z
loop_
_atom_site_type_symbol
_atom_site_label
_atom_site_fract_x
_atom_site_fract_y
_atom_site_fract_z
Si Si1 0.444440 0.439581 0.393930
Si Si2 0.384751 0.732805 0.862378
Si Si3 0.907628 0.655699 0.850099
Si Si4 0.278828 0.773131 0.047491
Si Si5 0.314162 0.946707 0.305467
Si Si6 0.000000 0.557684 0.052467
O O1 0.437503 0.482390 0.684454
O O2 0.500000 0.410829 0.368001
O O3 0.408952 0.360541 0.343699
O O4 0.385694 0.781331 0.576975
O O5 0.330476 0.734380 0.970782
O O6 0.414417 0.789085 0.080006
O O7 0.869431 0.581325 0.784082
O O8 0.954158 0.613078 0.973265
O O9 0.248553 0.780750 0.775417
O O10 0.286250 0.865359 0.189688
O O11 0.304824 0.972590 0.611098
O O12 0.000000 0.473397 0.859618
#
# Coordination Sequence:
#
# PCOD9352737 Si02
#       6
#     8   8   8   8   8   4
#     4  10  22  40  63  91 124 162 205 261 319 374
#     4  11  23  41  64  90 122 167 210 254 320 384
#     4  11  23  37  61  90 124 167 205 251 298 366
#     4  11  23  42  64  90 124 160 207 266 318 373
#     4  11  21  39  62  87 119 160 205 247 304 372
#     4  12  24  38  56  90 130 164 202 252 304 348
#
# _framework density 20.392326000000001
#
# number of rings (size 3 to 8) (size 9 to 14) (size 15 to 20)
#    0.000    1.091    0.000    8.727    2.545    0.000 
#    0.000    5.455    0.000    0.000    0.000    0.000 
#    0.000    0.000    0.000    0.000    0.000    0.000 
#
# Total GULP energy -123042.145952 kJ/mol
# GULP energy per Si atom -5592.824816 kJ/mol
# Density = 2.034591 g / cm^3
# Si number density = 20.392326 Si / 1000 Ang^3
#
#
#
# Elastic Constant Matrix: (Units=GPa)
#
#
# Indices 1 2 3 4 5 6 
#
# 1 73.4328 40.5389 0.4980 0.0000 0.0000 0.0000
# 2 40.5389 70.9323 6.3099 0.0000 0.0000 0.0000
# 3 0.4980 6.3099 80.5783 0.0000 0.0000 0.0000
# 4 0.0000 0.0000 0.0000 44.2015 0.0000 0.0000
# 5 0.0000 0.0000 0.0000 0.0000 25.7864 0.0000
# 6 0.0000 0.0000 0.0000 0.0000 0.0000 17.4629
#
#
#
# Elastic Compliance Matrix: (Units=1/GPa)
#
#
# Indices 1 2 3 4 5 6 
#
# 1 0.019943 -0.011467 0.000775 0.000000 0.000000 0.000000
# 2 -0.011467 0.020790 -0.001557 0.000000 0.000000 0.000000
# 3 0.000775 -0.001557 0.012527 0.000000 0.000000 0.000000
# 4 0.000000 0.000000 0.000000 0.022624 0.000000 0.000000
# 5 0.000000 0.000000 0.000000 0.000000 0.038780 0.000000
# 6 0.000000 0.000000 0.000000 0.000000 0.000000 0.057264
#
#
# Mechanical properties :
#
#
# Convention : Reuss Voigt Hill
#
# Bulk Modulus (GPa) = 34.76808 35.51522 35.14165
# Shear Modulus (GPa) = 24.27027 29.32993 26.80010
#
# Velocity S-wave (km/s) = 3.45362 3.79658 3.62916
# Velocity P-wave (km/s) = 5.74369 6.05578 5.90180
#
# Compressibility (1/GPa) = 0.02876201
#
# Stress axis : x y z
#
# Youngs Moduli (GPa) = 50.14349 48.10062 79.82482
#
# Poissons Ratio (x) = 0.55155 -0.06184
# Poissons Ratio (y) = 0.57497 0.12430
# Poissons Ratio (z) = -0.03884 0.07490
#
# Static dielectric constant tensor:
#      x y z
#    x 1.704200 0.000000 0.000000 
#    y 0.000000 1.720830 0.000000 
#    z 0.000000 0.000000 1.701280 
# 
# From -- ./inp_files/1721.got.cif
#   From: 2010.05.17/outbox.cif.g08.bks.cpg/sg36_1_cif.got.tgz:1721.got - 2010.06.03 17:41:39.
