data_PCOD9352264
_publ_section_title
;
Structure prediction by ZEFSAII (Michael W. Deem and Ramdas Pophale) SiO2 
 PCOD9352264
Probable space group: C M C 21
;
_chemical_formula_sum "Si O2"
_cell_formula_units_Z 40
_cell_length_a 7.899772
_cell_length_b 27.535658
_cell_length_c 8.248315
_cell_angle_alpha 90.000000
_cell_angle_beta 90.000000
_cell_angle_gamma 90.000000
_cell_volume 1794.218185
_symmetry_space_group_name_H-M "C M C 21"
_symmetry_group_IT_number 36
_symmetry_cell_setting 'orthorhombic'
loop_
_space_group_symop_operation_xyz
x,y,z
-x,-y,1/2+z
x,-y,1/2+z
-x,y,z
1/2+x,1/2+y,z
1/2-x,1/2-y,1/2+z
1/2+x,1/2-y,1/2+z
1/2-x,1/2+y,z
loop_
_atom_site_type_symbol
_atom_site_label
_atom_site_fract_x
_atom_site_fract_y
_atom_site_fract_z
Si Si1 0.315794 0.415944 0.006140
Si Si2 0.500000 0.073266 0.020145
Si Si3 0.693679 0.860707 0.313096
Si Si4 0.294116 0.770551 0.507054
Si Si5 0.000000 0.472369 0.876643
Si Si6 0.198275 0.677503 0.336127
O O1 0.500000 0.438716 0.991106
O O2 0.294222 0.390904 0.181610
O O3 0.294785 0.371040 0.882283
O O4 0.165097 0.452643 0.968842
O O5 0.500000 0.049300 0.195408
O O6 0.340967 0.107829 0.976912
O O7 0.500000 0.030317 0.887656
O O8 0.500000 0.855005 0.247367
O O9 0.760466 0.808519 0.367066
O O10 0.500000 0.768261 0.504380
O O11 0.221297 0.717610 0.476256
O O12 0.241831 0.794823 0.675613
O O13 0.000000 0.665293 0.317543
#
# Coordination Sequence:
#
# PCOD9352264 Si02
#       6
#     8   4   8   8   4   8
#     4  12  24  40  66  96 132 171 217 269 324 385
#     4  10  22  42  78  94 128 178 208 268 339 382
#     4   9  19  40  64  94 121 169 211 259 323 385
#     4  10  21  36  58  86 125 167 222 267 319 385
#     4  12  22  46  70 100 132 168 218 268 329 394
#     4  11  22  37  57  86 126 176 215 269 323 381
#
# _framework density 22.29383
#
# number of rings (size 3 to 8) (size 9 to 14) (size 15 to 20)
#    0.600    0.800    2.000    4.200    0.000    5.600 
#    0.000    7.000    0.000    0.000    0.000    0.000 
#    0.000    0.000    0.000    0.000    0.000    0.000 
#
# Total GULP energy -111846.415340 kJ/mol
# GULP energy per Si atom -5592.320767 kJ/mol
# Density = 2.224309 g / cm^3
# Si number density = 22.293830 Si / 1000 Ang^3
#
#
#
# Elastic Constant Matrix: (Units=GPa)
#
#
# Indices 1 2 3 4 5 6 
#
# 1 89.2224 4.2772 4.5406 0.0000 0.0000 0.0000
# 2 4.2772 73.6892 -15.7706 0.0000 0.0000 0.0000
# 3 4.5406 -15.7706 69.4970 0.0000 0.0000 0.0000
# 4 0.0000 0.0000 0.0000 37.3910 0.0000 0.0000
# 5 0.0000 0.0000 0.0000 0.0000 18.9571 0.0000
# 6 0.0000 0.0000 0.0000 0.0000 0.0000 7.7264
#
#
#
# Elastic Compliance Matrix: (Units=1/GPa)
#
#
# Indices 1 2 3 4 5 6 
#
# 1 0.011296 -0.000855 -0.000932 0.000000 0.000000 0.000000
# 2 -0.000855 0.014328 0.003307 0.000000 0.000000 0.000000
# 3 -0.000932 0.003307 0.015201 0.000000 0.000000 0.000000
# 4 0.000000 0.000000 0.000000 0.026744 0.000000 0.000000
# 5 0.000000 0.000000 0.000000 0.000000 0.052751 0.000000
# 6 0.000000 0.000000 0.000000 0.000000 0.000000 0.129427
#
#
# Mechanical properties :
#
#
# Convention : Reuss Voigt Hill
#
# Bulk Modulus (GPa) = 22.79737 24.27813 23.53775
# Shear Modulus (GPa) = 19.13302 28.77232 23.95267
#
# Velocity S-wave (km/s) = 2.93272 3.59638 3.28137
# Velocity P-wave (km/s) = 4.66003 5.30651 4.99374
#
# Compressibility (1/GPa) = 0.04386472
#
# Stress axis : x y z
#
# Youngs Moduli (GPa) = 88.52397 69.79372 65.78729
#
# Poissons Ratio (x) = 0.05969 0.06132
# Poissons Ratio (y) = 0.07570 -0.21757
# Poissons Ratio (z) = 0.08251 -0.23082
#
# Static dielectric constant tensor:
#      x y z
#    x 1.766890 0.000000 0.000000 
#    y 0.000000 1.765800 0.000000 
#    z 0.000000 0.000000 1.881880 
# 
# From -- ./inp_files/2568.got.cif
#   From: 2010.05.17/outbox.cif.g08.bks.cpg/sg36_2_cif.got.tgz:2568.got - 2010.06.03 17:41:39.
