data_PCOD9352841
_publ_section_title
;
Structure prediction by ZEFSAII (Michael W. Deem and Ramdas Pophale) SiO2 
 PCOD9352841
Probable space group: C M C 21
;
_chemical_formula_sum "Si O2"
_cell_formula_units_Z 40
_cell_length_a 14.988592
_cell_length_b 11.569656
_cell_length_c 9.909021
_cell_angle_alpha 90.000000
_cell_angle_beta 90.000000
_cell_angle_gamma 90.000000
_cell_volume 1718.351606
_symmetry_space_group_name_H-M "C M C 21"
_symmetry_group_IT_number 36
_symmetry_cell_setting 'orthorhombic'
loop_
_space_group_symop_operation_xyz
x,y,z
-x,-y,1/2+z
x,-y,1/2+z
-x,y,z
1/2+x,1/2+y,z
1/2-x,1/2-y,1/2+z
1/2+x,1/2-y,1/2+z
1/2-x,1/2+y,z
loop_
_atom_site_type_symbol
_atom_site_label
_atom_site_fract_x
_atom_site_fract_y
_atom_site_fract_z
Si Si1 0.902308 0.250635 0.272090
Si Si2 0.598948 0.628913 0.985823
Si Si3 0.221347 0.930090 0.071416
Si Si4 0.336798 0.997378 0.818043
Si Si5 0.699060 0.764739 0.759019
O O1 0.903672 0.216142 0.113491
O O2 0.895395 0.387566 0.305990
O O3 0.801733 0.205781 0.305897
O O4 0.000000 0.208907 0.324469
O O5 0.500000 0.616527 0.931048
O O6 0.636038 0.505097 0.032421
O O7 0.661756 0.680640 0.872646
O O8 0.203506 0.797384 0.113454
O O9 0.257209 0.976206 0.214119
O O10 0.298338 0.964637 0.964871
O O11 0.367197 0.873815 0.760886
#
# Coordination Sequence:
#
# PCOD9352841 Si02
#       5
#     8   8   8   8   8
#     4  10  22  42  70 100 137 184 234 289 353 417
#     4  11  23  43  69 102 140 185 235 293 357 425
#     4  11  22  41  67  97 133 184 227 289 348 421
#     4  11  23  41  70  97 136 182 235 280 354 419
#     4  11  22  41  70  98 142 181 233 285 358 418
#
# _framework density 23.278123000000001
#
# number of rings (size 3 to 8) (size 9 to 14) (size 15 to 20)
#    0.000    1.200    6.000    2.400    0.000    1.600 
#    0.000    5.000    0.000    6.000    0.000    0.000 
#    0.000    0.000    0.000    0.000    0.000    0.000 
#
# Total GULP energy -111422.192490 kJ/mol
# GULP energy per Si atom -5571.109625 kJ/mol
# Density = 2.322514 g / cm^3
# Si number density = 23.278123 Si / 1000 Ang^3
#
#
#
# Elastic Constant Matrix: (Units=GPa)
#
#
# Indices 1 2 3 4 5 6 
#
# 1 121.0886 -11.0248 10.6209 0.0000 0.0000 0.0000
# 2 -11.0248 83.7771 12.7478 0.0000 0.0000 0.0000
# 3 10.6209 12.7478 70.1470 0.0000 0.0000 0.0000
# 4 0.0000 0.0000 0.0000 31.4444 0.0000 0.0000
# 5 0.0000 0.0000 0.0000 0.0000 17.8277 0.0000
# 6 0.0000 0.0000 0.0000 0.0000 0.0000 16.1739
#
#
#
# Elastic Compliance Matrix: (Units=1/GPa)
#
#
# Indices 1 2 3 4 5 6 
#
# 1 0.008516 0.001354 -0.001536 0.000000 0.000000 0.000000
# 2 0.001354 0.012491 -0.002475 0.000000 0.000000 0.000000
# 3 -0.001536 -0.002475 0.014938 0.000000 0.000000 0.000000
# 4 0.000000 0.000000 0.000000 0.031802 0.000000 0.000000
# 5 0.000000 0.000000 0.000000 0.000000 0.056092 0.000000
# 6 0.000000 0.000000 0.000000 0.000000 0.000000 0.061828
#
#
# Mechanical properties :
#
#
# Convention : Reuss Voigt Hill
#
# Bulk Modulus (GPa) = 32.64435 33.30006 32.97221
# Shear Modulus (GPa) = 24.85189 30.60046 27.72618
#
# Velocity S-wave (km/s) = 3.27097 3.62962 3.45495
# Velocity P-wave (km/s) = 5.32163 5.64817 5.48733
#
# Compressibility (1/GPa) = 0.03063317
#
# Stress axis : x y z
#
# Youngs Moduli (GPa) = 117.42022 80.05577 66.94295
#
# Poissons Ratio (x) = -0.10843 0.10280
# Poissons Ratio (y) = -0.15903 0.16569
# Poissons Ratio (z) = 0.18031 0.19815
#
# Static dielectric constant tensor:
#      x y z
#    x 1.874860 0.000000 0.000000 
#    y 0.000000 2.098450 0.000000 
#    z 0.000000 0.000000 1.896210 
# 
# From -- ./inp_files/3806.got.cif
#   From: 2010.05.17/outbox.cif.g08.bks.cpg/sg36_2_cif.got.tgz:3806.got - 2010.06.03 17:41:39.
