data_PCOD9352873
_publ_section_title
;
Structure prediction by ZEFSAII (Michael W. Deem and Ramdas Pophale) SiO2 
 PCOD9352873
Probable space group: C M C 21
;
_chemical_formula_sum "Si O2"
_cell_formula_units_Z 64
_cell_length_a 24.600951
_cell_length_b 7.973640
_cell_length_c 14.906155
_cell_angle_alpha 90.000000
_cell_angle_beta 90.000000
_cell_angle_gamma 90.000000
_cell_volume 2923.978351
_symmetry_space_group_name_H-M "C M C 21"
_symmetry_group_IT_number 36
_symmetry_cell_setting 'orthorhombic'
loop_
_space_group_symop_operation_xyz
x,y,z
-x,-y,1/2+z
x,-y,1/2+z
-x,y,z
1/2+x,1/2+y,z
1/2-x,1/2-y,1/2+z
1/2+x,1/2-y,1/2+z
1/2-x,1/2+y,z
loop_
_atom_site_type_symbol
_atom_site_label
_atom_site_fract_x
_atom_site_fract_y
_atom_site_fract_z
Si Si1 0.940160 0.377769 0.542270
Si Si2 0.883666 0.463604 0.872405
Si Si3 0.327882 0.825179 0.150311
Si Si4 0.164206 0.811462 0.474826
Si Si5 0.721453 0.803111 0.401120
Si Si6 0.060527 0.380122 0.209206
Si Si7 0.840809 0.857474 0.072188
Si Si8 0.227743 0.330157 0.713764
O O1 0.920384 0.454711 0.449220
O O2 0.942702 0.525098 0.615018
O O3 0.895541 0.249028 0.575519
O O4 0.000000 0.302450 0.533242
O O5 0.869395 0.270348 0.893858
O O6 0.826708 0.569702 0.871710
O O7 0.919091 0.488603 0.783651
O O8 0.384408 0.771974 0.196556
O O9 0.283046 0.681539 0.157872
O O10 0.303386 0.996413 0.192531
O O11 0.332134 0.846853 0.043300
O O12 0.222281 0.873238 0.440067
O O13 0.141619 0.959326 0.536363
O O14 0.695240 0.711686 0.487912
O O15 0.746725 0.704951 0.313347
O O16 0.000000 0.312131 0.229885
O O17 0.809397 0.813378 0.165502
#
# Coordination Sequence:
#
# PCOD9352873 Si02
#       8
#     8   8   8   8   8   8   8   8
#     4  10  22  44  69  91 125 174 223 279 339 392
#     4  11  22  42  66  97 129 172 226 272 335 397
#     4  12  23  42  64  98 130 176 217 270 332 400
#     4  12  24  40  63  97 138 173 215 274 329 407
#     4  11  24  39  63  93 139 173 217 267 335 405
#     4  11  22  42  69  97 126 168 227 277 323 394
#     4  11  24  42  61  97 133 174 218 273 335 402
#     4  12  24  41  65  92 136 174 216 270 338 399
#
# _framework density 21.887986000000001
#
# number of rings (size 3 to 8) (size 9 to 14) (size 15 to 20)
#    0.000    0.750    5.000    3.375    1.750    0.000 
#    0.000    1.875    0.000    0.000    0.000    0.000 
#    0.000    0.000    0.000    0.000    0.000    0.000 
#
# Total GULP energy -178297.124049 kJ/mol
# GULP energy per Si atom -5571.785127 kJ/mol
# Density = 2.183817 g / cm^3
# Si number density = 21.887986 Si / 1000 Ang^3
#
#
#
# Elastic Constant Matrix: (Units=GPa)
#
#
# Indices 1 2 3 4 5 6 
#
# 1 152.6890 6.9236 12.2284 0.0000 0.0000 0.0000
# 2 6.9236 40.9625 -3.4372 0.0000 0.0000 0.0000
# 3 12.2284 -3.4372 92.1522 0.0000 0.0000 0.0000
# 4 0.0000 0.0000 0.0000 19.2088 0.0000 0.0000
# 5 0.0000 0.0000 0.0000 0.0000 12.9078 0.0000
# 6 0.0000 0.0000 0.0000 0.0000 0.0000 18.7682
#
#
#
# Elastic Compliance Matrix: (Units=1/GPa)
#
#
# Indices 1 2 3 4 5 6 
#
# 1 0.006679 -0.001207 -0.000931 0.000000 0.000000 0.000000
# 2 -0.001207 0.024707 0.001082 0.000000 0.000000 0.000000
# 3 -0.000931 0.001082 0.011016 0.000000 0.000000 0.000000
# 4 0.000000 0.000000 0.000000 0.052059 0.000000 0.000000
# 5 0.000000 0.000000 0.000000 0.000000 0.077473 0.000000
# 6 0.000000 0.000000 0.000000 0.000000 0.000000 0.053282
#
#
# Mechanical properties :
#
#
# Convention : Reuss Voigt Hill
#
# Bulk Modulus (GPa) = 24.82100 35.24812 30.03456
# Shear Modulus (GPa) = 20.76777 28.18289 24.47533
#
# Velocity S-wave (km/s) = 3.08363 3.59220 3.34759
# Velocity P-wave (km/s) = 4.90337 5.77443 5.35664
#
# Compressibility (1/GPa) = 0.04028846
#
# Stress axis : x y z
#
# Youngs Moduli (GPa) = 149.73267 40.47382 90.78084
#
# Poissons Ratio (x) = 0.04885 0.08454
# Poissons Ratio (y) = 0.18072 -0.09820
# Poissons Ratio (z) = 0.13944 -0.04378
#
# Static dielectric constant tensor:
#      x y z
#    x 1.849400 0.000000 0.000000 
#    y 0.000000 1.898810 0.000000 
#    z 0.000000 0.000000 1.882050 
# 
# From -- ./inp_files/12989.got.cif
#   From: 2010.05.17/outbox.cif.g08.bks.cpg/sg36_7_cif.got.tgz:12989.got - 2010.06.03 17:41:39.
