data_PCOD9352784
_publ_section_title
;
Structure prediction by ZEFSAII (Michael W. Deem and Ramdas Pophale) SiO2 
 PCOD9352784
Probable space group: C M C 21
;
_chemical_formula_sum "Si O2"
_cell_formula_units_Z 64
_cell_length_a 8.865882
_cell_length_b 33.178880
_cell_length_c 10.523151
_cell_angle_alpha 90.000000
_cell_angle_beta 90.000000
_cell_angle_gamma 90.000000
_cell_volume 3095.490466
_symmetry_space_group_name_H-M "C M C 21"
_symmetry_group_IT_number 36
_symmetry_cell_setting 'orthorhombic'
loop_
_space_group_symop_operation_xyz
x,y,z
-x,-y,1/2+z
x,-y,1/2+z
-x,y,z
1/2+x,1/2+y,z
1/2-x,1/2-y,1/2+z
1/2+x,1/2-y,1/2+z
1/2-x,1/2+y,z
loop_
_atom_site_type_symbol
_atom_site_label
_atom_site_fract_x
_atom_site_fract_y
_atom_site_fract_z
Si Si1 0.825595 0.957865 0.944260
Si Si2 0.322214 0.259699 0.688088
Si Si3 0.326904 0.164637 0.304157
Si Si4 0.682011 0.709876 0.913969
Si Si5 0.821981 0.382091 0.067733
Si Si6 0.833487 0.578064 0.218031
Si Si7 0.320702 0.624115 0.830485
Si Si8 0.670988 0.955860 0.436786
O O1 0.797273 0.939092 0.805392
O O2 0.000000 0.957571 0.980626
O O3 0.762405 0.002797 0.934737
O O4 0.733368 0.927351 0.034511
O O5 0.500000 0.250874 0.683732
O O6 0.287683 0.302008 0.757788
O O7 0.268562 0.265993 0.541489
O O8 0.242834 0.228203 0.782270
O O9 0.500000 0.180501 0.303060
O O10 0.298047 0.145866 0.443594
O O11 0.319345 0.126006 0.212347
O O12 0.500000 0.711541 0.912401
O O13 0.725909 0.662587 0.915754
O O14 0.728607 0.366538 0.186823
O O15 0.000000 0.382136 0.095577
O O16 0.000000 0.570637 0.279754
O O17 0.833584 0.557873 0.082751
O O18 0.500000 0.619608 0.840361
O O19 0.244047 0.581836 0.865052
O O20 0.500000 0.962672 0.390594
#
# Coordination Sequence:
#
# PCOD9352784 Si02
#       8
#     8   8   8   8   8   8   8   8
#     4  11  23  38  59  89 124 161 207 260 314 374
#     4  11  24  41  67  98 130 171 217 265 326 392
#     4   9  19  38  64  91 122 158 204 259 315 376
#     4  10  25  46  65  95 136 172 216 273 328 391
#     4  10  22  41  64  91 127 169 213 261 318 389
#     4   9  20  39  61  85 114 155 204 250 307 377
#     4  11  24  42  64  92 129 167 213 270 330 385
#     4  11  23  39  62  87 120 163 208 256 314 382
#
# _framework density 20.675236000000002
#
# number of rings (size 3 to 8) (size 9 to 14) (size 15 to 20)
#    0.000    1.750    0.000    4.125    3.500    5.500 
#    0.000    0.000    0.000    0.000    0.000    0.000 
#    0.000    0.000    0.000    0.000    0.000    0.000 
#
# Total GULP energy -178724.113202 kJ/mol
# GULP energy per Si atom -5585.128538 kJ/mol
# Density = 2.062818 g / cm^3
# Si number density = 20.675236 Si / 1000 Ang^3
#
#
#
# Elastic Constant Matrix: (Units=GPa)
#
#
# Indices 1 2 3 4 5 6 
#
# 1 37.0351 6.6351 8.1151 0.0000 0.0000 0.0000
# 2 6.6351 62.7602 19.8282 0.0000 0.0000 0.0000
# 3 8.1151 19.8282 67.9198 0.0000 0.0000 0.0000
# 4 0.0000 0.0000 0.0000 17.4026 0.0000 0.0000
# 5 0.0000 0.0000 0.0000 0.0000 26.4286 0.0000
# 6 0.0000 0.0000 0.0000 0.0000 0.0000 34.2114
#
#
#
# Elastic Compliance Matrix: (Units=1/GPa)
#
#
# Indices 1 2 3 4 5 6 
#
# 1 0.027975 -0.002095 -0.002731 0.000000 0.000000 0.000000
# 2 -0.002095 0.017709 -0.004920 0.000000 0.000000 0.000000
# 3 -0.002731 -0.004920 0.016486 0.000000 0.000000 0.000000
# 4 0.000000 0.000000 0.000000 0.057463 0.000000 0.000000
# 5 0.000000 0.000000 0.000000 0.000000 0.037838 0.000000
# 6 0.000000 0.000000 0.000000 0.000000 0.000000 0.029230
#
#
# Mechanical properties :
#
#
# Convention : Reuss Voigt Hill
#
# Bulk Modulus (GPa) = 23.43047 26.31910 24.87478
# Shear Modulus (GPa) = 22.68412 24.48427 23.58420
#
# Velocity S-wave (km/s) = 3.31594 3.44500 3.38109
# Velocity P-wave (km/s) = 5.10077 5.34616 5.22491
#
# Compressibility (1/GPa) = 0.04267947
#
# Stress axis : x y z
#
# Youngs Moduli (GPa) = 35.74602 56.46700 60.65826
#
# Poissons Ratio (x) = 0.11829 0.16566
# Poissons Ratio (y) = 0.07488 0.29842
# Poissons Ratio (z) = 0.09762 0.27780
#
# Static dielectric constant tensor:
#      x y z
#    x 1.734750 0.000000 0.000000 
#    y 0.000000 1.754880 0.000000 
#    z 0.000000 0.000000 1.749760 
# 
# From -- ./inp_files/7253.got.cif
#   From: 2010.05.17/outbox.cif.g08.bks.cpg/sg36_4_cif.got.tgz:7253.got - 2010.06.03 17:41:39.
