data_PCOD9352558
_publ_section_title
;
Structure prediction by ZEFSAII (Michael W. Deem and Ramdas Pophale) SiO2 
 PCOD9352558
Probable space group: C M C 21
;
_chemical_formula_sum "Si O2"
_cell_formula_units_Z 48
_cell_length_a 7.654504
_cell_length_b 21.540337
_cell_length_c 15.896693
_cell_angle_alpha 90.000000
_cell_angle_beta 90.000000
_cell_angle_gamma 90.000000
_cell_volume 2621.056212
_symmetry_space_group_name_H-M "C M C 21"
_symmetry_group_IT_number 36
_symmetry_cell_setting 'orthorhombic'
loop_
_space_group_symop_operation_xyz
x,y,z
-x,-y,1/2+z
x,-y,1/2+z
-x,y,z
1/2+x,1/2+y,z
1/2-x,1/2-y,1/2+z
1/2+x,1/2-y,1/2+z
1/2-x,1/2+y,z
loop_
_atom_site_type_symbol
_atom_site_label
_atom_site_fract_x
_atom_site_fract_y
_atom_site_fract_z
Si Si1 0.500000 0.653010 0.538580
Si Si2 0.500000 0.785423 0.466707
Si Si3 0.707723 0.049840 0.518350
Si Si4 0.000000 0.218148 0.719929
Si Si5 0.699714 0.451343 0.664635
Si Si6 0.302626 0.156420 0.823711
Si Si7 0.000000 0.649507 0.147243
Si Si8 0.210808 0.513630 0.840145
O O1 0.500000 0.711661 0.476140
O O2 0.330318 0.609633 0.528492
O O3 0.500000 0.684316 0.630046
O O4 0.663951 0.809870 0.412525
O O5 0.500000 0.820041 0.555122
O O6 0.500000 0.063690 0.517529
O O7 0.745306 0.003026 0.595693
O O8 0.755580 0.017007 0.429615
O O9 0.170083 0.194585 0.768401
O O10 0.000000 0.292082 0.709507
O O11 0.500000 0.433291 0.648291
O O12 0.832162 0.394191 0.658081
O O13 0.714313 0.479874 0.758263
O O14 0.500000 0.153533 0.785684
O O15 0.240502 0.086133 0.837359
O O16 0.000000 0.510663 0.833674
#
# Coordination Sequence:
#
# PCOD9352558 Si02
#       8
#     4   4   8   4   8   8   4   8
#     4  11  24  41  62  98 128 164 210 266 314 385
#     4   9  22  47  62  85 132 167 210 269 304 372
#     4  11  23  41  65  95 132 167 205 263 328 375
#     4  11  24  41  66  89 122 171 218 255 318 376
#     4  12  24  39  65  97 129 167 208 266 325 375
#     4   9  21  41  66  88 121 165 215 258 303 379
#     4  11  24  45  60  90 134 164 210 266 316 389
#     4  10  21  40  65  96 126 167 210 262 324 383
#
# _framework density 18.313227999999999
#
# number of rings (size 3 to 8) (size 9 to 14) (size 15 to 20)
#    0.500    1.000    2.500    2.000    2.333    4.000 
#    6.000    1.667    0.000    0.000    0.000    0.000 
#    0.000    0.000    0.000    0.000    0.000    0.000 
#
# Total GULP energy -133985.573890 kJ/mol
# GULP energy per Si atom -5582.732245 kJ/mol
# Density = 1.827155 g / cm^3
# Si number density = 18.313228 Si / 1000 Ang^3
#
#
#
# Elastic Constant Matrix: (Units=GPa)
#
#
# Indices 1 2 3 4 5 6 
#
# 1 112.9080 77.7886 37.2142 0.0000 0.0000 0.0000
# 2 77.7886 171.6308 56.4753 0.0000 0.0000 0.0000
# 3 37.2142 56.4753 101.0235 0.0000 0.0000 0.0000
# 4 0.0000 0.0000 0.0000 32.5139 0.0000 0.0000
# 5 0.0000 0.0000 0.0000 0.0000 -39.6404 0.0000
# 6 0.0000 0.0000 0.0000 0.0000 0.0000 4.6863
#
#
#
# Elastic Compliance Matrix: (Units=1/GPa)
#
#
# Indices 1 2 3 4 5 6 
#
# 1 0.013155 -0.005352 -0.001854 0.000000 0.000000 0.000000
# 2 -0.005352 0.009318 -0.003237 0.000000 0.000000 0.000000
# 3 -0.001854 -0.003237 0.012391 0.000000 0.000000 0.000000
# 4 0.000000 0.000000 0.000000 0.030756 0.000000 0.000000
# 5 0.000000 0.000000 0.000000 0.000000 -0.025227 0.000000
# 6 0.000000 0.000000 0.000000 0.000000 0.000000 0.213387
#
#
# Mechanical properties :
#
#
# Convention : Reuss Voigt Hill
#
# Bulk Modulus (GPa) = 71.54453 80.94651 76.24552
# Shear Modulus (GPa) = 17.90022 13.78424 15.84223
#
# Velocity S-wave (km/s) = 3.12981 2.74650 2.94440
# Velocity P-wave (km/s) = 7.22585 7.37257 7.29958
#
# Compressibility (1/GPa) = 0.01397731
#
# Stress axis : x y z
#
# Youngs Moduli (GPa) = 76.01444 107.32467 80.70203
#
# Poissons Ratio (x) = 0.57445 0.14961
# Poissons Ratio (y) = 0.40686 0.26124
# Poissons Ratio (z) = 0.14092 0.34742
#
# Static dielectric constant tensor:
#      x y z
#    x 1.615530 0.000000 0.000000 
#    y 0.000000 1.597450 0.000000 
#    z 0.000000 0.000000 1.626170 
# 
# From -- ./inp_files/10505.got.cif
#   From: 2010.05.17/outbox.cif.g08.bks.cpg/sg36_6_cif.got.tgz:10505.got - 2010.06.03 17:41:39.
