data_PCOD9352997
_publ_section_title
;
Structure prediction by ZEFSAII (Michael W. Deem and Ramdas Pophale) SiO2 
 PCOD9352997
Probable space group: C M C 21
;
_chemical_formula_sum "Si O2"
_cell_formula_units_Z 64
_cell_length_a 22.995879
_cell_length_b 9.212493
_cell_length_c 14.978004
_cell_angle_alpha 90.000000
_cell_angle_beta 90.000000
_cell_angle_gamma 90.000000
_cell_volume 3173.080776
_symmetry_space_group_name_H-M "C M C 21"
_symmetry_group_IT_number 36
_symmetry_cell_setting 'orthorhombic'
loop_
_space_group_symop_operation_xyz
x,y,z
-x,-y,1/2+z
x,-y,1/2+z
-x,y,z
1/2+x,1/2+y,z
1/2-x,1/2-y,1/2+z
1/2+x,1/2-y,1/2+z
1/2-x,1/2+y,z
loop_
_atom_site_type_symbol
_atom_site_label
_atom_site_fract_x
_atom_site_fract_y
_atom_site_fract_z
Si Si1 0.854579 0.641316 0.514910
Si Si2 0.065531 0.363093 0.527490
Si Si3 0.111450 0.842232 0.883874
Si Si4 0.934429 0.165495 0.889427
Si Si5 0.262800 0.571091 0.416426
Si Si6 0.389813 0.192952 0.220333
Si Si7 0.773627 0.190015 0.790985
Si Si8 0.649994 0.859096 0.219870
O O1 0.890778 0.492999 0.504607
O O2 0.886426 0.758935 0.452802
O O3 0.788175 0.600995 0.487255
O O4 0.860357 0.686606 0.617924
O O5 0.070460 0.248052 0.448625
O O6 0.085043 0.294244 0.621426
O O7 0.000000 0.419223 0.536224
O O8 0.173906 0.861617 0.934019
O O9 0.124056 0.750974 0.793638
O O10 0.085086 0.001029 0.868846
O O11 0.932578 0.256697 0.798045
O O12 0.000000 0.168197 0.926906
O O13 0.240117 0.651034 0.327676
O O14 0.273358 0.408505 0.380730
O O15 0.333151 0.294123 0.237362
O O16 0.373966 0.022472 0.232497
O O17 0.719332 0.140286 0.733121
#
# Coordination Sequence:
#
# PCOD9352997 Si02
#       8
#     8   8   8   8   8   8   8   8
#     4  11  23  43  68 100 130 169 227 271 333 395
#     4  11  25  44  65  92 128 177 230 276 322 389
#     4  11  24  43  66  94 134 172 216 272 335 396
#     4  12  24  43  67  95 132 175 220 273 333 393
#     4  11  20  38  65  95 131 164 209 265 333 397
#     4  11  22  42  65  95 128 174 224 271 325 396
#     4  11  19  38  61  95 132 166 203 262 331 396
#     4  10  24  41  67  98 133 173 218 270 334 402
#
# _framework density 20.169671999999998
#
# number of rings (size 3 to 8) (size 9 to 14) (size 15 to 20)
#    0.000    1.000    3.750    3.375    1.750    1.000 
#    2.250    8.125    0.000    0.000    0.000    0.000 
#    0.000    0.000    0.000    0.000    0.000    0.000 
#
# Total GULP energy -178654.562099 kJ/mol
# GULP energy per Si atom -5582.955066 kJ/mol
# Density = 2.012377 g / cm^3
# Si number density = 20.169672 Si / 1000 Ang^3
#
#
#
# Elastic Constant Matrix: (Units=GPa)
#
#
# Indices 1 2 3 4 5 6 
#
# 1 101.7315 22.7364 33.3848 0.0000 0.0000 0.0000
# 2 22.7364 84.6889 61.8157 0.0000 0.0000 0.0000
# 3 33.3848 61.8157 100.4735 0.0000 0.0000 0.0000
# 4 0.0000 0.0000 0.0000 13.7886 0.0000 0.0000
# 5 0.0000 0.0000 0.0000 0.0000 15.8064 0.0000
# 6 0.0000 0.0000 0.0000 0.0000 0.0000 16.4597
#
#
#
# Elastic Compliance Matrix: (Units=1/GPa)
#
#
# Indices 1 2 3 4 5 6 
#
# 1 0.011045 -0.000520 -0.003350 0.000000 0.000000 0.000000
# 2 -0.000520 0.021457 -0.013029 0.000000 0.000000 0.000000
# 3 -0.003350 -0.013029 0.019082 0.000000 0.000000 0.000000
# 4 0.000000 0.000000 0.000000 0.072524 0.000000 0.000000
# 5 0.000000 0.000000 0.000000 0.000000 0.063265 0.000000
# 6 0.000000 0.000000 0.000000 0.000000 0.000000 0.060754
#
#
# Mechanical properties :
#
#
# Convention : Reuss Voigt Hill
#
# Bulk Modulus (GPa) = 56.22128 58.08531 57.15329
# Shear Modulus (GPa) = 17.36983 20.47474 18.92228
#
# Velocity S-wave (km/s) = 2.93778 3.18956 3.06625
# Velocity P-wave (km/s) = 6.28029 6.51347 6.39794
#
# Compressibility (1/GPa) = 0.01778686
#
# Stress axis : x y z
#
# Youngs Moduli (GPa) = 90.53514 46.60389 52.40560
#
# Poissons Ratio (x) = 0.02423 0.17557
# Poissons Ratio (y) = 0.04708 0.68278
# Poissons Ratio (z) = 0.30331 0.60719
#
# Static dielectric constant tensor:
#      x y z
#    x 1.754440 0.000000 0.000000 
#    y 0.000000 1.704750 0.000000 
#    z 0.000000 0.000000 1.693260 
# 
# From -- ./inp_files/12969.got.cif
#   From: 2010.05.17/outbox.cif.g08.bks.cpg/sg36_7_cif.got.tgz:12969.got - 2010.06.03 17:41:39.
