data_PCOD9352576
_publ_section_title
;
Structure prediction by ZEFSAII (Michael W. Deem and Ramdas Pophale) SiO2 
 PCOD9352576
Probable space group: C M C 21
;
_chemical_formula_sum "Si O2"
_cell_formula_units_Z 40
_cell_length_a 21.044434
_cell_length_b 5.024388
_cell_length_c 14.351653
_cell_angle_alpha 90.000000
_cell_angle_beta 90.000000
_cell_angle_gamma 90.000000
_cell_volume 1517.477794
_symmetry_space_group_name_H-M "C M C 21"
_symmetry_group_IT_number 36
_symmetry_cell_setting 'orthorhombic'
loop_
_space_group_symop_operation_xyz
x,y,z
-x,-y,1/2+z
x,-y,1/2+z
-x,y,z
1/2+x,1/2+y,z
1/2-x,1/2-y,1/2+z
1/2+x,1/2-y,1/2+z
1/2-x,1/2+y,z
loop_
_atom_site_type_symbol
_atom_site_label
_atom_site_fract_x
_atom_site_fract_y
_atom_site_fract_z
Si Si1 0.100462 0.826440 0.869020
Si Si2 0.782433 0.340576 0.456909
Si Si3 0.574610 0.979491 0.189464
Si Si4 0.571320 0.821389 0.989550
Si Si5 0.704694 0.242059 0.172555
O O1 0.174835 0.766983 0.874623
O O2 0.073630 0.738693 0.770842
O O3 0.074252 0.613577 0.944725
O O4 0.090945 0.115349 0.910512
O O5 0.720161 0.157089 0.450660
O O6 0.805130 0.255782 0.559690
O O7 0.500000 0.078728 0.179921
O O8 0.633217 0.184980 0.210915
O O9 0.598389 0.839715 0.093621
O O10 0.500000 0.738885 0.009509
O O11 0.755036 0.006304 0.194233
#
# Coordination Sequence:
#
# PCOD9352576 Si02
#       5
#     8   8   8   8   8
#     4  12  25  45  72 102 143 190 245 297 364 437
#     4  10  21  40  69 100 137 186 237 294 358 432
#     4  11  26  47  75 111 147 194 249 303 367 443
#     4  11  25  45  68 100 144 189 236 302 364 424
#     4  10  23  43  72 103 141 187 238 294 362 434
#
# _framework density 26.359528000000001
#
# number of rings (size 3 to 8) (size 9 to 14) (size 15 to 20)
#    0.000    1.200    2.000    3.000    5.600    4.800 
#    0.000    5.000    0.000    0.000    0.000    0.000 
#    0.000    0.000    0.000    0.000    0.000    0.000 
#
# Total GULP energy -111752.979864 kJ/mol
# GULP energy per Si atom -5587.648993 kJ/mol
# Density = 2.629953 g / cm^3
# Si number density = 26.359528 Si / 1000 Ang^3
#
#
#
# Elastic Constant Matrix: (Units=GPa)
#
#
# Indices 1 2 3 4 5 6 
#
# 1 89.0679 28.1968 25.1295 0.0000 0.0000 0.0000
# 2 28.1968 102.6055 13.2288 0.0000 0.0000 0.0000
# 3 25.1295 13.2288 119.6782 0.0000 0.0000 0.0000
# 4 0.0000 0.0000 0.0000 21.7845 0.0000 0.0000
# 5 0.0000 0.0000 0.0000 0.0000 15.2531 0.0000
# 6 0.0000 0.0000 0.0000 0.0000 0.0000 22.9040
#
#
#
# Elastic Compliance Matrix: (Units=1/GPa)
#
#
# Indices 1 2 3 4 5 6 
#
# 1 0.012919 -0.003247 -0.002354 0.000000 0.000000 0.000000
# 2 -0.003247 0.010703 -0.000501 0.000000 0.000000 0.000000
# 3 -0.002354 -0.000501 0.008905 0.000000 0.000000 0.000000
# 4 0.000000 0.000000 0.000000 0.045904 0.000000 0.000000
# 5 0.000000 0.000000 0.000000 0.000000 0.065560 0.000000
# 6 0.000000 0.000000 0.000000 0.000000 0.000000 0.043661
#
#
# Mechanical properties :
#
#
# Convention : Reuss Voigt Hill
#
# Bulk Modulus (GPa) = 49.20366 49.38465 49.29416
# Shear Modulus (GPa) = 24.19765 28.30807 26.25286
#
# Velocity S-wave (km/s) = 3.03311 3.28063 3.15930
# Velocity P-wave (km/s) = 5.56536 5.75550 5.66123
#
# Compressibility (1/GPa) = 0.02032369
#
# Stress axis : x y z
#
# Youngs Moduli (GPa) = 77.40301 93.43207 112.29138
#
# Poissons Ratio (x) = 0.30336 0.26432
# Poissons Ratio (y) = 0.25132 0.05629
# Poissons Ratio (z) = 0.18220 0.04684
#
# Static dielectric constant tensor:
#      x y z
#    x 2.226180 0.000000 0.000000 
#    y 0.000000 2.092380 0.000000 
#    z 0.000000 0.000000 2.079520 
# 
# From -- ./inp_files/12905.got.cif
#   From: 2010.05.17/outbox.cif.g08.bks.cpg/sg36_7_cif.got.tgz:12905.got - 2010.06.03 17:41:39.
