data_PCOD9352547
_publ_section_title
;
Structure prediction by ZEFSAII (Michael W. Deem and Ramdas Pophale) SiO2 
 PCOD9352547
Probable space group: C M C 21
;
_chemical_formula_sum "Si O2"
_cell_formula_units_Z 48
_cell_length_a 17.167303
_cell_length_b 15.136014
_cell_length_c 7.128562
_cell_angle_alpha 90.000000
_cell_angle_beta 90.000000
_cell_angle_gamma 90.000000
_cell_volume 1852.317903
_symmetry_space_group_name_H-M "C M C 21"
_symmetry_group_IT_number 36
_symmetry_cell_setting 'orthorhombic'
loop_
_space_group_symop_operation_xyz
x,y,z
-x,-y,1/2+z
x,-y,1/2+z
-x,y,z
1/2+x,1/2+y,z
1/2-x,1/2-y,1/2+z
1/2+x,1/2-y,1/2+z
1/2-x,1/2+y,z
loop_
_atom_site_type_symbol
_atom_site_label
_atom_site_fract_x
_atom_site_fract_y
_atom_site_fract_z
Si Si1 0.703426 0.745969 0.109520
Si Si2 0.753749 0.396725 0.362897
Si Si3 0.084925 0.853838 0.854813
Si Si4 0.087391 0.046633 0.751315
Si Si5 0.914756 0.654620 0.384477
Si Si6 0.412083 0.977556 0.242846
O O1 0.744044 0.833528 0.180728
O O2 0.649201 0.712353 0.278967
O O3 0.649562 0.773229 0.932025
O O4 0.756053 0.665864 0.043684
O O5 0.669032 0.440720 0.359116
O O6 0.830679 0.455418 0.346189
O O7 0.000000 0.810123 0.842101
O O8 0.085768 0.940790 0.723763
O O9 0.092471 0.895669 0.061662
O O10 0.000000 0.066373 0.831026
O O11 0.907989 0.583827 0.217632
O O12 0.912271 0.587642 0.564160
O O13 0.000000 0.696974 0.373782
O O14 0.500000 0.963369 0.326425
#
# Coordination Sequence:
#
# PCOD9352547 Si02
#       6
#     8   8   8   8   8   8
#     4  11  23  37  57  87 123 158 199 252 309 359
#     4  11  24  39  59  88 122 162 204 250 303 362
#     4  10  21  40  64  89 121 160 202 251 306 366
#     4  10  22  40  63  90 120 160 206 248 299 368
#     4   9  19  37  60  84 111 148 194 243 295 350
#     4   9  20  39  60  82 111 150 197 242 290 353
#
# _framework density 25.913477
#
# number of rings (size 3 to 8) (size 9 to 14) (size 15 to 20)
#    0.000    2.000    0.000    2.500    0.000   11.333 
#    0.000    0.833    0.000    0.000    0.000    0.000 
#    0.000    0.000    0.000    0.000    0.000    0.000 
#
# Total GULP energy -134089.520648 kJ/mol
# GULP energy per Si atom -5587.063360 kJ/mol
# Density = 2.585450 g / cm^3
# Si number density = 25.913477 Si / 1000 Ang^3
#
#
#
# Elastic Constant Matrix: (Units=GPa)
#
#
# Indices 1 2 3 4 5 6 
#
# 1 204.9429 48.4733 33.5780 0.0000 0.0000 0.0000
# 2 48.4733 48.5247 -9.8327 0.0000 0.0000 0.0000
# 3 33.5780 -9.8327 45.5583 0.0000 0.0000 0.0000
# 4 0.0000 0.0000 0.0000 46.5789 0.0000 0.0000
# 5 0.0000 0.0000 0.0000 0.0000 25.6113 0.0000
# 6 0.0000 0.0000 0.0000 0.0000 0.0000 37.9702
#
#
#
# Elastic Compliance Matrix: (Units=1/GPa)
#
#
# Indices 1 2 3 4 5 6 
#
# 1 0.008827 -0.010600 -0.008794 0.000000 0.000000 0.000000
# 2 -0.010600 0.034279 0.015211 0.000000 0.000000 0.000000
# 3 -0.008794 0.015211 0.031714 0.000000 0.000000 0.000000
# 4 0.000000 0.000000 0.000000 0.021469 0.000000 0.000000
# 5 0.000000 0.000000 0.000000 0.000000 0.039045 0.000000
# 6 0.000000 0.000000 0.000000 0.000000 0.000000 0.026336
#
#
# Mechanical properties :
#
#
# Convention : Reuss Voigt Hill
#
# Bulk Modulus (GPa) = 15.04792 49.27368 32.16080
# Shear Modulus (GPa) = 26.01623 37.15256 31.58439
#
# Velocity S-wave (km/s) = 3.17198 3.79055 3.49498
# Velocity P-wave (km/s) = 4.38576 6.18172 5.35950
#
# Compressibility (1/GPa) = 0.06645435
#
# Stress axis : x y z
#
# Youngs Moduli (GPa) = 113.28573 29.17259 31.53184
#
# Poissons Ratio (x) = 0.30922 0.27728
# Poissons Ratio (y) = 1.20080 -0.47962
# Poissons Ratio (z) = 0.99620 -0.44373
#
# Static dielectric constant tensor:
#      x y z
#    x 1.991160 0.000000 0.000000 
#    y 0.000000 1.945400 0.000000 
#    z 0.000000 0.000000 2.127780 
# 
# From -- ./inp_files/4652.got.cif
#   From: 2010.05.17/outbox.cif.g08.bks.cpg/sg36_3_cif.got.tgz:4652.got - 2010.06.03 17:41:39.
