data_PCOD9352921
_publ_section_title
;
Structure prediction by ZEFSAII (Michael W. Deem and Ramdas Pophale) SiO2 
 PCOD9352921
Probable space group: C M C 21
;
_chemical_formula_sum "Si O2"
_cell_formula_units_Z 40
_cell_length_a 14.485483
_cell_length_b 9.589500
_cell_length_c 13.302964
_cell_angle_alpha 90.000000
_cell_angle_beta 90.000000
_cell_angle_gamma 90.000000
_cell_volume 1847.895297
_symmetry_space_group_name_H-M "C M C 21"
_symmetry_group_IT_number 36
_symmetry_cell_setting 'orthorhombic'
loop_
_space_group_symop_operation_xyz
x,y,z
-x,-y,1/2+z
x,-y,1/2+z
-x,y,z
1/2+x,1/2+y,z
1/2-x,1/2-y,1/2+z
1/2+x,1/2-y,1/2+z
1/2-x,1/2+y,z
loop_
_atom_site_type_symbol
_atom_site_label
_atom_site_fract_x
_atom_site_fract_y
_atom_site_fract_z
Si Si1 0.813247 0.946819 0.938450
Si Si2 0.000000 0.612277 0.727158
Si Si3 0.340862 0.100929 0.272826
Si Si4 0.197187 0.336800 0.542956
Si Si5 0.000000 0.578676 0.049864
Si Si6 0.500000 0.419503 0.814762
Si Si7 0.000000 0.788770 0.240250
O O1 0.739143 0.914250 0.851864
O O2 0.911807 0.937066 0.886307
O O3 0.804915 0.826777 0.022504
O O4 0.782350 0.091177 0.987864
O O5 0.909004 0.532469 0.767699
O O6 0.000000 0.568014 0.609278
O O7 0.000000 0.771310 0.759136
O O8 0.301780 0.125945 0.160621
O O9 0.408722 0.231070 0.294593
O O10 0.099323 0.399145 0.500004
O O11 0.000000 0.702584 0.135283
O O12 0.500000 0.546679 0.735645
#
# Coordination Sequence:
#
# PCOD9352921 Si02
#       7
#     8   4   8   8   4   4   4
#     4  12  24  38  61  89 123 165 202 248 302 358
#     4   8  18  38  65  89 119 161 198 243 303 369
#     4   9  21  43  64  85 119 163 205 243 301 373
#     4  10  23  41  62  90 121 158 203 251 303 361
#     4   8  19  43  65  84 118 161 200 243 303 372
#     4  12  23  34  57  96 124 152 204 254 299 348
#     4   8  18  37  61  87 117 150 190 256 309 343
#
# _framework density 21.646249000000001
#
# number of rings (size 3 to 8) (size 9 to 14) (size 15 to 20)
#    0.000    2.800    0.000    3.000    0.000    9.600 
#    0.000    2.000    0.000    2.400    0.000    0.000 
#    0.000    0.000    0.000    0.000    0.000    0.000 
#
# Total GULP energy -111728.767655 kJ/mol
# GULP energy per Si atom -5586.438383 kJ/mol
# Density = 2.159698 g / cm^3
# Si number density = 21.646249 Si / 1000 Ang^3
#
#
#
# Elastic Constant Matrix: (Units=GPa)
#
#
# Indices 1 2 3 4 5 6 
#
# 1 103.5517 17.8611 12.6922 0.0000 0.0000 0.0000
# 2 17.8611 127.6320 3.3998 0.0000 0.0000 0.0000
# 3 12.6922 3.3998 59.0026 0.0000 0.0000 0.0000
# 4 0.0000 0.0000 0.0000 17.9283 0.0000 0.0000
# 5 0.0000 0.0000 0.0000 0.0000 34.2577 0.0000
# 6 0.0000 0.0000 0.0000 0.0000 0.0000 9.4106
#
#
#
# Elastic Compliance Matrix: (Units=1/GPa)
#
#
# Indices 1 2 3 4 5 6 
#
# 1 0.010150 -0.001364 -0.002105 0.000000 0.000000 0.000000
# 2 -0.001364 0.008030 -0.000169 0.000000 0.000000 0.000000
# 3 -0.002105 -0.000169 0.017411 0.000000 0.000000 0.000000
# 4 0.000000 0.000000 0.000000 0.055778 0.000000 0.000000
# 5 0.000000 0.000000 0.000000 0.000000 0.029191 0.000000
# 6 0.000000 0.000000 0.000000 0.000000 0.000000 0.106263
#
#
# Mechanical properties :
#
#
# Convention : Reuss Voigt Hill
#
# Bulk Modulus (GPa) = 35.31724 39.78808 37.55266
# Shear Modulus (GPa) = 20.53068 29.40153 24.96611
#
# Velocity S-wave (km/s) = 3.08305 3.68947 3.39981
# Velocity P-wave (km/s) = 5.38746 6.04736 5.72692
#
# Compressibility (1/GPa) = 0.02831479
#
# Stress axis : x y z
#
# Youngs Moduli (GPa) = 98.51888 124.52570 57.43520
#
# Poissons Ratio (x) = 0.16990 0.12089
# Poissons Ratio (y) = 0.13442 0.00972
# Poissons Ratio (z) = 0.20737 0.02107
#
# Static dielectric constant tensor:
#      x y z
#    x 1.812310 0.000000 0.000000 
#    y 0.000000 1.777740 0.000000 
#    z 0.000000 0.000000 1.807720 
# 
# From -- ./inp_files/11976.got.cif
#   From: 2010.05.17/outbox.cif.g08.bks.cpg/sg36_6_cif.got.tgz:11976.got - 2010.06.03 17:41:39.
