data_PCOD9352895
_publ_section_title
;
Structure prediction by ZEFSAII (Michael W. Deem and Ramdas Pophale) SiO2 
 PCOD9352895
Probable space group: C M C 21
;
_chemical_formula_sum "Si O2"
_cell_formula_units_Z 32
_cell_length_a 12.226778
_cell_length_b 8.171863
_cell_length_c 11.279946
_cell_angle_alpha 90.000000
_cell_angle_beta 90.000000
_cell_angle_gamma 90.000000
_cell_volume 1127.042062
_symmetry_space_group_name_H-M "C M C 21"
_symmetry_group_IT_number 36
_symmetry_cell_setting 'orthorhombic'
loop_
_space_group_symop_operation_xyz
x,y,z
-x,-y,1/2+z
x,-y,1/2+z
-x,y,z
1/2+x,1/2+y,z
1/2-x,1/2-y,1/2+z
1/2+x,1/2-y,1/2+z
1/2-x,1/2+y,z
loop_
_atom_site_type_symbol
_atom_site_label
_atom_site_fract_x
_atom_site_fract_y
_atom_site_fract_z
Si Si1 0.000000 0.612821 0.380530
Si Si2 0.377235 0.688090 0.254947
Si Si3 0.130483 0.103909 0.587735
Si Si4 0.500000 0.944840 0.127677
Si Si5 0.217594 0.809636 0.450795
O O1 0.000000 0.553587 0.245333
O O2 0.110692 0.711941 0.405171
O O3 0.000000 0.489501 0.494478
O O4 0.500000 0.669684 0.306984
O O5 0.400899 0.815599 0.146589
O O6 0.301049 0.783482 0.343508
O O7 0.347181 0.511917 0.201512
O O8 0.172320 0.988796 0.479938
O O9 0.000000 0.127040 0.587143
O O10 0.202697 0.262943 0.563680
#
# Coordination Sequence:
#
# PCOD9352895 Si02
#       5
#     4   8   8   4   8
#     4  12  24  42  73 109 151 193 255 303 391 433
#     4   9  21  44  66  97 144 188 245 314 372 434
#     4  11  24  46  68 100 144 184 249 309 369 441
#     4  10  22  46  67 105 149 195 249 323 355 475
#     4  12  23  42  73 101 142 198 240 307 372 456
#
# _framework density 28.392909
#
# number of rings (size 3 to 8) (size 9 to 14) (size 15 to 20)
#    0.750    0.500    3.750    2.250    3.500    2.000 
#    2.250    0.000    0.000    0.000    0.000    0.000 
#    0.000    0.000    0.000    0.000    0.000    0.000 
#
# Total GULP energy -89559.527850 kJ/mol
# GULP energy per Si atom -5597.470491 kJ/mol
# Density = 2.832829 g / cm^3
# Si number density = 28.392909 Si / 1000 Ang^3
#
#
#
# Elastic Constant Matrix: (Units=GPa)
#
#
# Indices 1 2 3 4 5 6 
#
# 1 212.8708 40.0912 32.8894 0.0000 0.0000 0.0000
# 2 40.0912 92.5243 15.8249 0.0000 0.0000 0.0000
# 3 32.8894 15.8249 131.4658 0.0000 0.0000 0.0000
# 4 0.0000 0.0000 0.0000 51.2578 0.0000 0.0000
# 5 0.0000 0.0000 0.0000 0.0000 56.5147 0.0000
# 6 0.0000 0.0000 0.0000 0.0000 0.0000 36.9545
#
#
#
# Elastic Compliance Matrix: (Units=1/GPa)
#
#
# Indices 1 2 3 4 5 6 
#
# 1 0.005257 -0.002096 -0.001063 0.000000 0.000000 0.000000
# 2 -0.002096 0.011871 -0.000905 0.000000 0.000000 0.000000
# 3 -0.001063 -0.000905 0.007981 0.000000 0.000000 0.000000
# 4 0.000000 0.000000 0.000000 0.019509 0.000000 0.000000
# 5 0.000000 0.000000 0.000000 0.000000 0.017695 0.000000
# 6 0.000000 0.000000 0.000000 0.000000 0.000000 0.027060
#
#
# Mechanical properties :
#
#
# Convention : Reuss Voigt Hill
#
# Bulk Modulus (GPa) = 58.88517 68.27465 63.57991
# Shear Modulus (GPa) = 48.46832 52.14910 50.30871
#
# Velocity S-wave (km/s) = 4.13614 4.29032 4.21393
# Velocity P-wave (km/s) = 6.60262 6.97431 6.79101
#
# Compressibility (1/GPa) = 0.01698220
#
# Stress axis : x y z
#
# Youngs Moduli (GPa) = 190.23591 84.23983 125.29271
#
# Poissons Ratio (x) = 0.17656 0.13316
# Poissons Ratio (y) = 0.39872 0.11334
# Poissons Ratio (z) = 0.20218 0.07620
#
# Static dielectric constant tensor:
#      x y z
#    x 2.164980 0.000000 0.000000 
#    y 0.000000 2.239100 0.000000 
#    z 0.000000 0.000000 2.339560 
# 
# From -- ./inp_files/7381.got.cif
#   From: 2010.05.17/outbox.cif.g08.bks.cpg/sg36_4_cif.got.tgz:7381.got - 2010.06.03 17:41:39.
