data_PCOD9352346
_publ_section_title
;
Structure prediction by ZEFSAII (Michael W. Deem and Ramdas Pophale) SiO2 
 PCOD9352346
Probable space group: C M C 21
;
_chemical_formula_sum "Si O2"
_cell_formula_units_Z 48
_cell_length_a 8.456741
_cell_length_b 24.512844
_cell_length_c 12.139643
_cell_angle_alpha 90.000000
_cell_angle_beta 90.000000
_cell_angle_gamma 90.000000
_cell_volume 2516.533097
_symmetry_space_group_name_H-M "C M C 21"
_symmetry_group_IT_number 36
_symmetry_cell_setting 'orthorhombic'
loop_
_space_group_symop_operation_xyz
x,y,z
-x,-y,1/2+z
x,-y,1/2+z
-x,y,z
1/2+x,1/2+y,z
1/2-x,1/2-y,1/2+z
1/2+x,1/2-y,1/2+z
1/2-x,1/2+y,z
loop_
_atom_site_type_symbol
_atom_site_label
_atom_site_fract_x
_atom_site_fract_y
_atom_site_fract_z
Si Si1 0.687930 0.142856 0.467060
Si Si2 0.814225 0.791172 0.170666
Si Si3 0.692173 0.958763 0.111383
Si Si4 0.814075 0.173444 0.229535
Si Si5 0.691934 0.918237 0.564259
Si Si6 0.691301 0.113876 0.816806
O O1 0.500000 0.140728 0.446896
O O2 0.723439 0.186194 0.563539
O O3 0.739965 0.084426 0.517311
O O4 0.773229 0.158280 0.354953
O O5 0.773658 0.728967 0.195969
O O6 0.761957 0.829764 0.271940
O O7 0.000000 0.797684 0.151361
O O8 0.500000 0.959497 0.110220
O O9 0.739032 0.932626 0.228479
O O10 0.745577 0.020177 0.090830
O O11 0.758713 0.124540 0.151060
O O12 0.000000 0.182455 0.217593
O O13 0.500000 0.917182 0.570066
O O14 0.737518 0.901320 0.440310
O O15 0.500000 0.118167 0.812815
#
# Coordination Sequence:
#
# PCOD9352346 Si02
#       6
#     8   8   8   8   8   8
#     4  10  21  41  67  92 119 155 201 250 302 360
#     4  11  23  41  64  88 119 160 202 248 304 361
#     4   8  17  35  63  92 118 154 199 247 296 357
#     4  12  26  41  59  88 125 161 202 250 301 357
#     4  10  21  37  62  92 122 158 204 249 295 351
#     4   9  19  37  61  90 123 158 202 250 296 352
#
# _framework density 19.073858999999999
#
# number of rings (size 3 to 8) (size 9 to 14) (size 15 to 20)
#    0.000    2.000    0.000    4.500    4.667    0.667 
#    0.000    4.167    0.000    0.000    0.000    0.000 
#    0.000    0.000    0.000    0.000    0.000    0.000 
#
# Total GULP energy -134082.907370 kJ/mol
# GULP energy per Si atom -5586.787807 kJ/mol
# Density = 1.903045 g / cm^3
# Si number density = 19.073859 Si / 1000 Ang^3
#
#
#
# Elastic Constant Matrix: (Units=GPa)
#
#
# Indices 1 2 3 4 5 6 
#
# 1 21.6038 -8.2189 -10.4429 0.0000 0.0000 0.0000
# 2 -8.2189 130.9242 42.4732 0.0000 0.0000 0.0000
# 3 -10.4429 42.4732 76.9079 0.0000 0.0000 0.0000
# 4 0.0000 0.0000 0.0000 11.9874 0.0000 0.0000
# 5 0.0000 0.0000 0.0000 0.0000 26.8938 0.0000
# 6 0.0000 0.0000 0.0000 0.0000 0.0000 25.6287
#
#
#
# Elastic Compliance Matrix: (Units=1/GPa)
#
#
# Indices 1 2 3 4 5 6 
#
# 1 0.049677 0.001133 0.006120 0.000000 0.000000 0.000000
# 2 0.001133 0.009331 -0.004999 0.000000 0.000000 0.000000
# 3 0.006120 -0.004999 0.016594 0.000000 0.000000 0.000000
# 4 0.000000 0.000000 0.000000 0.083421 0.000000 0.000000
# 5 0.000000 0.000000 0.000000 0.000000 0.037183 0.000000
# 6 0.000000 0.000000 0.000000 0.000000 0.000000 0.039019
#
#
# Mechanical properties :
#
#
# Convention : Reuss Voigt Hill
#
# Bulk Modulus (GPa) = 12.48285 30.78430 21.63358
# Shear Modulus (GPa) = 19.42337 26.61029 23.01683
#
# Velocity S-wave (km/s) = 3.19458 3.73918 3.47756
# Velocity P-wave (km/s) = 4.49064 5.90055 5.24320
#
# Compressibility (1/GPa) = 0.08010989
#
# Stress axis : x y z
#
# Youngs Moduli (GPa) = 20.12990 107.17015 60.26137
#
# Poissons Ratio (x) = -0.12146 -0.36877
# Poissons Ratio (y) = -0.02281 0.30126
# Poissons Ratio (z) = -0.12319 0.53577
#
# Static dielectric constant tensor:
#      x y z
#    x 1.653480 0.000000 0.000000 
#    y 0.000000 1.639770 0.000000 
#    z 0.000000 0.000000 1.632160 
# 
# From -- ./inp_files/6755.got.cif
#   From: 2010.05.17/outbox.cif.g08.bks.cpg/sg36_4_cif.got.tgz:6755.got - 2010.06.03 17:41:39.
