data_PCOD9352977
_publ_section_title
;
Structure prediction by ZEFSAII (Michael W. Deem and Ramdas Pophale) SiO2 
 PCOD9352977
Probable space group: C M C 21
;
_chemical_formula_sum "Si O2"
_cell_formula_units_Z 32
_cell_length_a 16.704348
_cell_length_b 8.983603
_cell_length_c 7.353804
_cell_angle_alpha 90.000000
_cell_angle_beta 90.000000
_cell_angle_gamma 90.000000
_cell_volume 1103.550295
_symmetry_space_group_name_H-M "C M C 21"
_symmetry_group_IT_number 36
_symmetry_cell_setting 'orthorhombic'
loop_
_space_group_symop_operation_xyz
x,y,z
-x,-y,1/2+z
x,-y,1/2+z
-x,y,z
1/2+x,1/2+y,z
1/2-x,1/2-y,1/2+z
1/2+x,1/2-y,1/2+z
1/2-x,1/2+y,z
loop_
_atom_site_type_symbol
_atom_site_label
_atom_site_fract_x
_atom_site_fract_y
_atom_site_fract_z
Si Si1 0.590031 0.307387 0.895020
Si Si2 0.823210 0.310694 0.817753
Si Si3 0.677852 0.552394 0.084071
Si Si4 0.590224 0.039306 0.638818
O O1 0.500000 0.333773 0.958564
O O2 0.601766 0.392770 0.700611
O O3 0.599215 0.138593 0.823126
O O4 0.656989 0.383795 0.023499
O O5 0.750585 0.382552 0.705235
O O6 0.898062 0.368578 0.698347
O O7 0.815270 0.144802 0.893746
O O8 0.841412 0.397605 0.007301
O O9 0.500000 0.066462 0.572431
#
# Coordination Sequence:
#
# PCOD9352977 Si02
#       4
#     8   8   8   8
#     4  10  23  44  71 104 142 186 238 295 357 425
#     4  11  25  45  71 106 147 190 237 292 357 429
#     4  11  25  45  70 104 146 191 238 291 355 428
#     4  10  23  46  76 108 141 183 239 300 361 424
#
# _framework density 28.997322
#
# number of rings (size 3 to 8) (size 9 to 14) (size 15 to 20)
#    0.000    1.500    0.000    3.000    0.000   15.000 
#    0.000    7.500    0.000    4.500    0.000    0.000 
#    0.000    0.000    0.000    0.000    0.000    0.000 
#
# Total GULP energy -89574.399526 kJ/mol
# GULP energy per Si atom -5598.399970 kJ/mol
# Density = 2.893132 g / cm^3
# Si number density = 28.997322 Si / 1000 Ang^3
#
#
#
# Elastic Constant Matrix: (Units=GPa)
#
#
# Indices 1 2 3 4 5 6 
#
# 1 194.9199 62.4182 74.5759 0.0000 0.0000 0.0000
# 2 62.4182 197.5509 8.9741 0.0000 0.0000 0.0000
# 3 74.5759 8.9741 148.2848 0.0000 0.0000 0.0000
# 4 0.0000 0.0000 0.0000 57.0531 0.0000 0.0000
# 5 0.0000 0.0000 0.0000 0.0000 78.6266 0.0000
# 6 0.0000 0.0000 0.0000 0.0000 0.0000 32.5290
#
#
#
# Elastic Compliance Matrix: (Units=1/GPa)
#
#
# Indices 1 2 3 4 5 6 
#
# 1 0.007123 -0.002094 -0.003456 0.000000 0.000000 0.000000
# 2 -0.002094 0.005691 0.000708 0.000000 0.000000 0.000000
# 3 -0.003456 0.000708 0.008439 0.000000 0.000000 0.000000
# 4 0.000000 0.000000 0.000000 0.017528 0.000000 0.000000
# 5 0.000000 0.000000 0.000000 0.000000 0.012718 0.000000
# 6 0.000000 0.000000 0.000000 0.000000 0.000000 0.030742
#
#
# Mechanical properties :
#
#
# Convention : Reuss Voigt Hill
#
# Bulk Modulus (GPa) = 86.41825 92.52133 89.46979
# Shear Modulus (GPa) = 52.20354 59.96089 56.08222
#
# Velocity S-wave (km/s) = 4.24758 4.55225 4.40255
# Velocity P-wave (km/s) = 7.34321 7.72054 7.53424
#
# Compressibility (1/GPa) = 0.01157163
#
# Stress axis : x y z
#
# Youngs Moduli (GPa) = 140.39443 175.70746 118.50074
#
# Poissons Ratio (x) = 0.36785 0.40948
# Poissons Ratio (y) = 0.29392 -0.08395
# Poissons Ratio (z) = 0.48514 -0.12448
#
# Static dielectric constant tensor:
#      x y z
#    x 2.108410 0.000000 0.000000 
#    y 0.000000 2.378930 0.000000 
#    z 0.000000 0.000000 2.429400 
# 
# From -- ./inp_files/4498.got.cif
#   From: 2010.05.17/outbox.cif.g08.bks.cpg/sg36_3_cif.got.tgz:4498.got - 2010.06.03 17:41:39.
