data_PCOD9352229
_publ_section_title
;
Structure prediction by ZEFSAII (Michael W. Deem and Ramdas Pophale) SiO2 
 PCOD9352229
Probable space group: C M C 21
;
_chemical_formula_sum "Si O2"
_cell_formula_units_Z 32
_cell_length_a 14.396058
_cell_length_b 16.856228
_cell_length_c 5.155423
_cell_angle_alpha 90.000000
_cell_angle_beta 90.000000
_cell_angle_gamma 90.000000
_cell_volume 1251.031628
_symmetry_space_group_name_H-M "C M C 21"
_symmetry_group_IT_number 36
_symmetry_cell_setting 'orthorhombic'
loop_
_space_group_symop_operation_xyz
x,y,z
-x,-y,1/2+z
x,-y,1/2+z
-x,y,z
1/2+x,1/2+y,z
1/2-x,1/2-y,1/2+z
1/2+x,1/2-y,1/2+z
1/2-x,1/2+y,z
loop_
_atom_site_type_symbol
_atom_site_label
_atom_site_fract_x
_atom_site_fract_y
_atom_site_fract_z
Si Si1 0.292584 0.295328 0.714190
Si Si2 0.131817 0.459948 0.994087
Si Si3 0.330928 0.527776 0.060250
Si Si4 0.000000 0.234685 0.400670
Si Si5 0.000000 0.328114 0.904889
O O1 0.263986 0.237647 0.469407
O O2 0.288597 0.384256 0.591653
O O3 0.400113 0.299540 0.816218
O O4 0.100587 0.473948 0.287267
O O5 0.241891 0.468866 0.018717
O O6 0.090656 0.381693 0.867766
O O7 0.384495 0.489233 0.297732
O O8 0.000000 0.256663 0.703406
O O9 0.000000 0.309552 0.207719
#
# Coordination Sequence:
#
# PCOD9352229 Si02
#       5
#     8   8   8   4   4
#     4  12  28  50  77 109 159 211 256 325 397 471
#     4  10  21  35  61  98 144 184 241 289 386 452
#     4  10  23  42  72 103 140 195 259 311 374 455
#     4  12  30  45  74 111 156 199 265 298 406 471
#     4  12  24  41  66 107 156 191 233 330 380 499
#
# _framework density 25.578892
#
# number of rings (size 3 to 8) (size 9 to 14) (size 15 to 20)
#    0.000    1.000    0.000    5.250   21.000    0.000 
#    0.000    1.250    0.000    0.000    0.000    0.000 
#    0.000    0.000    0.000    0.000    0.000    0.000 
#
# Total GULP energy -89108.239814 kJ/mol
# GULP energy per Si atom -5569.264988 kJ/mol
# Density = 2.552067 g / cm^3
# Si number density = 25.578892 Si / 1000 Ang^3
#
#
#
# Elastic Constant Matrix: (Units=GPa)
#
#
# Indices 1 2 3 4 5 6 
#
# 1 113.1542 7.7675 5.7001 0.0000 0.0000 0.0000
# 2 7.7675 86.7776 26.9682 0.0000 0.0000 0.0000
# 3 5.7001 26.9682 193.9280 0.0000 0.0000 0.0000
# 4 0.0000 0.0000 0.0000 37.1311 0.0000 0.0000
# 5 0.0000 0.0000 0.0000 0.0000 30.1507 0.0000
# 6 0.0000 0.0000 0.0000 0.0000 0.0000 19.9733
#
#
#
# Elastic Compliance Matrix: (Units=1/GPa)
#
#
# Indices 1 2 3 4 5 6 
#
# 1 0.008897 -0.000747 -0.000158 0.000000 0.000000 0.000000
# 2 -0.000747 0.012107 -0.001662 0.000000 0.000000 0.000000
# 3 -0.000158 -0.001662 0.005392 0.000000 0.000000 0.000000
# 4 0.000000 0.000000 0.000000 0.026932 0.000000 0.000000
# 5 0.000000 0.000000 0.000000 0.000000 0.033167 0.000000
# 6 0.000000 0.000000 0.000000 0.000000 0.000000 0.050067
#
#
# Mechanical properties :
#
#
# Convention : Reuss Voigt Hill
#
# Bulk Modulus (GPa) = 47.03056 52.74795 49.88926
# Shear Modulus (GPa) = 33.60618 41.01260 37.30939
#
# Velocity S-wave (km/s) = 3.62860 4.00856 3.82331
# Velocity P-wave (km/s) = 5.99851 6.48777 6.24793
#
# Compressibility (1/GPa) = 0.02126277
#
# Stress axis : x y z
#
# Youngs Moduli (GPa) = 112.40072 82.59676 185.45096
#
# Poissons Ratio (x) = 0.06173 0.02922
# Poissons Ratio (y) = 0.08401 0.30816
# Poissons Ratio (z) = 0.01771 0.13725
#
# Static dielectric constant tensor:
#      x y z
#    x 2.210090 0.000000 0.000000 
#    y 0.000000 2.030570 0.000000 
#    z 0.000000 0.000000 2.225350 
# 
# From -- ./inp_files/637.got.cif
#   From: 2010.05.17/outbox.cif.g08.bks.cpg/sg36_1_cif.got.tgz:637.got - 2010.06.03 17:41:39.
