data_PCOD9352173
_publ_section_title
;
Structure prediction by ZEFSAII (Michael W. Deem and Ramdas Pophale) SiO2 
 PCOD9352173
Probable space group: C M C 21
;
_chemical_formula_sum "Si O2"
_cell_formula_units_Z 64
_cell_length_a 13.150393
_cell_length_b 9.413302
_cell_length_c 26.829112
_cell_angle_alpha 90.000000
_cell_angle_beta 90.000000
_cell_angle_gamma 90.000000
_cell_volume 3321.138770
_symmetry_space_group_name_H-M "C M C 21"
_symmetry_group_IT_number 36
_symmetry_cell_setting 'orthorhombic'
loop_
_space_group_symop_operation_xyz
x,y,z
-x,-y,1/2+z
x,-y,1/2+z
-x,y,z
1/2+x,1/2+y,z
1/2-x,1/2-y,1/2+z
1/2+x,1/2-y,1/2+z
1/2-x,1/2+y,z
loop_
_atom_site_type_symbol
_atom_site_label
_atom_site_fract_x
_atom_site_fract_y
_atom_site_fract_z
Si Si1 0.880153 0.799684 0.515600
Si Si2 0.876760 0.732926 0.235901
Si Si3 0.882468 0.547133 0.328450
Si Si4 0.383854 0.739628 0.362342
Si Si5 0.378432 0.549633 0.813462
Si Si6 0.750207 0.049100 0.566654
Si Si7 0.186448 0.751935 0.405578
Si Si8 0.124701 0.701011 0.121110
O O1 0.823017 0.659003 0.536842
O O2 0.868403 0.789905 0.455930
O O3 0.000000 0.802535 0.529069
O O4 0.820786 0.940501 0.534708
O O5 0.845841 0.616199 0.277087
O O6 0.842981 0.880246 0.262010
O O7 0.845448 0.706711 0.179610
O O8 0.000000 0.733493 0.233782
O O9 0.875703 0.379262 0.328938
O O10 0.839863 0.600583 0.381306
O O11 0.000000 0.590066 0.331127
O O12 0.500000 0.720529 0.378130
O O13 0.350802 0.608971 0.327970
O O14 0.308301 0.754172 0.408709
O O15 0.500000 0.553469 0.811849
O O16 0.344276 0.644681 0.860209
O O17 0.825296 0.157005 0.596656
O O18 0.677661 0.940042 0.597722
O O19 0.000000 0.698891 0.115875
#
# Coordination Sequence:
#
# PCOD9352173 Si02
#       8
#     8   8   8   8   8   8   8   8
#     4  11  24  43  66  92 124 162 205 257 311 368
#     4   8  16  34  61  84 113 159 198 231 301 368
#     4   9  18  35  55  82 117 153 192 240 290 353
#     4  10  21  34  51  79 124 160 194 246 288 340
#     4   9  18  35  55  82 117 153 192 240 290 353
#     4  10  24  42  64  96 122 154 214 256 314 372
#     4  11  21  36  55  82 114 159 199 235 296 365
#     4  10  20  43  68  89 125 162 199 261 315 361
#
# _framework density 19.270499000000001
#
# number of rings (size 3 to 8) (size 9 to 14) (size 15 to 20)
#    0.000    2.250    0.000    3.375    3.500    0.000 
#    9.000    3.750    0.000    4.500    0.000    0.000 
#    0.000    0.000    0.000    0.000    0.000    0.000 
#
# Total GULP energy -178276.381782 kJ/mol
# GULP energy per Si atom -5571.136931 kJ/mol
# Density = 1.922664 g / cm^3
# Si number density = 19.270499 Si / 1000 Ang^3
#
#
#
# Elastic Constant Matrix: (Units=GPa)
#
#
# Indices 1 2 3 4 5 6 
#
# 1 113.0515 15.8234 30.2834 0.0000 0.0000 0.0000
# 2 15.8234 86.1443 12.0485 0.0000 0.0000 0.0000
# 3 30.2834 12.0485 81.9650 0.0000 0.0000 0.0000
# 4 0.0000 0.0000 0.0000 12.3934 0.0000 0.0000
# 5 0.0000 0.0000 0.0000 0.0000 25.4717 0.0000
# 6 0.0000 0.0000 0.0000 0.0000 0.0000 15.7980
#
#
#
# Elastic Compliance Matrix: (Units=1/GPa)
#
#
# Indices 1 2 3 4 5 6 
#
# 1 0.009967 -0.001343 -0.003485 0.000000 0.000000 0.000000
# 2 -0.001343 0.012033 -0.001272 0.000000 0.000000 0.000000
# 3 -0.003485 -0.001272 0.013675 0.000000 0.000000 0.000000
# 4 0.000000 0.000000 0.000000 0.080688 0.000000 0.000000
# 5 0.000000 0.000000 0.000000 0.000000 0.039259 0.000000
# 6 0.000000 0.000000 0.000000 0.000000 0.000000 0.063299
#
#
# Mechanical properties :
#
#
# Convention : Reuss Voigt Hill
#
# Bulk Modulus (GPa) = 42.60136 44.16350 43.38243
# Shear Modulus (GPa) = 20.92502 25.59964 23.26233
#
# Velocity S-wave (km/s) = 3.29881 3.64873 3.47817
# Velocity P-wave (km/s) = 6.05513 6.38109 6.22025
#
# Compressibility (1/GPa) = 0.02347343
#
# Stress axis : x y z
#
# Youngs Moduli (GPa) = 100.33006 83.10363 73.12615
#
# Poissons Ratio (x) = 0.11164 0.25485
# Poissons Ratio (y) = 0.13478 0.09305
# Poissons Ratio (z) = 0.34966 0.10575
#
# Static dielectric constant tensor:
#      x y z
#    x 1.746700 0.000000 0.000000 
#    y 0.000000 1.710090 0.000000 
#    z 0.000000 0.000000 1.632290 
# 
# From -- ./inp_files/16979.got.cif
#   From: 2010.05.17/outbox.cif.g08.bks.cpg/sg36_9_cif.got.tgz:16979.got - 2010.06.03 17:41:39.
