data_PCOD9352365
_publ_section_title
;
Structure prediction by ZEFSAII (Michael W. Deem and Ramdas Pophale) SiO2 
 PCOD9352365
Probable space group: C M C 21
;
_chemical_formula_sum "Si O2"
_cell_formula_units_Z 64
_cell_length_a 14.035258
_cell_length_b 13.691842
_cell_length_c 18.510952
_cell_angle_alpha 90.000000
_cell_angle_beta 90.000000
_cell_angle_gamma 90.000000
_cell_volume 3557.222527
_symmetry_space_group_name_H-M "C M C 21"
_symmetry_group_IT_number 36
_symmetry_cell_setting 'orthorhombic'
loop_
_space_group_symop_operation_xyz
x,y,z
-x,-y,1/2+z
x,-y,1/2+z
-x,y,z
1/2+x,1/2+y,z
1/2-x,1/2-y,1/2+z
1/2+x,1/2-y,1/2+z
1/2-x,1/2+y,z
loop_
_atom_site_type_symbol
_atom_site_label
_atom_site_fract_x
_atom_site_fract_y
_atom_site_fract_z
Si Si1 0.219727 0.927231 0.868540
Si Si2 0.888918 0.532463 0.120612
Si Si3 0.776714 0.731731 0.121200
Si Si4 0.608860 0.373771 0.368308
Si Si5 0.111084 0.532518 0.787611
Si Si6 0.223314 0.731770 0.787033
Si Si7 0.891142 0.873814 0.539958
Si Si8 0.719724 0.572811 0.539674
O O1 0.190575 0.830812 0.825412
O O2 0.145611 0.015692 0.856804
O O3 0.320090 0.966304 0.836764
O O4 0.226887 0.908584 0.954105
O O5 0.851859 0.643599 0.114489
O O6 0.877060 0.499973 0.204111
O O7 0.820086 0.466254 0.071459
O O8 0.000000 0.523704 0.101502
O O9 0.750041 0.750002 0.204119
O O10 0.681013 0.696158 0.081122
O O11 0.809429 0.830752 0.082781
O O12 0.500000 0.362033 0.344975
O O13 0.681014 0.303783 0.327159
O O14 0.614832 0.354942 0.454136
O O15 0.148156 0.643649 0.793736
O O16 0.000000 0.523769 0.806720
O O17 0.000000 0.862083 0.563295
O O18 0.854394 0.984357 0.551432
#
# Coordination Sequence:
#
# PCOD9352365 Si02
#       8
#     8   8   8   8   8   8   8   8
#     4  10  21  38  59  83 114 151 188 236 290 340
#     4  10  21  38  58  83 117 153 191 235 285 344
#     4  11  21  35  58  84 116 151 192 238 286 337
#     4   9  20  38  58  82 114 150 189 235 286 342
#     4  10  21  38  58  83 117 153 191 235 285 344
#     4  11  21  35  58  84 116 151 192 238 286 337
#     4   9  20  38  58  82 114 150 189 235 286 342
#     4  10  21  38  59  83 114 151 188 236 290 340
#
# _framework density 17.991565000000001
#
# number of rings (size 3 to 8) (size 9 to 14) (size 15 to 20)
#    0.000    2.000    2.500    0.750    0.000    4.500 
#    0.000    1.250    0.000    0.000    0.000    0.000 
#    0.000    0.000    0.000    0.000    0.000    0.000 
#
# Total GULP energy -178680.847339 kJ/mol
# GULP energy per Si atom -5583.776479 kJ/mol
# Density = 1.795062 g / cm^3
# Si number density = 17.991565 Si / 1000 Ang^3
#
#
#
# Elastic Constant Matrix: (Units=GPa)
#
#
# Indices 1 2 3 4 5 6 
#
# 1 62.3395 -20.8546 -10.5748 0.0000 0.0000 0.0000
# 2 -20.8546 50.1688 3.5552 0.0000 0.0000 0.0000
# 3 -10.5748 3.5552 35.6325 0.0000 0.0000 0.0000
# 4 0.0000 0.0000 0.0000 38.1077 0.0000 0.0000
# 5 0.0000 0.0000 0.0000 0.0000 19.6281 0.0000
# 6 0.0000 0.0000 0.0000 0.0000 0.0000 4.7988
#
#
#
# Elastic Compliance Matrix: (Units=1/GPa)
#
#
# Indices 1 2 3 4 5 6 
#
# 1 0.019481 0.007743 0.005009 0.000000 0.000000 0.000000
# 2 0.007743 0.023152 -0.000012 0.000000 0.000000 0.000000
# 3 0.005009 -0.000012 0.029552 0.000000 0.000000 0.000000
# 4 0.000000 0.000000 0.000000 0.026241 0.000000 0.000000
# 5 0.000000 0.000000 0.000000 0.000000 0.050947 0.000000
# 6 0.000000 0.000000 0.000000 0.000000 0.000000 0.208385
#
#
# Mechanical properties :
#
#
# Convention : Reuss Voigt Hill
#
# Bulk Modulus (GPa) = 10.23900 10.26581 10.25241
# Shear Modulus (GPa) = 13.70487 24.24126 18.97307
#
# Velocity S-wave (km/s) = 2.76296 3.67463 3.25091
# Velocity P-wave (km/s) = 3.98521 4.87054 4.44995
#
# Compressibility (1/GPa) = 0.09766576
#
# Stress axis : x y z
#
# Youngs Moduli (GPa) = 51.33151 43.19226 33.83863
#
# Poissons Ratio (x) = -0.33444 -0.16950
# Poissons Ratio (y) = -0.39747 0.00041
# Poissons Ratio (z) = -0.25712 0.00052
#
# Static dielectric constant tensor:
#      x y z
#    x 1.585170 0.000000 0.000000 
#    y 0.000000 1.610230 0.000000 
#    z 0.000000 0.000000 1.590900 
# 
# From -- ./inp_files/14707.got.cif
#   From: 2010.05.17/outbox.cif.g08.bks.cpg/sg36_8_cif.got.tgz:14707.got - 2010.06.03 17:41:39.
