data_PCOD9352857
_publ_section_title
;
Structure prediction by ZEFSAII (Michael W. Deem and Ramdas Pophale) SiO2 
 PCOD9352857
Probable space group: C M C 21
;
_chemical_formula_sum "Si O2"
_cell_formula_units_Z 48
_cell_length_a 8.717582
_cell_length_b 24.249376
_cell_length_c 12.031478
_cell_angle_alpha 90.000000
_cell_angle_beta 90.000000
_cell_angle_gamma 90.000000
_cell_volume 2543.405406
_symmetry_space_group_name_H-M "C M C 21"
_symmetry_group_IT_number 36
_symmetry_cell_setting 'orthorhombic'
loop_
_space_group_symop_operation_xyz
x,y,z
-x,-y,1/2+z
x,-y,1/2+z
-x,y,z
1/2+x,1/2+y,z
1/2-x,1/2-y,1/2+z
1/2+x,1/2-y,1/2+z
1/2-x,1/2+y,z
loop_
_atom_site_type_symbol
_atom_site_label
_atom_site_fract_x
_atom_site_fract_y
_atom_site_fract_z
Si Si1 0.183612 0.037303 0.435620
Si Si2 0.318518 0.917001 0.479162
Si Si3 0.816502 0.360640 0.068355
Si Si4 0.316941 0.329518 0.307694
Si Si5 0.318123 0.607123 0.216616
Si Si6 0.183634 0.789107 0.870792
O O1 0.251070 0.081583 0.522164
O O2 0.213507 0.062298 0.312990
O O3 0.000000 0.034173 0.449964
O O4 0.258212 0.978073 0.451887
O O5 0.500000 0.913727 0.461369
O O6 0.234744 0.873410 0.399924
O O7 0.276956 0.903429 0.606427
O O8 0.752345 0.347583 0.189668
O O9 0.000000 0.362013 0.069463
O O10 0.758012 0.314447 0.981651
O O11 0.500000 0.327412 0.300632
O O12 0.251486 0.269820 0.340570
O O13 0.500000 0.604418 0.190371
O O14 0.286753 0.666337 0.273083
O O15 0.000000 0.785976 0.885532
#
# Coordination Sequence:
#
# PCOD9352857 Si02
#       6
#     8   8   8   8   8   8
#     4  10  22  43  68  93 126 168 213 259 315 377
#     4  12  26  41  63  95 131 166 212 265 315 374
#     4  11  23  42  67  96 129 166 211 261 318 378
#     4  12  26  43  65  93 129 170 214 263 316 373
#     4   9  21  42  67  92 124 165 209 258 318 378
#     4  10  22  43  68  95 127 165 213 262 316 378
#
# _framework density 18.872335
#
# number of rings (size 3 to 8) (size 9 to 14) (size 15 to 20)
#    0.000    1.333    0.000    6.500    4.667    4.000 
#    0.000    0.000    0.000    0.000    0.000    0.000 
#    0.000    0.000    0.000    0.000    0.000    0.000 
#
# Total GULP energy -134269.633067 kJ/mol
# GULP energy per Si atom -5594.568044 kJ/mol
# Density = 1.882938 g / cm^3
# Si number density = 18.872335 Si / 1000 Ang^3
#
#
#
# Elastic Constant Matrix: (Units=GPa)
#
#
# Indices 1 2 3 4 5 6 
#
# 1 101.7566 31.1832 40.4838 0.0000 0.0000 0.0000
# 2 31.1832 102.5384 45.0388 0.0000 0.0000 0.0000
# 3 40.4838 45.0388 84.4029 0.0000 0.0000 0.0000
# 4 0.0000 0.0000 0.0000 8.9164 0.0000 0.0000
# 5 0.0000 0.0000 0.0000 0.0000 24.5307 0.0000
# 6 0.0000 0.0000 0.0000 0.0000 0.0000 35.8216
#
#
#
# Elastic Compliance Matrix: (Units=1/GPa)
#
#
# Indices 1 2 3 4 5 6 
#
# 1 0.012320 -0.001503 -0.005107 0.000000 0.000000 0.000000
# 2 -0.001503 0.012922 -0.006174 0.000000 0.000000 0.000000
# 3 -0.005107 -0.006174 0.017592 0.000000 0.000000 0.000000
# 4 0.000000 0.000000 0.000000 0.112153 0.000000 0.000000
# 5 0.000000 0.000000 0.000000 0.000000 0.040765 0.000000
# 6 0.000000 0.000000 0.000000 0.000000 0.000000 0.027916
#
#
# Mechanical properties :
#
#
# Convention : Reuss Voigt Hill
#
# Bulk Modulus (GPa) = 57.92197 58.01217 57.96707
# Shear Modulus (GPa) = 19.60847 25.31988 22.46418
#
# Velocity S-wave (km/s) = 3.22686 3.66681 3.45385
# Velocity P-wave (km/s) = 6.68144 6.98093 6.83282
#
# Compressibility (1/GPa) = 0.01726461
#
# Stress axis : x y z
#
# Youngs Moduli (GPa) = 81.16936 77.39026 56.84387
#
# Poissons Ratio (x) = 0.11635 0.29030
# Poissons Ratio (y) = 0.12204 0.35095
# Poissons Ratio (z) = 0.41453 0.47781
#
# Static dielectric constant tensor:
#      x y z
#    x 1.629890 0.000000 0.000000 
#    y 0.000000 1.622420 0.000000 
#    z 0.000000 0.000000 1.623460 
# 
# From -- ./inp_files/6749.got.cif
#   From: 2010.05.17/outbox.cif.g08.bks.cpg/sg36_4_cif.got.tgz:6749.got - 2010.06.03 17:41:39.
