data_PCOD9352059
_publ_section_title
;
Structure prediction by ZEFSAII (Michael W. Deem and Ramdas Pophale) SiO2 
 PCOD9352059
Probable space group: C M C 21
;
_chemical_formula_sum "Si O2"
_cell_formula_units_Z 64
_cell_length_a 13.921971
_cell_length_b 11.952913
_cell_length_c 15.606885
_cell_angle_alpha 90.000000
_cell_angle_beta 90.000000
_cell_angle_gamma 90.000000
_cell_volume 2597.112207
_symmetry_space_group_name_H-M "C M C 21"
_symmetry_group_IT_number 36
_symmetry_cell_setting 'orthorhombic'
loop_
_space_group_symop_operation_xyz
x,y,z
-x,-y,1/2+z
x,-y,1/2+z
-x,y,z
1/2+x,1/2+y,z
1/2-x,1/2-y,1/2+z
1/2+x,1/2-y,1/2+z
1/2-x,1/2+y,z
loop_
_atom_site_type_symbol
_atom_site_label
_atom_site_fract_x
_atom_site_fract_y
_atom_site_fract_z
Si Si1 0.884425 0.716755 0.588210
Si Si2 0.393890 0.636669 0.757186
Si Si3 0.815045 0.389392 0.265164
Si Si4 0.104708 0.797646 0.879493
Si Si5 0.610520 0.107433 0.001849
Si Si6 0.889065 0.392094 0.695325
Si Si7 0.262232 0.918975 0.956435
Si Si8 0.108672 0.016642 0.088816
O O1 0.829594 0.657031 0.667210
O O2 0.832065 0.671949 0.502101
O O3 0.875105 0.850486 0.597791
O O4 0.000000 0.691077 0.588670
O O5 0.500000 0.624327 0.798750
O O6 0.292089 0.624430 0.803005
O O7 0.388312 0.763447 0.722143
O O8 0.388308 0.547518 0.679549
O O9 0.885283 0.305965 0.315200
O O10 0.839255 0.519188 0.255779
O O11 0.111142 0.734776 0.971097
O O12 0.198264 0.873463 0.878588
O O13 0.000000 0.850761 0.867678
O O14 0.500000 0.071120 0.999446
O O15 0.671012 0.026208 0.942356
O O16 0.647772 0.098702 0.098304
O O17 0.000000 0.427323 0.693055
O O18 0.183120 0.961698 0.024399
O O19 0.000000 0.001664 0.055190
#
# Coordination Sequence:
#
# PCOD9352059 Si02
#       8
#     8   8   8   8   8   8   8   8
#     4  11  23  39  65  97 129 165 215 268 318 378
#     4  10  22  38  60  93 128 165 212 263 318 379
#     4  12  24  40  68  95 131 168 217 267 335 385
#     4  11  26  44  62  92 132 172 212 266 333 400
#     4  10  21  38  63  93 125 165 215 267 321 382
#     4  10  20  38  67  98 127 165 219 275 317 377
#     4  12  21  38  64  94 122 169 216 264 313 382
#     4  10  21  37  59  92 128 161 202 258 315 375
#
# _framework density 24.642755000000001
#
# number of rings (size 3 to 8) (size 9 to 14) (size 15 to 20)
#    0.000    1.250    2.500    3.375    3.500    3.000 
#    0.000    2.500    0.000    0.750    0.000    0.000 
#    0.000    0.000    0.000    0.000    0.000    0.000 
#
# Total GULP energy -179090.412194 kJ/mol
# GULP energy per Si atom -5596.575381 kJ/mol
# Density = 2.458667 g / cm^3
# Si number density = 24.642755 Si / 1000 Ang^3
#
#
#
# Elastic Constant Matrix: (Units=GPa)
#
#
# Indices 1 2 3 4 5 6 
#
# 1 169.5029 49.6186 16.1856 0.0000 0.0000 0.0000
# 2 49.6186 137.1936 14.5929 0.0000 0.0000 0.0000
# 3 16.1856 14.5929 40.4555 0.0000 0.0000 0.0000
# 4 0.0000 0.0000 0.0000 30.9128 0.0000 0.0000
# 5 0.0000 0.0000 0.0000 0.0000 22.8178 0.0000
# 6 0.0000 0.0000 0.0000 0.0000 0.0000 38.3145
#
#
#
# Elastic Compliance Matrix: (Units=1/GPa)
#
#
# Indices 1 2 3 4 5 6 
#
# 1 0.006734 -0.002235 -0.001888 0.000000 0.000000 0.000000
# 2 -0.002235 0.008321 -0.002108 0.000000 0.000000 0.000000
# 3 -0.001888 -0.002108 0.026234 0.000000 0.000000 0.000000
# 4 0.000000 0.000000 0.000000 0.032349 0.000000 0.000000
# 5 0.000000 0.000000 0.000000 0.000000 0.043825 0.000000
# 6 0.000000 0.000000 0.000000 0.000000 0.000000 0.026100
#
#
# Mechanical properties :
#
#
# Convention : Reuss Voigt Hill
#
# Bulk Modulus (GPa) = 34.68745 56.43847 45.56296
# Shear Modulus (GPa) = 30.18700 36.19267 33.18984
#
# Velocity S-wave (km/s) = 3.50378 3.83651 3.67391
# Velocity P-wave (km/s) = 5.52044 6.52514 6.04371
#
# Compressibility (1/GPa) = 0.02882887
#
# Stress axis : x y z
#
# Youngs Moduli (GPa) = 148.49904 120.17273 38.11820
#
# Poissons Ratio (x) = 0.26855 0.07197
# Poissons Ratio (y) = 0.33185 0.08034
# Poissons Ratio (z) = 0.28038 0.25327
#
# Static dielectric constant tensor:
#      x y z
#    x 1.964260 0.000000 0.000000 
#    y 0.000000 1.935230 0.000000 
#    z 0.000000 0.000000 1.986880 
# 
# From -- ./inp_files/14725.got.cif
#   From: 2010.05.17/outbox.cif.g08.bks.cpg/sg36_8_cif.got.tgz:14725.got - 2010.06.03 17:41:39.
