data_PCOD9352697
_publ_section_title
;
Structure prediction by ZEFSAII (Michael W. Deem and Ramdas Pophale) SiO2 
 PCOD9352697
Probable space group: C M C 21
;
_chemical_formula_sum "Si O2"
_cell_formula_units_Z 48
_cell_length_a 8.971003
_cell_length_b 15.113723
_cell_length_c 18.740230
_cell_angle_alpha 90.000000
_cell_angle_beta 90.000000
_cell_angle_gamma 90.000000
_cell_volume 2540.898852
_symmetry_space_group_name_H-M "C M C 21"
_symmetry_group_IT_number 36
_symmetry_cell_setting 'orthorhombic'
loop_
_space_group_symop_operation_xyz
x,y,z
-x,-y,1/2+z
x,-y,1/2+z
-x,y,z
1/2+x,1/2+y,z
1/2-x,1/2-y,1/2+z
1/2+x,1/2-y,1/2+z
1/2-x,1/2+y,z
loop_
_atom_site_type_symbol
_atom_site_label
_atom_site_fract_x
_atom_site_fract_y
_atom_site_fract_z
Si Si1 0.678076 0.511944 0.306480
Si Si2 0.177358 0.837787 0.689644
Si Si3 0.677216 0.904460 0.545221
Si Si4 0.677855 0.689803 0.778001
Si Si5 0.676943 0.245729 0.927319
Si Si6 0.321372 0.929763 0.954196
O O1 0.500000 0.515414 0.321522
O O2 0.712945 0.588306 0.249644
O O3 0.711980 0.414698 0.275897
O O4 0.766465 0.529317 0.379171
O O5 0.235880 0.872592 0.614362
O O6 0.253598 0.746835 0.714184
O O7 0.000000 0.826485 0.687936
O O8 0.500000 0.904311 0.560314
O O9 0.702583 0.835862 0.480523
O O10 0.719631 0.001399 0.516465
O O11 0.500000 0.700691 0.778937
O O12 0.745936 0.726797 0.851724
O O13 0.500000 0.256157 0.916082
O O14 0.744268 0.334887 0.960253
O O15 0.500000 0.920751 0.953027
#
# Coordination Sequence:
#
# PCOD9352697 Si02
#       6
#     8   8   8   8   8   8
#     4  10  22  39  61  90 123 159 202 251 303 363
#     4  11  24  41  62  90 125 163 203 252 310 363
#     4  10  24  43  61  87 126 163 201 252 308 362
#     4  11  22  38  63  92 122 160 206 252 302 362
#     4  11  22  39  62  90 123 160 204 253 305 361
#     4  11  22  38  63  93 121 159 206 252 302 361
#
# _framework density 18.890953
#
# number of rings (size 3 to 8) (size 9 to 14) (size 15 to 20)
#    0.000    1.333    3.333    2.000    0.000    5.333 
#    0.000    5.000    0.000    0.000    0.000    0.000 
#    0.000    0.000    0.000    0.000    0.000    0.000 
#
# Total GULP energy -134183.018440 kJ/mol
# GULP energy per Si atom -5590.959102 kJ/mol
# Density = 1.884796 g / cm^3
# Si number density = 18.890953 Si / 1000 Ang^3
#
#
#
# Elastic Constant Matrix: (Units=GPa)
#
#
# Indices 1 2 3 4 5 6 
#
# 1 35.1835 18.0530 10.5329 0.0000 0.0000 0.0000
# 2 18.0530 76.8506 -26.0212 0.0000 0.0000 0.0000
# 3 10.5329 -26.0212 24.6225 0.0000 0.0000 0.0000
# 4 0.0000 0.0000 0.0000 14.4441 0.0000 0.0000
# 5 0.0000 0.0000 0.0000 0.0000 36.3656 0.0000
# 6 0.0000 0.0000 0.0000 0.0000 0.0000 30.2328
#
#
#
# Elastic Compliance Matrix: (Units=1/GPa)
#
#
# Indices 1 2 3 4 5 6 
#
# 1 0.074520 -0.044068 -0.078449 0.000000 0.000000 0.000000
# 2 -0.044068 0.046323 0.067806 0.000000 0.000000 0.000000
# 3 -0.078449 0.067806 0.145830 0.000000 0.000000 0.000000
# 4 0.000000 0.000000 0.000000 0.069232 0.000000 0.000000
# 5 0.000000 0.000000 0.000000 0.000000 0.027499 0.000000
# 6 0.000000 0.000000 0.000000 0.000000 0.000000 0.033077
#
#
# Mechanical properties :
#
#
# Convention : Reuss Voigt Hill
#
# Bulk Modulus (GPa) = 6.35932 15.75400 11.05666
# Shear Modulus (GPa) = 8.95545 25.14794 17.05170
#
# Velocity S-wave (km/s) = 2.17965 3.65254 3.00765
# Velocity P-wave (km/s) = 3.11579 5.11328 4.23402
#
# Compressibility (1/GPa) = 0.15724944
#
# Stress axis : x y z
#
# Youngs Moduli (GPa) = 13.41928 21.58758 6.85732
#
# Poissons Ratio (x) = 0.95132 0.53795
# Poissons Ratio (y) = 0.59136 -0.46497
# Poissons Ratio (z) = 1.05273 -1.46376
#
# Static dielectric constant tensor:
#      x y z
#    x 1.627530 0.000000 0.000000 
#    y 0.000000 1.656220 0.000000 
#    z 0.000000 0.000000 1.616810 
# 
# From -- ./inp_files/13480.got.cif
#   From: 2010.05.17/outbox.cif.g08.bks.cpg/sg36_7_cif.got.tgz:13480.got - 2010.06.03 17:41:39.
