data_PCOD9352859
_publ_section_title
;
Structure prediction by ZEFSAII (Michael W. Deem and Ramdas Pophale) SiO2 
 PCOD9352859
Probable space group: C M C 21
;
_chemical_formula_sum "Si O2"
_cell_formula_units_Z 64
_cell_length_a 27.964654
_cell_length_b 9.447121
_cell_length_c 11.780080
_cell_angle_alpha 90.000000
_cell_angle_beta 90.000000
_cell_angle_gamma 90.000000
_cell_volume 3112.125972
_symmetry_space_group_name_H-M "C M C 21"
_symmetry_group_IT_number 36
_symmetry_cell_setting 'orthorhombic'
loop_
_space_group_symop_operation_xyz
x,y,z
-x,-y,1/2+z
x,-y,1/2+z
-x,y,z
1/2+x,1/2+y,z
1/2-x,1/2-y,1/2+z
1/2+x,1/2-y,1/2+z
1/2-x,1/2+y,z
loop_
_atom_site_type_symbol
_atom_site_label
_atom_site_fract_x
_atom_site_fract_y
_atom_site_fract_z
Si Si1 0.853019 0.992464 0.691230
Si Si2 0.709224 0.937796 0.482351
Si Si3 0.945867 0.010797 0.346339
Si Si4 0.445890 0.180355 0.780192
Si Si5 0.777101 0.849495 0.858663
Si Si6 0.118647 0.573852 0.369108
Si Si7 0.189913 0.711284 0.201193
Si Si8 0.085156 0.809575 0.539016
O O1 0.902475 0.028463 0.760093
O O2 0.818000 0.910937 0.777631
O O3 0.867549 0.889061 0.587863
O O4 0.825876 0.135538 0.655665
O O5 0.704565 0.782031 0.430063
O O6 0.708710 0.907148 0.614764
O O7 0.753833 0.025968 0.434374
O O8 0.662109 0.020333 0.446428
O O9 0.940583 0.180203 0.358215
O O10 0.000000 0.985600 0.300791
O O11 0.941160 0.930585 0.465925
O O12 0.500000 0.127895 0.787116
O O13 0.437095 0.240819 0.652734
O O14 0.411132 0.057162 0.820650
O O15 0.733415 0.779471 0.788661
O O16 0.143473 0.652313 0.264395
O O17 0.091400 0.685123 0.447887
#
# Coordination Sequence:
#
# PCOD9352859 Si02
#       8
#     8   8   8   8   8   8   8   8
#     4  11  24  43  70  99 135 181 232 281 351 414
#     4  11  25  40  67  89 135 170 224 274 339 402
#     4  10  22  43  70 101 136 178 234 290 346 421
#     4  10  23  43  66  98 135 174 225 288 350 414
#     4  11  25  44  64  98 131 178 222 285 335 406
#     4  11  24  45  64  98 133 176 226 282 345 413
#     4  11  25  42  64  98 133 173 231 278 337 417
#     4  11  23  42  74  95 137 180 234 280 358 407
#
# _framework density 20.564720999999999
#
# number of rings (size 3 to 8) (size 9 to 14) (size 15 to 20)
#    0.000    1.250    2.500    2.625    5.250    4.500 
#    0.000    0.000    0.000    0.000    0.000    0.000 
#    0.000    0.000    0.000    0.000    0.000    0.000 
#
# Total GULP energy -178660.714419 kJ/mol
# GULP energy per Si atom -5583.147326 kJ/mol
# Density = 2.051791 g / cm^3
# Si number density = 20.564721 Si / 1000 Ang^3
#
#
#
# Elastic Constant Matrix: (Units=GPa)
#
#
# Indices 1 2 3 4 5 6 
#
# 1 77.7246 20.4726 1.0426 0.0000 0.0000 0.0000
# 2 20.4726 69.9920 16.6137 0.0000 0.0000 0.0000
# 3 1.0426 16.6137 40.3546 0.0000 0.0000 0.0000
# 4 0.0000 0.0000 0.0000 62.8222 0.0000 0.0000
# 5 0.0000 0.0000 0.0000 0.0000 10.3253 0.0000
# 6 0.0000 0.0000 0.0000 0.0000 0.0000 19.3763
#
#
#
# Elastic Compliance Matrix: (Units=1/GPa)
#
#
# Indices 1 2 3 4 5 6 
#
# 1 0.014018 -0.004449 0.001469 0.000000 0.000000 0.000000
# 2 -0.004449 0.017247 -0.006985 0.000000 0.000000 0.000000
# 3 0.001469 -0.006985 0.027618 0.000000 0.000000 0.000000
# 4 0.000000 0.000000 0.000000 0.015918 0.000000 0.000000
# 5 0.000000 0.000000 0.000000 0.000000 0.096849 0.000000
# 6 0.000000 0.000000 0.000000 0.000000 0.000000 0.051609
#
#
# Mechanical properties :
#
#
# Convention : Reuss Voigt Hill
#
# Bulk Modulus (GPa) = 25.67193 29.36988 27.52090
# Shear Modulus (GPa) = 19.51798 28.50093 24.00945
#
# Velocity S-wave (km/s) = 3.08409 3.72682 3.42059
# Velocity P-wave (km/s) = 5.01924 5.72989 5.38630
#
# Compressibility (1/GPa) = 0.03895305
#
# Stress axis : x y z
#
# Youngs Moduli (GPa) = 71.33628 57.98179 36.20802
#
# Poissons Ratio (x) = 0.25797 -0.05321
# Poissons Ratio (y) = 0.31738 0.25293
# Poissons Ratio (z) = -0.10483 0.40503
#
# Static dielectric constant tensor:
#      x y z
#    x 1.722310 0.000000 0.000000 
#    y 0.000000 1.712880 0.000000 
#    z 0.000000 0.000000 1.758650 
# 
# From -- ./inp_files/9742.got.cif
#   From: 2010.05.17/outbox.cif.g08.bks.cpg/sg36_5_cif.got.tgz:9742.got - 2010.06.03 17:41:39.
