data_PCOD9353688
_publ_section_title
;
Structure prediction by ZEFSAII (Michael W. Deem and Ramdas Pophale) SiO2 
 PCOD9353688
Probable space group: C C C 2
;
_chemical_formula_sum "Si O2"
_cell_formula_units_Z 52
_cell_length_a 25.192758
_cell_length_b 11.372607
_cell_length_c 9.358038
_cell_angle_alpha 90.000000
_cell_angle_beta 90.000000
_cell_angle_gamma 90.000000
_cell_volume 2681.146537
_symmetry_space_group_name_H-M "C C C 2"
_symmetry_group_IT_number 37
_symmetry_cell_setting 'orthorhombic'
loop_
_space_group_symop_operation_xyz
x,y,z
-x,-y,z
-x,y,1/2+z
x,-y,1/2+z
1/2+x,1/2+y,z
1/2-x,1/2-y,z
1/2-x,1/2+y,1/2+z
1/2+x,1/2-y,1/2+z
loop_
_atom_site_type_symbol
_atom_site_label
_atom_site_fract_x
_atom_site_fract_y
_atom_site_fract_z
Si Si1 0.546126 0.124235 0.450490
Si Si2 0.250000 0.250000 0.893384
Si Si3 0.054414 0.627781 0.786957
Si Si4 0.262185 0.590745 0.653737
Si Si5 0.186284 0.583681 0.055606
Si Si6 0.350223 0.120467 0.836539
Si Si7 0.670419 0.759318 0.310146
O O1 0.539993 0.112089 0.620041
O O2 0.495691 0.181447 0.372898
O O3 0.601645 0.185382 0.412965
O O4 0.557425 0.997694 0.371538
O O5 0.271004 0.351774 0.999644
O O6 0.300930 0.206208 0.812147
O O7 0.109202 0.701402 0.793604
O O8 0.241595 0.459996 0.625150
O O9 0.309830 0.630967 0.757615
O O10 0.209118 0.656391 0.715244
O O11 0.140529 0.577041 0.175609
O O12 0.170678 0.484246 0.938078
O O13 0.185979 0.705254 0.970947
#
# Coordination Sequence:
#
# PCOD9353688 Si02
#       7
#     8   4   8   8   8   8   8
#     4  11  20  30  44  66  97 133 178 213 238 319
#     4   8  18  30  48  66  94 130 164 214 262 302
#     4  11  21  29  46  67  97 139 177 209 251 309
#     4   9  18  34  48  73  99 134 171 223 262 316
#     4  11  19  31  54  69 100 139 172 212 266 321
#     4  11  20  32  48  69  98 132 174 210 263 314
#     4  10  19  31  51  68 101 139 176 211 270 315
#
# _framework density 19.394687000000001
#
# number of rings (size 3 to 8) (size 9 to 14) (size 15 to 20)
#    0.000    1.846    3.077    5.538    2.154    1.231 
#    0.000    0.000    0.000    0.000    0.000    0.000 
#    0.000    1.231   12.615    0.000    1.538    0.308 
#
# Total GULP energy -144758.502665 kJ/mol
# GULP energy per Si atom -5567.634718 kJ/mol
# Density = 1.935054 g / cm^3
# Si number density = 19.394687 Si / 1000 Ang^3
#
#
#
# Elastic Constant Matrix: (Units=GPa)
#
#
# Indices 1 2 3 4 5 6 
#
# 1 132.3203 31.4301 32.7711 0.0000 0.0000 0.0000
# 2 31.4301 22.6216 23.2320 0.0000 0.0000 0.0000
# 3 32.7711 23.2320 131.5638 0.0000 0.0000 0.0000
# 4 0.0000 0.0000 0.0000 8.7992 0.0000 0.0000
# 5 0.0000 0.0000 0.0000 0.0000 28.2235 0.0000
# 6 0.0000 0.0000 0.0000 0.0000 0.0000 23.8223
#
#
#
# Elastic Compliance Matrix: (Units=1/GPa)
#
#
# Indices 1 2 3 4 5 6 
#
# 1 0.011280 -0.015620 -0.000052 0.000000 0.000000 0.000000
# 2 -0.015620 0.075626 -0.009464 0.000000 0.000000 0.000000
# 3 -0.000052 -0.009464 0.009285 0.000000 0.000000 0.000000
# 4 0.000000 0.000000 0.000000 0.113647 0.000000 0.000000
# 5 0.000000 0.000000 0.000000 0.000000 0.035432 0.000000
# 6 0.000000 0.000000 0.000000 0.000000 0.000000 0.041978
#
#
# Mechanical properties :
#
#
# Convention : Reuss Voigt Hill
#
# Bulk Modulus (GPa) = 21.77629 51.26358 36.51994
# Shear Modulus (GPa) = 14.17133 25.44048 19.80590
#
# Velocity S-wave (km/s) = 2.70604 3.62570 3.19909
# Velocity P-wave (km/s) = 4.58431 6.63451 5.70231
#
# Compressibility (1/GPa) = 0.04592150
#
# Stress axis : x y z
#
# Youngs Moduli (GPa) = 88.64956 13.22290 107.70210
#
# Poissons Ratio (x) = 0.20654 0.00556
# Poissons Ratio (y) = 1.38468 1.01926
# Poissons Ratio (z) = 0.00458 0.12514
#
# Static dielectric constant tensor:
#      x y z
#    x 1.861350 0.000000 0.000000 
#    y 0.000000 1.755280 0.000000 
#    z 0.000000 0.000000 1.766580 
# 
# From -- ./inp_files/4619.got.cif
#   From: 2010.05.17/outbox.cif.g08.bks.cpg/sg37_3_cif.got.tgz:4619.got - 2010.06.03 17:53:42.
