data_PCOD9353701
_publ_section_title
;
Structure prediction by ZEFSAII (Michael W. Deem and Ramdas Pophale) SiO2 
 PCOD9353701
Probable space group: C C C 2
;
_chemical_formula_sum "Si O2"
_cell_formula_units_Z 56
_cell_length_a 14.441009
_cell_length_b 14.915291
_cell_length_c 9.005792
_cell_angle_alpha 90.000000
_cell_angle_beta 90.000000
_cell_angle_gamma 90.000000
_cell_volume 1939.774214
_symmetry_space_group_name_H-M "C C C 2"
_symmetry_group_IT_number 37
_symmetry_cell_setting 'orthorhombic'
loop_
_space_group_symop_operation_xyz
x,y,z
-x,-y,z
-x,y,1/2+z
x,-y,1/2+z
1/2+x,1/2+y,z
1/2-x,1/2-y,z
1/2-x,1/2+y,1/2+z
1/2+x,1/2-y,1/2+z
loop_
_atom_site_type_symbol
_atom_site_label
_atom_site_fract_x
_atom_site_fract_y
_atom_site_fract_z
Si Si1 0.669581 0.618222 0.575930
Si Si2 0.085190 0.280888 0.393093
Si Si3 0.297338 0.903840 0.672340
Si Si4 0.089901 0.960262 0.378296
Si Si5 0.382391 0.095829 0.628541
Si Si6 0.838195 0.303444 0.394884
Si Si7 0.092319 0.838259 0.635890
O O1 0.625608 0.709265 0.512573
O O2 0.647905 0.535457 0.465440
O O3 0.641398 0.592000 0.745576
O O4 0.780075 0.624111 0.575997
O O5 0.156381 0.330885 0.280530
O O6 0.052451 0.365490 0.497364
O O7 0.042040 0.209444 0.272936
O O8 0.301641 0.883508 0.496784
O O9 0.186595 0.887182 0.693895
O O10 0.360186 0.994054 0.681125
O O11 0.048214 0.905188 0.518174
O O12 0.000000 0.000000 0.300348
O O13 0.403586 0.154125 0.773343
O O14 0.750000 0.250000 0.331732
O O15 0.881709 0.238763 0.516722
#
# Coordination Sequence:
#
# PCOD9353701 Si02
#       7
#     8   8   8   8   8   8   8
#     4  12  24  38  58  82 122 162 215 265 319 364
#     4  11  23  35  57  89 121 169 208 251 311 393
#     4  10  19  32  53  82 121 158 205 241 304 379
#     4  12  26  43  62  85 117 169 224 271 310 368
#     4  12  20  31  54  88 121 159 203 244 306 382
#     4   9  18  30  48  74 110 155 195 240 295 376
#     4  10  19  39  56  78 120 164 206 254 308 362
#
# _framework density 28.869340000000001
#
# number of rings (size 3 to 8) (size 9 to 14) (size 15 to 20)
#    0.000    1.143    1.429    9.000    2.000    0.000 
#    0.000    0.714    0.000    0.000    0.000    0.000 
#    0.000   38.857    0.000    0.000    0.000    0.000 
#
# Total GULP energy -156562.034244 kJ/mol
# GULP energy per Si atom -5591.501223 kJ/mol
# Density = 2.880363 g / cm^3
# Si number density = 28.869340 Si / 1000 Ang^3
#
#
#
# Elastic Constant Matrix: (Units=GPa)
#
#
# Indices 1 2 3 4 5 6 
#
# 1 58.5357 32.5234 41.7801 0.0000 0.0000 0.0000
# 2 32.5234 189.8199 81.9904 0.0000 0.0000 0.0000
# 3 41.7801 81.9904 224.8110 0.0000 0.0000 0.0000
# 4 0.0000 0.0000 0.0000 72.1001 0.0000 0.0000
# 5 0.0000 0.0000 0.0000 0.0000 37.4972 0.0000
# 6 0.0000 0.0000 0.0000 0.0000 0.0000 41.2282
#
#
#
# Elastic Compliance Matrix: (Units=1/GPa)
#
#
# Indices 1 2 3 4 5 6 
#
# 1 0.020449 -0.002210 -0.002994 0.000000 0.000000 0.000000
# 2 -0.002210 0.006492 -0.001957 0.000000 0.000000 0.000000
# 3 -0.002994 -0.001957 0.005718 0.000000 0.000000 0.000000
# 4 0.000000 0.000000 0.000000 0.013870 0.000000 0.000000
# 5 0.000000 0.000000 0.000000 0.000000 0.026669 0.000000
# 6 0.000000 0.000000 0.000000 0.000000 0.000000 0.024255
#
#
# Mechanical properties :
#
#
# Convention : Reuss Voigt Hill
#
# Bulk Modulus (GPa) = 54.53654 87.30605 70.92130
# Shear Modulus (GPa) = 42.41314 51.28993 46.85154
#
# Velocity S-wave (km/s) = 3.83710 4.21957 4.03287
# Velocity P-wave (km/s) = 6.20990 7.35168 6.80478
#
# Compressibility (1/GPa) = 0.01833633
#
# Stress axis : x y z
#
# Youngs Moduli (GPa) = 48.90255 154.03208 174.87542
#
# Poissons Ratio (x) = 0.34047 0.52361
# Poissons Ratio (y) = 0.10809 0.34222
# Poissons Ratio (z) = 0.14642 0.30143
#
# Static dielectric constant tensor:
#      x y z
#    x 2.384430 0.000000 0.000000 
#    y 0.000000 2.356170 0.000000 
#    z 0.000000 0.000000 2.170260 
# 
# From -- ./inp_files/4389.got.cif
#   From: 2010.05.17/outbox.cif.g08.bks.cpg/sg37_3_cif.got.tgz:4389.got - 2010.06.03 17:53:42.
