data_PCOD9353439
_publ_section_title
;
Structure prediction by ZEFSAII (Michael W. Deem and Ramdas Pophale) SiO2 
 PCOD9353439
Probable space group: C C C 2
;
_chemical_formula_sum "Si O2"
_cell_formula_units_Z 52
_cell_length_a 17.400510
_cell_length_b 9.220270
_cell_length_c 14.339988
_cell_angle_alpha 90.000000
_cell_angle_beta 90.000000
_cell_angle_gamma 90.000000
_cell_volume 2300.670396
_symmetry_space_group_name_H-M "C C C 2"
_symmetry_group_IT_number 37
_symmetry_cell_setting 'orthorhombic'
loop_
_space_group_symop_operation_xyz
x,y,z
-x,-y,z
-x,y,1/2+z
x,-y,1/2+z
1/2+x,1/2+y,z
1/2-x,1/2-y,z
1/2-x,1/2+y,1/2+z
1/2+x,1/2-y,1/2+z
loop_
_atom_site_type_symbol
_atom_site_label
_atom_site_fract_x
_atom_site_fract_y
_atom_site_fract_z
Si Si1 0.553409 0.188166 0.031690
Si Si2 0.852886 0.071584 0.140861
Si Si3 0.719234 0.085037 0.993397
Si Si4 0.798983 0.003631 0.326938
Si Si5 0.250000 0.250000 0.187635
Si Si6 0.415314 0.747264 0.648807
Si Si7 0.048214 0.855962 0.848742
O O1 0.596221 0.305162 0.096334
O O2 0.627423 0.088963 0.007666
O O3 0.475940 0.161290 0.090262
O O4 0.523313 0.260833 0.935974
O O5 0.773861 0.054511 0.082350
O O6 0.832372 0.111819 0.248673
O O7 0.904523 0.926103 0.130762
O O8 0.750000 0.250000 0.966343
O O9 0.739320 0.974527 0.909284
O O10 0.767957 0.882544 0.255925
O O11 0.870995 0.928609 0.377266
O O12 0.327081 0.207034 0.134286
O O13 0.438494 0.743627 0.758109
O O14 0.000000 0.000000 0.826095
#
# Coordination Sequence:
#
# PCOD9353439 Si02
#       7
#     8   8   8   8   4   8   8
#     4  11  19  30  49  78 113 138 177 218 272 322
#     4   9  18  28  49  79 108 135 171 216 267 321
#     4  10  17  31  49  76 108 146 174 211 266 335
#     4  10  16  30  50  74 105 141 174 215 265 332
#     4   8  16  30  48  68  98 138 176 208 266 316
#     4  10  19  31  48  77 104 137 177 231 266 319
#     4  10  17  26  47  75 110 136 166 210 273 325
#
# _framework density 22.602108000000001
#
# number of rings (size 3 to 8) (size 9 to 14) (size 15 to 20)
#    0.000    2.462    3.846    4.154    0.000    0.000 
#    0.000    0.000    0.000    7.385    2.000    4.308 
#    0.000    0.000    0.000    0.000    0.000    0.000 
#
# Total GULP energy -144784.075448 kJ/mol
# GULP energy per Si atom -5568.618286 kJ/mol
# Density = 2.255066 g / cm^3
# Si number density = 22.602108 Si / 1000 Ang^3
#
#
#
# Elastic Constant Matrix: (Units=GPa)
#
#
# Indices 1 2 3 4 5 6 
#
# 1 160.6768 11.4140 40.4424 0.0000 0.0000 0.0000
# 2 11.4140 17.3308 8.7519 0.0000 0.0000 0.0000
# 3 40.4424 8.7519 105.3891 0.0000 0.0000 0.0000
# 4 0.0000 0.0000 0.0000 2.7718 0.0000 0.0000
# 5 0.0000 0.0000 0.0000 0.0000 124.0424 0.0000
# 6 0.0000 0.0000 0.0000 0.0000 0.0000 33.5142
#
#
#
# Elastic Compliance Matrix: (Units=1/GPa)
#
#
# Indices 1 2 3 4 5 6 
#
# 1 0.007080 -0.003435 -0.002432 0.000000 0.000000 0.000000
# 2 -0.003435 0.061893 -0.003822 0.000000 0.000000 0.000000
# 3 -0.002432 -0.003822 0.010739 0.000000 0.000000 0.000000
# 4 0.000000 0.000000 0.000000 0.360772 0.000000 0.000000
# 5 0.000000 0.000000 0.000000 0.000000 0.008062 0.000000
# 6 0.000000 0.000000 0.000000 0.000000 0.000000 0.029838
#
#
# Mechanical properties :
#
#
# Convention : Reuss Voigt Hill
#
# Bulk Modulus (GPa) = 16.57399 44.95703 30.76551
# Shear Modulus (GPa) = 9.65490 46.91826 28.28658
#
# Velocity S-wave (km/s) = 2.06905 4.56108 3.54150
# Velocity P-wave (km/s) = 3.61342 6.90447 5.51038
#
# Compressibility (1/GPa) = 0.06033551
#
# Stress axis : x y z
#
# Youngs Moduli (GPa) = 141.24913 16.15697 93.11759
#
# Poissons Ratio (x) = 0.05549 0.22642
# Poissons Ratio (y) = 0.48515 0.35587
# Poissons Ratio (z) = 0.34345 0.06175
#
# Static dielectric constant tensor:
#      x y z
#    x 1.942720 0.000000 0.000000 
#    y 0.000000 1.926120 0.000000 
#    z 0.000000 0.000000 1.878070 
# 
# From -- ./inp_files/8326.got.cif
#   From: 2010.05.17/outbox.cif.g08.bks.cpg/sg37_5_cif.got.tgz:8326.got - 2010.06.03 17:53:42.
