data_PCOD9353292
_publ_section_title
;
Structure prediction by ZEFSAII (Michael W. Deem and Ramdas Pophale) SiO2 
 PCOD9353292
Probable space group: C M C 21
;
_chemical_formula_sum "Si O2"
_cell_formula_units_Z 64
_cell_length_a 14.972845
_cell_length_b 28.397269
_cell_length_c 7.034951
_cell_angle_alpha 90.000000
_cell_angle_beta 90.000000
_cell_angle_gamma 90.000000
_cell_volume 2991.176093
_symmetry_space_group_name_H-M "C M C 21"
_symmetry_group_IT_number 36
_symmetry_cell_setting 'orthorhombic'
loop_
_space_group_symop_operation_xyz
x,y,z
-x,-y,1/2+z
x,-y,1/2+z
-x,y,z
1/2+x,1/2+y,z
1/2-x,1/2-y,1/2+z
1/2+x,1/2-y,1/2+z
1/2-x,1/2+y,z
loop_
_atom_site_type_symbol
_atom_site_label
_atom_site_fract_x
_atom_site_fract_y
_atom_site_fract_z
Si Si1 0.905199 0.178602 0.857420
Si Si2 0.709397 0.154092 0.796522
Si Si3 0.852796 0.723333 0.321729
Si Si4 0.595398 0.352384 0.777531
Si Si5 0.353331 0.249999 0.886676
Si Si6 0.295063 0.126062 0.249574
Si Si7 0.898235 0.566889 0.702565
Si Si8 0.398845 0.037980 0.141916
O O1 0.812519 0.167190 0.751140
O O2 0.901395 0.233434 0.923311
O O3 0.000000 0.171077 0.756469
O O4 0.905251 0.147959 0.047762
O O5 0.647470 0.200581 0.772136
O O6 0.669839 0.109965 0.684871
O O7 0.709705 0.141939 0.024161
O O8 0.749599 0.734235 0.366161
O O9 0.857174 0.667257 0.339301
O O10 0.874261 0.735560 0.102020
O O11 0.500000 0.373632 0.840970
O O12 0.596148 0.297232 0.833945
O O13 0.693205 0.372989 0.825969
O O14 0.339507 0.074986 0.256688
O O15 0.867570 0.515912 0.628122
O O16 0.000000 0.577385 0.638396
O O17 0.903428 0.558258 0.929890
O O18 0.500000 0.035712 0.219832
#
# Coordination Sequence:
#
# PCOD9353292 Si02
#       8
#     8   8   8   8   8   8   8   8
#     4   9  17  29  44  63  89 120 151 181 213 252
#     4   8  15  28  45  63  84 113 146 176 211 260
#     4   9  16  27  43  63  88 117 149 181 213 252
#     4   9  17  29  44  63  89 120 151 181 213 252
#     4   9  16  27  43  63  88 117 149 181 213 252
#     4   8  15  28  45  63  84 113 146 176 211 260
#     4   9  17  30  47  65  84 106 136 176 220 264
#     4   9  17  30  47  65  84 106 136 176 220 264
#
# _framework density 21.396266000000001
#
# number of rings (size 3 to 8) (size 9 to 14) (size 15 to 20)
#    0.000    3.250    0.000    2.250    0.000    1.500 
#    0.000    8.750    0.000    3.750    0.000    0.000 
#    0.000    0.000    0.000    0.000    0.000    0.000 
#
# Total GULP energy -178350.822507 kJ/mol
# GULP energy per Si atom -5573.463203 kJ/mol
# Density = 2.134757 g / cm^3
# Si number density = 21.396266 Si / 1000 Ang^3
#
#
#
# Elastic Constant Matrix: (Units=GPa)
#
#
# Indices 1 2 3 4 5 6 
#
# 1 96.5804 60.1399 -0.4254 0.0000 0.0000 0.0000
# 2 60.1399 130.5450 9.4297 0.0000 0.0000 0.0000
# 3 -0.4254 9.4297 54.5950 0.0000 0.0000 0.0000
# 4 0.0000 0.0000 0.0000 30.0755 0.0000 0.0000
# 5 0.0000 0.0000 0.0000 0.0000 9.0298 0.0000
# 6 0.0000 0.0000 0.0000 0.0000 0.0000 21.2399
#
#
#
# Elastic Compliance Matrix: (Units=1/GPa)
#
#
# Indices 1 2 3 4 5 6 
#
# 1 0.014609 -0.006823 0.001292 0.000000 0.000000 0.000000
# 2 -0.006823 0.010944 -0.001943 0.000000 0.000000 0.000000
# 3 0.001292 -0.001943 0.018662 0.000000 0.000000 0.000000
# 4 0.000000 0.000000 0.000000 0.033250 0.000000 0.000000
# 5 0.000000 0.000000 0.000000 0.000000 0.110744 0.000000
# 6 0.000000 0.000000 0.000000 0.000000 0.000000 0.047081
#
#
# Mechanical properties :
#
#
# Convention : Reuss Voigt Hill
#
# Bulk Modulus (GPa) = 34.16904 46.66766 40.41835
# Shear Modulus (GPa) = 19.23118 26.24076 22.73597
#
# Velocity S-wave (km/s) = 3.00127 3.50582 3.26331
# Velocity P-wave (km/s) = 5.29287 6.18435 5.75590
#
# Compressibility (1/GPa) = 0.02926626
#
# Stress axis : x y z
#
# Youngs Moduli (GPa) = 68.45300 91.37470 53.58357
#
# Poissons Ratio (x) = 0.62347 -0.06925
# Poissons Ratio (y) = 0.46707 0.10414
# Poissons Ratio (z) = -0.08847 0.17758
#
# Static dielectric constant tensor:
#      x y z
#    x 1.780590 0.000000 0.000000 
#    y 0.000000 1.775430 0.000000 
#    z 0.000000 0.000000 1.930880 
# 
# From -- ./inp_files/4426.got.cif
#   From: 2010.05.17/outbox.cif.g08.bks.cpg/sg36_3_cif.got.tgz:4426.got - 2010.06.03 17:41:39.
