data_PCOD9353661
_publ_section_title
;
Structure prediction by ZEFSAII (Michael W. Deem and Ramdas Pophale) SiO2 
 PCOD9353661
Probable space group: C C C 2
;
_chemical_formula_sum "Si O2"
_cell_formula_units_Z 36
_cell_length_a 10.400553
_cell_length_b 11.352888
_cell_length_c 15.250102
_cell_angle_alpha 90.000000
_cell_angle_beta 90.000000
_cell_angle_gamma 90.000000
_cell_volume 1800.675822
_symmetry_space_group_name_H-M "C C C 2"
_symmetry_group_IT_number 37
_symmetry_cell_setting 'orthorhombic'
loop_
_space_group_symop_operation_xyz
x,y,z
-x,-y,z
-x,y,1/2+z
x,-y,1/2+z
1/2+x,1/2+y,z
1/2-x,1/2-y,z
1/2-x,1/2+y,1/2+z
1/2+x,1/2-y,1/2+z
loop_
_atom_site_type_symbol
_atom_site_label
_atom_site_fract_x
_atom_site_fract_y
_atom_site_fract_z
Si Si1 0.899857 0.735381 0.253910
Si Si2 0.676501 0.985699 0.503752
Si Si3 0.000000 0.500000 0.840616
Si Si4 0.936434 0.877438 0.432977
Si Si5 0.539676 0.803146 0.066991
O O1 0.750000 0.750000 0.234401
O O2 0.916165 0.811796 0.341456
O O3 0.968194 0.758119 0.161304
O O4 0.952498 0.607412 0.282047
O O5 0.617314 0.021762 0.408607
O O6 0.807013 0.914950 0.485165
O O7 0.579857 0.891608 0.548328
O O8 0.662587 0.108068 0.557748
O O9 0.026329 0.795280 0.492701
O O10 0.000000 0.000000 0.411838
#
# Coordination Sequence:
#
# PCOD9353661 Si02
#       5
#     8   8   4   8   8
#     4  12  23  43  69 100 131 174 228 285 333 411
#     4  10  20  44  71  92 124 183 224 273 338 405
#     4  10  18  40  74  90 118 172 230 260 338 398
#     4  12  25  42  65  96 143 175 218 281 345 410
#     4  10  23  42  70  94 129 175 228 270 344 394
#
# _framework density 19.992493
#
# number of rings (size 3 to 8) (size 9 to 14) (size 15 to 20)
#    0.000    1.333    6.667    2.000    3.111    0.889 
#    0.000    2.222    0.000    0.000    0.000    0.000 
#    0.000    0.000    0.000    0.000    0.000    0.000 
#
# Total GULP energy -100330.828683 kJ/mol
# GULP energy per Si atom -5573.934927 kJ/mol
# Density = 1.994699 g / cm^3
# Si number density = 19.992493 Si / 1000 Ang^3
#
#
#
# Elastic Constant Matrix: (Units=GPa)
#
#
# Indices 1 2 3 4 5 6 
#
# 1 56.9425 36.8810 26.4357 0.0000 0.0000 0.0000
# 2 36.8810 106.2809 17.9199 0.0000 0.0000 0.0000
# 3 26.4357 17.9199 107.6288 0.0000 0.0000 0.0000
# 4 0.0000 0.0000 0.0000 -19.6588 0.0000 0.0000
# 5 0.0000 0.0000 0.0000 0.0000 9.3461 0.0000
# 6 0.0000 0.0000 0.0000 0.0000 0.0000 15.0211
#
#
#
# Elastic Compliance Matrix: (Units=1/GPa)
#
#
# Indices 1 2 3 4 5 6 
#
# 1 0.024853 -0.007814 -0.004803 0.000000 0.000000 0.000000
# 2 -0.007814 0.012138 -0.000102 0.000000 0.000000 0.000000
# 3 -0.004803 -0.000102 0.010488 0.000000 0.000000 0.000000
# 4 0.000000 0.000000 0.000000 -0.050868 0.000000 0.000000
# 5 0.000000 0.000000 0.000000 0.000000 0.106996 0.000000
# 6 0.000000 0.000000 0.000000 0.000000 0.000000 0.066573
#
#
# Mechanical properties :
#
#
# Convention : Reuss Voigt Hill
#
# Bulk Modulus (GPa) = 45.37178 48.14724 46.75951
# Shear Modulus (GPa) = 24.63481 13.58273 19.10877
#
# Velocity S-wave (km/s) = 3.51408 2.60934 3.09495
# Velocity P-wave (km/s) = 6.26169 5.76309 6.01755
#
# Compressibility (1/GPa) = 0.02204013
#
# Stress axis : x y z
#
# Youngs Moduli (GPa) = 40.23695 82.38685 95.34832
#
# Poissons Ratio (x) = 0.64380 0.45798
# Poissons Ratio (y) = 0.31443 0.00968
# Poissons Ratio (z) = 0.19327 0.00837
#
# Static dielectric constant tensor:
#      x y z
#    x 1.752470 0.000000 0.000000 
#    y 0.000000 1.713570 0.000000 
#    z 0.000000 0.000000 1.696820 
# 
# From -- ./inp_files/11276.got.cif
#   From: 2010.05.17/outbox.cif.g08.bks.cpg/sg37_6_cif.got.tgz:11276.got - 2010.06.03 17:53:42.
