data_PCOD9353892
_publ_section_title
;
Structure prediction by ZEFSAII (Michael W. Deem and Ramdas Pophale) SiO2 
 PCOD9353892
Probable space group: C C C 2
;
_chemical_formula_sum "Si O2"
_cell_formula_units_Z 64
_cell_length_a 8.154479
_cell_length_b 25.256126
_cell_length_c 15.009470
_cell_angle_alpha 90.000000
_cell_angle_beta 90.000000
_cell_angle_gamma 90.000000
_cell_volume 3091.208588
_symmetry_space_group_name_H-M "C C C 2"
_symmetry_group_IT_number 37
_symmetry_cell_setting 'orthorhombic'
loop_
_space_group_symop_operation_xyz
x,y,z
-x,-y,z
-x,y,1/2+z
x,-y,1/2+z
1/2+x,1/2+y,z
1/2-x,1/2-y,z
1/2-x,1/2+y,1/2+z
1/2+x,1/2-y,1/2+z
loop_
_atom_site_type_symbol
_atom_site_label
_atom_site_fract_x
_atom_site_fract_y
_atom_site_fract_z
Si Si1 0.578747 0.728385 0.735560
Si Si2 0.452661 0.343844 0.382814
Si Si3 0.787758 0.414436 0.092942
Si Si4 0.152331 0.303678 0.292487
Si Si5 0.807623 0.502283 0.242037
Si Si6 0.478884 0.334729 0.074128
Si Si7 0.657994 0.889841 0.137741
Si Si8 0.136051 0.961468 0.922145
O O1 0.750000 0.750000 0.702489
O O2 0.553314 0.677205 0.798268
O O3 0.523011 0.777106 0.799794
O O4 0.482709 0.712074 0.645872
O O5 0.261448 0.327737 0.370024
O O6 0.511885 0.316782 0.472637
O O7 0.450787 0.406697 0.392992
O O8 0.765842 0.451756 0.180281
O O9 0.642978 0.370388 0.092198
O O10 0.976230 0.394085 0.095555
O O11 0.761682 0.446914 0.000989
O O12 0.250000 0.250000 0.266758
O O13 0.143759 0.347978 0.218062
O O14 0.792060 0.553852 0.179473
O O15 0.709898 0.511561 0.333480
O O16 0.000000 0.500000 0.265644
O O17 0.312931 0.368926 0.082359
O O18 0.000000 0.000000 0.961902
#
# Coordination Sequence:
#
# PCOD9353892 Si02
#       8
#     8   8   8   8   8   8   8   8
#     4  11  23  42  66 100 133 170 228 281 337 409
#     4  10  23  44  62  99 130 174 226 269 342 403
#     4  10  26  42  65 107 130 174 231 277 334 406
#     4  10  19  41  69  88 132 171 217 280 331 391
#     4  10  23  40  65  97 131 176 222 275 340 406
#     4  11  23  43  71  97 133 180 226 275 347 406
#     4  11  21  44  68  92 137 174 221 279 339 401
#     4  11  24  43  67  97 137 179 225 280 340 406
#
# _framework density 20.703876000000001
#
# number of rings (size 3 to 8) (size 9 to 14) (size 15 to 20)
#    0.000    1.500    3.750    0.750    7.000    3.000 
#    6.750    0.000    0.000    0.000    0.000    0.000 
#    0.000    0.000    0.000    0.000    0.000    0.000 
#
# Total GULP energy -178314.627599 kJ/mol
# GULP energy per Si atom -5572.332112 kJ/mol
# Density = 2.065675 g / cm^3
# Si number density = 20.703876 Si / 1000 Ang^3
#
#
#
# Elastic Constant Matrix: (Units=GPa)
#
#
# Indices 1 2 3 4 5 6 
#
# 1 52.4221 -6.1121 0.0917 0.0000 0.0000 0.0000
# 2 -6.1121 38.5298 -14.7453 0.0000 0.0000 0.0000
# 3 0.0917 -14.7453 77.3314 0.0000 0.0000 0.0000
# 4 0.0000 0.0000 0.0000 -24.3661 0.0000 0.0000
# 5 0.0000 0.0000 0.0000 0.0000 32.4018 0.0000
# 6 0.0000 0.0000 0.0000 0.0000 0.0000 14.8385
#
#
#
# Elastic Compliance Matrix: (Units=1/GPa)
#
#
# Indices 1 2 3 4 5 6 
#
# 1 0.019462 0.003321 0.000610 0.000000 0.000000 0.000000
# 2 0.003321 0.028564 0.005442 0.000000 0.000000 0.000000
# 3 0.000610 0.005442 0.013968 0.000000 0.000000 0.000000
# 4 0.000000 0.000000 0.000000 -0.041041 0.000000 0.000000
# 5 0.000000 0.000000 0.000000 0.000000 0.030863 0.000000
# 6 0.000000 0.000000 0.000000 0.000000 0.000000 0.067392
#
#
# Mechanical properties :
#
#
# Convention : Reuss Voigt Hill
#
# Bulk Modulus (GPa) = 12.38532 14.08356 13.23444
# Shear Modulus (GPa) = 39.25418 17.17810 28.21614
#
# Velocity S-wave (km/s) = 4.35901 2.88358 3.69568
# Velocity P-wave (km/s) = 5.59730 4.23130 4.96153
#
# Compressibility (1/GPa) = 0.08074072
#
# Stress axis : x y z
#
# Youngs Moduli (GPa) = 51.38208 35.00970 71.59031
#
# Poissons Ratio (x) = -0.11626 -0.04368
# Poissons Ratio (y) = -0.17063 -0.38963
# Poissons Ratio (z) = -0.03135 -0.19054
#
# Static dielectric constant tensor:
#      x y z
#    x 2.057750 0.000000 0.000000 
#    y 0.000000 1.782400 0.000000 
#    z 0.000000 0.000000 1.715330 
# 
# From -- ./inp_files/11003.got.cif
#   From: 2010.05.17/outbox.cif.g08.bks.cpg/sg37_6_cif.got.tgz:11003.got - 2010.06.03 17:53:42.
