data_PCOD9353339
_publ_section_title
;
Structure prediction by ZEFSAII (Michael W. Deem and Ramdas Pophale) SiO2 
 PCOD9353339
Probable space group: C M C 21
;
_chemical_formula_sum "Si O2"
_cell_formula_units_Z 32
_cell_length_a 9.000000
_cell_length_b 18.000000
_cell_length_c 21.000000
_cell_angle_alpha 90.000000
_cell_angle_beta 90.000000
_cell_angle_gamma 90.000000
_cell_volume 3402.000000
_symmetry_space_group_name_H-M "C M C 21"
_symmetry_group_IT_number 36
_symmetry_cell_setting 'orthorhombic'
loop_
_space_group_symop_operation_xyz
x,y,z
-x,-y,1/2+z
x,-y,1/2+z
-x,y,z
1/2+x,1/2+y,z
1/2-x,1/2-y,1/2+z
1/2+x,1/2-y,1/2+z
1/2-x,1/2+y,z
loop_
_atom_site_type_symbol
_atom_site_label
_atom_site_fract_x
_atom_site_fract_y
_atom_site_fract_z
Si Si1 0.830885 0.906245 0.767040
Si Si2 0.330638 0.415282 0.260569
Si Si3 0.325794 0.832557 0.510027
Si Si4 0.676715 0.420237 0.398788
Si Si5 0.171430 0.421445 0.891134
Si Si6 0.828323 0.330644 0.153511
Si Si7 0.676474 0.171469 0.151552
Si Si8 0.330738 0.819379 0.013227
O O1 0.754406 0.882828 0.832613
O O2 0.743618 0.877365 0.706795
O O3 0.000000 0.880510 0.764717
O O4 0.829411 0.995780 0.766275
O O5 0.500000 0.391409 0.247687
O O6 0.283327 0.386059 0.329916
O O7 0.227452 0.388201 0.204824
O O8 0.500000 0.846507 0.500185
O O9 0.230247 0.871031 0.456389
O O10 0.282263 0.857250 0.581208
O O11 0.288363 0.745536 0.508168
O O12 0.500000 0.430240 0.398309
O O13 0.753997 0.499670 0.403674
O O14 0.000000 0.432457 0.873311
O O15 0.180216 0.373604 0.954444
O O16 0.737445 0.254642 0.158613
O O17 0.810898 0.358713 0.081180
O O18 0.000000 0.313126 0.163934
O O19 0.500000 0.172858 0.155021
O O20 0.500000 0.787367 0.013778
#
# Coordination Sequence:
#
# PCOD9353339 Si02
#       8
#     8   8   8   8   8   8   8   8
#     4  10  21  37  56  80 109 141 179 220 264 318
#     4   9  20  37  54  76 107 140 175 216 262 313
#     4  10  21  36  56  81 107 138 179 223 265 315
#     4  10  21  37  56  78 108 144 180 220 266 318
#     4  10  20  36  57  80 109 142 177 221 268 316
#     4  10  20  35  56  80 106 138 177 219 263 315
#     4  10  21  37  56  79 108 141 177 219 267 317
#     4   9  20  37  55  78 108 140 174 216 267 318
#
# _framework density 9.4062319999999993
#
# number of rings (size 3 to 8) (size 9 to 14) (size 15 to 20)
#    0.000    2.250    0.000    3.000    0.000    8.000 
#    0.000    5.000    0.000    0.000    0.000    0.000 
#    0.000    0.000    0.000    0.000    0.000    0.000 
#
# Total GULP energy -178444.051711 kJ/mol
# GULP energy per Si atom -5576.376616 kJ/mol
# Density = 0.938482 g / cm^3
# Si number density = 9.406232 Si / 1000 Ang^3
#
#
#
# Elastic Constant Matrix: (Units=GPa)
#
#
# Indices 1 2 3 4 5 6 
#
# 1 51.4022 16.4234 69.0475 0.0000 0.0000 0.0000
# 2 16.4234 6.4621 33.7046 0.0000 0.0000 0.0000
# 3 69.0475 33.7046 121.3546 0.0000 0.0000 0.0000
# 4 0.0000 0.0000 0.0000 8.2025 0.0000 0.0000
# 5 0.0000 0.0000 0.0000 0.0000 19.5862 0.0000
# 6 0.0000 0.0000 0.0000 0.0000 0.0000 27.6988
#
#
#
# Elastic Compliance Matrix: (Units=1/GPa)
#
#
# Indices 1 2 3 4 5 6 
#
# 1 0.067881 -0.064478 -0.020715 0.000000 0.000000 0.000000
# 2 -0.064478 -0.283707 0.115482 0.000000 0.000000 0.000000
# 3 -0.020715 0.115482 -0.012047 0.000000 0.000000 0.000000
# 4 0.000000 0.000000 0.000000 0.121913 0.000000 0.000000
# 5 0.000000 0.000000 0.000000 0.000000 0.051056 0.000000
# 6 0.000000 0.000000 0.000000 0.000000 0.000000 0.036103
#
#
# Mechanical properties :
#
#
# Convention : Reuss Voigt Hill
#
# Bulk Modulus (GPa) = -5.97749 46.39665 20.20958
# Shear Modulus (GPa) = -36.99759 15.10039 -10.94860
#
# Velocity S-wave (km/s) = -4.43951 2.83623 -2.41506
# Velocity P-wave (km/s) = 5.42801 5.95331 1.72896
#
# Compressibility (1/GPa) = -0.16729433
#
# Stress axis : x y z
#
# Youngs Moduli (GPa) = 14.73164 -3.52477 -83.00638
#
# Poissons Ratio (x) = -0.22727 -1.71944
# Poissons Ratio (y) = 0.94987 9.58575
# Poissons Ratio (z) = 0.30516 0.40705
#
# Static dielectric constant tensor:
#      x y z
#    x 1.655800 0.000000 0.000000 
#    y 0.000000 1.625590 0.000000 
#    z 0.000000 0.000000 1.660410 
# 
# From -- ./inp_files/15697.got.cif
#   From: 2010.05.17/outbox.ucp.g08.bks.cvg/sg36_8_cif.got.tgz:15697.got - 2010.06.11 10:37:26.
