data_PCOD9353250
_publ_section_title
;
Structure prediction by ZEFSAII (Michael W. Deem and Ramdas Pophale) SiO2 
 PCOD9353250
Probable space group: C M C 21
;
_chemical_formula_sum "Si O2"
_cell_formula_units_Z 32
_cell_length_a 15.794067
_cell_length_b 8.075679
_cell_length_c 9.448375
_cell_angle_alpha 90.000000
_cell_angle_beta 90.000000
_cell_angle_gamma 90.000000
_cell_volume 1205.119588
_symmetry_space_group_name_H-M "C M C 21"
_symmetry_group_IT_number 36
_symmetry_cell_setting 'orthorhombic'
loop_
_space_group_symop_operation_xyz
x,y,z
-x,-y,1/2+z
x,-y,1/2+z
-x,y,z
1/2+x,1/2+y,z
1/2-x,1/2-y,1/2+z
1/2+x,1/2-y,1/2+z
1/2-x,1/2+y,z
loop_
_atom_site_type_symbol
_atom_site_label
_atom_site_fract_x
_atom_site_fract_y
_atom_site_fract_z
Si Si1 0.146680 0.185922 0.743650
Si Si2 0.590735 0.988945 0.101022
Si Si3 0.593073 0.664027 0.298674
Si Si4 0.738726 0.828278 0.987778
O O1 0.096221 0.348626 0.697754
O O2 0.230103 0.197386 0.646638
O O3 0.177866 0.201760 0.905045
O O4 0.102211 0.011565 0.718083
O O5 0.500000 0.987717 0.024585
O O6 0.593861 0.822870 0.196098
O O7 0.673396 0.983091 0.001078
O O8 0.500000 0.663276 0.370097
O O9 0.674126 0.661205 0.401071
#
# Coordination Sequence:
#
# PCOD9353250 Si02
#       4
#     8   8   8   8
#     4  12  27  48  77 110 154 202 243 312 377 442
#     4  11  27  48  74 110 151 198 252 306 369 447
#     4  11  27  48  74 110 151 198 252 306 369 447
#     4  12  26  50  78 114 154 198 250 308 378 452
#
# _framework density 26.553381000000002
#
# number of rings (size 3 to 8) (size 9 to 14) (size 15 to 20)
#    0.000    0.500    2.500    3.750    7.000    4.000 
#    0.000    0.000    0.000    0.000    0.000    0.000 
#    0.000    0.000    0.000    0.000    0.000    0.000 
#
# Total GULP energy -89540.139220 kJ/mol
# GULP energy per Si atom -5596.258701 kJ/mol
# Density = 2.649294 g / cm^3
# Si number density = 26.553381 Si / 1000 Ang^3
#
#
#
# Elastic Constant Matrix: (Units=GPa)
#
#
# Indices 1 2 3 4 5 6 
#
# 1 211.5339 36.3936 26.1542 0.0000 0.0000 0.0000
# 2 36.3936 224.4671 33.8751 0.0000 0.0000 0.0000
# 3 26.1542 33.8751 72.2682 0.0000 0.0000 0.0000
# 4 0.0000 0.0000 0.0000 41.9324 0.0000 0.0000
# 5 0.0000 0.0000 0.0000 0.0000 41.3407 0.0000
# 6 0.0000 0.0000 0.0000 0.0000 0.0000 19.6612
#
#
#
# Elastic Compliance Matrix: (Units=1/GPa)
#
#
# Indices 1 2 3 4 5 6 
#
# 1 0.005018 -0.000581 -0.001544 0.000000 0.000000 0.000000
# 2 -0.000581 0.004861 -0.002069 0.000000 0.000000 0.000000
# 3 -0.001544 -0.002069 0.015366 0.000000 0.000000 0.000000
# 4 0.000000 0.000000 0.000000 0.023848 0.000000 0.000000
# 5 0.000000 0.000000 0.000000 0.000000 0.024189 0.000000
# 6 0.000000 0.000000 0.000000 0.000000 0.000000 0.050862
#
#
# Mechanical properties :
#
#
# Convention : Reuss Voigt Hill
#
# Bulk Modulus (GPa) = 59.31567 77.90166 68.60866
# Shear Modulus (GPa) = 36.19258 48.04329 42.11793
#
# Velocity S-wave (km/s) = 3.69590 4.25821 3.98698
# Velocity P-wave (km/s) = 6.37179 7.31970 6.86213
#
# Compressibility (1/GPa) = 0.01685895
#
# Stress axis : x y z
#
# Youngs Moduli (GPa) = 199.27624 205.70602 65.07994
#
# Poissons Ratio (x) = 0.11943 0.10048
# Poissons Ratio (y) = 0.11570 0.13462
# Poissons Ratio (z) = 0.30767 0.42552
#
# Static dielectric constant tensor:
#      x y z
#    x 2.074110 0.000000 0.000000 
#    y 0.000000 2.129230 0.000000 
#    z 0.000000 0.000000 2.101420 
# 
# From -- ./inp_files/8182.got.cif
#   From: 2010.05.17/outbox.cif.g08.bks.cpg/sg36_5_cif.got.tgz:8182.got - 2010.06.03 17:41:39.
