data_PCOD9353360
_publ_section_title
;
Structure prediction by ZEFSAII (Michael W. Deem and Ramdas Pophale) SiO2 
 PCOD9353360
Probable space group: C M C 21
;
_chemical_formula_sum "Si O2"
_cell_formula_units_Z 32
_cell_length_a 9.000000
_cell_length_b 15.000000
_cell_length_c 24.000000
_cell_angle_alpha 90.000000
_cell_angle_beta 90.000000
_cell_angle_gamma 90.000000
_cell_volume 3240.000000
_symmetry_space_group_name_H-M "C M C 21"
_symmetry_group_IT_number 36
_symmetry_cell_setting 'orthorhombic'
loop_
_space_group_symop_operation_xyz
x,y,z
-x,-y,1/2+z
x,-y,1/2+z
-x,y,z
1/2+x,1/2+y,z
1/2-x,1/2-y,1/2+z
1/2+x,1/2-y,1/2+z
1/2-x,1/2+y,z
loop_
_atom_site_type_symbol
_atom_site_label
_atom_site_fract_x
_atom_site_fract_y
_atom_site_fract_z
Si Si1 0.322508 0.836893 0.736480
Si Si2 0.673298 0.887252 0.614185
Si Si3 0.323820 0.642104 0.703375
Si Si4 0.820343 0.339846 0.495241
Si Si5 0.678090 0.011616 0.908237
Si Si6 0.176523 0.859009 0.973992
Si Si7 0.327909 0.901601 0.090758
Si Si8 0.822584 0.004337 0.292878
O O1 0.500000 0.855733 0.740352
O O2 0.265320 0.863780 0.674580
O O3 0.300806 0.731268 0.739242
O O4 0.237718 0.897032 0.780573
O O5 0.500000 0.858367 0.617410
O O6 0.739769 0.844063 0.558373
O O7 0.677623 0.992851 0.603995
O O8 0.500000 0.636242 0.690778
O O9 0.237178 0.645864 0.645312
O O10 0.279787 0.557270 0.740232
O O11 0.770010 0.419414 0.455844
O O12 0.791615 0.245354 0.467821
O O13 0.000000 0.349759 0.500315
O O14 0.500000 0.013747 0.905027
O O15 0.748524 0.031880 0.848782
O O16 0.735502 0.916701 0.929442
O O17 0.000000 0.874120 0.969312
O O18 0.232138 0.883957 0.035898
O O19 0.500000 0.877880 0.080749
O O20 0.000000 0.003363 0.297866
#
# Coordination Sequence:
#
# PCOD9353360 Si02
#       8
#     8   8   8   8   8   8   8   8
#     4  10  20  38  63  88 116 159 198 234 290 357
#     4   9  16  31  58  87 116 150 191 230 274 344
#     4  10  22  39  61  88 120 154 195 246 298 343
#     4   9  19  37  61  87 117 154 192 232 288 354
#     4  11  23  42  64  84 112 156 203 242 288 355
#     4  11  22  38  62  91 121 153 192 245 298 342
#     4  11  20  34  60  91 122 157 196 235 285 355
#     4  11  24  41  59  86 120 151 193 252 301 342
#
# _framework density 9.8765429999999999
#
# number of rings (size 3 to 8) (size 9 to 14) (size 15 to 20)
#    0.000    1.750    2.500    2.250    0.000    4.000 
#    0.000    5.000    0.000    0.000    0.000    0.000 
#    0.000    0.000    0.000    0.000    0.000    0.000 
#
# Total GULP energy -178670.207314 kJ/mol
# GULP energy per Si atom -5583.443979 kJ/mol
# Density = 0.985406 g / cm^3
# Si number density = 9.876543 Si / 1000 Ang^3
#
#
#
# Elastic Constant Matrix: (Units=GPa)
#
#
# Indices 1 2 3 4 5 6 
#
# 1 35.8319 14.5496 12.0544 0.0000 0.0000 0.0000
# 2 14.5496 38.8660 7.8763 0.0000 0.0000 0.0000
# 3 12.0544 7.8763 57.2909 0.0000 0.0000 0.0000
# 4 0.0000 0.0000 0.0000 8.5854 0.0000 0.0000
# 5 0.0000 0.0000 0.0000 0.0000 32.4075 0.0000
# 6 0.0000 0.0000 0.0000 0.0000 0.0000 21.3280
#
#
#
# Elastic Compliance Matrix: (Units=1/GPa)
#
#
# Indices 1 2 3 4 5 6 
#
# 1 0.034606 -0.011808 -0.005658 0.000000 0.000000 0.000000
# 2 -0.011808 0.030496 -0.001708 0.000000 0.000000 0.000000
# 3 -0.005658 -0.001708 0.018880 0.000000 0.000000 0.000000
# 4 0.000000 0.000000 0.000000 0.116476 0.000000 0.000000
# 5 0.000000 0.000000 0.000000 0.000000 0.030857 0.000000
# 6 0.000000 0.000000 0.000000 0.000000 0.000000 0.046887
#
#
# Mechanical properties :
#
#
# Convention : Reuss Voigt Hill
#
# Bulk Modulus (GPa) = 21.91362 22.32770 22.12066
# Shear Modulus (GPa) = 15.07102 18.96475 17.01788
#
# Velocity S-wave (km/s) = 2.76519 3.10189 2.93837
# Velocity P-wave (km/s) = 4.61659 4.91497 4.76811
#
# Compressibility (1/GPa) = 0.04563373
#
# Stress axis : x y z
#
# Youngs Moduli (GPa) = 28.89640 32.79113 52.96580
#
# Poissons Ratio (x) = 0.38721 0.29968
# Poissons Ratio (y) = 0.34122 0.09047
# Poissons Ratio (z) = 0.16350 0.05601
#
# Static dielectric constant tensor:
#      x y z
#    x 1.664990 0.000000 0.000000 
#    y 0.000000 1.708530 0.000000 
#    z 0.000000 0.000000 1.693040 
# 
# From -- ./inp_files/16614.got.cif
#   From: 2010.05.17/outbox.ucp.g08.bks.cvg/sg36_9_cif.got.tgz:16614.got - 2010.06.11 10:37:26.
