data_PCOD9353442
_publ_section_title
;
Structure prediction by ZEFSAII (Michael W. Deem and Ramdas Pophale) SiO2 
 PCOD9353442
Probable space group: C C C 2
;
_chemical_formula_sum "Si O2"
_cell_formula_units_Z 48
_cell_length_a 23.572575
_cell_length_b 16.709346
_cell_length_c 5.439148
_cell_angle_alpha 90.000000
_cell_angle_beta 90.000000
_cell_angle_gamma 90.000000
_cell_volume 2142.384188
_symmetry_space_group_name_H-M "C C C 2"
_symmetry_group_IT_number 37
_symmetry_cell_setting 'orthorhombic'
loop_
_space_group_symop_operation_xyz
x,y,z
-x,-y,z
-x,y,1/2+z
x,-y,1/2+z
1/2+x,1/2+y,z
1/2-x,1/2-y,z
1/2-x,1/2+y,1/2+z
1/2+x,1/2-y,1/2+z
loop_
_atom_site_type_symbol
_atom_site_label
_atom_site_fract_x
_atom_site_fract_y
_atom_site_fract_z
Si Si1 0.483426 0.353210 0.279850
Si Si2 0.029899 0.325919 0.779850
Si Si3 0.151079 0.018526 0.279852
Si Si4 0.351203 0.696640 0.779851
Si Si5 0.725698 0.955446 0.779852
Si Si6 0.159428 0.295309 0.779851
O O1 0.500000 0.395587 0.529850
O O2 0.520552 0.270658 0.279850
O O3 0.418485 0.324061 0.279851
O O4 0.097121 0.336929 0.779852
O O5 0.000000 0.355634 0.529850
O O6 0.174894 0.108356 0.279852
O O7 0.118886 1.000000 0.529852
O O8 0.206015 0.961645 0.279852
O O9 0.337058 0.743853 0.530482
O O10 0.337058 0.743854 0.029220
O O11 0.705483 0.864838 0.779852
O O12 0.706219 0.000000 0.529852
#
# Coordination Sequence:
#
# PCOD9353442 Si02
#       6
#     8   8   8   8   8   8
#     4  10  16  30  51  89 126 146 177 253 311 331
#     4  10  16  30  51  89 126 146 177 253 311 331
#     4  10  23  45  62  81 125 171 191 247 322 362
#     4  12  21  35  65  99 113 155 213 254 288 360
#     4  10  23  45  62  81 125 171 191 247 322 362
#     4  12  21  35  65  99 113 155 213 254 288 360
#
# _framework density 22.404944
#
# number of rings (size 3 to 8) (size 9 to 14) (size 15 to 20)
#    0.000    1.333    6.667    2.000    0.000    0.000 
#    0.000   20.000    0.000    6.000    0.000    0.000 
#    0.000    0.000    0.000    0.000    0.000    0.000 
#
# Total GULP energy -134152.000101 kJ/mol
# GULP energy per Si atom -5589.666671 kJ/mol
# Density = 2.235395 g / cm^3
# Si number density = 22.404944 Si / 1000 Ang^3
#
#
#
# Elastic Constant Matrix: (Units=GPa)
#
#
# Indices 1 2 3 4 5 6 
#
# 1 77.6216 32.9631 13.2391 0.0000 0.0000 0.0000
# 2 32.9631 76.8633 66.5137 0.0000 0.0000 0.0000
# 3 13.2391 66.5137 290.9190 0.0000 0.0000 0.0000
# 4 0.0000 0.0000 0.0000 11.5759 0.0000 0.0000
# 5 0.0000 0.0000 0.0000 0.0000 8.8748 0.0000
# 6 0.0000 0.0000 0.0000 0.0000 0.0000 149.0411
#
#
#
# Elastic Compliance Matrix: (Units=1/GPa)
#
#
# Indices 1 2 3 4 5 6 
#
# 1 0.016004 -0.007771 0.001048 0.000000 0.000000 0.000000
# 2 -0.007771 0.019992 -0.004217 0.000000 0.000000 0.000000
# 3 0.001048 -0.004217 0.004354 0.000000 0.000000 0.000000
# 4 0.000000 0.000000 0.000000 0.086386 0.000000 0.000000
# 5 0.000000 0.000000 0.000000 0.000000 0.112679 0.000000
# 6 0.000000 0.000000 0.000000 0.000000 0.000000 0.006710
#
#
# Mechanical properties :
#
#
# Convention : Reuss Voigt Hill
#
# Bulk Modulus (GPa) = 54.13905 74.53730 64.33817
# Shear Modulus (GPa) = 18.23751 56.07756 37.15753
#
# Velocity S-wave (km/s) = 2.85615 5.00834 4.07683
# Velocity P-wave (km/s) = 5.92395 8.17221 7.13716
#
# Compressibility (1/GPa) = 0.01847096
#
# Stress axis : x y z
#
# Youngs Moduli (GPa) = 62.48400 50.02029 229.68106
#
# Poissons Ratio (x) = 0.38869 -0.24077
# Poissons Ratio (y) = 0.48554 0.96861
# Poissons Ratio (z) = -0.06550 0.21094
#
# Static dielectric constant tensor:
#      x y z
#    x 1.820350 0.000000 0.000000 
#    y 0.000000 1.793290 0.000000 
#    z 0.000000 0.000000 1.952950 
# 
# From -- ./inp_files/1343.got.cif
#   From: 2010.05.17/outbox.cif.g08.bks.cpg/sg37_1_cif.got.tgz:1343.got - 2010.06.03 17:53:42.
