data_PCOD9353981
_publ_section_title
;
Structure prediction by ZEFSAII (Michael W. Deem and Ramdas Pophale) SiO2 
 PCOD9353981
Probable space group: C C C 2
;
_chemical_formula_sum "Si O2"
_cell_formula_units_Z 64
_cell_length_a 9.259201
_cell_length_b 18.241924
_cell_length_c 20.518442
_cell_angle_alpha 90.000000
_cell_angle_beta 90.000000
_cell_angle_gamma 90.000000
_cell_volume 3465.680597
_symmetry_space_group_name_H-M "C C C 2"
_symmetry_group_IT_number 37
_symmetry_cell_setting 'orthorhombic'
loop_
_space_group_symop_operation_xyz
x,y,z
-x,-y,z
-x,y,1/2+z
x,-y,1/2+z
1/2+x,1/2+y,z
1/2-x,1/2-y,z
1/2-x,1/2+y,1/2+z
1/2+x,1/2-y,1/2+z
loop_
_atom_site_type_symbol
_atom_site_label
_atom_site_fract_x
_atom_site_fract_y
_atom_site_fract_z
Si Si1 0.007683 0.675577 0.686860
Si Si2 0.854270 0.962691 0.115966
Si Si3 0.828384 0.517416 0.861258
Si Si4 0.755799 0.665493 0.795164
Si Si5 0.472369 0.338283 0.685898
Si Si6 0.327609 0.015475 0.506382
Si Si7 0.160356 0.534196 0.723772
Si Si8 0.220344 0.669398 0.076374
O O1 0.884992 0.663751 0.742139
O O2 0.049442 0.759999 0.691711
O O3 0.928750 0.666735 0.617373
O O4 0.129755 0.616564 0.700598
O O5 0.760209 0.005538 0.170511
O O6 0.917220 0.896719 0.158379
O O7 0.749570 0.957535 0.054629
O O8 0.000000 0.000000 0.091544
O O9 0.792502 0.602432 0.846778
O O10 0.777246 0.474916 0.796088
O O11 0.000000 0.500000 0.862657
O O12 0.775782 0.494059 0.932152
O O13 0.750000 0.750000 0.819062
O O14 0.610392 0.647956 0.754091
O O15 0.346903 0.332811 0.630842
O O16 0.285088 0.096997 0.531765
O O17 0.500000 0.000000 0.509840
O O18 0.000000 0.500000 0.722232
O O19 0.250000 0.750000 0.044511
#
# Coordination Sequence:
#
# PCOD9353981 Si02
#       8
#     8   8   8   8   8   8   8   8
#     4   9  16  31  59  89 112 141 189 242 297 348
#     4  12  22  34  57  83 119 149 189 243 302 349
#     4  10  20  35  59  86 113 151 208 250 283 344
#     4   9  16  33  61  89 116 152 192 242 301 366
#     4   9  19  32  55  89 116 145 185 238 303 356
#     4  11  23  38  59  85 115 158 206 244 285 347
#     4  11  20  34  61  86 111 145 193 247 298 340
#     4   9  17  34  59  84 111 150 193 233 286 358
#
# _framework density 18.466792000000002
#
# number of rings (size 3 to 8) (size 9 to 14) (size 15 to 20)
#    0.000    2.000    3.750    4.125    0.000    0.500 
#    0.000    1.875   16.500    0.000    0.000    0.000 
#    0.000    0.000    0.000    0.000    0.000    0.000 
#
# Total GULP energy -178212.151665 kJ/mol
# GULP energy per Si atom -5569.129740 kJ/mol
# Density = 1.842476 g / cm^3
# Si number density = 18.466792 Si / 1000 Ang^3
#
#
#
# Elastic Constant Matrix: (Units=GPa)
#
#
# Indices 1 2 3 4 5 6 
#
# 1 62.0345 20.3099 21.4780 0.0000 0.0000 0.0000
# 2 20.3099 120.7259 29.2148 0.0000 0.0000 0.0000
# 3 21.4780 29.2148 107.6572 0.0000 0.0000 0.0000
# 4 0.0000 0.0000 0.0000 20.7280 0.0000 0.0000
# 5 0.0000 0.0000 0.0000 0.0000 2.0032 0.0000
# 6 0.0000 0.0000 0.0000 0.0000 0.0000 29.6872
#
#
#
# Elastic Compliance Matrix: (Units=1/GPa)
#
#
# Indices 1 2 3 4 5 6 
#
# 1 0.017892 -0.002297 -0.002946 0.000000 0.000000 0.000000
# 2 -0.002297 0.009160 -0.002028 0.000000 0.000000 0.000000
# 3 -0.002946 -0.002028 0.010427 0.000000 0.000000 0.000000
# 4 0.000000 0.000000 0.000000 0.048244 0.000000 0.000000
# 5 0.000000 0.000000 0.000000 0.000000 0.499196 0.000000
# 6 0.000000 0.000000 0.000000 0.000000 0.000000 0.033685
#
#
# Mechanical properties :
#
#
# Convention : Reuss Voigt Hill
#
# Bulk Modulus (GPa) = 43.59656 48.04699 45.82178
# Shear Modulus (GPa) = 7.80286 25.11136 16.45711
#
# Velocity S-wave (km/s) = 2.05779 3.69156 2.98849
# Velocity P-wave (km/s) = 5.41344 6.65167 6.06424
#
# Compressibility (1/GPa) = 0.02293759
#
# Stress axis : x y z
#
# Youngs Moduli (GPa) = 55.89036 109.16655 95.90731
#
# Poissons Ratio (x) = 0.25076 0.28256
# Poissons Ratio (y) = 0.12838 0.19446
# Poissons Ratio (z) = 0.16466 0.22134
#
# Static dielectric constant tensor:
#      x y z
#    x 1.668530 0.000000 0.000000 
#    y 0.000000 1.803530 0.000000 
#    z 0.000000 0.000000 1.627450 
# 
# From -- ./inp_files/16553.got.cif
#   From: 2010.05.17/outbox.cif.g08.bks.cpg/sg37_9_cif.got.tgz:16553.got - 2010.06.03 17:53:42.
