data_PCOD9353147
_publ_section_title
;
Structure prediction by ZEFSAII (Michael W. Deem and Ramdas Pophale) SiO2 
 PCOD9353147
Probable space group: C M C 21
;
_chemical_formula_sum "Si O2"
_cell_formula_units_Z 28
_cell_length_a 7.872014
_cell_length_b 32.211342
_cell_length_c 4.970609
_cell_angle_alpha 90.000000
_cell_angle_beta 90.000000
_cell_angle_gamma 90.000000
_cell_volume 1260.388055
_symmetry_space_group_name_H-M "C M C 21"
_symmetry_group_IT_number 36
_symmetry_cell_setting 'orthorhombic'
loop_
_space_group_symop_operation_xyz
x,y,z
-x,-y,1/2+z
x,-y,1/2+z
-x,y,z
1/2+x,1/2+y,z
1/2-x,1/2-y,1/2+z
1/2+x,1/2-y,1/2+z
1/2-x,1/2+y,z
loop_
_atom_site_type_symbol
_atom_site_label
_atom_site_fract_x
_atom_site_fract_y
_atom_site_fract_z
Si Si1 0.306277 0.413404 0.636470
Si Si2 0.500000 0.026943 0.302131
Si Si3 0.705713 0.862802 0.126989
Si Si4 0.698757 0.773303 0.328119
O O1 0.500000 0.428224 0.655137
O O2 0.265670 0.397463 0.338202
O O3 0.166808 0.446690 0.728934
O O4 0.278713 0.374541 0.837559
O O5 0.500000 0.013419 0.611411
O O6 0.500000 0.863422 0.114061
O O7 0.764700 0.818188 0.237151
O O8 0.500000 0.773414 0.270576
O O9 0.723656 0.762200 0.638704
#
# Coordination Sequence:
#
# PCOD9353147 Si02
#       4
#     8   4   8   8
#     4  12  25  43  71 102 128 172 227 265 325 400
#     4  12  26  46  72  98 140 172 206 278 342 392
#     4  11  22  43  66  91 133 180 220 274 329 392
#     4  11  24  39  61  91 132 175 220 274 331 383
#
# _framework density 22.215377
#
# number of rings (size 3 to 8) (size 9 to 14) (size 15 to 20)
#    0.000    0.571    2.857    5.143    0.000   12.571 
#    0.000    0.000    0.000    0.000    0.000    0.000 
#    0.000    0.000    0.000    0.000    0.000    0.000 
#
# Total GULP energy -78404.780994 kJ/mol
# GULP energy per Si atom -5600.341500 kJ/mol
# Density = 2.216481 g / cm^3
# Si number density = 22.215377 Si / 1000 Ang^3
#
#
#
# Elastic Constant Matrix: (Units=GPa)
#
#
# Indices 1 2 3 4 5 6 
#
# 1 129.3818 18.6110 -5.7482 0.0000 0.0000 0.0000
# 2 18.6110 48.9437 -15.9622 0.0000 0.0000 0.0000
# 3 -5.7482 -15.9622 71.3768 0.0000 0.0000 0.0000
# 4 0.0000 0.0000 0.0000 45.6467 0.0000 0.0000
# 5 0.0000 0.0000 0.0000 0.0000 48.6042 0.0000
# 6 0.0000 0.0000 0.0000 0.0000 0.0000 -8.9879
#
#
#
# Elastic Compliance Matrix: (Units=1/GPa)
#
#
# Indices 1 2 3 4 5 6 
#
# 1 0.008176 -0.003122 -0.000040 0.000000 0.000000 0.000000
# 2 -0.003122 0.023231 0.004944 0.000000 0.000000 0.000000
# 3 -0.000040 0.004944 0.015113 0.000000 0.000000 0.000000
# 4 0.000000 0.000000 0.000000 0.021907 0.000000 0.000000
# 5 0.000000 0.000000 0.000000 0.000000 0.020574 0.000000
# 6 0.000000 0.000000 0.000000 0.000000 0.000000 -0.111261
#
#
# Mechanical properties :
#
#
# Convention : Reuss Voigt Hill
#
# Bulk Modulus (GPa) = 19.96639 27.05596 23.51117
# Shear Modulus (GPa) = -547.75635 33.90605 -256.92515
#
# Velocity S-wave (km/s) = -15.71946 3.91095 -10.76583
# Velocity P-wave (km/s) = 17.90144 5.70959 11.99713
#
# Compressibility (1/GPa) = 0.05008418
#
# Stress axis : x y z
#
# Youngs Moduli (GPa) = 122.30335 43.04561 66.17019
#
# Poissons Ratio (x) = 0.13439 0.00263
# Poissons Ratio (y) = 0.38184 -0.32713
# Poissons Ratio (z) = 0.00486 -0.21281
#
# Static dielectric constant tensor:
#      x y z
#    x 1.778000 0.000000 0.000000 
#    y 0.000000 1.836230 0.000000 
#    z 0.000000 0.000000 1.750920 
# 
# From -- ./inp_files/188.got.cif
#   From: 2010.05.17/outbox.cif.g08.bks.cpg/sg36_1_cif.got.tgz:188.got - 2010.06.03 17:41:39.
