data_PCOD9353687
_publ_section_title
;
Structure prediction by ZEFSAII (Michael W. Deem and Ramdas Pophale) SiO2 
 PCOD9353687
Probable space group: C C C 2
;
_chemical_formula_sum "Si O2"
_cell_formula_units_Z 64
_cell_length_a 20.264135
_cell_length_b 27.990739
_cell_length_c 5.439027
_cell_angle_alpha 90.000000
_cell_angle_beta 90.000000
_cell_angle_gamma 90.000000
_cell_volume 3085.060246
_symmetry_space_group_name_H-M "C C C 2"
_symmetry_group_IT_number 37
_symmetry_cell_setting 'orthorhombic'
loop_
_space_group_symop_operation_xyz
x,y,z
-x,-y,z
-x,y,1/2+z
x,-y,1/2+z
1/2+x,1/2+y,z
1/2-x,1/2-y,z
1/2-x,1/2+y,1/2+z
1/2+x,1/2-y,1/2+z
loop_
_atom_site_type_symbol
_atom_site_label
_atom_site_fract_x
_atom_site_fract_y
_atom_site_fract_z
Si Si1 0.664239 0.162886 0.102370
Si Si2 0.915369 0.294294 0.725636
Si Si3 0.520951 0.123541 0.198858
Si Si4 0.800627 0.131803 0.296388
Si Si5 0.538598 0.300624 0.923153
Si Si6 0.425110 0.518916 0.670678
Si Si7 0.320134 0.742211 0.379621
Si Si8 0.367262 0.614594 0.805252
O O1 0.596327 0.141445 0.212287
O O2 0.725029 0.132887 0.204552
O O3 0.683196 0.217380 0.171439
O O4 0.643261 0.170680 0.819344
O O5 0.941327 0.254996 0.918317
O O6 0.884089 0.259951 0.523806
O O7 0.974737 0.329430 0.666246
O O8 0.494286 0.097762 0.441191
O O9 0.823386 0.187661 0.299631
O O10 0.816381 0.115399 0.575092
O O11 0.838083 0.104607 0.076042
O O12 0.487039 0.310203 0.699144
O O13 0.598695 0.334309 0.841831
O O14 0.500000 0.500000 0.649367
O O15 0.394027 0.507377 0.406568
O O16 0.420721 0.574710 0.731969
O O17 0.250000 0.750000 0.520960
#
# Coordination Sequence:
#
# PCOD9353687 Si02
#       8
#     8   8   8   8   8   8   8   8
#     4  10  22  35  54  73 108 154 209 249 307 349
#     4  11  21  34  52  74 108 150 214 257 297 337
#     4  10  19  31  50  70  98 137 198 256 286 331
#     4  11  25  39  57  83 116 155 193 258 305 370
#     4  12  26  36  55  78 115 149 190 257 323 344
#     4  10  23  42  70  92 116 146 189 231 300 386
#     4  10  21  34  50  73 105 156 203 252 297 352
#     4  12  25  43  62  87 119 143 196 242 319 378
#
# _framework density 20.745137
#
# number of rings (size 3 to 8) (size 9 to 14) (size 15 to 20)
#    0.000    1.250    2.500    3.750    8.750    0.500 
#    0.000    0.000    0.000    0.000    0.000    0.000 
#    0.000    0.000    0.000    0.000    0.000  175.000 
#
# Total GULP energy -178359.677904 kJ/mol
# GULP energy per Si atom -5573.739934 kJ/mol
# Density = 2.069792 g / cm^3
# Si number density = 20.745137 Si / 1000 Ang^3
#
#
#
# Elastic Constant Matrix: (Units=GPa)
#
#
# Indices 1 2 3 4 5 6 
#
# 1 86.5721 -0.7609 27.5533 0.0000 0.0000 0.0000
# 2 -0.7609 24.1138 5.1600 0.0000 0.0000 0.0000
# 3 27.5533 5.1600 126.7276 0.0000 0.0000 0.0000
# 4 0.0000 0.0000 0.0000 17.2211 0.0000 0.0000
# 5 0.0000 0.0000 0.0000 0.0000 28.1441 0.0000
# 6 0.0000 0.0000 0.0000 0.0000 0.0000 17.8232
#
#
#
# Elastic Compliance Matrix: (Units=1/GPa)
#
#
# Indices 1 2 3 4 5 6 
#
# 1 0.012433 0.000979 -0.002743 0.000000 0.000000 0.000000
# 2 0.000979 0.041912 -0.001919 0.000000 0.000000 0.000000
# 3 -0.002743 -0.001919 0.008565 0.000000 0.000000 0.000000
# 4 0.000000 0.000000 0.000000 0.058068 0.000000 0.000000
# 5 0.000000 0.000000 0.000000 0.000000 0.035531 0.000000
# 6 0.000000 0.000000 0.000000 0.000000 0.000000 0.056107
#
#
# Mechanical properties :
#
#
# Convention : Reuss Voigt Hill
#
# Bulk Modulus (GPa) = 18.00391 33.47979 25.74185
# Shear Modulus (GPa) = 20.96463 26.33509 23.64986
#
# Velocity S-wave (km/s) = 3.18241 3.56681 3.38008
# Velocity P-wave (km/s) = 4.71181 5.75643 5.26012
#
# Compressibility (1/GPa) = 0.05554348
#
# Stress axis : x y z
#
# Youngs Moduli (GPa) = 80.43309 23.85973 116.74764
#
# Poissons Ratio (x) = -0.02337 0.32024
# Poissons Ratio (y) = -0.07877 0.22409
# Poissons Ratio (z) = 0.22063 0.04580
#
# Static dielectric constant tensor:
#      x y z
#    x 1.821530 0.000000 0.000000 
#    y 0.000000 1.704170 0.000000 
#    z 0.000000 0.000000 1.901900 
# 
# From -- ./inp_files/1094.got.cif
#   From: 2010.05.17/outbox.cif.g08.bks.cpg/sg37_1_cif.got.tgz:1094.got - 2010.06.03 17:53:42.
