data_PCOD9353952
_publ_section_title
;
Structure prediction by ZEFSAII (Michael W. Deem and Ramdas Pophale) SiO2 
 PCOD9353952
Probable space group: C C C 2
;
_chemical_formula_sum "Si O2"
_cell_formula_units_Z 52
_cell_length_a 10.377887
_cell_length_b 16.719252
_cell_length_c 13.514451
_cell_angle_alpha 90.000000
_cell_angle_beta 90.000000
_cell_angle_gamma 90.000000
_cell_volume 2344.899258
_symmetry_space_group_name_H-M "C C C 2"
_symmetry_group_IT_number 37
_symmetry_cell_setting 'orthorhombic'
loop_
_space_group_symop_operation_xyz
x,y,z
-x,-y,z
-x,y,1/2+z
x,-y,1/2+z
1/2+x,1/2+y,z
1/2-x,1/2-y,z
1/2-x,1/2+y,1/2+z
1/2+x,1/2-y,1/2+z
loop_
_atom_site_type_symbol
_atom_site_label
_atom_site_fract_x
_atom_site_fract_y
_atom_site_fract_z
Si Si1 0.743777 0.347515 0.173300
Si Si2 0.308301 0.625547 0.949259
Si Si3 0.690061 0.169853 0.495230
Si Si4 0.457407 0.865887 0.683965
Si Si5 0.500000 0.000000 0.328631
Si Si6 0.057738 0.279218 0.373664
Si Si7 0.776873 0.951405 0.868565
O O1 0.750000 0.250000 0.191866
O O2 0.699167 0.405749 0.263945
O O3 0.892965 0.369638 0.159208
O O4 0.677815 0.368403 0.068458
O O5 0.164953 0.661393 0.922908
O O6 0.403063 0.690664 0.902942
O O7 0.328190 0.538453 0.899421
O O8 0.750000 0.250000 0.537500
O O9 0.621560 0.127776 0.585744
O O10 0.583238 0.198415 0.414587
O O11 0.802299 0.115930 0.449777
O O12 0.436238 0.790117 0.755421
O O13 0.429432 0.938164 0.757176
O O14 0.619940 0.038717 0.383466
#
# Coordination Sequence:
#
# PCOD9353952 Si02
#       7
#     8   8   8   8   4   8   8
#     4  11  21  40  67  91 125 177 222 255 332 407
#     4  11  22  40  67  94 126 168 218 266 330 401
#     4  12  25  40  61  92 128 170 213 268 327 387
#     4  11  23  36  63  93 125 161 205 271 324 390
#     4  10  20  34  58  92 124 152 200 262 332 366
#     4  11  22  42  64  91 126 171 213 262 328 399
#     4  11  23  36  60  96 131 158 217 278 321 378
#
# _framework density 22.175792999999999
#
# number of rings (size 3 to 8) (size 9 to 14) (size 15 to 20)
#    0.000    0.923    7.692    0.462    6.462    0.000 
#    0.000    0.769    0.000    0.000    0.000    0.000 
#    0.000    0.000    0.000    0.000    0.000    0.000 
#
# Total GULP energy -145045.375890 kJ/mol
# GULP energy per Si atom -5578.668303 kJ/mol
# Density = 2.212532 g / cm^3
# Si number density = 22.175793 Si / 1000 Ang^3
#
#
#
# Elastic Constant Matrix: (Units=GPa)
#
#
# Indices 1 2 3 4 5 6 
#
# 1 10.4391 5.2644 -2.7813 0.0000 0.0000 0.0000
# 2 5.2644 174.4372 60.6798 0.0000 0.0000 0.0000
# 3 -2.7813 60.6798 137.7437 0.0000 0.0000 0.0000
# 4 0.0000 0.0000 0.0000 20.7098 0.0000 0.0000
# 5 0.0000 0.0000 0.0000 0.0000 16.4096 0.0000
# 6 0.0000 0.0000 0.0000 0.0000 0.0000 28.1174
#
#
#
# Elastic Compliance Matrix: (Units=1/GPa)
#
#
# Indices 1 2 3 4 5 6 
#
# 1 0.099031 -0.004351 0.003916 0.000000 0.000000 0.000000
# 2 -0.004351 0.006961 -0.003155 0.000000 0.000000 0.000000
# 3 0.003916 -0.003155 0.008729 0.000000 0.000000 0.000000
# 4 0.000000 0.000000 0.000000 0.048286 0.000000 0.000000
# 5 0.000000 0.000000 0.000000 0.000000 0.060940 0.000000
# 6 0.000000 0.000000 0.000000 0.000000 0.000000 0.035565
#
#
# Mechanical properties :
#
#
# Convention : Reuss Voigt Hill
#
# Bulk Modulus (GPa) = 9.29865 49.88287 29.59076
# Shear Modulus (GPa) = 16.52684 30.34451 23.43567
#
# Velocity S-wave (km/s) = 2.73292 3.70315 3.25439
# Velocity P-wave (km/s) = 3.76307 6.38964 5.24348
#
# Compressibility (1/GPa) = 0.10754253
#
# Stress axis : x y z
#
# Youngs Moduli (GPa) = 10.09785 143.64992 114.56597
#
# Poissons Ratio (x) = 0.62502 -0.44868
# Poissons Ratio (y) = 0.04394 0.36140
# Poissons Ratio (z) = -0.03955 0.45315
#
# Static dielectric constant tensor:
#      x y z
#    x 1.847550 0.000000 0.000000 
#    y 0.000000 1.987090 0.000000 
#    z 0.000000 0.000000 1.796410 
# 
# From -- ./inp_files/11721.got.cif
#   From: 2010.05.17/outbox.cif.g08.bks.cpg/sg37_6_cif.got.tgz:11721.got - 2010.06.03 17:53:42.
