data_PCOD9353690
_publ_section_title
;
Structure prediction by ZEFSAII (Michael W. Deem and Ramdas Pophale) SiO2 
 PCOD9353690
Probable space group: C C C 2
;
_chemical_formula_sum "Si O2"
_cell_formula_units_Z 64
_cell_length_a 31.250523
_cell_length_b 9.507487
_cell_length_c 8.779976
_cell_angle_alpha 90.000000
_cell_angle_beta 90.000000
_cell_angle_gamma 90.000000
_cell_volume 2608.653273
_symmetry_space_group_name_H-M "C C C 2"
_symmetry_group_IT_number 37
_symmetry_cell_setting 'orthorhombic'
loop_
_space_group_symop_operation_xyz
x,y,z
-x,-y,z
-x,y,1/2+z
x,-y,1/2+z
1/2+x,1/2+y,z
1/2-x,1/2-y,z
1/2-x,1/2+y,1/2+z
1/2+x,1/2-y,1/2+z
loop_
_atom_site_type_symbol
_atom_site_label
_atom_site_fract_x
_atom_site_fract_y
_atom_site_fract_z
Si Si1 0.467074 0.377880 0.814480
Si Si2 0.192924 0.541320 0.308784
Si Si3 0.646035 0.155428 0.030998
Si Si4 0.751082 0.602496 0.072468
Si Si5 0.937162 0.642097 0.347021
Si Si6 0.338468 0.478491 0.471814
Si Si7 0.984253 0.317263 0.571933
Si Si8 0.105806 0.924009 0.706486
O O1 0.500000 0.500000 0.869711
O O2 0.492267 0.287168 0.689833
O O3 0.427719 0.451011 0.731084
O O4 0.456234 0.277138 0.955982
O O5 0.178963 0.405072 0.405033
O O6 0.213798 0.635329 0.440178
O O7 0.155101 0.595985 0.199885
O O8 0.229927 0.509000 0.188884
O O9 0.601768 0.100016 0.957347
O O10 0.652575 0.322720 0.039618
O O11 0.750000 0.750000 0.159366
O O12 0.707866 0.540418 0.003214
O O13 0.956101 0.584961 0.185481
O O14 0.917290 0.790508 0.283493
O O15 0.977961 0.635854 0.458610
O O16 0.375804 0.579161 0.537547
O O17 0.350269 0.456071 0.296604
#
# Coordination Sequence:
#
# PCOD9353690 Si02
#       8
#     8   8   8   8   8   8   8   8
#     4  11  18  27  48  75 130 175 218 249 309 395
#     4  10  25  46  72  94 125 182 222 290 351 400
#     4  10  24  47  69  97 131 173 230 287 346 400
#     4  11  26  43  70 102 135 174 223 270 344 425
#     4  10  21  36  60  89 136 168 225 268 332 402
#     4  11  25  39  63  94 138 173 215 276 331 406
#     4  10  19  31  51  86 124 180 215 264 322 390
#     4  11  21  33  54  92 129 181 207 262 333 391
#
# _framework density 24.533732000000001
#
# number of rings (size 3 to 8) (size 9 to 14) (size 15 to 20)
#    0.000    1.500    2.500    3.375    8.750    1.000 
#    0.000    3.750    0.000    2.250    0.000    0.000 
#    0.000    0.000    0.000    0.000    0.000    0.000 
#
# Total GULP energy -178567.728544 kJ/mol
# GULP energy per Si atom -5580.241517 kJ/mol
# Density = 2.447789 g / cm^3
# Si number density = 24.533732 Si / 1000 Ang^3
#
#
#
# Elastic Constant Matrix: (Units=GPa)
#
#
# Indices 1 2 3 4 5 6 
#
# 1 104.2022 14.7091 22.2908 0.0000 0.0000 0.0000
# 2 14.7091 46.0588 16.7896 0.0000 0.0000 0.0000
# 3 22.2908 16.7896 113.4102 0.0000 0.0000 0.0000
# 4 0.0000 0.0000 0.0000 33.3746 0.0000 0.0000
# 5 0.0000 0.0000 0.0000 0.0000 36.0658 0.0000
# 6 0.0000 0.0000 0.0000 0.0000 0.0000 24.2368
#
#
#
# Elastic Compliance Matrix: (Units=1/GPa)
#
#
# Indices 1 2 3 4 5 6 
#
# 1 0.010327 -0.002704 -0.001629 0.000000 0.000000 0.000000
# 2 -0.002704 0.023658 -0.002971 0.000000 0.000000 0.000000
# 3 -0.001629 -0.002971 0.009578 0.000000 0.000000 0.000000
# 4 0.000000 0.000000 0.000000 0.029963 0.000000 0.000000
# 5 0.000000 0.000000 0.000000 0.000000 0.027727 0.000000
# 6 0.000000 0.000000 0.000000 0.000000 0.000000 0.041259
#
#
# Mechanical properties :
#
#
# Convention : Reuss Voigt Hill
#
# Bulk Modulus (GPa) = 34.53782 41.25002 37.89392
# Shear Modulus (GPa) = 29.98105 32.72757 31.35431
#
# Velocity S-wave (km/s) = 3.49955 3.65633 3.57880
# Velocity P-wave (km/s) = 5.51701 5.88856 5.70581
#
# Compressibility (1/GPa) = 0.02895377
#
# Stress axis : x y z
#
# Youngs Moduli (GPa) = 96.83360 42.26919 104.40981
#
# Poissons Ratio (x) = 0.11430 0.17013
# Poissons Ratio (y) = 0.26184 0.31019
# Poissons Ratio (z) = 0.15779 0.12558
#
# Static dielectric constant tensor:
#      x y z
#    x 1.998040 0.000000 0.000000 
#    y 0.000000 2.041730 0.000000 
#    z 0.000000 0.000000 1.923580 
# 
# From -- ./inp_files/5011.got.cif
#   From: 2010.05.17/outbox.cif.g08.bks.cpg/sg37_3_cif.got.tgz:5011.got - 2010.06.03 17:53:42.
