data_PCOD9353545
_publ_section_title
;
Structure prediction by ZEFSAII (Michael W. Deem and Ramdas Pophale) SiO2 
 PCOD9353545
Probable space group: C C C 2
;
_chemical_formula_sum "Si O2"
_cell_formula_units_Z 48
_cell_length_a 12.156652
_cell_length_b 24.892895
_cell_length_c 8.683979
_cell_angle_alpha 90.000000
_cell_angle_beta 90.000000
_cell_angle_gamma 90.000000
_cell_volume 2627.895894
_symmetry_space_group_name_H-M "C C C 2"
_symmetry_group_IT_number 37
_symmetry_cell_setting 'orthorhombic'
loop_
_space_group_symop_operation_xyz
x,y,z
-x,-y,z
-x,y,1/2+z
x,-y,1/2+z
1/2+x,1/2+y,z
1/2-x,1/2-y,z
1/2-x,1/2+y,1/2+z
1/2+x,1/2-y,1/2+z
loop_
_atom_site_type_symbol
_atom_site_label
_atom_site_fract_x
_atom_site_fract_y
_atom_site_fract_z
Si Si1 0.840857 0.582459 0.309570
Si Si2 0.624270 0.984639 0.595324
Si Si3 0.728096 0.836596 0.089668
Si Si4 0.911773 0.237313 0.503768
Si Si5 0.092874 0.616876 0.301556
Si Si6 0.630158 0.770686 0.652328
O O1 0.816124 0.546327 0.457563
O O2 0.836387 0.539683 0.169729
O O3 0.768580 0.631247 0.248413
O O4 0.877730 0.559535 0.730141
O O5 0.664224 0.131502 0.452217
O O6 0.500000 0.000000 0.542065
O O7 0.849159 0.817578 0.041745
O O8 0.651955 0.783601 0.099977
O O9 0.537609 0.890862 0.332493
O O10 0.890121 0.248936 0.325197
O O11 0.038014 0.245516 0.543561
O O12 0.114988 0.664986 0.178301
O O13 0.750000 0.750000 0.605125
#
# Coordination Sequence:
#
# PCOD9353545 Si02
#       6
#     8   8   8   8   8   8
#     4  11  19  31  52  79 117 153 188 232 298 352
#     4  10  20  30  47  80 115 150 192 232 284 366
#     4  10  19  35  53  76 118 154 184 236 285 339
#     4  10  21  38  55  82 114 155 201 235 288 349
#     4  10  18  31  51  74 112 157 185 229 290 342
#     4  11  21  39  57  80 119 158 194 245 292 342
#
# _framework density 18.265564000000001
#
# number of rings (size 3 to 8) (size 9 to 14) (size 15 to 20)
#    0.000    1.667    5.000    4.500    2.333    0.000 
#    6.000    0.000    0.000    0.000    0.000    1.167 
#    0.000    0.000    0.000    0.000    0.000    0.000 
#
# Total GULP energy -133778.275331 kJ/mol
# GULP energy per Si atom -5574.094805 kJ/mol
# Density = 1.822399 g / cm^3
# Si number density = 18.265564 Si / 1000 Ang^3
#
#
#
# Elastic Constant Matrix: (Units=GPa)
#
#
# Indices 1 2 3 4 5 6 
#
# 1 91.0897 30.5947 11.2816 0.0000 0.0000 0.0000
# 2 30.5947 77.5979 22.3063 0.0000 0.0000 0.0000
# 3 11.2816 22.3063 35.0520 0.0000 0.0000 0.0000
# 4 0.0000 0.0000 0.0000 32.3731 0.0000 0.0000
# 5 0.0000 0.0000 0.0000 0.0000 15.7275 0.0000
# 6 0.0000 0.0000 0.0000 0.0000 0.0000 20.1765
#
#
#
# Elastic Compliance Matrix: (Units=1/GPa)
#
#
# Indices 1 2 3 4 5 6 
#
# 1 0.012689 -0.004686 -0.001102 0.000000 0.000000 0.000000
# 2 -0.004686 0.017503 -0.009630 0.000000 0.000000 0.000000
# 3 -0.001102 -0.009630 0.035012 0.000000 0.000000 0.000000
# 4 0.000000 0.000000 0.000000 0.030890 0.000000 0.000000
# 5 0.000000 0.000000 0.000000 0.000000 0.063583 0.000000
# 6 0.000000 0.000000 0.000000 0.000000 0.000000 0.049563
#
#
# Mechanical properties :
#
#
# Convention : Reuss Voigt Hill
#
# Bulk Modulus (GPa) = 29.09726 36.90053 32.99890
# Shear Modulus (GPa) = 19.87830 22.95922 21.41876
#
# Velocity S-wave (km/s) = 3.30251 3.54922 3.42808
# Velocity P-wave (km/s) = 5.52329 6.08622 5.81158
#
# Compressibility (1/GPa) = 0.03436750
#
# Stress axis : x y z
#
# Youngs Moduli (GPa) = 78.81113 57.13367 28.56159
#
# Poissons Ratio (x) = 0.26773 0.03147
# Poissons Ratio (y) = 0.36931 0.27505
# Poissons Ratio (z) = 0.08683 0.55021
#
# Static dielectric constant tensor:
#      x y z
#    x 1.623470 0.000000 0.000000 
#    y 0.000000 1.657520 0.000000 
#    z 0.000000 0.000000 1.691090 
# 
# From -- ./inp_files/2985.got.cif
#   From: 2010.05.17/outbox.cif.g08.bks.cpg/sg37_2_cif.got.tgz:2985.got - 2010.06.03 17:53:42.
