data_PCOD9353694
_publ_section_title
;
Structure prediction by ZEFSAII (Michael W. Deem and Ramdas Pophale) SiO2 
 PCOD9353694
Probable space group: C C C 2
;
_chemical_formula_sum "Si O2"
_cell_formula_units_Z 64
_cell_length_a 23.938292
_cell_length_b 14.222801
_cell_length_c 8.438448
_cell_angle_alpha 90.000000
_cell_angle_beta 90.000000
_cell_angle_gamma 90.000000
_cell_volume 2873.034706
_symmetry_space_group_name_H-M "C C C 2"
_symmetry_group_IT_number 37
_symmetry_cell_setting 'orthorhombic'
loop_
_space_group_symop_operation_xyz
x,y,z
-x,-y,z
-x,y,1/2+z
x,-y,1/2+z
1/2+x,1/2+y,z
1/2-x,1/2-y,z
1/2-x,1/2+y,1/2+z
1/2+x,1/2-y,1/2+z
loop_
_atom_site_type_symbol
_atom_site_label
_atom_site_fract_x
_atom_site_fract_y
_atom_site_fract_z
Si Si1 0.558263 0.803858 0.227160
Si Si2 0.913905 0.096705 0.230652
Si Si3 0.294004 0.369834 0.355153
Si Si4 0.558263 0.803858 0.852344
Si Si5 0.175450 0.647808 0.222612
Si Si6 0.205996 0.130166 0.724351
Si Si7 0.913906 0.903295 0.348852
Si Si8 0.324550 0.852192 0.856892
O O1 0.500000 0.845623 0.289752
O O2 0.562366 0.697174 0.295368
O O3 0.615182 0.857783 0.276405
O O4 0.556194 0.797765 0.039752
O O5 0.937634 0.197174 0.284136
O O6 0.850652 0.094055 0.300809
O O7 0.940614 0.000000 0.289752
O O8 0.912690 0.097656 0.039752
O O9 0.291104 0.399516 0.539752
O O10 0.350652 0.405946 0.278695
O O11 0.307978 0.258414 0.359830
O O12 0.233209 0.392267 0.283825
O O13 0.615182 0.857783 0.803099
O O14 0.192022 0.758414 0.219674
O O15 0.233209 0.607733 0.295679
O O16 0.169496 0.617121 0.039752
#
# Coordination Sequence:
#
# PCOD9353694 Si02
#       8
#     8   8   8   8   8   8   8   8
#     4  11  21  32  44  61  84 114 147 181 214 250
#     4  10  19  32  46  63  86 115 147 179 210 247
#     4   7  12  24  44  63  82 107 135 166 210 257
#     4  11  21  32  44  61  84 114 147 181 214 250
#     4   8  13  26  45  63  81 106 136 170 210 254
#     4   7  12  24  44  63  82 107 135 166 210 257
#     4  10  19  32  46  63  86 115 147 179 210 247
#     4   8  13  26  45  63  81 106 136 170 210 254
#
# _framework density 22.276098000000001
#
# number of rings (size 3 to 8) (size 9 to 14) (size 15 to 20)
#    0.000    3.000    0.000    6.000    0.000    0.500 
#    0.000   13.750    0.000    0.000    0.000    0.000 
#    0.000    1.000    0.000   11.500    0.000    4.000 
#
# Total GULP energy -178166.253413 kJ/mol
# GULP energy per Si atom -5567.695419 kJ/mol
# Density = 2.222540 g / cm^3
# Si number density = 22.276098 Si / 1000 Ang^3
#
#
#
# Elastic Constant Matrix: (Units=GPa)
#
#
# Indices 1 2 3 4 5 6 
#
# 1 226.9213 -3.5096 38.9193 0.0000 0.0000 0.0000
# 2 -3.5096 16.6528 -10.7883 0.0000 0.0000 0.0000
# 3 38.9193 -10.7883 83.2976 0.0000 0.0000 0.0000
# 4 0.0000 0.0000 0.0000 -7.4585 0.0000 0.0000
# 5 0.0000 0.0000 0.0000 0.0000 20.1813 0.0000
# 6 0.0000 0.0000 0.0000 0.0000 0.0000 -14.2686
#
#
#
# Elastic Compliance Matrix: (Units=1/GPa)
#
#
# Indices 1 2 3 4 5 6 
#
# 1 0.004794 -0.000481 -0.002302 0.000000 0.000000 0.000000
# 2 -0.000481 0.065598 0.008721 0.000000 0.000000 0.000000
# 3 -0.002302 0.008721 0.014210 0.000000 0.000000 0.000000
# 4 0.000000 0.000000 0.000000 -0.134076 0.000000 0.000000
# 5 0.000000 0.000000 0.000000 0.000000 0.049551 0.000000
# 6 0.000000 0.000000 0.000000 0.000000 0.000000 -0.070084
#
#
# Mechanical properties :
#
#
# Convention : Reuss Voigt Hill
#
# Bulk Modulus (GPa) = 10.36513 41.79050 26.07782
# Shear Modulus (GPa) = -100.56042 19.84086 -40.35978
#
# Velocity S-wave (km/s) = -6.72612 2.98766 -4.26114
# Velocity P-wave (km/s) = 7.46042 5.54098 3.53238
#
# Compressibility (1/GPa) = 0.09647730
#
# Stress axis : x y z
#
# Youngs Moduli (GPa) = 208.58327 15.24432 70.37129
#
# Poissons Ratio (x) = 0.00733 0.16202
# Poissons Ratio (y) = 0.10036 -0.61369
# Poissons Ratio (z) = 0.48023 -0.13294
#
# Static dielectric constant tensor:
#      x y z
#    x 1.925740 0.000000 0.000000 
#    y 0.000000 1.893950 0.000000 
#    z 0.000000 0.000000 1.764470 
# 
# From -- ./inp_files/4475.got.cif
#   From: 2010.05.17/outbox.cif.g08.bks.cpg/sg37_3_cif.got.tgz:4475.got - 2010.06.03 17:53:42.
