data_PCOD9353286
_publ_section_title
;
Structure prediction by ZEFSAII (Michael W. Deem and Ramdas Pophale) SiO2 
 PCOD9353286
Probable space group: C M C 21
;
_chemical_formula_sum "Si O2"
_cell_formula_units_Z 48
_cell_length_a 7.250965
_cell_length_b 29.528651
_cell_length_c 8.275119
_cell_angle_alpha 90.000000
_cell_angle_beta 90.000000
_cell_angle_gamma 90.000000
_cell_volume 1771.795783
_symmetry_space_group_name_H-M "C M C 21"
_symmetry_group_IT_number 36
_symmetry_cell_setting 'orthorhombic'
loop_
_space_group_symop_operation_xyz
x,y,z
-x,-y,1/2+z
x,-y,1/2+z
-x,y,z
1/2+x,1/2+y,z
1/2-x,1/2-y,1/2+z
1/2+x,1/2-y,1/2+z
1/2-x,1/2+y,z
loop_
_atom_site_type_symbol
_atom_site_label
_atom_site_fract_x
_atom_site_fract_y
_atom_site_fract_z
Si Si1 0.723213 0.845662 0.267220
Si Si2 0.274768 0.930190 0.443007
Si Si3 0.220412 0.318059 0.747445
Si Si4 0.776813 0.598933 0.442807
Si Si5 0.218036 0.734851 0.561229
Si Si6 0.275725 0.015060 0.258656
O O1 0.500000 0.842633 0.283815
O O2 0.786411 0.878688 0.411392
O O3 0.789342 0.796001 0.211281
O O4 0.769302 0.875832 0.107842
O O5 0.500000 0.928302 0.448925
O O6 0.215793 0.957500 0.601212
O O7 0.221130 0.963925 0.296744
O O8 0.283335 0.368091 0.795541
O O9 0.255808 0.287946 0.590096
O O10 0.000000 0.321089 0.752522
O O11 0.290296 0.286582 0.895872
O O12 0.720374 0.547952 0.406728
O O13 0.000000 0.597607 0.443134
O O14 0.000000 0.727290 0.555635
O O15 0.500000 0.013515 0.250684
#
# Coordination Sequence:
#
# PCOD9353286 Si02
#       6
#     8   8   8   8   8   8
#     4   8  14  25  38  52  75 106 137 171 211 252
#     4   9  15  21  31  49  73 102 135 168 204 249
#     4   9  18  31  46  65  89 117 149 185 224 264
#     4   8  14  25  38  52  75 106 137 171 211 252
#     4   9  18  31  46  65  89 117 149 185 224 264
#     4   9  15  21  31  49  73 102 135 168 204 249
#
# _framework density 27.091158
#
# number of rings (size 3 to 8) (size 9 to 14) (size 15 to 20)
#    0.000    3.333    0.000    3.000    0.000    6.000 
#    0.000    3.333    0.000    0.000    0.000    0.000 
#    0.000    1.333    0.000    4.333    0.000    9.667 
#
# Total GULP energy -134058.803322 kJ/mol
# GULP energy per Si atom -5585.783472 kJ/mol
# Density = 2.702950 g / cm^3
# Si number density = 27.091158 Si / 1000 Ang^3
#
#
#
# Elastic Constant Matrix: (Units=GPa)
#
#
# Indices 1 2 3 4 5 6 
#
# 1 119.3297 -12.0148 -10.2800 0.0000 0.0000 0.0000
# 2 -12.0148 165.6379 2.7890 0.0000 0.0000 0.0000
# 3 -10.2800 2.7890 58.1680 0.0000 0.0000 0.0000
# 4 0.0000 0.0000 0.0000 48.3998 0.0000 0.0000
# 5 0.0000 0.0000 0.0000 0.0000 -11.1177 0.0000
# 6 0.0000 0.0000 0.0000 0.0000 0.0000 5.0565
#
#
#
# Elastic Compliance Matrix: (Units=1/GPa)
#
#
# Indices 1 2 3 4 5 6 
#
# 1 0.008568 0.000596 0.001486 0.000000 0.000000 0.000000
# 2 0.000596 0.006084 -0.000186 0.000000 0.000000 0.000000
# 3 0.001486 -0.000186 0.017463 0.000000 0.000000 0.000000
# 4 0.000000 0.000000 0.000000 0.020661 0.000000 0.000000
# 5 0.000000 0.000000 0.000000 0.000000 -0.089946 0.000000
# 6 0.000000 0.000000 0.000000 0.000000 0.000000 0.197764
#
#
# Mechanical properties :
#
#
# Convention : Reuss Voigt Hill
#
# Bulk Modulus (GPa) = 27.84998 33.79156 30.82077
# Shear Modulus (GPa) = 29.62590 32.64381 31.13486
#
# Velocity S-wave (km/s) = 3.31049 3.47502 3.39376
# Velocity P-wave (km/s) = 4.99148 5.34803 5.17283
#
# Compressibility (1/GPa) = 0.03590667
#
# Stress axis : x y z
#
# Youngs Moduli (GPa) = 116.71082 164.37450 57.26367
#
# Poissons Ratio (x) = -0.09805 -0.08507
# Poissons Ratio (y) = -0.06962 0.01067
# Poissons Ratio (z) = -0.17339 0.03062
#
# Static dielectric constant tensor:
#      x y z
#    x 2.114510 0.000000 0.000000 
#    y 0.000000 2.041650 0.000000 
#    z 0.000000 0.000000 2.204460 
# 
# From -- ./inp_files/2681.got.cif
#   From: 2010.05.17/outbox.cif.g08.bks.cpg/sg36_2_cif.got.tgz:2681.got - 2010.06.03 17:41:39.
