data_PCOD9353956
_publ_section_title
;
Structure prediction by ZEFSAII (Michael W. Deem and Ramdas Pophale) SiO2 
 PCOD9353956
Probable space group: C C C 2
;
_chemical_formula_sum "Si O2"
_cell_formula_units_Z 48
_cell_length_a 16.594687
_cell_length_b 8.753933
_cell_length_c 15.019818
_cell_angle_alpha 90.000000
_cell_angle_beta 90.000000
_cell_angle_gamma 90.000000
_cell_volume 2181.910609
_symmetry_space_group_name_H-M "C C C 2"
_symmetry_group_IT_number 37
_symmetry_cell_setting 'orthorhombic'
loop_
_space_group_symop_operation_xyz
x,y,z
-x,-y,z
-x,y,1/2+z
x,-y,1/2+z
1/2+x,1/2+y,z
1/2-x,1/2-y,z
1/2-x,1/2+y,1/2+z
1/2+x,1/2-y,1/2+z
loop_
_atom_site_type_symbol
_atom_site_label
_atom_site_fract_x
_atom_site_fract_y
_atom_site_fract_z
Si Si1 0.343775 0.081815 0.041350
Si Si2 0.086053 0.441628 0.376907
Si Si3 0.858162 0.604052 0.708988
Si Si4 0.330318 0.438864 0.755852
Si Si5 0.667164 0.645725 0.428378
Si Si6 0.153026 0.915061 0.579486
O O1 0.249841 0.094650 0.065774
O O2 0.380931 0.249931 0.053157
O O3 0.376107 0.950480 0.108387
O O4 0.351934 0.032157 0.939903
O O5 0.099633 0.487003 0.275507
O O6 0.101868 0.265654 0.393806
O O7 0.000000 0.500000 0.407116
O O8 0.762361 0.585564 0.725731
O O9 0.874578 0.776736 0.741280
O O10 0.326296 0.514999 0.852662
O O11 0.365618 0.553071 0.682065
O O12 0.750000 0.750000 0.439325
O O13 0.636598 0.561386 0.517278
#
# Coordination Sequence:
#
# PCOD9353956 Si02
#       6
#     8   8   8   8   8   8
#     4  10  20  37  60  88 121 154 198 249 310 368
#     4  12  25  39  57  83 122 167 201 244 309 373
#     4  10  20  37  60  88 121 154 198 249 310 368
#     4  10  20  34  63  93 117 149 199 262 308 356
#     4  12  21  37  61  91 122 156 207 258 311 359
#     4  10  20  34  63  93 117 149 199 262 308 356
#
# _framework density 21.999068000000001
#
# number of rings (size 3 to 8) (size 9 to 14) (size 15 to 20)
#    0.000    1.333    3.333    3.000    4.667    3.333 
#    0.000    3.333    0.000    2.000    0.000    0.000 
#    0.000    0.000    0.000    0.000    0.000    0.000 
#
# Total GULP energy -133911.003947 kJ/mol
# GULP energy per Si atom -5579.625164 kJ/mol
# Density = 2.194900 g / cm^3
# Si number density = 21.999068 Si / 1000 Ang^3
#
#
#
# Elastic Constant Matrix: (Units=GPa)
#
#
# Indices 1 2 3 4 5 6 
#
# 1 18.0949 16.4575 -3.1085 0.0000 0.0000 0.0000
# 2 16.4575 99.1770 -12.3370 0.0000 0.0000 0.0000
# 3 -3.1085 -12.3370 57.1299 0.0000 0.0000 0.0000
# 4 0.0000 0.0000 0.0000 27.5589 0.0000 0.0000
# 5 0.0000 0.0000 0.0000 0.0000 -1.7401 0.0000
# 6 0.0000 0.0000 0.0000 0.0000 0.0000 9.3653
#
#
#
# Elastic Compliance Matrix: (Units=1/GPa)
#
#
# Indices 1 2 3 4 5 6 
#
# 1 0.065173 -0.010660 0.001244 0.000000 0.000000 0.000000
# 2 -0.010660 0.012105 0.002034 0.000000 0.000000 0.000000
# 3 0.001244 0.002034 0.018011 0.000000 0.000000 0.000000
# 4 0.000000 0.000000 0.000000 0.036286 0.000000 0.000000
# 5 0.000000 0.000000 0.000000 0.000000 -0.574682 0.000000
# 6 0.000000 0.000000 0.000000 0.000000 0.000000 0.106777
#
#
# Mechanical properties :
#
#
# Convention : Reuss Voigt Hill
#
# Bulk Modulus (GPa) = 12.41849 19.60288 16.01068
# Shear Modulus (GPa) = -16.96498 18.59615 0.81559
#
# Velocity S-wave (km/s) = -2.78000 2.91059 0.60954
# Velocity P-wave (km/s) = 2.15576 4.49727 2.79089
#
# Compressibility (1/GPa) = 0.08052507
#
# Stress axis : x y z
#
# Youngs Moduli (GPa) = 15.34370 82.61086 55.52192
#
# Poissons Ratio (x) = 0.88064 -0.06907
# Poissons Ratio (y) = 0.16357 -0.11293
# Poissons Ratio (z) = -0.01909 -0.16803
#
# Static dielectric constant tensor:
#      x y z
#    x 1.831010 0.000000 0.000000 
#    y 0.000000 1.866640 0.000000 
#    z 0.000000 0.000000 1.787780 
# 
# From -- ./inp_files/10588.got.cif
#   From: 2010.05.17/outbox.cif.g08.bks.cpg/sg37_6_cif.got.tgz:10588.got - 2010.06.03 17:53:42.
