data_PCOD9354703
_publ_section_title
;
Structure prediction by ZEFSAII (Michael W. Deem and Ramdas Pophale) SiO2 
 PCOD9354703
Probable space group: C C C 2
;
_chemical_formula_sum "Si O2"
_cell_formula_units_Z 44
_cell_length_a 32.767881
_cell_length_b 7.260348
_cell_length_c 8.533731
_cell_angle_alpha 90.000000
_cell_angle_beta 90.000000
_cell_angle_gamma 90.000000
_cell_volume 2030.227679
_symmetry_space_group_name_H-M "C C C 2"
_symmetry_group_IT_number 37
_symmetry_cell_setting 'orthorhombic'
loop_
_space_group_symop_operation_xyz
x,y,z
-x,-y,z
-x,y,1/2+z
x,-y,1/2+z
1/2+x,1/2+y,z
1/2-x,1/2-y,z
1/2-x,1/2+y,1/2+z
1/2+x,1/2-y,1/2+z
loop_
_atom_site_type_symbol
_atom_site_label
_atom_site_fract_x
_atom_site_fract_y
_atom_site_fract_z
Si Si1 0.875046 0.868621 0.051560
Si Si2 0.295867 0.675474 0.724926
Si Si3 0.500000 0.000000 0.937681
Si Si4 0.560745 0.114075 0.682858
Si Si5 0.701909 0.276091 0.092125
Si Si6 0.379214 0.231950 0.697438
O O1 0.831381 0.779688 0.100788
O O2 0.907495 0.776310 0.167194
O O3 0.878719 0.088413 0.082963
O O4 0.883362 0.808732 0.873714
O O5 0.250000 0.750000 0.691468
O O6 0.306899 0.714683 0.905315
O O7 0.298539 0.456478 0.702205
O O8 0.532623 0.108530 0.834505
O O9 0.472130 0.127845 0.044561
O O10 0.586582 0.922822 0.669621
O O11 0.750000 0.250000 0.092690
O O12 0.666642 0.151282 0.168688
#
# Coordination Sequence:
#
# PCOD9354703 Si02
#       6
#     8   8   4   8   8   8
#     4  11  24  41  67  97 130 174 217 264 322 389
#     4  10  22  38  58  89 127 166 216 263 308 376
#     4  10  24  46  70  98 132 160 220 270 326 402
#     4  11  24  46  70  96 132 172 208 274 330 387
#     4  10  22  38  58  89 127 166 216 263 308 376
#     4  11  24  41  67  97 130 174 217 264 322 389
#
# _framework density 21.672443000000001
#
# number of rings (size 3 to 8) (size 9 to 14) (size 15 to 20)
#    0.000    1.455    1.818    4.364    7.636    2.909 
#    0.000    5.455    0.000    0.000    0.000    0.000 
#    0.000    0.000    0.000    0.000    0.000    0.000 
#
# Total GULP energy -122571.457325 kJ/mol
# GULP energy per Si atom -5571.429878 kJ/mol
# Density = 2.162312 g / cm^3
# Si number density = 21.672443 Si / 1000 Ang^3
#
#
#
# Elastic Constant Matrix: (Units=GPa)
#
#
# Indices 1 2 3 4 5 6 
#
# 1 130.7554 24.6663 21.2833 0.0000 0.0000 0.0000
# 2 24.6663 58.0609 -3.8527 0.0000 0.0000 0.0000
# 3 21.2833 -3.8527 52.7985 0.0000 0.0000 0.0000
# 4 0.0000 0.0000 0.0000 -0.5491 0.0000 0.0000
# 5 0.0000 0.0000 0.0000 0.0000 103.8174 0.0000
# 6 0.0000 0.0000 0.0000 0.0000 0.0000 10.3428
#
#
#
# Elastic Compliance Matrix: (Units=1/GPa)
#
#
# Indices 1 2 3 4 5 6 
#
# 1 0.009068 -0.004115 -0.003956 0.000000 0.000000 0.000000
# 2 -0.004115 0.019174 0.003058 0.000000 0.000000 0.000000
# 3 -0.003956 0.003058 0.020758 0.000000 0.000000 0.000000
# 4 0.000000 0.000000 0.000000 -1.821161 0.000000 0.000000
# 5 0.000000 0.000000 0.000000 0.000000 0.009632 0.000000
# 6 0.000000 0.000000 0.000000 0.000000 0.000000 0.096686
#
#
# Mechanical properties :
#
#
# Convention : Reuss Voigt Hill
#
# Bulk Modulus (GPa) = 25.65768 36.20098 30.92933
# Shear Modulus (GPa) = -3.04354 36.02340 16.48993
#
# Velocity S-wave (km/s) = -1.18633 4.08140 2.76138
# Velocity P-wave (km/s) = 3.16039 6.24103 4.94664
#
# Compressibility (1/GPa) = 0.03897469
#
# Stress axis : x y z
#
# Youngs Moduli (GPa) = 110.27818 52.15305 48.17516
#
# Poissons Ratio (x) = 0.21460 0.19056
# Poissons Ratio (y) = 0.45378 -0.14731
# Poissons Ratio (z) = 0.43622 -0.15948
#
# Static dielectric constant tensor:
#      x y z
#    x 1.624250 0.000000 0.000000 
#    y 0.000000 1.832210 0.000000 
#    z 0.000000 0.000000 1.809420 
# 
# From -- ./inp_files/4929.got.cif
#   From: 2010.05.17/outbox.cif.g08.bks.cpg/sg37_3_cif.got.tgz:4929.got - 2010.06.03 17:53:42.
