data_PCOD9354415
_publ_section_title
;
Structure prediction by ZEFSAII (Michael W. Deem and Ramdas Pophale) SiO2 
 PCOD9354415
Probable space group: C C C 2
;
_chemical_formula_sum "Si O2"
_cell_formula_units_Z 64
_cell_length_a 9.033333
_cell_length_b 15.589969
_cell_length_c 22.266388
_cell_angle_alpha 90.000000
_cell_angle_beta 90.000000
_cell_angle_gamma 90.000000
_cell_volume 3135.761649
_symmetry_space_group_name_H-M "C C C 2"
_symmetry_group_IT_number 37
_symmetry_cell_setting 'orthorhombic'
loop_
_space_group_symop_operation_xyz
x,y,z
-x,-y,z
-x,y,1/2+z
x,-y,1/2+z
1/2+x,1/2+y,z
1/2-x,1/2-y,z
1/2-x,1/2+y,1/2+z
1/2+x,1/2-y,1/2+z
loop_
_atom_site_type_symbol
_atom_site_label
_atom_site_fract_x
_atom_site_fract_y
_atom_site_fract_z
Si Si1 0.790523 0.150230 0.917710
Si Si2 0.197200 0.346370 0.767657
Si Si3 0.790257 0.149194 0.054786
Si Si4 0.926457 0.912608 0.126900
Si Si5 0.838572 0.164358 0.740699
Si Si6 0.834463 0.531560 0.652417
Si Si7 0.954545 0.900818 0.842295
Si Si8 0.903750 0.585457 0.306789
O O1 0.750000 0.250000 0.913687
O O2 0.687887 0.104470 0.867502
O O3 0.962852 0.136486 0.900299
O O4 0.769033 0.121035 0.985850
O O5 0.250000 0.250000 0.753136
O O6 0.215404 0.411758 0.711292
O O7 0.285666 0.383191 0.825913
O O8 0.026409 0.345061 0.787945
O O9 0.750000 0.250000 0.058025
O O10 0.679956 0.100990 0.099315
O O11 0.957665 0.121038 0.076817
O O12 0.908620 0.838866 0.175600
O O13 0.761008 0.952070 0.123277
O O14 0.000000 0.000000 0.153211
O O15 0.750000 0.250000 0.752686
O O16 0.718823 0.088927 0.753906
O O17 0.965037 0.146150 0.787577
O O18 0.000000 0.500000 0.663710
O O19 0.000000 0.000000 0.840443
O O20 0.000000 0.500000 0.310933
#
# Coordination Sequence:
#
# PCOD9354415 Si02
#       8
#     8   8   8   8   8   8   8   8
#     4  10  22  43  63  82 115 157 198 242 296 353
#     4  12  22  35  59  92 124 152 192 239 293 357
#     4  10  23  43  64  85 114 157 208 254 299 354
#     4  10  21  38  60  84 116 156 201 246 294 357
#     4  11  21  36  57  84 120 158 192 232 292 355
#     4  11  23  39  60  88 125 160 196 247 304 359
#     4  11  21  35  57  86 119 155 194 235 288 351
#     4  11  22  37  59  89 121 153 191 239 296 352
#
# _framework density 20.409714999999998
#
# number of rings (size 3 to 8) (size 9 to 14) (size 15 to 20)
#    0.000    1.250    0.000    9.375    0.000    4.000 
#    0.000    1.250    0.000    3.750    0.000    0.000 
#    0.000    0.000    0.000    0.000    0.000    0.000 
#
# Total GULP energy -178362.251419 kJ/mol
# GULP energy per Si atom -5573.820357 kJ/mol
# Density = 2.036326 g / cm^3
# Si number density = 20.409715 Si / 1000 Ang^3
#
#
#
# Elastic Constant Matrix: (Units=GPa)
#
#
# Indices 1 2 3 4 5 6 
#
# 1 93.6009 19.3638 25.0123 0.0000 0.0000 0.0000
# 2 19.3638 88.0844 26.3223 0.0000 0.0000 0.0000
# 3 25.0123 26.3223 107.4789 0.0000 0.0000 0.0000
# 4 0.0000 0.0000 0.0000 21.5986 0.0000 0.0000
# 5 0.0000 0.0000 0.0000 0.0000 25.1758 0.0000
# 6 0.0000 0.0000 0.0000 0.0000 0.0000 35.8732
#
#
#
# Elastic Compliance Matrix: (Units=1/GPa)
#
#
# Indices 1 2 3 4 5 6 
#
# 1 0.011678 -0.001894 -0.002254 0.000000 0.000000 0.000000
# 2 -0.001894 0.012556 -0.002634 0.000000 0.000000 0.000000
# 3 -0.002254 -0.002634 0.010474 0.000000 0.000000 0.000000
# 4 0.000000 0.000000 0.000000 0.046299 0.000000 0.000000
# 5 0.000000 0.000000 0.000000 0.000000 0.039721 0.000000
# 6 0.000000 0.000000 0.000000 0.000000 0.000000 0.027876
#
#
# Mechanical properties :
#
#
# Convention : Reuss Voigt Hill
#
# Bulk Modulus (GPa) = 47.29471 47.84010 47.56741
# Shear Modulus (GPa) = 29.54813 31.09392 30.32102
#
# Velocity S-wave (km/s) = 3.80906 3.90742 3.85855
# Velocity P-wave (km/s) = 6.52443 6.62178 6.57329
#
# Compressibility (1/GPa) = 0.02114401
#
# Stress axis : x y z
#
# Youngs Moduli (GPa) = 85.63341 79.64150 95.47589
#
# Poissons Ratio (x) = 0.15081 0.21519
# Poissons Ratio (y) = 0.16216 0.25152
# Poissons Ratio (z) = 0.19300 0.20981
#
# Static dielectric constant tensor:
#      x y z
#    x 1.875330 0.000000 0.000000 
#    y 0.000000 1.792160 0.000000 
#    z 0.000000 0.000000 1.717260 
# 
# From -- ./inp_files/18436.got.cif
#   From: 2010.05.17/outbox.cif.g08.bks.cpg/sg37_10_cif.got.tgz:18436.got - 2010.06.03 17:53:42.
