data_PCOD9354672
_publ_section_title
;
Structure prediction by ZEFSAII (Michael W. Deem and Ramdas Pophale) SiO2 
 PCOD9354672
Probable space group: C C C 2
;
_chemical_formula_sum "Si O2"
_cell_formula_units_Z 36
_cell_length_a 8.043229
_cell_length_b 14.580298
_cell_length_c 14.715590
_cell_angle_alpha 90.000000
_cell_angle_beta 90.000000
_cell_angle_gamma 90.000000
_cell_volume 1725.736614
_symmetry_space_group_name_H-M "C C C 2"
_symmetry_group_IT_number 37
_symmetry_cell_setting 'orthorhombic'
loop_
_space_group_symop_operation_xyz
x,y,z
-x,-y,z
-x,y,1/2+z
x,-y,1/2+z
1/2+x,1/2+y,z
1/2-x,1/2-y,z
1/2-x,1/2+y,1/2+z
1/2+x,1/2-y,1/2+z
loop_
_atom_site_type_symbol
_atom_site_label
_atom_site_fract_x
_atom_site_fract_y
_atom_site_fract_z
Si Si1 0.423487 0.141590 0.446360
Si Si2 0.734983 0.857504 0.060423
Si Si3 0.061786 0.862036 0.969619
Si Si4 0.154716 0.562348 0.747246
Si Si5 0.000000 0.000000 0.811046
O O1 0.590919 0.104754 0.493562
O O2 0.250945 0.112469 0.494848
O O3 0.434517 0.252347 0.453192
O O4 0.396085 0.110040 0.342597
O O5 0.750000 0.750000 0.040393
O O6 0.685111 0.869605 0.164269
O O7 0.920116 0.892264 0.039677
O O8 0.009566 0.911638 0.876535
O O9 0.325335 0.504985 0.759105
O O10 0.000000 0.500000 0.721393
#
# Coordination Sequence:
#
# PCOD9354672 Si02
#       5
#     8   8   8   8   4
#     4   9  20  40  63  83 121 162 198 238 300 357
#     4  10  22  38  61  87 116 158 203 243 293 357
#     4   9  19  38  62  84 115 160 198 243 293 356
#     4  11  24  38  59  92 123 157 200 249 298 351
#     4  10  22  36  60  90 122 160 196 244 304 344
#
# _framework density 20.860657
#
# number of rings (size 3 to 8) (size 9 to 14) (size 15 to 20)
#    0.000    2.222    0.000    1.333    6.222    7.111 
#    0.000    0.000   14.667    0.000    0.000    0.000 
#    0.000    0.000    0.000    0.000    0.000    0.000 
#
# Total GULP energy -100421.530532 kJ/mol
# GULP energy per Si atom -5578.973918 kJ/mol
# Density = 2.081318 g / cm^3
# Si number density = 20.860657 Si / 1000 Ang^3
#
#
#
# Elastic Constant Matrix: (Units=GPa)
#
#
# Indices 1 2 3 4 5 6 
#
# 1 190.8581 40.7585 67.7114 0.0000 0.0000 0.0000
# 2 40.7585 34.3129 -2.8168 0.0000 0.0000 0.0000
# 3 67.7114 -2.8168 81.2159 0.0000 0.0000 0.0000
# 4 0.0000 0.0000 0.0000 59.0114 0.0000 0.0000
# 5 0.0000 0.0000 0.0000 0.0000 -23.3620 0.0000
# 6 0.0000 0.0000 0.0000 0.0000 0.0000 15.3879
#
#
#
# Elastic Compliance Matrix: (Units=1/GPa)
#
#
# Indices 1 2 3 4 5 6 
#
# 1 0.012485 -0.015730 -0.010955 0.000000 0.000000 0.000000
# 2 -0.015730 0.049044 0.014815 0.000000 0.000000 0.000000
# 3 -0.010955 0.014815 0.021960 0.000000 0.000000 0.000000
# 4 0.000000 0.000000 0.000000 0.016946 0.000000 0.000000
# 5 0.000000 0.000000 0.000000 0.000000 -0.042805 0.000000
# 6 0.000000 0.000000 0.000000 0.000000 0.000000 0.064986
#
#
# Mechanical properties :
#
#
# Convention : Reuss Voigt Hill
#
# Bulk Modulus (GPa) = 16.73618 57.52145 37.12882
# Shear Modulus (GPa) = 30.07131 23.58971 26.83051
#
# Velocity S-wave (km/s) = 3.80087 3.36642 3.59022
# Velocity P-wave (km/s) = 5.22517 6.53792 5.91806
#
# Compressibility (1/GPa) = 0.05975081
#
# Stress axis : x y z
#
# Youngs Moduli (GPa) = 80.09614 20.38980 45.53783
#
# Poissons Ratio (x) = 0.32072 0.49885
# Poissons Ratio (y) = 1.25988 -0.67465
# Poissons Ratio (z) = 0.87742 -0.30208
#
# Static dielectric constant tensor:
#      x y z
#    x 1.813040 0.000000 0.000000 
#    y 0.000000 1.726820 0.000000 
#    z 0.000000 0.000000 1.726490 
# 
# From -- ./inp_files/10292.got.cif
#   From: 2010.05.17/outbox.cif.g08.bks.cpg/sg37_6_cif.got.tgz:10292.got - 2010.06.03 17:53:42.
