data_PCOD9354109
_publ_section_title
;
Structure prediction by ZEFSAII (Michael W. Deem and Ramdas Pophale) SiO2 
 PCOD9354109
Probable space group: C C C 2
;
_chemical_formula_sum "Si O2"
_cell_formula_units_Z 40
_cell_length_a 12.491545
_cell_length_b 11.989925
_cell_length_c 13.878756
_cell_angle_alpha 90.000000
_cell_angle_beta 90.000000
_cell_angle_gamma 90.000000
_cell_volume 2078.658588
_symmetry_space_group_name_H-M "C C C 2"
_symmetry_group_IT_number 37
_symmetry_cell_setting 'orthorhombic'
loop_
_space_group_symop_operation_xyz
x,y,z
-x,-y,z
-x,y,1/2+z
x,-y,1/2+z
1/2+x,1/2+y,z
1/2-x,1/2-y,z
1/2-x,1/2+y,1/2+z
1/2+x,1/2-y,1/2+z
loop_
_atom_site_type_symbol
_atom_site_label
_atom_site_fract_x
_atom_site_fract_y
_atom_site_fract_z
Si Si1 0.313452 0.500377 0.359180
Si Si2 0.881650 0.449833 0.230313
Si Si3 0.707136 0.526314 0.585037
Si Si4 0.356591 0.675224 0.718854
Si Si5 0.098282 0.804762 0.223480
O O1 0.196294 0.495519 0.309514
O O2 0.305508 0.496554 0.473082
O O3 0.365348 0.386187 0.321679
O O4 0.374972 0.605113 0.308489
O O5 0.828538 0.471472 0.125510
O O6 0.862019 0.318319 0.248091
O O7 0.000000 0.500000 0.236787
O O8 0.654588 0.423419 0.641593
O O9 0.649979 0.636653 0.628956
O O10 0.250000 0.750000 0.713507
O O11 0.473741 0.723271 0.703348
#
# Coordination Sequence:
#
# PCOD9354109 Si02
#       5
#     8   8   8   8   8
#     4  10  21  37  57  83 113 149 196 242 286 349
#     4  10  21  40  59  82 118 154 190 242 299 354
#     4  10  21  37  57  83 113 149 196 242 286 349
#     4  10  21  36  55  82 114 148 188 238 289 344
#     4  10  20  38  60  82 114 156 192 236 298 350
#
# _framework density 19.243178
#
# number of rings (size 3 to 8) (size 9 to 14) (size 15 to 20)
#    0.000    2.400    0.000    7.200    0.000    7.200 
#    0.000    4.000    0.000    0.000    0.000    0.000 
#    0.000    0.000    0.000    0.000    0.000    0.000 
#
# Total GULP energy -111344.564989 kJ/mol
# GULP energy per Si atom -5567.228249 kJ/mol
# Density = 1.919938 g / cm^3
# Si number density = 19.243178 Si / 1000 Ang^3
#
#
#
# Elastic Constant Matrix: (Units=GPa)
#
#
# Indices 1 2 3 4 5 6 
#
# 1 110.5555 5.5699 17.3244 0.0000 0.0000 0.0000
# 2 5.5699 56.1123 5.7193 0.0000 0.0000 0.0000
# 3 17.3244 5.7193 119.9733 0.0000 0.0000 0.0000
# 4 0.0000 0.0000 0.0000 6.8375 0.0000 0.0000
# 5 0.0000 0.0000 0.0000 0.0000 10.3665 0.0000
# 6 0.0000 0.0000 0.0000 0.0000 0.0000 219.3694
#
#
#
# Elastic Compliance Matrix: (Units=1/GPa)
#
#
# Indices 1 2 3 4 5 6 
#
# 1 0.009289 -0.000789 -0.001304 0.000000 0.000000 0.000000
# 2 -0.000789 0.017975 -0.000743 0.000000 0.000000 0.000000
# 3 -0.001304 -0.000743 0.008559 0.000000 0.000000 0.000000
# 4 0.000000 0.000000 0.000000 0.146252 0.000000 0.000000
# 5 0.000000 0.000000 0.000000 0.000000 0.096465 0.000000
# 6 0.000000 0.000000 0.000000 0.000000 0.000000 0.004559
#
#
# Mechanical properties :
#
#
# Convention : Reuss Voigt Hill
#
# Bulk Modulus (GPa) = 33.16553 38.20760 35.68656
# Shear Modulus (GPa) = 16.73240 64.51651 40.62446
#
# Velocity S-wave (km/s) = 2.95197 5.79653 4.59967
# Velocity P-wave (km/s) = 5.37505 8.04350 6.84065
#
# Compressibility (1/GPa) = 0.03015179
#
# Stress axis : x y z
#
# Youngs Moduli (GPa) = 107.65078 55.63134 116.83783
#
# Poissons Ratio (x) = 0.04390 0.15233
# Poissons Ratio (y) = 0.08496 0.08681
# Poissons Ratio (z) = 0.14035 0.04133
#
# Static dielectric constant tensor:
#      x y z
#    x 1.738990 0.000000 0.000000 
#    y 0.000000 1.708660 0.000000 
#    z 0.000000 0.000000 1.644320 
# 
# From -- ./inp_files/11329.got.cif
#   From: 2010.05.17/outbox.cif.g08.bks.cpg/sg37_6_cif.got.tgz:11329.got - 2010.06.03 17:53:42.
