data_PCOD9354234
_publ_section_title
;
Structure prediction by ZEFSAII (Michael W. Deem and Ramdas Pophale) SiO2 
 PCOD9354234
Probable space group: C C C 2
;
_chemical_formula_sum "Si O2"
_cell_formula_units_Z 56
_cell_length_a 15.526889
_cell_length_b 12.555217
_cell_length_c 13.297876
_cell_angle_alpha 90.000000
_cell_angle_beta 90.000000
_cell_angle_gamma 90.000000
_cell_volume 2592.333968
_symmetry_space_group_name_H-M "C C C 2"
_symmetry_group_IT_number 37
_symmetry_cell_setting 'orthorhombic'
loop_
_space_group_symop_operation_xyz
x,y,z
-x,-y,z
-x,y,1/2+z
x,-y,1/2+z
1/2+x,1/2+y,z
1/2-x,1/2-y,z
1/2-x,1/2+y,1/2+z
1/2+x,1/2-y,1/2+z
loop_
_atom_site_type_symbol
_atom_site_label
_atom_site_fract_x
_atom_site_fract_y
_atom_site_fract_z
Si Si1 0.250000 0.750000 0.368830
Si Si2 0.314604 0.336002 0.550114
Si Si3 0.496248 0.270267 0.612710
Si Si4 0.680874 0.441050 0.252444
Si Si5 0.500000 0.500000 0.706249
Si Si6 0.808057 0.425296 0.887173
Si Si7 0.516972 0.881303 0.290021
Si Si8 0.891042 0.617853 0.977864
O O1 0.309110 0.674954 0.300922
O O2 0.192362 0.678471 0.439803
O O3 0.250000 0.250000 0.595914
O O4 0.409144 0.283459 0.547037
O O5 0.316311 0.431039 0.631358
O O6 0.268786 0.367040 0.446335
O O7 0.517694 0.393127 0.640282
O O8 0.481537 0.209464 0.717478
O O9 0.566276 0.190422 0.563788
O O10 0.585256 0.483418 0.272690
O O11 0.758116 0.506041 0.302585
O O12 0.883983 0.367188 0.825250
O O13 0.857789 0.495108 0.974176
O O14 0.460906 0.881337 0.389961
O O15 0.500000 0.000000 0.244130
#
# Coordination Sequence:
#
# PCOD9354234 Si02
#       8
#     4   8   8   8   4   8   8   8
#     4  10  20  40  68  90 118 180 234 278 338 422
#     4  11  23  39  69  97 131 183 233 274 350 424
#     4  11  25  43  68  96 143 186 228 285 355 433
#     4  10  22  41  65  93 134 176 230 285 340 414
#     4  10  24  42  62 100 136 192 222 266 352 420
#     4  10  24  40  66 104 134 173 237 298 350 412
#     4  10  23  43  68 104 136 176 233 298 365 412
#     4  10  22  42  64  95 131 172 229 288 348 412
#
# _framework density 21.602156000000001
#
# number of rings (size 3 to 8) (size 9 to 14) (size 15 to 20)
#    0.000    1.714    0.714    2.571    6.000    9.714 
#    0.000    1.429    0.000    0.000    0.000    0.000 
#    0.000    0.000    0.000    0.000    0.000    0.000 
#
# Total GULP energy -156034.403746 kJ/mol
# GULP energy per Si atom -5572.657277 kJ/mol
# Density = 2.155299 g / cm^3
# Si number density = 21.602156 Si / 1000 Ang^3
#
#
#
# Elastic Constant Matrix: (Units=GPa)
#
#
# Indices 1 2 3 4 5 6 
#
# 1 115.4230 17.3403 12.4550 0.0000 0.0000 0.0000
# 2 17.3403 77.1886 15.1624 0.0000 0.0000 0.0000
# 3 12.4550 15.1624 32.8379 0.0000 0.0000 0.0000
# 4 0.0000 0.0000 0.0000 8.3910 0.0000 0.0000
# 5 0.0000 0.0000 0.0000 0.0000 17.8020 0.0000
# 6 0.0000 0.0000 0.0000 0.0000 0.0000 35.8202
#
#
#
# Elastic Compliance Matrix: (Units=1/GPa)
#
#
# Indices 1 2 3 4 5 6 
#
# 1 0.009192 -0.001518 -0.002786 0.000000 0.000000 0.000000
# 2 -0.001518 0.014498 -0.006119 0.000000 0.000000 0.000000
# 3 -0.002786 -0.006119 0.034334 0.000000 0.000000 0.000000
# 4 0.000000 0.000000 0.000000 0.119176 0.000000 0.000000
# 5 0.000000 0.000000 0.000000 0.000000 0.056174 0.000000
# 6 0.000000 0.000000 0.000000 0.000000 0.000000 0.027917
#
#
# Mechanical properties :
#
#
# Convention : Reuss Voigt Hill
#
# Bulk Modulus (GPa) = 26.89576 35.04055 30.96816
# Shear Modulus (GPa) = 16.97623 24.43541 20.70582
#
# Velocity S-wave (km/s) = 2.80636 3.36692 3.09934
# Velocity P-wave (km/s) = 4.79358 5.60097 5.21293
#
# Compressibility (1/GPa) = 0.03718058
#
# Stress axis : x y z
#
# Youngs Moduli (GPa) = 108.78534 68.97426 29.12535
#
# Poissons Ratio (x) = 0.10469 0.08114
# Poissons Ratio (y) = 0.16512 0.17821
# Poissons Ratio (z) = 0.30305 0.42203
#
# Static dielectric constant tensor:
#      x y z
#    x 1.791850 0.000000 0.000000 
#    y 0.000000 1.892190 0.000000 
#    z 0.000000 0.000000 1.805840 
# 
# From -- ./inp_files/7883.got.cif
#   From: 2010.05.17/outbox.cif.g08.bks.cpg/sg37_4_cif.got.tgz:7883.got - 2010.06.03 17:53:42.
