data_PCOD9354457
_publ_section_title
;
Structure prediction by ZEFSAII (Michael W. Deem and Ramdas Pophale) SiO2 
 PCOD9354457
Probable space group: C C C 2
;
_chemical_formula_sum "Si O2"
_cell_formula_units_Z 48
_cell_length_a 25.540023
_cell_length_b 8.534245
_cell_length_c 10.884770
_cell_angle_alpha 90.000000
_cell_angle_beta 90.000000
_cell_angle_gamma 90.000000
_cell_volume 2372.496864
_symmetry_space_group_name_H-M "C C C 2"
_symmetry_group_IT_number 37
_symmetry_cell_setting 'orthorhombic'
loop_
_space_group_symop_operation_xyz
x,y,z
-x,-y,z
-x,y,1/2+z
x,-y,1/2+z
1/2+x,1/2+y,z
1/2-x,1/2-y,z
1/2-x,1/2+y,1/2+z
1/2+x,1/2-y,1/2+z
loop_
_atom_site_type_symbol
_atom_site_label
_atom_site_fract_x
_atom_site_fract_y
_atom_site_fract_z
Si Si1 0.208903 0.629729 0.978970
Si Si2 0.153604 0.329651 0.045281
Si Si3 0.979676 0.171289 0.769820
Si Si4 0.858011 0.843232 0.300355
Si Si5 0.715101 0.615760 0.848318
Si Si6 0.531108 0.837287 0.004441
O O1 0.250000 0.750000 0.035539
O O2 0.168042 0.739176 0.907091
O O3 0.244168 0.519345 0.890023
O O4 0.179363 0.500718 0.058507
O O5 0.152818 0.247168 0.175320
O O6 0.094232 0.350580 0.997750
O O7 0.187343 0.215322 0.957476
O O8 0.920008 0.153306 0.815251
O O9 0.980637 0.266390 0.640749
O O10 0.000000 0.000000 0.739107
O O11 0.011950 0.240844 0.884860
O O12 0.831465 0.014442 0.289321
O O13 0.750000 0.750000 0.785724
O O14 0.500000 0.000000 0.997407
#
# Coordination Sequence:
#
# PCOD9354457 Si02
#       6
#     8   8   8   8   8   8
#     4   9  19  36  58  85 115 150 194 242 294 358
#     4  10  21  39  60  85 120 157 197 249 304 362
#     4  11  23  40  64  92 125 165 208 257 312 370
#     4  10  21  39  60  85 120 157 197 249 304 362
#     4   9  19  36  58  85 115 150 194 242 294 358
#     4  11  23  40  64  92 125 165 208 257 312 370
#
# _framework density 20.231847999999999
#
# number of rings (size 3 to 8) (size 9 to 14) (size 15 to 20)
#    0.000    2.000    0.000    3.000    0.000    8.667 
#    0.000   11.667    0.000    0.000    0.000    0.000 
#    0.000    0.000    0.000    0.000    0.000    0.000 
#
# Total GULP energy -133849.619046 kJ/mol
# GULP energy per Si atom -5577.067460 kJ/mol
# Density = 2.018580 g / cm^3
# Si number density = 20.231848 Si / 1000 Ang^3
#
#
#
# Elastic Constant Matrix: (Units=GPa)
#
#
# Indices 1 2 3 4 5 6 
#
# 1 67.9079 25.3024 17.4911 0.0000 0.0000 0.0000
# 2 25.3024 109.0168 -1.1447 0.0000 0.0000 0.0000
# 3 17.4911 -1.1447 33.8099 0.0000 0.0000 0.0000
# 4 0.0000 0.0000 0.0000 7.7549 0.0000 0.0000
# 5 0.0000 0.0000 0.0000 0.0000 831.1300 0.0000
# 6 0.0000 0.0000 0.0000 0.0000 0.0000 35.3260
#
#
#
# Elastic Compliance Matrix: (Units=1/GPa)
#
#
# Indices 1 2 3 4 5 6 
#
# 1 0.018973 -0.004508 -0.009968 0.000000 0.000000 0.000000
# 2 -0.004508 0.010247 0.002679 0.000000 0.000000 0.000000
# 3 -0.009968 0.002679 0.034825 0.000000 0.000000 0.000000
# 4 0.000000 0.000000 0.000000 0.128951 0.000000 0.000000
# 5 0.000000 0.000000 0.000000 0.000000 0.001203 0.000000
# 6 0.000000 0.000000 0.000000 0.000000 0.000000 0.028308
#
#
# Mechanical properties :
#
#
# Convention : Reuss Voigt Hill
#
# Bulk Modulus (GPa) = 24.72131 32.67024 28.69578
# Shear Modulus (GPa) = 19.26147 186.11455 102.68801
#
# Velocity S-wave (km/s) = 3.08886 9.60159 7.13203
# Velocity P-wave (km/s) = 4.99669 11.79423 9.05734
#
# Compressibility (1/GPa) = 0.04045093
#
# Stress axis : x y z
#
# Youngs Moduli (GPa) = 52.70612 97.58592 28.71520
#
# Poissons Ratio (x) = 0.43994 0.28624
# Poissons Ratio (y) = 0.23761 -0.07694
# Poissons Ratio (z) = 0.52538 -0.26146
#
# Static dielectric constant tensor:
#      x y z
#    x 1.553240 0.000000 0.000000 
#    y 0.000000 1.736590 0.000000 
#    z 0.000000 0.000000 1.714170 
# 
# From -- ./inp_files/8843.got.cif
#   From: 2010.05.17/outbox.cif.g08.bks.cpg/sg37_5_cif.got.tgz:8843.got - 2010.06.03 17:53:42.
