data_PCOD9354961
_publ_section_title
;
Structure prediction by ZEFSAII (Michael W. Deem and Ramdas Pophale) SiO2 
 PCOD9354961
Probable space group: C C C 2
;
_chemical_formula_sum "Si O2"
_cell_formula_units_Z 56
_cell_length_a 8.743604
_cell_length_b 14.373112
_cell_length_c 21.453130
_cell_angle_alpha 90.000000
_cell_angle_beta 90.000000
_cell_angle_gamma 90.000000
_cell_volume 2696.074907
_symmetry_space_group_name_H-M "C C C 2"
_symmetry_group_IT_number 37
_symmetry_cell_setting 'orthorhombic'
loop_
_space_group_symop_operation_xyz
x,y,z
-x,-y,z
-x,y,1/2+z
x,-y,1/2+z
1/2+x,1/2+y,z
1/2-x,1/2-y,z
1/2-x,1/2+y,1/2+z
1/2+x,1/2-y,1/2+z
loop_
_atom_site_type_symbol
_atom_site_label
_atom_site_fract_x
_atom_site_fract_y
_atom_site_fract_z
Si Si1 0.891569 0.416054 0.526010
Si Si2 0.500000 0.000000 0.783515
Si Si3 0.571325 0.727484 0.549308
Si Si4 0.956205 0.140012 0.919735
Si Si5 0.243846 0.536678 0.392120
Si Si6 0.750000 0.750000 0.349124
Si Si7 0.103629 0.087890 0.118419
Si Si8 0.718637 0.143772 0.730524
O O1 0.848378 0.434264 0.454074
O O2 0.743395 0.409882 0.569827
O O3 0.000000 0.500000 0.547205
O O4 0.981968 0.320770 0.533607
O O5 0.363574 0.031121 0.831180
O O6 0.561207 0.085782 0.740425
O O7 0.750000 0.750000 0.553196
O O8 0.536268 0.655317 0.493391
O O9 0.501131 0.678876 0.609793
O O10 0.896156 0.237878 0.892251
O O11 0.113695 0.108195 0.888794
O O12 0.827762 0.061178 0.908184
O O13 0.761523 0.835861 0.301968
O O14 0.173671 0.082674 0.187445
O O15 0.000000 0.000000 0.105164
O O16 0.750000 0.250000 0.704369
#
# Coordination Sequence:
#
# PCOD9354961 Si02
#       8
#     8   4   8   8   8   4   8   8
#     4  12  25  40  68 103 142 187 229 293 358 436
#     4  12  24  46  74 102 140 192 248 302 362 442
#     4  12  25  42  70 107 144 185 238 295 374 429
#     4  11  22  40  68 101 146 184 226 295 363 437
#     4  11  23  39  66 104 143 182 234 284 365 434
#     4  10  22  44  68  94 138 190 228 296 358 424
#     4  12  26  49  73 102 142 188 242 302 364 432
#     4  10  25  47  72  94 139 189 244 299 356 430
#
# _framework density 20.770937
#
# number of rings (size 3 to 8) (size 9 to 14) (size 15 to 20)
#    0.429    0.286    4.286    3.857    3.000    1.143 
#    2.571    0.000    0.000    0.000    0.000    0.000 
#    0.000    0.000    0.000    0.000    0.000    0.000 
#
# Total GULP energy -156144.685045 kJ/mol
# GULP energy per Si atom -5576.595894 kJ/mol
# Density = 2.072366 g / cm^3
# Si number density = 20.770937 Si / 1000 Ang^3
#
#
#
# Elastic Constant Matrix: (Units=GPa)
#
#
# Indices 1 2 3 4 5 6 
#
# 1 153.2033 69.0272 45.3346 0.0000 0.0000 0.0000
# 2 69.0272 96.5667 32.6850 0.0000 0.0000 0.0000
# 3 45.3346 32.6850 60.1209 0.0000 0.0000 0.0000
# 4 0.0000 0.0000 0.0000 21.3746 0.0000 0.0000
# 5 0.0000 0.0000 0.0000 0.0000 70.6521 0.0000
# 6 0.0000 0.0000 0.0000 0.0000 0.0000 42.6838
#
#
#
# Elastic Compliance Matrix: (Units=1/GPa)
#
#
# Indices 1 2 3 4 5 6 
#
# 1 0.010636 -0.005990 -0.004763 0.000000 0.000000 0.000000
# 2 -0.005990 0.016065 -0.004217 0.000000 0.000000 0.000000
# 3 -0.004763 -0.004217 0.022517 0.000000 0.000000 0.000000
# 4 0.000000 0.000000 0.000000 0.046784 0.000000 0.000000
# 5 0.000000 0.000000 0.000000 0.000000 0.014154 0.000000
# 6 0.000000 0.000000 0.000000 0.000000 0.000000 0.023428
#
#
# Mechanical properties :
#
#
# Convention : Reuss Voigt Hill
#
# Bulk Modulus (GPa) = 51.87444 67.10941 59.49193
# Shear Modulus (GPa) = 29.42031 37.79839 33.60935
#
# Velocity S-wave (km/s) = 3.76761 4.27051 4.02692
# Velocity P-wave (km/s) = 6.62988 7.52966 7.09405
#
# Compressibility (1/GPa) = 0.01927732
#
# Stress axis : x y z
#
# Youngs Moduli (GPa) = 94.02191 62.24812 44.41027
#
# Poissons Ratio (x) = 0.37289 0.21154
# Poissons Ratio (y) = 0.56323 0.18726
# Poissons Ratio (z) = 0.44786 0.26247
#
# Static dielectric constant tensor:
#      x y z
#    x 1.737910 0.000000 0.000000 
#    y 0.000000 1.785970 0.000000 
#    z 0.000000 0.000000 1.713140 
# 
# From -- ./inp_files/16459.got.cif
#   From: 2010.05.17/outbox.cif.g08.bks.cpg/sg37_9_cif.got.tgz:16459.got - 2010.06.03 17:53:42.
