data_PCOD9354459
_publ_section_title
;
Structure prediction by ZEFSAII (Michael W. Deem and Ramdas Pophale) SiO2 
 PCOD9354459
Probable space group: C C C 2
;
_chemical_formula_sum "Si O2"
_cell_formula_units_Z 48
_cell_length_a 15.627405
_cell_length_b 9.054690
_cell_length_c 18.905758
_cell_angle_alpha 90.000000
_cell_angle_beta 90.000000
_cell_angle_gamma 90.000000
_cell_volume 2675.189482
_symmetry_space_group_name_H-M "C C C 2"
_symmetry_group_IT_number 37
_symmetry_cell_setting 'orthorhombic'
loop_
_space_group_symop_operation_xyz
x,y,z
-x,-y,z
-x,y,1/2+z
x,-y,1/2+z
1/2+x,1/2+y,z
1/2-x,1/2-y,z
1/2-x,1/2+y,1/2+z
1/2+x,1/2-y,1/2+z
loop_
_atom_site_type_symbol
_atom_site_label
_atom_site_fract_x
_atom_site_fract_y
_atom_site_fract_z
Si Si1 0.658572 0.684722 0.095320
Si Si2 0.994626 0.673857 0.180985
Si Si3 0.003067 0.324011 0.348852
Si Si4 0.342151 0.677209 0.427288
Si Si5 0.415449 0.392797 0.583558
Si Si6 0.656599 0.674007 0.432046
O O1 0.750000 0.750000 0.109610
O O2 0.590906 0.764692 0.144798
O O3 0.655220 0.509708 0.107994
O O4 0.640236 0.703659 0.011224
O O5 0.000000 0.500000 0.167797
O O6 0.997738 0.699663 0.264587
O O7 0.066395 0.768131 0.140619
O O8 0.920420 0.247127 0.384114
O O9 0.000000 0.500000 0.362652
O O10 0.089607 0.254655 0.380768
O O11 0.250000 0.750000 0.411015
O O12 0.336773 0.500930 0.415326
O O13 0.500000 0.500000 0.574507
O O14 0.386379 0.322737 0.509940
O O15 0.750000 0.750000 0.431422
#
# Coordination Sequence:
#
# PCOD9354459 Si02
#       6
#     8   8   8   8   8   8
#     4   9  19  36  58  82 109 140 181 230 278 329
#     4  10  22  37  55  80 111 148 186 225 276 330
#     4  11  23  39  56  81 117 153 189 230 277 333
#     4  10  21  39  61  86 112 144 188 236 282 330
#     4   9  19  37  57  81 109 144 187 228 277 333
#     4  11  22  36  59  88 114 147 187 229 280 337
#
# _framework density 17.942654999999998
#
# number of rings (size 3 to 8) (size 9 to 14) (size 15 to 20)
#    0.000    2.000    0.000    4.500    0.000   11.333 
#    0.000    4.167    0.000    0.000    0.000    0.000 
#    0.000    0.000    0.000    0.000    0.000    0.000 
#
# Total GULP energy -133928.119863 kJ/mol
# GULP energy per Si atom -5580.338328 kJ/mol
# Density = 1.790182 g / cm^3
# Si number density = 17.942655 Si / 1000 Ang^3
#
#
#
# Elastic Constant Matrix: (Units=GPa)
#
#
# Indices 1 2 3 4 5 6 
#
# 1 110.0650 77.0945 70.3795 0.0000 0.0000 0.0000
# 2 77.0945 138.5836 100.1717 0.0000 0.0000 0.0000
# 3 70.3795 100.1717 101.5859 0.0000 0.0000 0.0000
# 4 0.0000 0.0000 0.0000 32.2100 0.0000 0.0000
# 5 0.0000 0.0000 0.0000 0.0000 -2.4904 0.0000
# 6 0.0000 0.0000 0.0000 0.0000 0.0000 40.5790
#
#
#
# Elastic Compliance Matrix: (Units=1/GPa)
#
#
# Indices 1 2 3 4 5 6 
#
# 1 0.016717 -0.003232 -0.008395 0.000000 0.000000 0.000000
# 2 -0.003232 0.025746 -0.023149 0.000000 0.000000 0.000000
# 3 -0.008395 -0.023149 0.038487 0.000000 0.000000 0.000000
# 4 0.000000 0.000000 0.000000 0.031046 0.000000 0.000000
# 5 0.000000 0.000000 0.000000 0.000000 -0.401536 0.000000
# 6 0.000000 0.000000 0.000000 0.000000 0.000000 0.024643
#
#
# Mechanical properties :
#
#
# Convention : Reuss Voigt Hill
#
# Bulk Modulus (GPa) = 87.72850 93.94732 90.83791
# Shear Modulus (GPa) = -26.10357 20.89897 -2.60230
#
# Velocity S-wave (km/s) = -3.81837 3.41657 -1.20561
# Velocity P-wave (km/s) = 5.43692 8.24848 6.98561
#
# Compressibility (1/GPa) = 0.01139880
#
# Stress axis : x y z
#
# Youngs Moduli (GPa) = 59.81814 38.84049 25.98277
#
# Poissons Ratio (x) = 0.12551 0.21813
# Poissons Ratio (y) = 0.19331 0.60148
# Poissons Ratio (z) = 0.50219 0.89912
#
# Static dielectric constant tensor:
#      x y z
#    x 1.624340 0.000000 0.000000 
#    y 0.000000 1.623160 0.000000 
#    z 0.000000 0.000000 1.595490 
# 
# From -- ./inp_files/12537.got.cif
#   From: 2010.05.17/outbox.cif.g08.bks.cpg/sg37_7_cif.got.tgz:12537.got - 2010.06.03 17:53:42.
