data_PCOD9354734
_publ_section_title
;
Structure prediction by ZEFSAII (Michael W. Deem and Ramdas Pophale) SiO2 
 PCOD9354734
Probable space group: C C C 2
;
_chemical_formula_sum "Si O2"
_cell_formula_units_Z 48
_cell_length_a 7.860866
_cell_length_b 30.265733
_cell_length_c 8.659393
_cell_angle_alpha 90.000000
_cell_angle_beta 90.000000
_cell_angle_gamma 90.000000
_cell_volume 2060.198373
_symmetry_space_group_name_H-M "C C C 2"
_symmetry_group_IT_number 37
_symmetry_cell_setting 'orthorhombic'
loop_
_space_group_symop_operation_xyz
x,y,z
-x,-y,z
-x,y,1/2+z
x,-y,1/2+z
1/2+x,1/2+y,z
1/2-x,1/2-y,z
1/2-x,1/2+y,1/2+z
1/2+x,1/2-y,1/2+z
loop_
_atom_site_type_symbol
_atom_site_label
_atom_site_fract_x
_atom_site_fract_y
_atom_site_fract_z
Si Si1 0.172726 0.441988 0.061320
Si Si2 0.500000 0.000000 0.302819
Si Si3 0.144170 0.689927 0.871085
Si Si4 0.750000 0.750000 0.609581
Si Si5 0.624653 0.378966 0.398694
Si Si6 0.538022 0.679561 0.180305
Si Si7 0.420384 0.135809 0.658339
O O1 0.146176 0.478280 0.195144
O O2 0.066951 0.399370 0.120795
O O3 0.352676 0.422797 0.001266
O O4 0.079003 0.463519 0.914793
O O5 0.310593 0.701239 0.774267
O O6 0.004576 0.677124 0.747245
O O7 0.112503 0.728242 0.993037
O O8 0.160606 0.648921 0.993109
O O9 0.632705 0.710519 0.682766
O O10 0.484648 0.366877 0.272678
O O11 0.603221 0.336818 0.513623
O O12 0.787683 0.380276 0.285533
#
# Coordination Sequence:
#
# PCOD9354734 Si02
#       7
#     8   4   8   4   8   8   8
#     4  11  21  40  71 108 142 176 229 288 350 430
#     4  10  22  38  68 118 144 174 216 302 360 412
#     4  12  25  43  68 102 138 184 241 299 362 417
#     4  12  28  42  66  94 142 182 248 306 360 412
#     4  12  23  45  70 101 142 193 241 288 352 448
#     4  12  26  48  67  99 138 196 245 294 367 412
#     4  12  22  43  72 105 136 185 243 289 353 439
#
# _framework density 23.298729000000002
#
# number of rings (size 3 to 8) (size 9 to 14) (size 15 to 20)
#    0.000    0.333    8.333    0.000    2.333    0.000 
#    0.000    0.000    0.000    3.000    0.000    0.000 
#    0.000    0.000    0.000    0.000    0.000    0.000 
#
# Total GULP energy -133665.848972 kJ/mol
# GULP energy per Si atom -5569.410374 kJ/mol
# Density = 2.324570 g / cm^3
# Si number density = 23.298729 Si / 1000 Ang^3
#
#
#
# Elastic Constant Matrix: (Units=GPa)
#
#
# Indices 1 2 3 4 5 6 
#
# 1 43.4919 2.6197 28.0100 0.0000 0.0000 0.0000
# 2 2.6197 52.4930 32.0686 0.0000 0.0000 0.0000
# 3 28.0100 32.0686 155.9072 0.0000 0.0000 0.0000
# 4 0.0000 0.0000 0.0000 22.5648 0.0000 0.0000
# 5 0.0000 0.0000 0.0000 0.0000 44.0190 0.0000
# 6 0.0000 0.0000 0.0000 0.0000 0.0000 37.0318
#
#
#
# Elastic Compliance Matrix: (Units=1/GPa)
#
#
# Indices 1 2 3 4 5 6 
#
# 1 0.026147 0.001790 -0.005066 0.000000 0.000000 0.000000
# 2 0.001790 0.021911 -0.004828 0.000000 0.000000 0.000000
# 3 -0.005066 -0.004828 0.008317 0.000000 0.000000 0.000000
# 4 0.000000 0.000000 0.000000 0.044317 0.000000 0.000000
# 5 0.000000 0.000000 0.000000 0.000000 0.022717 0.000000
# 6 0.000000 0.000000 0.000000 0.000000 0.000000 0.027004
#
#
# Mechanical properties :
#
#
# Convention : Reuss Voigt Hill
#
# Bulk Modulus (GPa) = 24.89623 41.92097 33.40860
# Shear Modulus (GPa) = 27.77610 33.33604 30.55607
#
# Velocity S-wave (km/s) = 3.45653 3.78671 3.62538
# Velocity P-wave (km/s) = 5.16130 6.09514 5.64755
#
# Compressibility (1/GPa) = 0.04016672
#
# Stress axis : x y z
#
# Youngs Moduli (GPa) = 38.24466 45.64017 120.23107
#
# Poissons Ratio (x) = -0.08169 0.60906
# Poissons Ratio (y) = -0.06845 0.58052
# Poissons Ratio (z) = 0.19374 0.22037
#
# Static dielectric constant tensor:
#      x y z
#    x 1.916640 0.000000 0.000000 
#    y 0.000000 1.958720 0.000000 
#    z 0.000000 0.000000 1.913560 
# 
# From -- ./inp_files/2440.got.cif
#   From: 2010.05.17/outbox.cif.g08.bks.cpg/sg37_2_cif.got.tgz:2440.got - 2010.06.03 17:53:42.
