data_PCOD9354934
_publ_section_title
;
Structure prediction by ZEFSAII (Michael W. Deem and Ramdas Pophale) SiO2 
 PCOD9354934
Probable space group: C C C 2
;
_chemical_formula_sum "Si O2"
_cell_formula_units_Z 64
_cell_length_a 20.010990
_cell_length_b 24.644441
_cell_length_c 5.130011
_cell_angle_alpha 90.000000
_cell_angle_beta 90.000000
_cell_angle_gamma 90.000000
_cell_volume 2529.914493
_symmetry_space_group_name_H-M "C C C 2"
_symmetry_group_IT_number 37
_symmetry_cell_setting 'orthorhombic'
loop_
_space_group_symop_operation_xyz
x,y,z
-x,-y,z
-x,y,1/2+z
x,-y,1/2+z
1/2+x,1/2+y,z
1/2-x,1/2-y,z
1/2-x,1/2+y,1/2+z
1/2+x,1/2-y,1/2+z
loop_
_atom_site_type_symbol
_atom_site_label
_atom_site_fract_x
_atom_site_fract_y
_atom_site_fract_z
Si Si1 0.955901 0.189532 0.228880
Si Si2 0.870472 0.532521 0.998905
Si Si3 0.924186 0.023495 0.644708
Si Si4 0.041399 0.687822 0.226310
Si Si5 0.759670 0.416805 0.206868
Si Si6 0.134764 0.626595 0.841580
Si Si7 0.750438 0.813992 0.073855
Si Si8 0.141340 0.879815 0.907340
O O1 0.931313 0.251175 0.195536
O O2 0.898852 0.149807 0.134878
O O3 0.984246 0.182861 0.518169
O O4 0.893809 0.492624 0.228236
O O5 0.790808 0.544258 0.929213
O O6 0.894332 0.591105 0.104237
O O7 0.911193 0.083969 0.743182
O O8 0.894066 0.984745 0.863504
O O9 0.000000 0.000000 0.610659
O O10 0.088833 0.647228 0.073806
O O11 0.023296 0.684541 0.532016
O O12 0.815381 0.415188 0.983121
O O13 0.754718 0.356367 0.334533
O O14 0.692961 0.421084 0.041393
O O15 0.182439 0.673912 0.734335
O O16 0.750000 0.750000 0.011021
O O17 0.814463 0.836914 0.238601
#
# Coordination Sequence:
#
# PCOD9354934 Si02
#       8
#     8   8   8   8   8   8   8   8
#     4  10  24  41  64  93 131 176 228 291 346 413
#     4  11  22  41  69  98 131 169 217 270 334 397
#     4  10  25  44  67  93 130 183 236 293 355 400
#     4  10  23  41  67 102 132 175 225 273 341 419
#     4  10  24  41  65 104 132 185 224 287 350 415
#     4  10  22  43  68  96 136 177 223 275 347 414
#     4  10  23  41  65 101 139 179 227 294 359 418
#     4  11  25  42  68  96 137 182 248 290 361 425
#
# _framework density 25.297298000000001
#
# number of rings (size 3 to 8) (size 9 to 14) (size 15 to 20)
#    0.000    1.750    1.250    0.750   10.500    4.000 
#    0.000    0.000    0.000    2.250    0.000    0.000 
#    0.000    0.000    0.000    0.000    0.000    0.000 
#
# Total GULP energy -178676.602393 kJ/mol
# GULP energy per Si atom -5583.643825 kJ/mol
# Density = 2.523972 g / cm^3
# Si number density = 25.297298 Si / 1000 Ang^3
#
#
#
# Elastic Constant Matrix: (Units=GPa)
#
#
# Indices 1 2 3 4 5 6 
#
# 1 23.7027 4.0117 -23.8237 0.0000 0.0000 0.0000
# 2 4.0117 67.3109 4.6341 0.0000 0.0000 0.0000
# 3 -23.8237 4.6341 108.2437 0.0000 0.0000 0.0000
# 4 0.0000 0.0000 0.0000 43.2419 0.0000 0.0000
# 5 0.0000 0.0000 0.0000 0.0000 21.4696 0.0000
# 6 0.0000 0.0000 0.0000 0.0000 0.0000 35.6236
#
#
#
# Elastic Compliance Matrix: (Units=1/GPa)
#
#
# Indices 1 2 3 4 5 6 
#
# 1 0.055304 -0.004146 0.012349 0.000000 0.000000 0.000000
# 2 -0.004146 0.015211 -0.001564 0.000000 0.000000 0.000000
# 3 0.012349 -0.001564 0.012023 0.000000 0.000000 0.000000
# 4 0.000000 0.000000 0.000000 0.023126 0.000000 0.000000
# 5 0.000000 0.000000 0.000000 0.000000 0.046577 0.000000
# 6 0.000000 0.000000 0.000000 0.000000 0.000000 0.028071
#
#
# Mechanical properties :
#
#
# Convention : Reuss Voigt Hill
#
# Bulk Modulus (GPa) = 10.43657 18.76681 14.60169
# Shear Modulus (GPa) = 25.12909 34.36272 29.74590
#
# Velocity S-wave (km/s) = 3.15517 3.68959 3.43279
# Velocity P-wave (km/s) = 4.17228 5.05819 4.63645
#
# Compressibility (1/GPa) = 0.09581694
#
# Stress axis : x y z
#
# Youngs Moduli (GPa) = 18.08203 65.74098 83.17127
#
# Poissons Ratio (x) = 0.27258 -1.02712
# Poissons Ratio (y) = 0.07497 0.13006
# Poissons Ratio (z) = -0.22330 0.10280
#
# Static dielectric constant tensor:
#      x y z
#    x 2.007800 0.000000 0.000000 
#    y 0.000000 2.013610 0.000000 
#    z 0.000000 0.000000 2.026270 
# 
# From -- ./inp_files/1097.got.cif
#   From: 2010.05.17/outbox.cif.g08.bks.cpg/sg37_1_cif.got.tgz:1097.got - 2010.06.03 17:53:42.
