data_PCOD9354800
_publ_section_title
;
Structure prediction by ZEFSAII (Michael W. Deem and Ramdas Pophale) SiO2 
 PCOD9354800
Probable space group: C C C 2
;
_chemical_formula_sum "Si O2"
_cell_formula_units_Z 56
_cell_length_a 16.389014
_cell_length_b 8.959740
_cell_length_c 18.312992
_cell_angle_alpha 90.000000
_cell_angle_beta 90.000000
_cell_angle_gamma 90.000000
_cell_volume 2689.103631
_symmetry_space_group_name_H-M "C C C 2"
_symmetry_group_IT_number 37
_symmetry_cell_setting 'orthorhombic'
loop_
_space_group_symop_operation_xyz
x,y,z
-x,-y,z
-x,y,1/2+z
x,-y,1/2+z
1/2+x,1/2+y,z
1/2-x,1/2-y,z
1/2-x,1/2+y,1/2+z
1/2+x,1/2-y,1/2+z
loop_
_atom_site_type_symbol
_atom_site_label
_atom_site_fract_x
_atom_site_fract_y
_atom_site_fract_z
Si Si1 0.555835 0.647505 0.283970
Si Si2 0.500000 0.500000 0.562522
Si Si3 0.341706 0.518896 0.655926
Si Si4 0.609540 0.323765 0.460460
Si Si5 0.941232 0.626611 0.822537
Si Si6 0.750000 0.250000 0.555023
Si Si7 0.187713 0.122606 0.398804
Si Si8 0.233070 0.412229 0.779999
O O1 0.500000 0.500000 0.295279
O O2 0.615816 0.622319 0.216975
O O3 0.494876 0.779210 0.266705
O O4 0.607205 0.683497 0.357141
O O5 0.420214 0.458404 0.611124
O O6 0.532518 0.367251 0.510615
O O7 0.282672 0.615442 0.604751
O O8 0.284598 0.413924 0.705325
O O9 0.584658 0.242601 0.385983
O O10 0.672798 0.218301 0.503181
O O11 0.655614 0.483813 0.447565
O O12 0.863196 0.567250 0.779726
O O13 0.000000 0.500000 0.853692
O O14 0.250000 0.250000 0.428207
O O15 0.234951 0.039625 0.333366
O O16 0.250000 0.250000 0.814212
#
# Coordination Sequence:
#
# PCOD9354800 Si02
#       8
#     8   4   8   8   8   4   8   8
#     4  11  20  38  65  93 126 160 211 279 323 385
#     4  10  22  40  66  86 116 184 230 256 294 396
#     4  10  23  40  62  90 119 176 227 250 316 399
#     4  11  21  43  63  90 135 173 217 273 331 391
#     4  12  24  38  66 104 132 163 207 280 350 384
#     4  10  24  40  64  82 130 186 208 260 318 392
#     4  11  22  38  67  99 125 164 219 272 336 407
#     4  11  22  40  62  98 138 162 202 281 346 391
#
# _framework density 20.824783
#
# number of rings (size 3 to 8) (size 9 to 14) (size 15 to 20)
#    0.000    1.143    3.571    3.429    6.000    0.000 
#    0.000    4.286    0.000    0.000    0.000    0.000 
#    0.000    0.000    0.000    0.000    0.000    0.000 
#
# Total GULP energy -156172.543550 kJ/mol
# GULP energy per Si atom -5577.590841 kJ/mol
# Density = 2.077738 g / cm^3
# Si number density = 20.824783 Si / 1000 Ang^3
#
#
#
# Elastic Constant Matrix: (Units=GPa)
#
#
# Indices 1 2 3 4 5 6 
#
# 1 149.1626 44.3324 50.8807 0.0000 0.0000 0.0000
# 2 44.3324 68.8755 19.8030 0.0000 0.0000 0.0000
# 3 50.8807 19.8030 74.1837 0.0000 0.0000 0.0000
# 4 0.0000 0.0000 0.0000 37.7150 0.0000 0.0000
# 5 0.0000 0.0000 0.0000 0.0000 10.1068 0.0000
# 6 0.0000 0.0000 0.0000 0.0000 0.0000 51.3832
#
#
#
# Elastic Compliance Matrix: (Units=1/GPa)
#
#
# Indices 1 2 3 4 5 6 
#
# 1 0.010061 -0.004865 -0.005602 0.000000 0.000000 0.000000
# 2 -0.004865 0.018079 -0.001489 0.000000 0.000000 0.000000
# 3 -0.005602 -0.001489 0.017720 0.000000 0.000000 0.000000
# 4 0.000000 0.000000 0.000000 0.026515 0.000000 0.000000
# 5 0.000000 0.000000 0.000000 0.000000 0.098944 0.000000
# 6 0.000000 0.000000 0.000000 0.000000 0.000000 0.019462
#
#
# Mechanical properties :
#
#
# Convention : Reuss Voigt Hill
#
# Bulk Modulus (GPa) = 45.56418 58.02822 51.79620
# Shear Modulus (GPa) = 22.52183 31.65471 27.08827
#
# Velocity S-wave (km/s) = 3.29217 3.90301 3.61053
# Velocity P-wave (km/s) = 6.03146 6.94527 6.50443
#
# Compressibility (1/GPa) = 0.02194707
#
# Stress axis : x y z
#
# Youngs Moduli (GPa) = 99.39496 55.31401 56.43450
#
# Poissons Ratio (x) = 0.26911 0.31613
# Poissons Ratio (y) = 0.48357 0.08404
# Poissons Ratio (z) = 0.55679 0.08237
#
# Static dielectric constant tensor:
#      x y z
#    x 1.805810 0.000000 0.000000 
#    y 0.000000 1.754680 0.000000 
#    z 0.000000 0.000000 1.773360 
# 
# From -- ./inp_files/17213.got.cif
#   From: 2010.05.17/outbox.cif.g08.bks.cpg/sg37_9_cif.got.tgz:17213.got - 2010.06.03 17:53:42.
