data_PCOD9354726
_publ_section_title
;
Structure prediction by ZEFSAII (Michael W. Deem and Ramdas Pophale) SiO2 
 PCOD9354726
Probable space group: C C C 2
;
_chemical_formula_sum "Si O2"
_cell_formula_units_Z 52
_cell_length_a 8.847827
_cell_length_b 14.408958
_cell_length_c 20.999276
_cell_angle_alpha 90.000000
_cell_angle_beta 90.000000
_cell_angle_gamma 90.000000
_cell_volume 2677.155019
_symmetry_space_group_name_H-M "C C C 2"
_symmetry_group_IT_number 37
_symmetry_cell_setting 'orthorhombic'
loop_
_space_group_symop_operation_xyz
x,y,z
-x,-y,z
-x,y,1/2+z
x,-y,1/2+z
1/2+x,1/2+y,z
1/2-x,1/2-y,z
1/2-x,1/2+y,1/2+z
1/2+x,1/2-y,1/2+z
loop_
_atom_site_type_symbol
_atom_site_label
_atom_site_fract_x
_atom_site_fract_y
_atom_site_fract_z
Si Si1 0.412330 0.763045 0.009420
Si Si2 0.656941 0.977734 0.797521
Si Si3 0.750000 0.750000 0.629821
Si Si4 0.428140 0.598599 0.213388
Si Si5 0.404323 0.091854 0.930085
Si Si6 0.550262 0.604838 0.948661
Si Si7 0.850756 0.156887 0.826406
O O1 0.250000 0.750000 0.976697
O O2 0.366600 0.798044 0.079431
O O3 0.511753 0.827420 0.966217
O O4 0.491395 0.663615 0.008416
O O5 0.786254 0.933242 0.755898
O O6 0.603005 0.909317 0.853635
O O7 0.500000 0.000000 0.761947
O O8 0.736582 0.068327 0.828959
O O9 0.647909 0.675877 0.667692
O O10 0.500000 0.500000 0.187849
O O11 0.552813 0.643765 0.261016
O O12 0.229810 0.101022 0.947853
O O13 0.500000 0.000000 0.947292
O O14 0.500000 0.500000 0.951967
O O15 0.470354 0.647068 0.884867
O O16 0.750000 0.250000 0.826436
#
# Coordination Sequence:
#
# PCOD9354726 Si02
#       7
#     8   8   4   8   8   8   8
#     4  10  25  43  60  93 129 177 233 273 329 397
#     4  10  22  38  65 103 133 164 213 265 350 419
#     4  10  26  46  70  92 132 180 250 282 326 396
#     4  10  22  47  72  97 133 178 228 283 347 408
#     4  11  22  40  65 100 135 167 211 276 342 414
#     4  12  21  39  66  96 137 173 210 276 343 413
#     4  11  23  39  65 106 137 168 213 277 353 418
#
# _framework density 19.423604000000001
#
# number of rings (size 3 to 8) (size 9 to 14) (size 15 to 20)
#    0.462    0.923    3.077    2.308    8.615    0.615 
#    0.000    2.308    0.000    0.000    0.000    0.000 
#    0.000    0.000    0.000    0.000    0.000    0.000 
#
# Total GULP energy -144853.627447 kJ/mol
# GULP energy per Si atom -5571.293363 kJ/mol
# Density = 1.937940 g / cm^3
# Si number density = 19.423604 Si / 1000 Ang^3
#
#
#
# Elastic Constant Matrix: (Units=GPa)
#
#
# Indices 1 2 3 4 5 6 
#
# 1 179.3300 57.1722 44.7893 0.0000 0.0000 0.0000
# 2 57.1722 99.2138 50.9051 0.0000 0.0000 0.0000
# 3 44.7893 50.9051 68.6176 0.0000 0.0000 0.0000
# 4 0.0000 0.0000 0.0000 2.5885 0.0000 0.0000
# 5 0.0000 0.0000 0.0000 0.0000 14.2245 0.0000
# 6 0.0000 0.0000 0.0000 0.0000 0.0000 40.4236
#
#
#
# Elastic Compliance Matrix: (Units=1/GPa)
#
#
# Indices 1 2 3 4 5 6 
#
# 1 0.007104 -0.002768 -0.002583 0.000000 0.000000 0.000000
# 2 -0.002768 0.017352 -0.011066 0.000000 0.000000 0.000000
# 3 -0.002583 -0.011066 0.024469 0.000000 0.000000 0.000000
# 4 0.000000 0.000000 0.000000 0.386328 0.000000 0.000000
# 5 0.000000 0.000000 0.000000 0.000000 0.070301 0.000000
# 6 0.000000 0.000000 0.000000 0.000000 0.000000 0.024738
#
#
# Mechanical properties :
#
#
# Convention : Reuss Voigt Hill
#
# Bulk Modulus (GPa) = 62.14980 72.54386 67.34683
# Shear Modulus (GPa) = 8.79519 24.40031 16.59775
#
# Velocity S-wave (km/s) = 2.13024 3.54816 2.92638
# Velocity P-wave (km/s) = 6.17390 7.36311 6.79457
#
# Compressibility (1/GPa) = 0.01609016
#
# Stress axis : x y z
#
# Youngs Moduli (GPa) = 140.76400 57.62914 40.86721
#
# Poissons Ratio (x) = 0.15953 0.10558
# Poissons Ratio (y) = 0.38966 0.45224
# Poissons Ratio (z) = 0.36366 0.63774
#
# Static dielectric constant tensor:
#      x y z
#    x 1.699020 0.000000 0.000000 
#    y 0.000000 1.736910 0.000000 
#    z 0.000000 0.000000 1.698120 
# 
# From -- ./inp_files/16342.got.cif
#   From: 2010.05.17/outbox.cif.g08.bks.cpg/sg37_9_cif.got.tgz:16342.got - 2010.06.03 17:53:42.
