data_PCOD9354138
_publ_section_title
;
Structure prediction by ZEFSAII (Michael W. Deem and Ramdas Pophale) SiO2 
 PCOD9354138
Probable space group: C C C 2
;
_chemical_formula_sum "Si O2"
_cell_formula_units_Z 52
_cell_length_a 22.133130
_cell_length_b 5.511386
_cell_length_c 20.045338
_cell_angle_alpha 90.000000
_cell_angle_beta 90.000000
_cell_angle_gamma 90.000000
_cell_volume 2445.214977
_symmetry_space_group_name_H-M "C C C 2"
_symmetry_group_IT_number 37
_symmetry_cell_setting 'orthorhombic'
loop_
_space_group_symop_operation_xyz
x,y,z
-x,-y,z
-x,y,1/2+z
x,-y,1/2+z
1/2+x,1/2+y,z
1/2-x,1/2-y,z
1/2-x,1/2+y,1/2+z
1/2+x,1/2-y,1/2+z
loop_
_atom_site_type_symbol
_atom_site_label
_atom_site_fract_x
_atom_site_fract_y
_atom_site_fract_z
Si Si1 0.898675 0.172901 0.836620
Si Si2 0.941502 0.102476 0.211269
Si Si3 0.697099 0.595108 0.917107
Si Si4 0.879435 0.260912 0.082795
Si Si5 0.500000 0.000000 0.305724
Si Si6 0.500000 0.500000 0.933503
Si Si7 0.750000 0.750000 0.528156
Si Si8 0.409660 0.247682 0.007726
O O1 0.936488 0.424682 0.840142
O O2 0.943950 0.030933 0.885193
O O3 0.904397 0.076240 0.760636
O O4 0.834549 0.107636 0.869636
O O5 0.898940 0.232766 0.159028
O O6 0.977271 0.280847 0.260511
O O7 0.000000 0.000000 0.171501
O O8 0.750000 0.750000 0.882241
O O9 0.730855 0.464991 0.978453
O O10 0.643895 0.755576 0.951656
O O11 0.808158 0.297191 0.072741
O O12 0.906528 0.504477 0.050549
O O13 0.897244 0.005764 0.046199
O O14 0.476723 0.281304 0.978335
#
# Coordination Sequence:
#
# PCOD9354138 Si02
#       8
#     8   8   8   8   4   4   4   8
#     4  10  21  39  62  95 127 173 221 286 352 414
#     4  10  23  41  62  91 129 179 218 281 345 415
#     4  10  20  40  65  91 133 166 229 282 353 413
#     4  11  24  42  66  92 136 170 231 267 341 414
#     4  10  20  38  64  90 130 172 230 278 354 412
#     4  10  20  40  58  98 134 158 224 280 342 412
#     4  10  22  42  64  94 124 180 220 290 340 396
#     4  10  24  38  65  99 125 176 212 281 339 402
#
# _framework density 21.266024999999999
#
# number of rings (size 3 to 8) (size 9 to 14) (size 15 to 20)
#    0.000    1.846    3.846    0.000    5.385    5.538 
#    1.385    0.000    0.000    0.000    0.000    0.000 
#    0.000    0.000    0.000    0.000    0.000    0.000 
#
# Total GULP energy -144767.178835 kJ/mol
# GULP energy per Si atom -5567.968417 kJ/mol
# Density = 2.121762 g / cm^3
# Si number density = 21.266025 Si / 1000 Ang^3
#
#
#
# Elastic Constant Matrix: (Units=GPa)
#
#
# Indices 1 2 3 4 5 6 
#
# 1 124.9042 34.3597 56.9056 0.0000 0.0000 0.0000
# 2 34.3597 89.3373 32.7991 0.0000 0.0000 0.0000
# 3 56.9056 32.7991 75.9026 0.0000 0.0000 0.0000
# 4 0.0000 0.0000 0.0000 -8.9490 0.0000 0.0000
# 5 0.0000 0.0000 0.0000 0.0000 2.7219 0.0000
# 6 0.0000 0.0000 0.0000 0.0000 0.0000 36.4140
#
#
#
# Elastic Compliance Matrix: (Units=1/GPa)
#
#
# Indices 1 2 3 4 5 6 
#
# 1 0.012350 -0.001605 -0.008565 0.000000 0.000000 0.000000
# 2 -0.001605 0.013513 -0.004636 0.000000 0.000000 0.000000
# 3 -0.008565 -0.004636 0.021600 0.000000 0.000000 0.000000
# 4 0.000000 0.000000 0.000000 -0.111745 0.000000 0.000000
# 5 0.000000 0.000000 0.000000 0.000000 0.367396 0.000000
# 6 0.000000 0.000000 0.000000 0.000000 0.000000 0.027462
#
#
# Mechanical properties :
#
#
# Convention : Reuss Voigt Hill
#
# Bulk Modulus (GPa) = 56.02299 59.80810 57.91555
# Shear Modulus (GPa) = 13.65604 17.10936 15.38270
#
# Velocity S-wave (km/s) = 2.53682 2.83952 2.69243
# Velocity P-wave (km/s) = 5.91453 6.23982 6.07935
#
# Compressibility (1/GPa) = 0.01784981
#
# Stress axis : x y z
#
# Youngs Moduli (GPa) = 80.97118 74.00353 46.29701
#
# Poissons Ratio (x) = 0.11879 0.39655
# Poissons Ratio (y) = 0.12998 0.21462
# Poissons Ratio (z) = 0.69355 0.34306
#
# Static dielectric constant tensor:
#      x y z
#    x 1.832180 0.000000 0.000000 
#    y 0.000000 1.927290 0.000000 
#    z 0.000000 0.000000 1.808700 
# 
# From -- ./inp_files/15863.got.cif
#   From: 2010.05.17/outbox.cif.g08.bks.cpg/sg37_8_cif.got.tgz:15863.got - 2010.06.03 17:53:42.
