data_PCOD9354458
_publ_section_title
;
Structure prediction by ZEFSAII (Michael W. Deem and Ramdas Pophale) SiO2 
 PCOD9354458
Probable space group: C C C 2
;
_chemical_formula_sum "Si O2"
_cell_formula_units_Z 60
_cell_length_a 7.293915
_cell_length_b 23.446254
_cell_length_c 14.596992
_cell_angle_alpha 90.000000
_cell_angle_beta 90.000000
_cell_angle_gamma 90.000000
_cell_volume 2496.304350
_symmetry_space_group_name_H-M "C C C 2"
_symmetry_group_IT_number 37
_symmetry_cell_setting 'orthorhombic'
loop_
_space_group_symop_operation_xyz
x,y,z
-x,-y,z
-x,y,1/2+z
x,-y,1/2+z
1/2+x,1/2+y,z
1/2-x,1/2-y,z
1/2-x,1/2+y,1/2+z
1/2+x,1/2-y,1/2+z
loop_
_atom_site_type_symbol
_atom_site_label
_atom_site_fract_x
_atom_site_fract_y
_atom_site_fract_z
Si Si1 0.000000 0.500000 0.028060
Si Si2 0.412585 0.622678 0.166615
Si Si3 0.686024 0.928854 0.177093
Si Si4 0.003524 0.794283 0.313523
Si Si5 0.602665 0.101094 0.433922
Si Si6 0.364785 0.692903 0.520847
Si Si7 0.703837 0.474162 0.284684
Si Si8 0.580390 0.172800 0.778755
O O1 0.853756 0.530974 0.091934
O O2 0.049685 0.556491 0.971637
O O3 0.607537 0.591661 0.172929
O O4 0.378833 0.661947 0.255009
O O5 0.286562 0.567734 0.194287
O O6 0.466636 0.667028 0.083133
O O7 0.570588 0.871943 0.196040
O O8 0.672562 0.970658 0.264120
O O9 0.793976 0.814853 0.300628
O O10 0.013482 0.733142 0.265958
O O11 0.058324 0.791995 0.419595
O O12 0.720769 0.140791 0.503050
O O13 0.736872 0.060900 0.373865
O O14 0.503700 0.144518 0.367609
O O15 0.250000 0.750000 0.554483
O O16 0.500000 0.500000 0.296849
#
# Coordination Sequence:
#
# PCOD9354458 Si02
#       8
#     4   8   8   8   8   8   8   8
#     4  12  24  38  60 102 136 170 230 288 350 422
#     4  10  22  40  66  94 129 183 228 281 355 415
#     4  10  21  39  60  93 129 174 225 277 343 422
#     4  10  22  42  69  96 136 182 232 286 353 424
#     4  12  23  41  66  98 134 179 226 290 359 419
#     4  12  24  42  69 102 138 177 235 292 353 427
#     4  10  22  43  65  93 132 183 232 280 351 434
#     4  10  22  41  68  92 131 181 229 283 351 421
#
# _framework density 24.035530999999999
#
# number of rings (size 3 to 8) (size 9 to 14) (size 15 to 20)
#    0.000    1.333    4.000    1.600    3.733    1.067 
#    2.400    0.000    5.867    0.000    0.000    0.000 
#    0.000    0.000    0.000    0.000    0.000    0.000 
#
# Total GULP energy -167257.284750 kJ/mol
# GULP energy per Si atom -5575.242825 kJ/mol
# Density = 2.398083 g / cm^3
# Si number density = 24.035531 Si / 1000 Ang^3
#
#
#
# Elastic Constant Matrix: (Units=GPa)
#
#
# Indices 1 2 3 4 5 6 
#
# 1 38.7226 27.8405 2.7826 0.0000 0.0000 0.0000
# 2 27.8405 170.5648 41.9166 0.0000 0.0000 0.0000
# 3 2.7826 41.9166 88.3514 0.0000 0.0000 0.0000
# 4 0.0000 0.0000 0.0000 41.5671 0.0000 0.0000
# 5 0.0000 0.0000 0.0000 0.0000 21.5844 0.0000
# 6 0.0000 0.0000 0.0000 0.0000 0.0000 50.7927
#
#
#
# Elastic Compliance Matrix: (Units=1/GPa)
#
#
# Indices 1 2 3 4 5 6 
#
# 1 0.029440 -0.005182 0.001531 0.000000 0.000000 0.000000
# 2 -0.005182 0.007549 -0.003418 0.000000 0.000000 0.000000
# 3 0.001531 -0.003418 0.012892 0.000000 0.000000 0.000000
# 4 0.000000 0.000000 0.000000 0.024057 0.000000 0.000000
# 5 0.000000 0.000000 0.000000 0.000000 0.046330 0.000000
# 6 0.000000 0.000000 0.000000 0.000000 0.000000 0.019688
#
#
# Mechanical properties :
#
#
# Convention : Reuss Voigt Hill
#
# Bulk Modulus (GPa) = 27.97717 49.19090 38.58403
# Shear Modulus (GPa) = 30.11909 37.79544 33.95726
#
# Velocity S-wave (km/s) = 3.54377 3.96976 3.76279
# Velocity P-wave (km/s) = 5.33006 6.44378 5.91320
#
# Compressibility (1/GPa) = 0.03574343
#
# Stress axis : x y z
#
# Youngs Moduli (GPa) = 33.96718 132.47385 77.56819
#
# Poissons Ratio (x) = 0.68643 -0.11877
# Poissons Ratio (y) = 0.17601 0.26514
# Poissons Ratio (z) = -0.05201 0.45281
#
# Static dielectric constant tensor:
#      x y z
#    x 1.929880 0.000000 0.000000 
#    y 0.000000 1.958250 0.000000 
#    z 0.000000 0.000000 2.008980 
# 
# From -- ./inp_files/10931.got.cif
#   From: 2010.05.17/outbox.cif.g08.bks.cpg/sg37_6_cif.got.tgz:10931.got - 2010.06.03 17:53:42.
