data_PCOD9354164
_publ_section_title
;
Structure prediction by ZEFSAII (Michael W. Deem and Ramdas Pophale) SiO2 
 PCOD9354164
Probable space group: C C C 2
;
_chemical_formula_sum "Si O2"
_cell_formula_units_Z 40
_cell_length_a 5.233333
_cell_length_b 25.846985
_cell_length_c 15.528946
_cell_angle_alpha 90.000000
_cell_angle_beta 90.000000
_cell_angle_gamma 90.000000
_cell_volume 2100.536539
_symmetry_space_group_name_H-M "C C C 2"
_symmetry_group_IT_number 37
_symmetry_cell_setting 'orthorhombic'
loop_
_space_group_symop_operation_xyz
x,y,z
-x,-y,z
-x,y,1/2+z
x,-y,1/2+z
1/2+x,1/2+y,z
1/2-x,1/2-y,z
1/2-x,1/2+y,1/2+z
1/2+x,1/2-y,1/2+z
loop_
_atom_site_type_symbol
_atom_site_label
_atom_site_fract_x
_atom_site_fract_y
_atom_site_fract_z
Si Si1 0.841551 0.307807 0.912440
Si Si2 0.471626 0.124070 0.758400
Si Si3 0.049286 0.899786 0.980693
Si Si4 0.458402 0.866885 0.563648
Si Si5 0.972207 0.941357 0.299613
O O1 0.750000 0.250000 0.899706
O O2 0.599079 0.345383 0.930186
O O3 0.990401 0.332648 0.831932
O O4 0.004399 0.318045 0.999501
O O5 0.506659 0.146143 0.662836
O O6 0.202635 0.094809 0.766939
O O7 0.700093 0.082948 0.774134
O O8 0.011730 0.939718 0.903935
O O9 0.809649 0.893289 0.042314
O O10 0.311850 0.904996 0.033500
O O11 0.000000 0.000000 0.268782
#
# Coordination Sequence:
#
# PCOD9354164 Si02
#       5
#     8   8   8   8   8
#     4   9  21  40  61  91 121 165 200 241 306 366
#     4  11  22  40  63  88 127 157 201 260 302 362
#     4   9  19  39  59  83 120 159 190 257 291 353
#     4  10  20  39  60  84 123 158 196 251 300 346
#     4  11  21  40  64  88 119 163 202 251 314 369
#
# _framework density 19.042755
#
# number of rings (size 3 to 8) (size 9 to 14) (size 15 to 20)
#    1.200    0.800    2.000    1.800    0.000    0.800 
#    3.600    6.000    0.000    0.000    0.000    0.000 
#    0.000    0.000    0.000    0.000    0.000    0.000 
#
# Total GULP energy -111410.449711 kJ/mol
# GULP energy per Si atom -5570.522486 kJ/mol
# Density = 1.899941 g / cm^3
# Si number density = 19.042755 Si / 1000 Ang^3
#
#
#
# Elastic Constant Matrix: (Units=GPa)
#
#
# Indices 1 2 3 4 5 6 
#
# 1 85.0789 -15.3118 -5.3575 0.0000 0.0000 0.0000
# 2 -15.3118 58.4390 5.9183 0.0000 0.0000 0.0000
# 3 -5.3575 5.9183 123.9087 0.0000 0.0000 0.0000
# 4 0.0000 0.0000 0.0000 3.3973 0.0000 0.0000
# 5 0.0000 0.0000 0.0000 0.0000 26.2277 0.0000
# 6 0.0000 0.0000 0.0000 0.0000 0.0000 12.2152
#
#
#
# Elastic Compliance Matrix: (Units=1/GPa)
#
#
# Indices 1 2 3 4 5 6 
#
# 1 0.012353 0.003198 0.000381 0.000000 0.000000 0.000000
# 2 0.003198 0.018023 -0.000723 0.000000 0.000000 0.000000
# 3 0.000381 -0.000723 0.008121 0.000000 0.000000 0.000000
# 4 0.000000 0.000000 0.000000 0.294349 0.000000 0.000000
# 5 0.000000 0.000000 0.000000 0.000000 0.038128 0.000000
# 6 0.000000 0.000000 0.000000 0.000000 0.000000 0.081865
#
#
# Mechanical properties :
#
#
# Convention : Reuss Voigt Hill
#
# Bulk Modulus (GPa) = 22.61843 26.43606 24.52724
# Shear Modulus (GPa) = 10.82571 27.17989 19.00280
#
# Velocity S-wave (km/s) = 2.38690 3.78207 3.16239
# Velocity P-wave (km/s) = 4.41587 5.74323 5.12272
#
# Compressibility (1/GPa) = 0.04421174
#
# Stress axis : x y z
#
# Youngs Moduli (GPa) = 80.94947 55.48468 123.13060
#
# Poissons Ratio (x) = -0.17745 -0.04696
# Poissons Ratio (y) = -0.25889 0.08897
# Poissons Ratio (z) = -0.03087 0.04009
#
# Static dielectric constant tensor:
#      x y z
#    x 1.670210 0.000000 0.000000 
#    y 0.000000 1.645210 0.000000 
#    z 0.000000 0.000000 1.673970 
# 
# From -- ./inp_files/9622.got.cif
#   From: 2010.05.17/outbox.cif.g08.bks.cpg/sg37_5_cif.got.tgz:9622.got - 2010.06.03 17:53:42.
