data_PCOD9354206
_publ_section_title
;
Structure prediction by ZEFSAII (Michael W. Deem and Ramdas Pophale) SiO2 
 PCOD9354206
Probable space group: C C C 2
;
_chemical_formula_sum "Si O2"
_cell_formula_units_Z 40
_cell_length_a 5.569225
_cell_length_b 13.858858
_cell_length_c 23.095382
_cell_angle_alpha 90.000000
_cell_angle_beta 90.000000
_cell_angle_gamma 90.000000
_cell_volume 1782.573143
_symmetry_space_group_name_H-M "C C C 2"
_symmetry_group_IT_number 37
_symmetry_cell_setting 'orthorhombic'
loop_
_space_group_symop_operation_xyz
x,y,z
-x,-y,z
-x,y,1/2+z
x,-y,1/2+z
1/2+x,1/2+y,z
1/2-x,1/2-y,z
1/2-x,1/2+y,1/2+z
1/2+x,1/2-y,1/2+z
loop_
_atom_site_type_symbol
_atom_site_label
_atom_site_fract_x
_atom_site_fract_y
_atom_site_fract_z
Si Si1 0.750000 0.750000 0.868391
Si Si2 0.500000 0.000000 0.622469
Si Si3 0.500000 0.500000 0.504174
Si Si4 0.629588 0.650953 0.584188
Si Si5 0.371022 0.602100 0.698421
Si Si6 0.250000 0.750000 0.797248
Si Si7 0.746540 0.466930 0.394673
O O1 0.498351 0.760783 0.832860
O O2 0.733595 0.648203 0.901087
O O3 0.320612 0.064312 0.586367
O O4 0.633386 0.074441 0.663937
O O5 0.448493 0.597887 0.540397
O O6 0.713728 0.516557 0.457511
O O7 0.750000 0.750000 0.565848
O O8 0.525941 0.658690 0.649459
O O9 0.500000 0.500000 0.710253
O O10 0.306301 0.661178 0.754573
O O11 0.500000 0.500000 0.362599
O O12 0.000000 0.500000 0.368580
#
# Coordination Sequence:
#
# PCOD9354206 Si02
#       7
#     4   4   4   8   8   4   8
#     4  12  28  50  73 102 137 182 248 302 360 410
#     4  10  20  40  62  90 150 180 232 268 334 412
#     4  10  24  44  66 110 136 188 234 276 372 414
#     4  11  22  40  67 100 145 183 225 283 341 429
#     4  10  23  41  65 101 143 186 229 285 341 430
#     4  12  28  44  73 106 133 188 242 288 368 418
#     4  10  25  48  75 100 141 175 241 300 351 423
#
# _framework density 22.439471999999999
#
# number of rings (size 3 to 8) (size 9 to 14) (size 15 to 20)
#    0.600    0.800    3.000    2.400    8.400    4.000 
#    0.000    0.000    0.000    0.000    0.000    0.000 
#    0.000    0.000    0.000    0.000    0.000    0.000 
#
# Total GULP energy -111525.207488 kJ/mol
# GULP energy per Si atom -5576.260374 kJ/mol
# Density = 2.238840 g / cm^3
# Si number density = 22.439472 Si / 1000 Ang^3
#
#
#
# Elastic Constant Matrix: (Units=GPa)
#
#
# Indices 1 2 3 4 5 6 
#
# 1 112.9463 7.7296 12.6484 0.0000 0.0000 0.0000
# 2 7.7296 108.5962 17.2750 0.0000 0.0000 0.0000
# 3 12.6484 17.2750 58.3039 0.0000 0.0000 0.0000
# 4 0.0000 0.0000 0.0000-8342.1631 0.0000 0.0000
# 5 0.0000 0.0000 0.0000 0.0000 27.7848 0.0000
# 6 0.0000 0.0000 0.0000 0.0000 0.0000 28.7472
#
#
#
# Elastic Compliance Matrix: (Units=1/GPa)
#
#
# Indices 1 2 3 4 5 6 
#
# 1 0.009087 -0.000350 -0.001868 0.000000 0.000000 0.000000
# 2 -0.000350 0.009677 -0.002791 0.000000 0.000000 0.000000
# 3 -0.001868 -0.002791 0.018384 0.000000 0.000000 0.000000
# 4 0.000000 0.000000 0.000000 -0.000120 0.000000 0.000000
# 5 0.000000 0.000000 0.000000 0.000000 0.035991 0.000000
# 6 0.000000 0.000000 0.000000 0.000000 0.000000 0.034786
#
#
# Mechanical properties :
#
#
# Convention : Reuss Voigt Hill
#
# Bulk Modulus (GPa) = 36.85912 39.46138 38.16025
# Shear Modulus (GPa) = 39.41163 -1640.98000 -800.78418
#
# Velocity S-wave (km/s) = 4.19543 -27.07174 -18.91134
# Velocity P-wave (km/s) = 6.31906 30.97658 21.44316
#
# Compressibility (1/GPa) = 0.02713033
#
# Stress axis : x y z
#
# Youngs Moduli (GPa) = 110.04911 103.33388 54.39574
#
# Poissons Ratio (x) = 0.03613 0.10159
# Poissons Ratio (y) = 0.03848 0.15184
# Poissons Ratio (z) = 0.20554 0.28845
#
# Static dielectric constant tensor:
#      x y z
#    x 1.998290 0.000000 0.000000 
#    y 0.000000 1.862270 0.000000 
#    z 0.000000 0.000000 1.826600 
# 
# From -- ./inp_files/17918.got.cif
#   From: 2010.05.17/outbox.cif.g08.bks.cpg/sg37_9_cif.got.tgz:17918.got - 2010.06.03 17:53:42.
