data_PCOD9354772
_publ_section_title
;
Structure prediction by ZEFSAII (Michael W. Deem and Ramdas Pophale) SiO2 
 PCOD9354772
Probable space group: C C C 2
;
_chemical_formula_sum "Si O2"
_cell_formula_units_Z 64
_cell_length_a 14.478617
_cell_length_b 8.853089
_cell_length_c 22.333762
_cell_angle_alpha 90.000000
_cell_angle_beta 90.000000
_cell_angle_gamma 90.000000
_cell_volume 2862.752443
_symmetry_space_group_name_H-M "C C C 2"
_symmetry_group_IT_number 37
_symmetry_cell_setting 'orthorhombic'
loop_
_space_group_symop_operation_xyz
x,y,z
-x,-y,z
-x,y,1/2+z
x,-y,1/2+z
1/2+x,1/2+y,z
1/2-x,1/2-y,z
1/2-x,1/2+y,1/2+z
1/2+x,1/2-y,1/2+z
loop_
_atom_site_type_symbol
_atom_site_label
_atom_site_fract_x
_atom_site_fract_y
_atom_site_fract_z
Si Si1 0.403180 0.575341 0.172190
Si Si2 0.853682 0.322968 0.092258
Si Si3 0.088919 0.887897 0.306502
Si Si4 0.598157 0.958829 0.755603
Si Si5 0.775349 0.575952 0.150101
Si Si6 0.596214 0.081619 0.882181
Si Si7 0.644456 0.689061 0.471488
Si Si8 0.218947 0.911069 0.422799
O O1 0.500000 0.500000 0.162033
O O2 0.403506 0.747017 0.149210
O O3 0.378201 0.553892 0.241683
O O4 0.324356 0.492786 0.136206
O O5 0.750000 0.250000 0.093926
O O6 0.841710 0.502591 0.099248
O O7 0.897182 0.262027 0.031078
O O8 0.085469 0.706458 0.288282
O O9 0.160516 0.896521 0.361099
O O10 0.000000 0.000000 0.318715
O O11 0.500000 0.000000 0.726550
O O12 0.679845 0.998623 0.709563
O O13 0.608880 0.075147 0.811174
O O14 0.750000 0.750000 0.156776
O O15 0.595773 0.245517 0.912482
O O16 0.500000 0.000000 0.896415
O O17 0.684937 0.995317 0.908314
O O18 0.750000 0.750000 0.469460
O O19 0.656683 0.510553 0.467253
O O20 0.250000 0.750000 0.446440
#
# Coordination Sequence:
#
# PCOD9354772 Si02
#       8
#     8   8   8   8   8   8   8   8
#     4  10  22  40  64  91 132 173 215 270 325 389
#     4   9  19  43  66  87 126 175 222 272 337 392
#     4  11  24  39  64  99 132 176 211 270 329 400
#     4  11  24  40  61  99 138 171 212 272 333 400
#     4  11  24  38  66  99 128 170 219 276 327 398
#     4  10  22  40  60  89 135 174 215 267 324 392
#     4   9  21  41  65  89 124 179 218 272 338 394
#     4  11  22  38  64  97 128 165 223 273 325 395
#
# _framework density 22.356104999999999
#
# number of rings (size 3 to 8) (size 9 to 14) (size 15 to 20)
#    0.000    1.750    2.500    0.750    7.000    1.500 
#    0.000   13.750    0.000    0.000    0.000    0.000 
#    0.000    0.000    0.000    0.000    0.000    0.000 
#
# Total GULP energy -178207.181608 kJ/mol
# GULP energy per Si atom -5568.974425 kJ/mol
# Density = 2.230522 g / cm^3
# Si number density = 22.356105 Si / 1000 Ang^3
#
#
#
# Elastic Constant Matrix: (Units=GPa)
#
#
# Indices 1 2 3 4 5 6 
#
# 1 70.5836 43.9063 21.4284 0.0000 0.0000 0.0000
# 2 43.9063 159.6473 45.2509 0.0000 0.0000 0.0000
# 3 21.4284 45.2509 69.5520 0.0000 0.0000 0.0000
# 4 0.0000 0.0000 0.0000 20.0778 0.0000 0.0000
# 5 0.0000 0.0000 0.0000 0.0000 10.0377 0.0000
# 6 0.0000 0.0000 0.0000 0.0000 0.0000 19.8015
#
#
#
# Elastic Compliance Matrix: (Units=1/GPa)
#
#
# Indices 1 2 3 4 5 6 
#
# 1 0.017517 -0.004031 -0.002774 0.000000 0.000000 0.000000
# 2 -0.004031 0.008608 -0.004358 0.000000 0.000000 0.000000
# 3 -0.002774 -0.004358 0.018068 0.000000 0.000000 0.000000
# 4 0.000000 0.000000 0.000000 0.049806 0.000000 0.000000
# 5 0.000000 0.000000 0.000000 0.000000 0.099625 0.000000
# 6 0.000000 0.000000 0.000000 0.000000 0.000000 0.050501
#
#
# Mechanical properties :
#
#
# Convention : Reuss Voigt Hill
#
# Bulk Modulus (GPa) = 45.73378 57.88379 51.80879
# Shear Modulus (GPa) = 18.26540 22.59656 20.43098
#
# Velocity S-wave (km/s) = 2.86146 3.18269 3.02634
# Velocity P-wave (km/s) = 5.60523 6.28124 5.95284
#
# Compressibility (1/GPa) = 0.02186567
#
# Stress axis : x y z
#
# Youngs Moduli (GPa) = 57.08581 116.17326 55.34661
#
# Poissons Ratio (x) = 0.46833 0.15354
# Poissons Ratio (y) = 0.23013 0.24122
# Poissons Ratio (z) = 0.15837 0.50632
#
# Static dielectric constant tensor:
#      x y z
#    x 1.826220 0.000000 0.000000 
#    y 0.000000 1.953960 0.000000 
#    z 0.000000 0.000000 1.890160 
# 
# From -- ./inp_files/18908.got.cif
#   From: 2010.05.17/outbox.cif.g08.bks.cpg/sg37_10_cif.got.tgz:18908.got - 2010.06.03 17:53:42.
