data_PCOD9354048
_publ_section_title
;
Structure prediction by ZEFSAII (Michael W. Deem and Ramdas Pophale) SiO2 
 PCOD9354048
Probable space group: C C C 2
;
_chemical_formula_sum "Si O2"
_cell_formula_units_Z 60
_cell_length_a 8.343048
_cell_length_b 19.427106
_cell_length_c 17.461308
_cell_angle_alpha 90.000000
_cell_angle_beta 90.000000
_cell_angle_gamma 90.000000
_cell_volume 2830.151114
_symmetry_space_group_name_H-M "C C C 2"
_symmetry_group_IT_number 37
_symmetry_cell_setting 'orthorhombic'
loop_
_space_group_symop_operation_xyz
x,y,z
-x,-y,z
-x,y,1/2+z
x,-y,1/2+z
1/2+x,1/2+y,z
1/2-x,1/2-y,z
1/2-x,1/2+y,1/2+z
1/2+x,1/2-y,1/2+z
loop_
_atom_site_type_symbol
_atom_site_label
_atom_site_fract_x
_atom_site_fract_y
_atom_site_fract_z
Si Si1 0.794303 0.670652 0.944330
Si Si2 0.250000 0.750000 0.698493
Si Si3 0.851909 0.852690 0.099466
Si Si4 0.307956 0.861602 0.809376
Si Si5 0.667296 0.040195 0.683437
Si Si6 0.195065 0.094430 0.629233
Si Si7 0.172779 0.673179 0.981468
Si Si8 0.678492 0.173049 0.278052
O O1 0.750000 0.750000 0.935587
O O2 0.768240 0.640441 0.859593
O O3 0.979432 0.670063 0.971801
O O4 0.679743 0.642771 0.009990
O O5 0.124109 0.775103 0.632161
O O6 0.203116 0.809440 0.759484
O O7 0.694012 0.887543 0.138614
O O8 0.008455 0.891313 0.124573
O O9 0.299271 0.936614 0.770705
O O10 0.271546 0.855757 0.898425
O O11 0.485544 0.831178 0.788138
O O12 0.500000 0.000000 0.680145
O O13 0.779833 0.986097 0.641725
O O14 0.274091 0.126657 0.552953
O O15 0.270384 0.131067 0.703825
O O16 0.250000 0.750000 0.990027
O O17 0.750000 0.250000 0.270807
#
# Coordination Sequence:
#
# PCOD9354048 Si02
#       8
#     8   4   8   8   8   8   8   8
#     4  10  21  39  60  98 136 173 212 274 348 399
#     4  10  20  36  66  94 126 172 220 274 344 388
#     4  11  23  40  68  94 132 176 225 285 338 400
#     4  10  21  41  64  98 132 175 220 281 337 407
#     4  11  23  44  68  89 131 179 229 268 337 413
#     4  12  24  42  64  99 129 178 228 281 336 411
#     4  11  23  39  68 103 137 172 230 287 345 400
#     4  10  21  37  64  94 133 169 217 275 338 399
#
# _framework density 21.200281
#
# number of rings (size 3 to 8) (size 9 to 14) (size 15 to 20)
#    0.000    1.333    2.667    3.200    1.867    0.000 
#    7.200    0.667    0.000    0.000    0.000    0.000 
#    0.000    0.000    0.000    0.000    0.000    0.000 
#
# Total GULP energy -167018.705446 kJ/mol
# GULP energy per Si atom -5567.290182 kJ/mol
# Density = 2.115203 g / cm^3
# Si number density = 21.200281 Si / 1000 Ang^3
#
#
#
# Elastic Constant Matrix: (Units=GPa)
#
#
# Indices 1 2 3 4 5 6 
#
# 1 42.9312 14.7313 29.0154 0.0000 0.0000 0.0000
# 2 14.7313 74.4963 41.9446 0.0000 0.0000 0.0000
# 3 29.0154 41.9446 175.4665 0.0000 0.0000 0.0000
# 4 0.0000 0.0000 0.0000 34.0989 0.0000 0.0000
# 5 0.0000 0.0000 0.0000 0.0000 14.9981 0.0000
# 6 0.0000 0.0000 0.0000 0.0000 0.0000 32.3614
#
#
#
# Elastic Compliance Matrix: (Units=1/GPa)
#
#
# Indices 1 2 3 4 5 6 
#
# 1 0.026889 -0.003251 -0.003669 0.000000 0.000000 0.000000
# 2 -0.003251 0.015904 -0.003264 0.000000 0.000000 0.000000
# 3 -0.003669 -0.003264 0.007086 0.000000 0.000000 0.000000
# 4 0.000000 0.000000 0.000000 0.029326 0.000000 0.000000
# 5 0.000000 0.000000 0.000000 0.000000 0.066675 0.000000
# 6 0.000000 0.000000 0.000000 0.000000 0.000000 0.030901
#
#
# Mechanical properties :
#
#
# Convention : Reuss Voigt Hill
#
# Bulk Modulus (GPa) = 33.88708 51.58630 42.73669
# Shear Modulus (GPa) = 24.15607 30.10519 27.13063
#
# Velocity S-wave (km/s) = 3.37919 3.77243 3.58121
# Velocity P-wave (km/s) = 5.58965 6.58488 6.10757
#
# Compressibility (1/GPa) = 0.02950977
#
# Stress axis : x y z
#
# Youngs Moduli (GPa) = 37.19061 62.87600 141.12067
#
# Poissons Ratio (x) = 0.20442 0.51779
# Poissons Ratio (y) = 0.12091 0.46065
# Poissons Ratio (z) = 0.13646 0.20524
#
# Static dielectric constant tensor:
#      x y z
#    x 1.900480 0.000000 0.000000 
#    y 0.000000 2.046390 0.000000 
#    z 0.000000 0.000000 1.814410 
# 
# From -- ./inp_files/14697.got.cif
#   From: 2010.05.17/outbox.cif.g08.bks.cpg/sg37_8_cif.got.tgz:14697.got - 2010.06.03 17:53:42.
