data_PCOD9355113
_publ_section_title
;
Structure prediction by ZEFSAII (Michael W. Deem and Ramdas Pophale) SiO2 
 PCOD9355113
Probable space group: C C C 2
;
_chemical_formula_sum "Si O2"
_cell_formula_units_Z 48
_cell_length_a 15.081219
_cell_length_b 14.584737
_cell_length_c 9.757184
_cell_angle_alpha 90.000000
_cell_angle_beta 90.000000
_cell_angle_gamma 90.000000
_cell_volume 2146.147385
_symmetry_space_group_name_H-M "C C C 2"
_symmetry_group_IT_number 37
_symmetry_cell_setting 'orthorhombic'
loop_
_space_group_symop_operation_xyz
x,y,z
-x,-y,z
-x,y,1/2+z
x,-y,1/2+z
1/2+x,1/2+y,z
1/2-x,1/2-y,z
1/2-x,1/2+y,1/2+z
1/2+x,1/2-y,1/2+z
loop_
_atom_site_type_symbol
_atom_site_label
_atom_site_fract_x
_atom_site_fract_y
_atom_site_fract_z
Si Si1 0.112622 0.331794 0.275710
Si Si2 0.450329 0.711212 0.227024
Si Si3 0.370671 0.396755 0.943766
Si Si4 0.158882 0.052698 0.648222
Si Si5 0.351553 0.134168 0.582206
Si Si6 0.250000 0.250000 0.081070
Si Si7 0.500000 0.000000 0.677742
O O1 0.138972 0.319446 0.433480
O O2 0.196717 0.319861 0.178977
O O3 0.045178 0.256279 0.214697
O O4 0.059553 0.427341 0.261331
O O5 0.449923 0.660127 0.373982
O O6 0.414952 0.631640 0.128638
O O7 0.378393 0.792463 0.200476
O O8 0.375480 0.463490 0.071525
O O9 0.306023 0.315431 0.984796
O O10 0.335767 0.455994 0.813519
O O11 0.255026 0.089191 0.600385
O O12 0.428498 0.057719 0.592183
#
# Coordination Sequence:
#
# PCOD9355113 Si02
#       7
#     8   8   8   8   8   4   4
#     4  11  26  43  72 108 145 187 248 295 376 435
#     4   9  24  44  69 100 141 195 232 296 351 436
#     4  10  24  44  73 102 142 186 242 292 359 425
#     4  10  23  42  76 102 140 191 239 294 352 432
#     4  11  22  41  71 104 149 182 235 296 374 433
#     4  12  26  42  74 108 140 188 238 312 360 448
#     4  10  24  42  66 110 140 192 230 308 362 448
#
# _framework density 22.365659999999998
#
# number of rings (size 3 to 8) (size 9 to 14) (size 15 to 20)
#    1.000    0.667    0.000    3.000   11.667    0.000 
#    0.000    0.833    3.667    0.000    0.000    0.000 
#    0.000    0.000    0.000    0.000    0.000    0.000 
#
# Total GULP energy -133855.003852 kJ/mol
# GULP energy per Si atom -5577.291827 kJ/mol
# Density = 2.231475 g / cm^3
# Si number density = 22.365660 Si / 1000 Ang^3
#
#
#
# Elastic Constant Matrix: (Units=GPa)
#
#
# Indices 1 2 3 4 5 6 
#
# 1 40.2800 -6.2491 11.1092 0.0000 0.0000 0.0000
# 2 -6.2491 83.9704 15.3257 0.0000 0.0000 0.0000
# 3 11.1092 15.3257 89.2665 0.0000 0.0000 0.0000
# 4 0.0000 0.0000 0.0000 39.8554 0.0000 0.0000
# 5 0.0000 0.0000 0.0000 0.0000 36.9376 0.0000
# 6 0.0000 0.0000 0.0000 0.0000 0.0000 23.3228
#
#
#
# Elastic Compliance Matrix: (Units=1/GPa)
#
#
# Indices 1 2 3 4 5 6 
#
# 1 0.026261 0.002633 -0.003720 0.000000 0.000000 0.000000
# 2 0.002633 0.012558 -0.002484 0.000000 0.000000 0.000000
# 3 -0.003720 -0.002484 0.012092 0.000000 0.000000 0.000000
# 4 0.000000 0.000000 0.000000 0.025091 0.000000 0.000000
# 5 0.000000 0.000000 0.000000 0.000000 0.027073 0.000000
# 6 0.000000 0.000000 0.000000 0.000000 0.000000 0.042876
#
#
# Mechanical properties :
#
#
# Convention : Reuss Voigt Hill
#
# Bulk Modulus (GPa) = 22.84699 28.20985 25.52842
# Shear Modulus (GPa) = 29.81836 32.91191 31.36514
#
# Velocity S-wave (km/s) = 3.65529 3.84022 3.74890
# Velocity P-wave (km/s) = 5.29644 5.68362 5.49344
#
# Compressibility (1/GPa) = 0.04376944
#
# Stress axis : x y z
#
# Youngs Moduli (GPa) = 38.07957 79.62897 82.70051
#
# Poissons Ratio (x) = -0.20969 0.30767
# Poissons Ratio (y) = -0.10028 0.20541
# Poissons Ratio (z) = 0.14167 0.19778
#
# Static dielectric constant tensor:
#      x y z
#    x 1.738020 0.000000 0.000000 
#    y 0.000000 1.831460 0.000000 
#    z 0.000000 0.000000 1.819920 
# 
# From -- ./inp_files/3983.got.cif
#   From: 2010.05.17/outbox.cif.g08.bks.cpg/sg37_2_cif.got.tgz:3983.got - 2010.06.03 17:53:42.
