data_PCOD9355419
_publ_section_title
;
Structure prediction by ZEFSAII (Michael W. Deem and Ramdas Pophale) SiO2 
 PCOD9355419
Probable space group: C C C 2
;
_chemical_formula_sum "Si O2"
_cell_formula_units_Z 28
_cell_length_a 5.463784
_cell_length_b 21.979433
_cell_length_c 8.168907
_cell_angle_alpha 90.000000
_cell_angle_beta 90.000000
_cell_angle_gamma 90.000000
_cell_volume 981.011184
_symmetry_space_group_name_H-M "C C C 2"
_symmetry_group_IT_number 37
_symmetry_cell_setting 'orthorhombic'
loop_
_space_group_symop_operation_xyz
x,y,z
-x,-y,z
-x,y,1/2+z
x,-y,1/2+z
1/2+x,1/2+y,z
1/2-x,1/2-y,z
1/2-x,1/2+y,1/2+z
1/2+x,1/2-y,1/2+z
loop_
_atom_site_type_symbol
_atom_site_label
_atom_site_fract_x
_atom_site_fract_y
_atom_site_fract_z
Si Si1 0.803556 0.854593 0.401770
Si Si2 0.500000 0.000000 0.319749
Si Si3 0.997190 0.739490 0.564248
Si Si4 0.706567 0.573539 0.077947
O O1 0.250000 0.750000 0.166193
O O2 0.945416 0.909769 0.495219
O O3 0.979788 0.796857 0.439486
O O4 0.231851 0.873976 0.715787
O O5 0.606690 0.054930 0.430805
O O6 0.275489 0.018204 0.201521
O O7 0.250000 0.750000 0.650116
O O8 0.943048 0.675360 0.476732
#
# Coordination Sequence:
#
# PCOD9355419 Si02
#       4
#     8   4   8   8
#     4   9  24  43  79 106 163 203 273 318 443 468
#     4  10  28  44  82 110 172 206 318 324 428 474
#     4   8  20  46  70 122 147 208 257 342 394 542
#     4  11  24  51  70 122 151 234 260 374 392 517
#
# _framework density 28.541978
#
# number of rings (size 3 to 8) (size 9 to 14) (size 15 to 20)
#    1.714    0.571    0.000    0.000    4.000    8.000 
#   10.286    0.000    0.000    0.000    0.000    0.000 
#    0.000    0.000    0.000    0.000    0.000    0.000 
#
# Total GULP energy -77997.965598 kJ/mol
# GULP energy per Si atom -5571.283257 kJ/mol
# Density = 2.847701 g / cm^3
# Si number density = 28.541978 Si / 1000 Ang^3
#
#
#
# Elastic Constant Matrix: (Units=GPa)
#
#
# Indices 1 2 3 4 5 6 
#
# 1 223.1870 58.3170 83.6336 0.0000 0.0000 0.0000
# 2 58.3170 176.4926 66.9666 0.0000 0.0000 0.0000
# 3 83.6336 66.9666 174.6214 0.0000 0.0000 0.0000
# 4 0.0000 0.0000 0.0000 40.8889 0.0000 0.0000
# 5 0.0000 0.0000 0.0000 0.0000 65.2481 0.0000
# 6 0.0000 0.0000 0.0000 0.0000 0.0000 52.3853
#
#
#
# Elastic Compliance Matrix: (Units=1/GPa)
#
#
# Indices 1 2 3 4 5 6 
#
# 1 0.005600 -0.000975 -0.002308 0.000000 0.000000 0.000000
# 2 -0.000975 0.006800 -0.002141 0.000000 0.000000 0.000000
# 3 -0.002308 -0.002141 0.007653 0.000000 0.000000 0.000000
# 4 0.000000 0.000000 0.000000 0.024456 0.000000 0.000000
# 5 0.000000 0.000000 0.000000 0.000000 0.015326 0.000000
# 6 0.000000 0.000000 0.000000 0.000000 0.000000 0.019089
#
#
# Mechanical properties :
#
#
# Convention : Reuss Voigt Hill
#
# Bulk Modulus (GPa) = 108.62828 110.23726 109.43277
# Shear Modulus (GPa) = 53.85444 56.06340 54.95892
#
# Velocity S-wave (km/s) = 4.34850 4.43679 4.39287
# Velocity P-wave (km/s) = 7.95955 8.05937 8.00961
#
# Compressibility (1/GPa) = 0.00920571
#
# Stress axis : x y z
#
# Youngs Moduli (GPa) = 178.56446 147.05025 130.66052
#
# Poissons Ratio (x) = 0.14331 0.30162
# Poissons Ratio (y) = 0.17402 0.27977
# Poissons Ratio (z) = 0.41221 0.31486
#
# Static dielectric constant tensor:
#      x y z
#    x 2.358290 0.000000 0.000000 
#    y 0.000000 2.381740 0.000000 
#    z 0.000000 0.000000 2.068260 
# 
# From -- ./inp_files/2655.got.cif
#   From: 2010.05.17/outbox.cif.g08.bks.cpg/sg37_2_cif.got.tgz:2655.got - 2010.06.03 17:53:42.
