data_PCOD9355529
_publ_section_title
;
Structure prediction by ZEFSAII (Michael W. Deem and Ramdas Pophale) SiO2 
 PCOD9355529
Probable space group: C C C 2
;
_chemical_formula_sum "Si O2"
_cell_formula_units_Z 52
_cell_length_a 9.220648
_cell_length_b 12.771142
_cell_length_c 21.265087
_cell_angle_alpha 90.000000
_cell_angle_beta 90.000000
_cell_angle_gamma 90.000000
_cell_volume 2504.138473
_symmetry_space_group_name_H-M "C C C 2"
_symmetry_group_IT_number 37
_symmetry_cell_setting 'orthorhombic'
loop_
_space_group_symop_operation_xyz
x,y,z
-x,-y,z
-x,y,1/2+z
x,-y,1/2+z
1/2+x,1/2+y,z
1/2-x,1/2-y,z
1/2-x,1/2+y,1/2+z
1/2+x,1/2-y,1/2+z
loop_
_atom_site_type_symbol
_atom_site_label
_atom_site_fract_x
_atom_site_fract_y
_atom_site_fract_z
Si Si1 0.090574 0.204213 0.017110
Si Si2 0.245689 0.526037 0.876297
Si Si3 0.102390 0.180195 0.156922
Si Si4 0.456384 0.824557 0.249253
Si Si5 0.735271 0.018288 0.733566
Si Si6 0.538575 0.166782 0.392413
Si Si7 0.000000 0.000000 0.960860
O O1 0.250000 0.250000 0.022696
O O2 0.032933 0.203489 0.088631
O O3 0.030409 0.264951 0.955645
O O4 0.086442 0.082848 0.000974
O O5 0.296856 0.522249 0.804270
O O6 0.173684 0.414725 0.896075
O O7 0.381363 0.555771 0.918017
O O8 0.112231 0.604496 0.886044
O O9 0.250000 0.250000 0.159608
O O10 0.160787 0.066325 0.179980
O O11 0.991634 0.224996 0.207712
O O12 0.595809 0.902966 0.241077
O O13 0.440893 0.788360 0.321855
O O14 0.326478 0.900582 0.226750
#
# Coordination Sequence:
#
# PCOD9355529 Si02
#       7
#     8   8   8   8   8   8   4
#     4  11  23  40  57  86 127 163 200 251 307 372
#     4   9  19  36  62  94 118 157 201 255 306 358
#     4   9  18  33  54  84 118 160 198 242 306 367
#     4   8  15  30  57  86 112 149 203 251 291 359
#     4   8  15  31  54  86 118 145 198 253 297 354
#     4   9  18  38  63  90 123 153 204 255 302 366
#     4  12  24  38  58  88 122 158 200 244 310 356
#
# _framework density 20.765625
#
# number of rings (size 3 to 8) (size 9 to 14) (size 15 to 20)
#    0.000    2.769    1.538    1.846    2.154    0.615 
#    2.769    2.308    0.000    0.000    0.000    0.000 
#    0.000    0.000    0.000    0.000    0.000    0.000 
#
# Total GULP energy -144746.155677 kJ/mol
# GULP energy per Si atom -5567.159834 kJ/mol
# Density = 2.071836 g / cm^3
# Si number density = 20.765625 Si / 1000 Ang^3
#
#
#
# Elastic Constant Matrix: (Units=GPa)
#
#
# Indices 1 2 3 4 5 6 
#
# 1 43.7905 17.0433 31.5057 0.0000 0.0000 0.0000
# 2 17.0433 52.3172 56.7610 0.0000 0.0000 0.0000
# 3 31.5057 56.7610 160.1624 0.0000 0.0000 0.0000
# 4 0.0000 0.0000 0.0000 53.3545 0.0000 0.0000
# 5 0.0000 0.0000 0.0000 0.0000 39.2004 0.0000
# 6 0.0000 0.0000 0.0000 0.0000 0.0000 16.8746
#
#
#
# Elastic Compliance Matrix: (Units=1/GPa)
#
#
# Indices 1 2 3 4 5 6 
#
# 1 0.027382 -0.004998 -0.003615 0.000000 0.000000 0.000000
# 2 -0.004998 0.031967 -0.010346 0.000000 0.000000 0.000000
# 3 -0.003615 -0.010346 0.010621 0.000000 0.000000 0.000000
# 4 0.000000 0.000000 0.000000 0.018743 0.000000 0.000000
# 5 0.000000 0.000000 0.000000 0.000000 0.025510 0.000000
# 6 0.000000 0.000000 0.000000 0.000000 0.000000 0.059261
#
#
# Mechanical properties :
#
#
# Convention : Reuss Voigt Hill
#
# Bulk Modulus (GPa) = 31.19885 51.87670 41.53778
# Shear Modulus (GPa) = 22.51381 31.94991 27.23186
#
# Velocity S-wave (km/s) = 3.29627 3.92675 3.62524
# Velocity P-wave (km/s) = 5.43545 6.75244 6.12942
#
# Compressibility (1/GPa) = 0.03205246
#
# Stress axis : x y z
#
# Youngs Moduli (GPa) = 36.52005 31.28227 94.15043
#
# Poissons Ratio (x) = 0.15635 0.34036
# Poissons Ratio (y) = 0.18253 0.97406
# Poissons Ratio (z) = 0.13202 0.32364
#
# Static dielectric constant tensor:
#      x y z
#    x 1.745270 0.000000 0.000000 
#    y 0.000000 1.763110 0.000000 
#    z 0.000000 0.000000 1.764840 
# 
# From -- ./inp_files/16385.got.cif
#   From: 2010.05.17/outbox.cif.g08.bks.cpg/sg37_9_cif.got.tgz:16385.got - 2010.06.03 17:53:42.
