data_PCOD9355148
_publ_section_title
;
Structure prediction by ZEFSAII (Michael W. Deem and Ramdas Pophale) SiO2 
 PCOD9355148
Probable space group: C C C 2
;
_chemical_formula_sum "Si O2"
_cell_formula_units_Z 56
_cell_length_a 18.963817
_cell_length_b 14.087587
_cell_length_c 9.595069
_cell_angle_alpha 90.000000
_cell_angle_beta 90.000000
_cell_angle_gamma 90.000000
_cell_volume 2563.365111
_symmetry_space_group_name_H-M "C C C 2"
_symmetry_group_IT_number 37
_symmetry_cell_setting 'orthorhombic'
loop_
_space_group_symop_operation_xyz
x,y,z
-x,-y,z
-x,y,1/2+z
x,-y,1/2+z
1/2+x,1/2+y,z
1/2-x,1/2-y,z
1/2-x,1/2+y,1/2+z
1/2+x,1/2-y,1/2+z
loop_
_atom_site_type_symbol
_atom_site_label
_atom_site_fract_x
_atom_site_fract_y
_atom_site_fract_z
Si Si1 0.540225 0.840874 0.226550
Si Si2 0.829581 0.277980 0.982031
Si Si3 0.040317 0.243148 0.951111
Si Si4 0.387346 0.139061 0.745439
Si Si5 0.923819 0.042178 0.504696
Si Si6 0.180191 0.442497 0.281352
Si Si7 0.343800 0.596427 0.789229
O O1 0.526696 0.792550 0.377038
O O2 0.466803 0.898976 0.212184
O O3 0.612981 0.895078 0.203377
O O4 0.534905 0.758183 0.113899
O O5 0.750000 0.250000 0.019470
O O6 0.870528 0.284366 0.126629
O O7 0.829959 0.387215 0.928046
O O8 0.846653 0.201702 0.859333
O O9 0.103892 0.304867 0.889325
O O10 0.055011 0.135259 0.915901
O O11 0.333974 0.053637 0.767524
O O12 0.885075 0.075204 0.646168
O O13 0.875731 0.972510 0.410174
O O14 0.000000 0.000000 0.542807
O O15 0.261509 0.420935 0.250236
#
# Coordination Sequence:
#
# PCOD9355148 Si02
#       7
#     8   8   8   8   8   8   8
#     4  10  23  44  71 107 147 195 247 294 381 434
#     4  10  24  47  72 103 155 199 243 305 379 439
#     4  10  26  44  71 106 148 191 252 312 365 436
#     4  10  25  40  75 106 147 195 247 300 371 452
#     4  12  29  48  77 107 145 193 265 312 373 453
#     4  11  24  46  74 108 151 194 244 307 373 461
#     4  11  29  48  76 111 146 202 248 314 384 439
#
# _framework density 21.846281999999999
#
# number of rings (size 3 to 8) (size 9 to 14) (size 15 to 20)
#    0.857    0.571    0.000    2.571   16.000    0.000 
#    2.571    1.429    0.000    0.000    0.000    0.000 
#    0.000    0.000    0.000    0.000    0.000    0.000 
#
# Total GULP energy -155920.679192 kJ/mol
# GULP energy per Si atom -5568.595685 kJ/mol
# Density = 2.179656 g / cm^3
# Si number density = 21.846282 Si / 1000 Ang^3
#
#
#
# Elastic Constant Matrix: (Units=GPa)
#
#
# Indices 1 2 3 4 5 6 
#
# 1 141.9607 38.8759 23.5182 0.0000 0.0000 0.0000
# 2 38.8759 94.0792 16.4117 0.0000 0.0000 0.0000
# 3 23.5182 16.4117 81.4588 0.0000 0.0000 0.0000
# 4 0.0000 0.0000 0.0000 13.6195 0.0000 0.0000
# 5 0.0000 0.0000 0.0000 0.0000 23.9270 0.0000
# 6 0.0000 0.0000 0.0000 0.0000 0.0000 35.8013
#
#
#
# Elastic Compliance Matrix: (Units=1/GPa)
#
#
# Indices 1 2 3 4 5 6 
#
# 1 0.008174 -0.003074 -0.001741 0.000000 0.000000 0.000000
# 2 -0.003074 0.012173 -0.001565 0.000000 0.000000 0.000000
# 3 -0.001741 -0.001565 0.013094 0.000000 0.000000 0.000000
# 4 0.000000 0.000000 0.000000 0.073424 0.000000 0.000000
# 5 0.000000 0.000000 0.000000 0.000000 0.041794 0.000000
# 6 0.000000 0.000000 0.000000 0.000000 0.000000 0.027932
#
#
# Mechanical properties :
#
#
# Convention : Reuss Voigt Hill
#
# Bulk Modulus (GPa) = 48.35244 52.79004 50.57124
# Shear Modulus (GPa) = 25.47842 30.58243 28.03043
#
# Velocity S-wave (km/s) = 3.41876 3.74557 3.58589
# Velocity P-wave (km/s) = 6.14532 6.55153 6.35167
#
# Compressibility (1/GPa) = 0.02068148
#
# Stress axis : x y z
#
# Youngs Moduli (GPa) = 122.33231 82.15113 76.37097
#
# Poissons Ratio (x) = 0.25255 0.13294
# Poissons Ratio (y) = 0.37608 0.11951
# Poissons Ratio (z) = 0.21294 0.12856
#
# Static dielectric constant tensor:
#      x y z
#    x 1.871900 0.000000 0.000000 
#    y 0.000000 1.798420 0.000000 
#    z 0.000000 0.000000 1.784350 
# 
# From -- ./inp_files/4383.got.cif
#   From: 2010.05.17/outbox.cif.g08.bks.cpg/sg37_3_cif.got.tgz:4383.got - 2010.06.03 17:53:42.
