data_PCOD9355424
_publ_section_title
;
Structure prediction by ZEFSAII (Michael W. Deem and Ramdas Pophale) SiO2 
 PCOD9355424
Probable space group: C C C 2
;
_chemical_formula_sum "Si O2"
_cell_formula_units_Z 40
_cell_length_a 15.826645
_cell_length_b 13.157552
_cell_length_c 7.677105
_cell_angle_alpha 90.000000
_cell_angle_beta 90.000000
_cell_angle_gamma 90.000000
_cell_volume 1598.679613
_symmetry_space_group_name_H-M "C C C 2"
_symmetry_group_IT_number 37
_symmetry_cell_setting 'orthorhombic'
loop_
_space_group_symop_operation_xyz
x,y,z
-x,-y,z
-x,y,1/2+z
x,-y,1/2+z
1/2+x,1/2+y,z
1/2-x,1/2-y,z
1/2-x,1/2+y,1/2+z
1/2+x,1/2-y,1/2+z
loop_
_atom_site_type_symbol
_atom_site_label
_atom_site_fract_x
_atom_site_fract_y
_atom_site_fract_z
Si Si1 0.912891 0.387371 0.799520
Si Si2 0.109030 0.396287 0.893236
Si Si3 0.168126 0.188626 0.390842
Si Si4 0.444112 0.602261 0.605281
Si Si5 0.112088 0.187829 0.740694
O O1 0.862659 0.487795 0.863046
O O2 0.891316 0.374126 0.597556
O O3 0.891732 0.287385 0.906178
O O4 0.012638 0.400150 0.824881
O O5 0.145661 0.299184 0.794394
O O6 0.250000 0.250000 0.328403
O O7 0.126667 0.111561 0.254802
O O8 0.170325 0.144241 0.585642
O O9 0.500000 0.500000 0.597717
O O10 0.516641 0.683025 0.660881
O O11 0.401110 0.627326 0.421277
#
# Coordination Sequence:
#
# PCOD9355424 Si02
#       5
#     8   8   8   8   8
#     4  11  20  36  64 105 139 180 235 298 388 466
#     4  11  19  35  68 102 134 174 245 311 357 463
#     4  12  27  47  71 111 161 202 253 344 421 475
#     4  12  25  45  79 111 146 205 282 328 387 488
#     4  12  22  43  74 108 141 199 265 329 391 482
#
# _framework density 25.020648999999999
#
# number of rings (size 3 to 8) (size 9 to 14) (size 15 to 20)
#    0.000    0.400    6.000    5.400    0.000    1.600 
#    0.000    4.000    0.000    0.000    0.000    0.000 
#    0.000    0.000    0.000    0.000    0.000    0.000 
#
# Total GULP energy -111774.873717 kJ/mol
# GULP energy per Si atom -5588.743686 kJ/mol
# Density = 2.496370 g / cm^3
# Si number density = 25.020649 Si / 1000 Ang^3
#
#
#
# Elastic Constant Matrix: (Units=GPa)
#
#
# Indices 1 2 3 4 5 6 
#
# 1 43.1990 8.1007 18.9534 0.0000 0.0000 0.0000
# 2 8.1007 120.1773 52.5752 0.0000 0.0000 0.0000
# 3 18.9534 52.5752 209.3853 0.0000 0.0000 0.0000
# 4 0.0000 0.0000 0.0000 23.7393 0.0000 0.0000
# 5 0.0000 0.0000 0.0000 0.0000 4.9954 0.0000
# 6 0.0000 0.0000 0.0000 0.0000 0.0000 17.6925
#
#
#
# Elastic Compliance Matrix: (Units=1/GPa)
#
#
# Indices 1 2 3 4 5 6 
#
# 1 0.024167 -0.000755 -0.001998 0.000000 0.000000 0.000000
# 2 -0.000755 0.009371 -0.002285 0.000000 0.000000 0.000000
# 3 -0.001998 -0.002285 0.005530 0.000000 0.000000 0.000000
# 4 0.000000 0.000000 0.000000 0.042124 0.000000 0.000000
# 5 0.000000 0.000000 0.000000 0.000000 0.200186 0.000000
# 6 0.000000 0.000000 0.000000 0.000000 0.000000 0.056521
#
#
# Mechanical properties :
#
#
# Convention : Reuss Voigt Hill
#
# Bulk Modulus (GPa) = 34.49063 59.11336 46.80199
# Shear Modulus (GPa) = 13.98054 28.82757 21.40406
#
# Velocity S-wave (km/s) = 2.36638 3.39802 2.92799
# Velocity P-wave (km/s) = 4.61314 6.25080 5.49334
#
# Compressibility (1/GPa) = 0.02899338
#
# Stress axis : x y z
#
# Youngs Moduli (GPa) = 41.37897 106.70680 180.81756
#
# Poissons Ratio (x) = 0.08055 0.36128
# Poissons Ratio (y) = 0.03124 0.41313
# Poissons Ratio (z) = 0.08268 0.24380
#
# Static dielectric constant tensor:
#      x y z
#    x 2.222320 0.000000 0.000000 
#    y 0.000000 2.088370 0.000000 
#    z 0.000000 0.000000 1.988800 
# 
# From -- ./inp_files/3934.got.cif
#   From: 2010.05.17/outbox.cif.g08.bks.cpg/sg37_2_cif.got.tgz:3934.got - 2010.06.03 17:53:42.
