data_PCOD9355905
_publ_section_title
;
Structure prediction by ZEFSAII (Michael W. Deem and Ramdas Pophale) SiO2 
 PCOD9355905
Probable space group: A M M 2
;
_chemical_formula_sum "Si O2"
_cell_formula_units_Z 56
_cell_length_a 19.057466
_cell_length_b 16.949593
_cell_length_c 8.020123
_cell_angle_alpha 90.000000
_cell_angle_beta 90.000000
_cell_angle_gamma 90.000000
_cell_volume 2590.630395
_symmetry_space_group_name_H-M "A M M 2"
_symmetry_group_IT_number 38
_symmetry_cell_setting 'orthorhombic'
loop_
_space_group_symop_operation_xyz
x,y,z
-x,-y,z
-x,y,z
x,-y,z
x,1/2+y,1/2+z
-x,1/2-y,1/2+z
-x,1/2+y,1/2+z
x,1/2-y,1/2+z
loop_
_atom_site_type_symbol
_atom_site_label
_atom_site_fract_x
_atom_site_fract_y
_atom_site_fract_z
Si Si1 0.127299 0.646202 0.271450
Si Si2 0.921665 0.803650 0.132838
Si Si3 0.721977 0.139260 0.841754
Si Si4 0.575510 0.132886 0.912912
Si Si5 0.575669 0.308841 0.791704
Si Si6 0.863898 0.408844 0.914801
Si Si7 0.720091 0.815491 0.461537
O O1 0.131951 0.733881 0.185685
O O2 0.087557 0.663462 0.445151
O O3 0.199558 0.606294 0.335886
O O4 0.105532 0.599653 0.103896
O O5 0.911918 0.869791 0.273438
O O6 0.000000 0.768962 0.144733
O O7 0.651602 0.093640 0.891645
O O8 0.710750 0.164235 0.652399
O O9 0.727738 0.221101 0.943962
O O10 0.500000 0.093517 0.879631
O O11 0.577496 0.213783 0.805315
O O12 0.574524 0.163421 0.102360
O O13 0.500000 0.333014 0.869122
O O14 0.647754 0.338460 0.871056
O O15 0.852053 0.500000 0.880070
O O16 0.789433 0.362241 0.905469
#
# Coordination Sequence:
#
# PCOD9355905 Si02
#       7
#     8   8   8   8   8   8   8
#     4  11  22  40  67  97 128 162 211 262 303 369
#     4  12  24  41  70 101 124 161 209 254 312 375
#     4  10  17  28  50  81 107 152 196 246 296 354
#     4   9  16  23  37  69 114 147 180 241 309 353
#     4   9  16  24  39  68 106 148 189 239 297 352
#     4  11  26  44  63  93 133 167 204 258 315 369
#     4  10  18  30  53  78 110 150 198 246 301 358
#
# _framework density 21.616361000000001
#
# number of rings (size 3 to 8) (size 9 to 14) (size 15 to 20)
#    0.000    1.714    2.857    4.714    2.000    3.143 
#    0.000    0.000    0.000    0.429    0.000    0.000 
#    0.000    0.000    0.000    0.000    0.000    0.000 
#
# Total GULP energy -155974.077583 kJ/mol
# GULP energy per Si atom -5570.502771 kJ/mol
# Density = 2.156716 g / cm^3
# Si number density = 21.616361 Si / 1000 Ang^3
#
#
#
# Elastic Constant Matrix: (Units=GPa)
#
#
# Indices 1 2 3 4 5 6 
#
# 1 106.5484 8.7611 32.6148 0.0000 0.0000 0.0000
# 2 8.7611 62.2084 3.8690 0.0000 0.0000 0.0000
# 3 32.6148 3.8690 70.8198 0.0000 0.0000 0.0000
# 4 0.0000 0.0000 0.0000 7.3822 0.0000 0.0000
# 5 0.0000 0.0000 0.0000 0.0000 25.5762 0.0000
# 6 0.0000 0.0000 0.0000 0.0000 0.0000 -7.8134
#
#
#
# Elastic Compliance Matrix: (Units=1/GPa)
#
#
# Indices 1 2 3 4 5 6 
#
# 1 0.011020 -0.001241 -0.005007 0.000000 0.000000 0.000000
# 2 -0.001241 0.016269 -0.000317 0.000000 0.000000 0.000000
# 3 -0.005007 -0.000317 0.016444 0.000000 0.000000 0.000000
# 4 0.000000 0.000000 0.000000 0.135461 0.000000 0.000000
# 5 0.000000 0.000000 0.000000 0.000000 0.039099 0.000000
# 6 0.000000 0.000000 0.000000 0.000000 0.000000 -0.127986
#
#
# Mechanical properties :
#
#
# Convention : Reuss Voigt Hill
#
# Bulk Modulus (GPa) = 32.67710 36.67404 34.67557
# Shear Modulus (GPa) = 43.99887 17.98446 30.99167
#
# Velocity S-wave (km/s) = 4.51648 2.88754 3.79055
# Velocity P-wave (km/s) = 6.50752 5.30282 5.93581
#
# Compressibility (1/GPa) = 0.03060247
#
# Stress axis : x y z
#
# Youngs Moduli (GPa) = 90.74259 61.46487 60.81343
#
# Poissons Ratio (x) = 0.07625 0.30452
# Poissons Ratio (y) = 0.11257 0.01931
# Poissons Ratio (z) = 0.45438 0.01951
#
# Static dielectric constant tensor:
#      x y z
#    x 1.928940 0.000000 0.000000 
#    y 0.000000 1.765870 0.000000 
#    z 0.000000 0.000000 1.786580 
# 
# From -- ./inp_files/6798.got.cif
#   From: 2010.05.17/outbox.cif.g08.bks.cpg/sg38_4_cif.got.tgz:6798.got - 2010.06.03 18:07:57.
