data_PCOD9355815
_publ_section_title
;
Structure prediction by ZEFSAII (Michael W. Deem and Ramdas Pophale) SiO2 
 PCOD9355815
Probable space group: A M M 2
;
_chemical_formula_sum "Si O2"
_cell_formula_units_Z 48
_cell_length_a 7.653921
_cell_length_b 17.258522
_cell_length_c 18.755002
_cell_angle_alpha 90.000000
_cell_angle_beta 90.000000
_cell_angle_gamma 90.000000
_cell_volume 2477.448815
_symmetry_space_group_name_H-M "A M M 2"
_symmetry_group_IT_number 38
_symmetry_cell_setting 'orthorhombic'
loop_
_space_group_symop_operation_xyz
x,y,z
-x,-y,z
-x,y,z
x,-y,z
x,1/2+y,1/2+z
-x,1/2-y,1/2+z
-x,1/2+y,1/2+z
x,1/2-y,1/2+z
loop_
_atom_site_type_symbol
_atom_site_label
_atom_site_fract_x
_atom_site_fract_y
_atom_site_fract_z
Si Si1 0.286082 0.587247 0.233140
Si Si2 0.703868 0.000000 0.179741
Si Si3 0.204501 0.148649 0.433412
Si Si4 0.714144 0.169444 0.169392
Si Si5 0.289845 0.259500 0.311056
Si Si6 0.293520 0.677826 0.095151
Si Si7 0.786343 0.500000 0.845709
O O1 0.500000 0.585644 0.234043
O O2 0.226301 0.500000 0.247401
O O3 0.231528 0.654462 0.288358
O O4 0.228298 0.617371 0.154798
O O5 0.778995 0.082675 0.155667
O O6 0.500000 0.000000 0.158914
O O7 0.716765 0.000000 0.265599
O O8 0.234392 0.225331 0.386485
O O9 0.269389 0.155182 0.513774
O O10 0.275303 0.075938 0.388467
O O11 0.000000 0.135069 0.439236
O O12 0.500000 0.166221 0.169482
O O13 0.766874 0.201007 0.247665
O O14 0.772551 0.236087 0.114682
O O15 0.500000 0.260067 0.309961
O O16 0.500000 0.681550 0.108202
O O17 0.000000 0.500000 0.841213
#
# Coordination Sequence:
#
# PCOD9355815 Si02
#       7
#     8   4   8   8   8   8   4
#     4   8  15  29  51  78 101 121 154 202 247 284
#     4  10  16  28  54  78  96 117 154 199 242 289
#     4  11  22  34  47  68 101 134 162 194 237 286
#     4   8  15  28  48  75  98 119 152 198 240 280
#     4   9  16  30  52  74  96 125 161 199 239 284
#     4   9  18  32  50  72  99 127 158 196 240 287
#     4  10  22  34  44  68 104 131 154 193 240 287
#
# _framework density 19.374769000000001
#
# number of rings (size 3 to 8) (size 9 to 14) (size 15 to 20)
#    0.000    2.833    1.667    2.500    1.167    0.667 
#    0.000    4.167    1.833    1.500    0.000    0.000 
#    0.000    0.000    0.000    0.000    0.000    0.000 
#
# Total GULP energy -133787.399749 kJ/mol
# GULP energy per Si atom -5574.474990 kJ/mol
# Density = 1.933067 g / cm^3
# Si number density = 19.374769 Si / 1000 Ang^3
#
#
#
# Elastic Constant Matrix: (Units=GPa)
#
#
# Indices 1 2 3 4 5 6 
#
# 1 28.4886 -1.1233 -13.0614 0.0000 0.0000 0.0000
# 2 -1.1233 141.6590 14.6932 0.0000 0.0000 0.0000
# 3 -13.0614 14.6932 45.0808 0.0000 0.0000 0.0000
# 4 0.0000 0.0000 0.0000 18.2265 0.0000 0.0000
# 5 0.0000 0.0000 0.0000 0.0000 2286.3161 0.0000
# 6 0.0000 0.0000 0.0000 0.0000 0.0000 2.9800
#
#
#
# Elastic Compliance Matrix: (Units=1/GPa)
#
#
# Indices 1 2 3 4 5 6 
#
# 1 0.040597 -0.000930 0.012065 0.000000 0.000000 0.000000
# 2 -0.000930 0.007327 -0.002658 0.000000 0.000000 0.000000
# 3 0.012065 -0.002658 0.026544 0.000000 0.000000 0.000000
# 4 0.000000 0.000000 0.000000 0.054865 0.000000 0.000000
# 5 0.000000 0.000000 0.000000 0.000000 0.000437 0.000000
# 6 0.000000 0.000000 0.000000 0.000000 0.000000 0.335573
#
#
# Mechanical properties :
#
#
# Convention : Reuss Voigt Hill
#
# Bulk Modulus (GPa) = 10.93799 24.02728 17.48263
# Shear Modulus (GPa) = 10.44140 475.81918 243.13029
#
# Velocity S-wave (km/s) = 2.32398 15.68822 11.21430
# Velocity P-wave (km/s) = 3.58593 18.45504 13.29375
#
# Compressibility (1/GPa) = 0.09142449
#
# Stress axis : x y z
#
# Youngs Moduli (GPa) = 24.63253 136.47252 37.67303
#
# Poissons Ratio (x) = 0.12685 -0.45453
# Poissons Ratio (y) = 0.02290 0.10012
# Poissons Ratio (z) = -0.29719 0.36268
#
# Static dielectric constant tensor:
#      x y z
#    x 1.563530 0.000000 0.000000 
#    y 0.000000 1.719210 0.000000 
#    z 0.000000 0.000000 1.647610 
# 
# From -- ./inp_files/19925.got.cif
#   From: 2010.05.17/outbox.cif.g08.bks.cpg/sg38_10_cif.got.tgz:19925.got - 2010.06.03 18:07:57.
