data_PCOD9355383
_publ_section_title
;
Structure prediction by ZEFSAII (Michael W. Deem and Ramdas Pophale) SiO2 
 PCOD9355383
Probable space group: C C C 2
;
_chemical_formula_sum "Si O2"
_cell_formula_units_Z 44
_cell_length_a 14.476555
_cell_length_b 13.977742
_cell_length_c 8.850212
_cell_angle_alpha 90.000000
_cell_angle_beta 90.000000
_cell_angle_gamma 90.000000
_cell_volume 1790.836423
_symmetry_space_group_name_H-M "C C C 2"
_symmetry_group_IT_number 37
_symmetry_cell_setting 'orthorhombic'
loop_
_space_group_symop_operation_xyz
x,y,z
-x,-y,z
-x,y,1/2+z
x,-y,1/2+z
1/2+x,1/2+y,z
1/2-x,1/2-y,z
1/2-x,1/2+y,1/2+z
1/2+x,1/2-y,1/2+z
loop_
_atom_site_type_symbol
_atom_site_label
_atom_site_fract_x
_atom_site_fract_y
_atom_site_fract_z
Si Si1 0.890032 0.270346 0.515720
Si Si2 0.000000 0.000000 0.663410
Si Si3 0.500000 0.000000 0.796404
Si Si4 0.422071 0.798249 0.869944
Si Si5 0.812217 0.581395 0.789212
Si Si6 0.367533 0.574387 0.406348
Si Si7 0.250000 0.750000 0.071975
O O1 0.902320 0.280023 0.693734
O O2 0.854007 0.365538 0.435937
O O3 0.833803 0.178765 0.459733
O O4 0.988760 0.248663 0.440208
O O5 0.079988 0.963307 0.553249
O O6 0.944149 0.928983 0.774058
O O7 0.548983 0.089457 0.880598
O O8 0.406964 0.040685 0.715617
O O9 0.338192 0.757186 0.965155
O O10 0.725157 0.519415 0.849257
O O11 0.763798 0.656981 0.677082
#
# Coordination Sequence:
#
# PCOD9355383 Si02
#       7
#     8   4   4   8   8   8   4
#     4  11  23  46  74 104 144 196 248 325 386 473
#     4  10  26  42  68 104 144 200 248 316 390 458
#     4  10  26  52  74 116 152 200 254 348 388 460
#     4  11  26  43  78 109 149 197 262 316 405 470
#     4  11  25  47  76 104 154 197 254 326 400 458
#     4  11  23  46  69 102 147 195 254 318 387 475
#     4  12  26  44  70 114 144 210 258 312 392 488
#
# _framework density 24.569527000000001
#
# number of rings (size 3 to 8) (size 9 to 14) (size 15 to 20)
#    0.000    1.091    1.818    3.273    5.091    9.455 
#    3.273    0.000    0.000    0.000    0.000    0.000 
#    0.000    0.000    0.000    0.000    0.000    0.000 
#
# Total GULP energy -122797.259968 kJ/mol
# GULP energy per Si atom -5581.693635 kJ/mol
# Density = 2.451361 g / cm^3
# Si number density = 24.569527 Si / 1000 Ang^3
#
#
#
# Elastic Constant Matrix: (Units=GPa)
#
#
# Indices 1 2 3 4 5 6 
#
# 1 202.4961 37.9477 63.8704 0.0000 0.0000 0.0000
# 2 37.9477 63.1934 31.5101 0.0000 0.0000 0.0000
# 3 63.8704 31.5101 189.6581 0.0000 0.0000 0.0000
# 4 0.0000 0.0000 0.0000 10.1583 0.0000 0.0000
# 5 0.0000 0.0000 0.0000 0.0000 68.1781 0.0000
# 6 0.0000 0.0000 0.0000 0.0000 0.0000 44.1143
#
#
#
# Elastic Compliance Matrix: (Units=1/GPa)
#
#
# Indices 1 2 3 4 5 6 
#
# 1 0.005949 -0.002806 -0.001537 0.000000 0.000000 0.000000
# 2 -0.002806 0.018577 -0.002142 0.000000 0.000000 0.000000
# 3 -0.001537 -0.002142 0.006146 0.000000 0.000000 0.000000
# 4 0.000000 0.000000 0.000000 0.098442 0.000000 0.000000
# 5 0.000000 0.000000 0.000000 0.000000 0.014667 0.000000
# 6 0.000000 0.000000 0.000000 0.000000 0.000000 0.022668
#
#
# Mechanical properties :
#
#
# Convention : Reuss Voigt Hill
#
# Bulk Modulus (GPa) = 56.48745 80.22267 68.35506
# Shear Modulus (GPa) = 26.98028 45.95809 36.46918
#
# Velocity S-wave (km/s) = 3.31738 4.32966 3.85687
# Velocity P-wave (km/s) = 6.14118 7.59715 6.90764
#
# Compressibility (1/GPa) = 0.01770305
#
# Stress axis : x y z
#
# Youngs Moduli (GPa) = 168.09355 53.82944 162.70379
#
# Poissons Ratio (x) = 0.15104 0.25012
# Poissons Ratio (y) = 0.47165 0.34843
# Poissons Ratio (z) = 0.25840 0.11528
#
# Static dielectric constant tensor:
#      x y z
#    x 1.872900 0.000000 0.000000 
#    y 0.000000 2.026360 0.000000 
#    z 0.000000 0.000000 1.939770 
# 
# From -- ./inp_files/3469.got.cif
#   From: 2010.05.17/outbox.cif.g08.bks.cpg/sg37_2_cif.got.tgz:3469.got - 2010.06.03 17:53:42.
