data_PCOD9355887
_publ_section_title
;
Structure prediction by ZEFSAII (Michael W. Deem and Ramdas Pophale) SiO2 
 PCOD9355887
Probable space group: A M M 2
;
_chemical_formula_sum "Si O2"
_cell_formula_units_Z 64
_cell_length_a 20.815919
_cell_length_b 7.390956
_cell_length_c 20.718908
_cell_angle_alpha 90.000000
_cell_angle_beta 90.000000
_cell_angle_gamma 90.000000
_cell_volume 3187.594495
_symmetry_space_group_name_H-M "A M M 2"
_symmetry_group_IT_number 38
_symmetry_cell_setting 'orthorhombic'
loop_
_space_group_symop_operation_xyz
x,y,z
-x,-y,z
-x,y,z
x,-y,z
x,1/2+y,1/2+z
-x,1/2-y,1/2+z
-x,1/2+y,1/2+z
x,1/2-y,1/2+z
loop_
_atom_site_type_symbol
_atom_site_label
_atom_site_fract_x
_atom_site_fract_y
_atom_site_fract_z
Si Si1 0.695022 0.280153 0.990240
Si Si2 0.160679 0.280139 0.953513
Si Si3 0.073052 0.278514 0.069221
Si Si4 0.803797 0.781912 0.313711
Si Si5 0.678471 0.221759 0.633638
Si Si6 0.571886 0.213138 0.733553
Si Si7 0.179177 0.711062 0.169325
Si Si8 0.339069 0.782276 0.350397
O O1 0.694291 0.500000 0.990174
O O2 0.769896 0.227397 0.982651
O O3 0.659635 0.220781 0.924807
O O4 0.668446 0.223441 0.059358
O O5 0.160251 0.500000 0.953047
O O6 0.160331 0.221700 0.878921
O O7 0.104308 0.222654 0.001018
O O8 0.071905 0.500000 0.070053
O O9 0.121824 0.216371 0.125254
O O10 0.000000 0.218181 0.077376
O O11 0.832322 0.725086 0.245565
O O12 0.729366 0.720774 0.320446
O O13 0.803047 0.000000 0.314242
O O14 0.623618 0.286563 0.682358
O O15 0.749561 0.284701 0.654846
O O16 0.678662 0.000000 0.636145
O O17 0.500000 0.288909 0.730020
O O18 0.603049 0.230144 0.804251
O O19 0.567172 0.000000 0.719806
O O20 0.183414 0.500000 0.151722
O O21 0.336842 0.000000 0.351426
#
# Coordination Sequence:
#
# PCOD9355887 Si02
#       8
#     8   8   8   8   8   8   8   8
#     4   8  13  24  44  68  89 109 143 191 231 259
#     4   8  13  24  41  63  89 117 147 183 227 267
#     4   9  16  26  43  69  96 120 153 195 233 270
#     4   9  17  28  45  69  95 119 149 191 232 271
#     4   9  15  26  45  68  91 116 150 190 228 267
#     4  10  20  32  46  66  94 126 154 183 226 279
#     4  10  17  27  47  71  93 121 153 189 232 273
#     4   9  17  29  47  70  92 116 149 191 234 272
#
# _framework density 20.077836000000001
#
# number of rings (size 3 to 8) (size 9 to 14) (size 15 to 20)
#    0.000    3.000    2.500    1.500    0.000    0.250 
#    0.000    1.250    0.000    5.625    0.000    0.000 
#    0.000    0.000    0.000    0.000    0.000    0.000 
#
# Total GULP energy -178486.530714 kJ/mol
# GULP energy per Si atom -5577.704085 kJ/mol
# Density = 2.003214 g / cm^3
# Si number density = 20.077836 Si / 1000 Ang^3
#
#
#
# Elastic Constant Matrix: (Units=GPa)
#
#
# Indices 1 2 3 4 5 6 
#
# 1 165.7474 9.0830 111.7648 0.0000 0.0000 0.0000
# 2 9.0830 66.3899 -4.6850 0.0000 0.0000 0.0000
# 3 111.7648 -4.6850 172.6817 0.0000 0.0000 0.0000
# 4 0.0000 0.0000 0.0000 14.4174 0.0000 0.0000
# 5 0.0000 0.0000 0.0000 0.0000 23.9177 0.0000
# 6 0.0000 0.0000 0.0000 0.0000 0.0000 0.2915
#
#
#
# Elastic Compliance Matrix: (Units=1/GPa)
#
#
# Indices 1 2 3 4 5 6 
#
# 1 0.010966 -0.002005 -0.007152 0.000000 0.000000 0.000000
# 2 -0.002005 0.015458 0.001717 0.000000 0.000000 0.000000
# 3 -0.007152 0.001717 0.010466 0.000000 0.000000 0.000000
# 4 0.000000 0.000000 0.000000 0.069360 0.000000 0.000000
# 5 0.000000 0.000000 0.000000 0.000000 0.041810 0.000000
# 6 0.000000 0.000000 0.000000 0.000000 0.000000 3.430907
#
#
# Mechanical properties :
#
#
# Convention : Reuss Voigt Hill
#
# Bulk Modulus (GPa) = 45.43208 70.79381 58.11295
# Shear Modulus (GPa) = 1.38843 26.96907 14.17875
#
# Velocity S-wave (km/s) = 0.83248 3.66898 2.66031
# Velocity P-wave (km/s) = 4.85810 7.29964 6.20024
#
# Compressibility (1/GPa) = 0.02201088
#
# Stress axis : x y z
#
# Youngs Moduli (GPa) = 91.19469 64.69141 95.54438
#
# Poissons Ratio (x) = 0.12970 0.68330
# Poissons Ratio (y) = 0.18284 -0.16405
# Poissons Ratio (z) = 0.65219 -0.11108
#
# Static dielectric constant tensor:
#      x y z
#    x 1.676490 0.000000 0.000000 
#    y 0.000000 1.931440 0.000000 
#    z 0.000000 0.000000 1.710940 
# 
# From -- ./inp_files/19001.got.cif
#   From: 2010.05.17/outbox.cif.g08.bks.cpg/sg38_10_cif.got.tgz:19001.got - 2010.06.03 18:07:57.
