data_PCOD9355688
_publ_section_title
;
Structure prediction by ZEFSAII (Michael W. Deem and Ramdas Pophale) SiO2 
 PCOD9355688
Probable space group: C C C 2
;
_chemical_formula_sum "Si O2"
_cell_formula_units_Z 40
_cell_length_a 10.428878
_cell_length_b 10.805315
_cell_length_c 16.294171
_cell_angle_alpha 90.000000
_cell_angle_beta 90.000000
_cell_angle_gamma 90.000000
_cell_volume 1836.146329
_symmetry_space_group_name_H-M "C C C 2"
_symmetry_group_IT_number 37
_symmetry_cell_setting 'orthorhombic'
loop_
_space_group_symop_operation_xyz
x,y,z
-x,-y,z
-x,y,1/2+z
x,-y,1/2+z
1/2+x,1/2+y,z
1/2-x,1/2-y,z
1/2-x,1/2+y,1/2+z
1/2+x,1/2-y,1/2+z
loop_
_atom_site_type_symbol
_atom_site_label
_atom_site_fract_x
_atom_site_fract_y
_atom_site_fract_z
Si Si1 0.640002 0.020098 0.715410
Si Si2 0.750000 0.250000 0.787725
Si Si3 0.125229 0.665693 0.371881
Si Si4 0.258475 0.883807 0.075584
Si Si5 0.082502 0.123542 0.413534
Si Si6 0.500000 0.000000 0.501272
O O1 0.654582 0.165126 0.735613
O O2 0.500000 0.000000 0.677246
O O3 0.633824 0.923259 0.791804
O O4 0.747510 0.984014 0.648403
O O5 0.808205 0.143685 0.845845
O O6 0.250000 0.750000 0.375207
O O7 0.007884 0.760781 0.388066
O O8 0.104258 0.573141 0.446933
O O9 0.250000 0.750000 0.116642
O O10 0.154358 0.882754 0.001912
O O11 0.402060 0.900666 0.040091
O O12 0.000000 0.000000 0.404141
#
# Coordination Sequence:
#
# PCOD9355688 Si02
#       6
#     8   4   8   8   8   4
#     4  12  25  48  75 105 153 195 242 308 384 444
#     4  12  24  52  78 108 142 202 254 306 362 468
#     4  12  23  44  76 104 139 197 254 300 365 448
#     4  12  25  47  71 107 154 193 237 319 384 435
#     4  12  24  45  76 110 145 192 260 313 364 452
#     4  12  22  44  72  98 142 196 246 300 364 444
#
# _framework density 21.784755000000001
#
# number of rings (size 3 to 8) (size 9 to 14) (size 15 to 20)
#    0.000    0.000    7.000    4.200    0.000    0.000 
#    9.000    0.000    0.000    0.000    0.000    0.000 
#    0.000    0.000    0.000    0.000    0.000    0.000 
#
# Total GULP energy -111409.438748 kJ/mol
# GULP energy per Si atom -5570.471937 kJ/mol
# Density = 2.173517 g / cm^3
# Si number density = 21.784755 Si / 1000 Ang^3
#
#
#
# Elastic Constant Matrix: (Units=GPa)
#
#
# Indices 1 2 3 4 5 6 
#
# 1 76.7379 31.1015 21.9331 0.0000 0.0000 0.0000
# 2 31.1015 124.0858 42.9017 0.0000 0.0000 0.0000
# 3 21.9331 42.9017 58.4916 0.0000 0.0000 0.0000
# 4 0.0000 0.0000 0.0000 64.8320 0.0000 0.0000
# 5 0.0000 0.0000 0.0000 0.0000 72.1404 0.0000
# 6 0.0000 0.0000 0.0000 0.0000 0.0000 44.5880
#
#
#
# Elastic Compliance Matrix: (Units=1/GPa)
#
#
# Indices 1 2 3 4 5 6 
#
# 1 0.015133 -0.002453 -0.003875 0.000000 0.000000 0.000000
# 2 -0.002453 0.011195 -0.007291 0.000000 0.000000 0.000000
# 3 -0.003875 -0.007291 0.023897 0.000000 0.000000 0.000000
# 4 0.000000 0.000000 0.000000 0.015424 0.000000 0.000000
# 5 0.000000 0.000000 0.000000 0.000000 0.013862 0.000000
# 6 0.000000 0.000000 0.000000 0.000000 0.000000 0.022428
#
#
# Mechanical properties :
#
#
# Convention : Reuss Voigt Hill
#
# Bulk Modulus (GPa) = 43.50432 50.13200 46.81816
# Shear Modulus (GPa) = 36.53892 47.20399 41.87145
#
# Velocity S-wave (km/s) = 4.09989 4.65998 4.38888
# Velocity P-wave (km/s) = 6.51349 7.21223 6.87175
#
# Compressibility (1/GPa) = 0.02298622
#
# Stress axis : x y z
#
# Youngs Moduli (GPa) = 66.07947 89.32839 41.84561
#
# Poissons Ratio (x) = 0.21914 0.16216
# Poissons Ratio (y) = 0.16211 0.30510
# Poissons Ratio (z) = 0.25608 0.65129
#
# Static dielectric constant tensor:
#      x y z
#    x 1.910490 0.000000 0.000000 
#    y 0.000000 1.783000 0.000000 
#    z 0.000000 0.000000 1.879240 
# 
# From -- ./inp_files/14294.got.cif
#   From: 2010.05.17/outbox.cif.g08.bks.cpg/sg37_8_cif.got.tgz:14294.got - 2010.06.03 17:53:42.
