data_PCOD9355508
_publ_section_title
;
Structure prediction by ZEFSAII (Michael W. Deem and Ramdas Pophale) SiO2 
 PCOD9355508
Probable space group: C C C 2
;
_chemical_formula_sum "Si O2"
_cell_formula_units_Z 48
_cell_length_a 27.188155
_cell_length_b 9.479050
_cell_length_c 8.513878
_cell_angle_alpha 90.000000
_cell_angle_beta 90.000000
_cell_angle_gamma 90.000000
_cell_volume 2194.178594
_symmetry_space_group_name_H-M "C C C 2"
_symmetry_group_IT_number 37
_symmetry_cell_setting 'orthorhombic'
loop_
_space_group_symop_operation_xyz
x,y,z
-x,-y,z
-x,y,1/2+z
x,-y,1/2+z
1/2+x,1/2+y,z
1/2-x,1/2-y,z
1/2-x,1/2+y,1/2+z
1/2+x,1/2-y,1/2+z
loop_
_atom_site_type_symbol
_atom_site_label
_atom_site_fract_x
_atom_site_fract_y
_atom_site_fract_z
Si Si1 0.448116 0.839340 0.379150
Si Si2 0.345214 0.698408 0.833288
Si Si3 0.947450 0.339532 0.754299
Si Si4 0.693483 0.451181 0.520233
Si Si5 0.304767 0.947514 0.017082
Si Si6 0.341972 0.202135 0.830807
O O1 0.448940 0.841538 0.566680
O O2 0.500190 0.784515 0.316733
O O3 0.399358 0.759116 0.322628
O O4 0.442764 0.999811 0.316145
O O5 0.400472 0.752906 0.812094
O O6 0.325551 0.625434 0.675673
O O7 0.339623 0.583597 0.970706
O O8 0.311822 0.832464 0.879778
O O9 0.748816 0.505489 0.536052
O O10 0.689822 0.336236 0.380653
O O11 0.335744 0.084871 0.968003
O O12 0.324248 0.873090 0.173384
#
# Coordination Sequence:
#
# PCOD9355508 Si02
#       6
#     8   8   8   8   8   8
#     4  11  22  42  73 112 138 185 240 302 358 421
#     4  12  26  49  72 105 145 192 241 297 367 432
#     4  11  23  42  75 109 144 184 241 305 361 427
#     4  12  27  48  69 105 148 187 240 299 363 433
#     4  12  26  44  74 104 139 196 244 295 358 434
#     4  12  24  45  73 105 144 186 242 302 361 429
#
# _framework density 21.876069000000001
#
# number of rings (size 3 to 8) (size 9 to 14) (size 15 to 20)
#    0.000    0.333    3.333    7.000    2.333    2.667 
#    0.000    2.500    0.000    0.000    0.000    0.000 
#    0.000    0.000    0.000    0.000    0.000    0.000 
#
# Total GULP energy -134549.114635 kJ/mol
# GULP energy per Si atom -5606.213110 kJ/mol
# Density = 2.182628 g / cm^3
# Si number density = 21.876069 Si / 1000 Ang^3
#
#
#
# Elastic Constant Matrix: (Units=GPa)
#
#
# Indices 1 2 3 4 5 6 
#
# 1 198.9946 39.9825 63.4726 0.0000 0.0000 0.0000
# 2 39.9825 80.8536 17.0127 0.0000 0.0000 0.0000
# 3 63.4726 17.0127 76.3405 0.0000 0.0000 0.0000
# 4 0.0000 0.0000 0.0000 32.6590 0.0000 0.0000
# 5 0.0000 0.0000 0.0000 0.0000 29.3422 0.0000
# 6 0.0000 0.0000 0.0000 0.0000 0.0000 -5.1182
#
#
#
# Elastic Compliance Matrix: (Units=1/GPa)
#
#
# Indices 1 2 3 4 5 6 
#
# 1 0.007270 -0.002437 -0.005501 0.000000 0.000000 0.000000
# 2 -0.002437 0.013794 -0.001047 0.000000 0.000000 0.000000
# 3 -0.005501 -0.001047 0.017906 0.000000 0.000000 0.000000
# 4 0.000000 0.000000 0.000000 0.030619 0.000000 0.000000
# 5 0.000000 0.000000 0.000000 0.000000 0.034081 0.000000
# 6 0.000000 0.000000 0.000000 0.000000 0.000000 -0.195381
#
#
# Mechanical properties :
#
#
# Convention : Reuss Voigt Hill
#
# Bulk Modulus (GPa) = 47.62354 66.34715 56.98534
# Shear Modulus (GPa) = -74.91824 27.09132 -23.91346
#
# Velocity S-wave (km/s) = -5.85841 3.52291 -3.30984
# Velocity P-wave (km/s) = 4.89330 6.85145 3.39101
#
# Compressibility (1/GPa) = 0.02099802
#
# Stress axis : x y z
#
# Youngs Moduli (GPa) = 137.55812 72.49680 55.84569
#
# Poissons Ratio (x) = 0.17670 0.30721
# Poissons Ratio (y) = 0.33528 0.05849
# Poissons Ratio (z) = 0.75672 0.07594
#
# Static dielectric constant tensor:
#      x y z
#    x 1.921640 0.000000 0.000000 
#    y 0.000000 1.787620 0.000000 
#    z 0.000000 0.000000 1.826710 
# 
# From -- ./inp_files/4952.got.cif
#   From: 2010.05.17/outbox.cif.g08.bks.cpg/sg37_3_cif.got.tgz:4952.got - 2010.06.03 17:53:42.
