data_PCOD9355779
_publ_section_title
;
Structure prediction by ZEFSAII (Michael W. Deem and Ramdas Pophale) SiO2 
 PCOD9355779
Probable space group: C C C 2
;
_chemical_formula_sum "Si O2"
_cell_formula_units_Z 32
_cell_length_a 15.000000
_cell_length_b 12.000000
_cell_length_c 18.000000
_cell_angle_alpha 90.000000
_cell_angle_beta 90.000000
_cell_angle_gamma 90.000000
_cell_volume 3240.000000
_symmetry_space_group_name_H-M "C C C 2"
_symmetry_group_IT_number 37
_symmetry_cell_setting 'orthorhombic'
loop_
_space_group_symop_operation_xyz
x,y,z
-x,-y,z
-x,y,1/2+z
x,-y,1/2+z
1/2+x,1/2+y,z
1/2-x,1/2-y,z
1/2-x,1/2+y,1/2+z
1/2+x,1/2-y,1/2+z
loop_
_atom_site_type_symbol
_atom_site_label
_atom_site_fract_x
_atom_site_fract_y
_atom_site_fract_z
Si Si1 0.083351 0.415935 0.599640
Si Si2 0.351078 0.744419 0.467302
Si Si3 0.236834 0.997892 0.180850
Si Si4 0.679547 0.843997 0.298689
Si Si5 0.102988 0.494699 0.431846
Si Si6 0.493673 0.252567 0.213171
Si Si7 0.836844 0.173110 0.302270
Si Si8 0.076013 0.912869 0.592975
O O1 0.173992 0.445005 0.644281
O O2 0.105658 0.425740 0.510754
O O3 0.000000 0.500000 0.608025
O O4 0.040846 0.311525 0.643632
O O5 0.250000 0.750000 0.495984
O O6 0.351189 0.669083 0.391780
O O7 0.408166 0.682859 0.530912
O O8 0.373444 0.874354 0.447882
O O9 0.187701 0.926262 0.245423
O O10 0.271046 0.102689 0.227722
O O11 0.168514 0.026350 0.114610
O O12 0.750000 0.750000 0.326482
O O13 0.657529 0.932603 0.365519
O O14 0.586238 0.801940 0.261800
O O15 0.000000 0.500000 0.407504
O O16 0.573281 0.275363 0.269887
O O17 0.454199 0.359654 0.171404
O O18 0.750000 0.250000 0.295519
O O19 0.000000 0.000000 0.568817
#
# Coordination Sequence:
#
# PCOD9355779 Si02
#       8
#     8   8   8   8   8   8   8   8
#     4  11  23  41  70 100 133 175 229 291 343 404
#     4  11  25  46  72  97 139 186 231 282 355 428
#     4  12  24  42  69 102 132 180 236 283 342 415
#     4  12  26  43  69 102 143 182 229 292 353 414
#     4  11  25  46  68 104 138 180 234 289 349 425
#     4  12  24  42  69 102 135 181 230 288 344 408
#     4  11  23  44  67 100 135 176 227 284 344 412
#     4  12  26  46  66 103 143 182 234 289 350 422
#
# _framework density 9.8765429999999999
#
# number of rings (size 3 to 8) (size 9 to 14) (size 15 to 20)
#    0.000    0.500    5.000    4.500    3.500    0.000 
#    4.500    3.750    0.000    0.000    0.000    0.000 
#    0.000    0.000    0.000    0.000    0.000    0.000 
#
# Total GULP energy -178485.759461 kJ/mol
# GULP energy per Si atom -5577.679983 kJ/mol
# Density = 0.985406 g / cm^3
# Si number density = 9.876543 Si / 1000 Ang^3
#
#
#
# Elastic Constant Matrix: (Units=GPa)
#
#
# Indices 1 2 3 4 5 6 
#
# 1 144.2404 52.5624 34.8682 0.0000 0.0000 0.0000
# 2 52.5624 73.3520 28.7199 0.0000 0.0000 0.0000
# 3 34.8682 28.7199 103.1026 0.0000 0.0000 0.0000
# 4 0.0000 0.0000 0.0000 42.7840 0.0000 0.0000
# 5 0.0000 0.0000 0.0000 0.0000 33.0697 0.0000
# 6 0.0000 0.0000 0.0000 0.0000 0.0000 36.5843
#
#
#
# Elastic Compliance Matrix: (Units=1/GPa)
#
#
# Indices 1 2 3 4 5 6 
#
# 1 0.009583 -0.006283 -0.001491 0.000000 0.000000 0.000000
# 2 -0.006283 0.019422 -0.003285 0.000000 0.000000 0.000000
# 3 -0.001491 -0.003285 0.011118 0.000000 0.000000 0.000000
# 4 0.000000 0.000000 0.000000 0.023373 0.000000 0.000000
# 5 0.000000 0.000000 0.000000 0.000000 0.030239 0.000000
# 6 0.000000 0.000000 0.000000 0.000000 0.000000 0.027334
#
#
# Mechanical properties :
#
#
# Convention : Reuss Voigt Hill
#
# Bulk Modulus (GPa) = 55.54054 61.44398 58.49226
# Shear Modulus (GPa) = 33.51461 36.12389 34.81925
#
# Velocity S-wave (km/s) = 4.12354 4.28105 4.20304
# Velocity P-wave (km/s) = 7.13091 7.45722 7.29589
#
# Compressibility (1/GPa) = 0.01800487
#
# Stress axis : x y z
#
# Youngs Moduli (GPa) = 104.35296 51.48917 89.94218
#
# Poissons Ratio (x) = 0.32352 0.13407
# Poissons Ratio (y) = 0.65568 0.29547
# Poissons Ratio (z) = 0.15555 0.16915
#
# Static dielectric constant tensor:
#      x y z
#    x 1.719370 0.000000 0.000000 
#    y 0.000000 1.811260 0.000000 
#    z 0.000000 0.000000 1.672770 
# 
# From -- ./inp_files/15297.got.cif
#   From: 2010.05.17/outbox.ucp.g08.bks.cvg/sg37_8_cif.got.tgz:15297.got - 2010.06.11 10:38:43.
