data_PCOD9355133
_publ_section_title
;
Structure prediction by ZEFSAII (Michael W. Deem and Ramdas Pophale) SiO2 
 PCOD9355133
Probable space group: C C C 2
;
_chemical_formula_sum "Si O2"
_cell_formula_units_Z 56
_cell_length_a 13.021421
_cell_length_b 15.463102
_cell_length_c 12.234379
_cell_angle_alpha 90.000000
_cell_angle_beta 90.000000
_cell_angle_gamma 90.000000
_cell_volume 2463.411311
_symmetry_space_group_name_H-M "C C C 2"
_symmetry_group_IT_number 37
_symmetry_cell_setting 'orthorhombic'
loop_
_space_group_symop_operation_xyz
x,y,z
-x,-y,z
-x,y,1/2+z
x,-y,1/2+z
1/2+x,1/2+y,z
1/2-x,1/2-y,z
1/2-x,1/2+y,1/2+z
1/2+x,1/2-y,1/2+z
loop_
_atom_site_type_symbol
_atom_site_label
_atom_site_fract_x
_atom_site_fract_y
_atom_site_fract_z
Si Si1 0.103816 0.032258 0.838830
Si Si2 0.188183 0.157412 0.020993
Si Si3 0.145010 0.288574 0.538617
Si Si4 0.555864 0.806012 0.319385
Si Si5 0.085168 0.436394 0.683865
Si Si6 0.731847 0.918396 0.239047
Si Si7 0.514583 0.340380 0.171356
O O1 0.065217 0.075608 0.725168
O O2 0.169234 0.948090 0.805899
O O3 0.166252 0.102446 0.910892
O O4 0.000000 0.000000 0.898617
O O5 0.250000 0.250000 0.006356
O O6 0.250100 0.101705 0.111456
O O7 0.076818 0.161595 0.082059
O O8 0.250000 0.250000 0.492695
O O9 0.057653 0.303519 0.448609
O O10 0.151234 0.379350 0.601022
O O11 0.105503 0.216769 0.622020
O O12 0.476418 0.871728 0.263204
O O13 0.668516 0.838102 0.284533
O O14 0.531748 0.712896 0.272562
O O15 0.158650 0.498835 0.749933
O O16 0.000000 0.500000 0.630215
#
# Coordination Sequence:
#
# PCOD9355133 Si02
#       7
#     8   8   8   8   8   8   8
#     4  12  28  44  73 107 145 188 237 301 360 418
#     4  12  27  47  74 101 143 194 241 284 362 437
#     4  11  24  39  73 101 134 184 238 285 349 430
#     4  10  23  43  70  99 137 184 232 291 357 420
#     4   9  22  44  65  98 138 176 230 299 354 408
#     4  11  24  45  70 101 141 180 235 299 351 418
#     4  11  24  48  66 101 146 184 234 289 354 429
#
# _framework density 22.732703999999998
#
# number of rings (size 3 to 8) (size 9 to 14) (size 15 to 20)
#    0.000    1.143    2.857    1.714    6.000    6.857 
#    0.000    0.000    0.000    0.000    0.000    0.000 
#    0.000    0.000    0.000    0.000    0.000    0.000 
#
# Total GULP energy -156364.549199 kJ/mol
# GULP energy per Si atom -5584.448186 kJ/mol
# Density = 2.268096 g / cm^3
# Si number density = 22.732704 Si / 1000 Ang^3
#
#
#
# Elastic Constant Matrix: (Units=GPa)
#
#
# Indices 1 2 3 4 5 6 
#
# 1 73.3457 21.0178 4.8752 0.0000 0.0000 0.0000
# 2 21.0178 58.2200 14.8853 0.0000 0.0000 0.0000
# 3 4.8752 14.8853 55.4915 0.0000 0.0000 0.0000
# 4 0.0000 0.0000 0.0000 19.5868 0.0000 0.0000
# 5 0.0000 0.0000 0.0000 0.0000 18.4962 0.0000
# 6 0.0000 0.0000 0.0000 0.0000 0.0000 24.7318
#
#
#
# Elastic Compliance Matrix: (Units=1/GPa)
#
#
# Indices 1 2 3 4 5 6 
#
# 1 0.015208 -0.005528 0.000147 0.000000 0.000000 0.000000
# 2 -0.005528 0.020450 -0.005000 0.000000 0.000000 0.000000
# 3 0.000147 -0.005000 0.019349 0.000000 0.000000 0.000000
# 4 0.000000 0.000000 0.000000 0.051055 0.000000 0.000000
# 5 0.000000 0.000000 0.000000 0.000000 0.054065 0.000000
# 6 0.000000 0.000000 0.000000 0.000000 0.000000 0.040434
#
#
# Mechanical properties :
#
#
# Convention : Reuss Voigt Hill
#
# Bulk Modulus (GPa) = 29.20104 29.84599 29.52351
# Shear Modulus (GPa) = 21.48332 22.31489 21.89911
#
# Velocity S-wave (km/s) = 3.07749 3.13648 3.10712
# Velocity P-wave (km/s) = 5.04987 5.12585 5.08800
#
# Compressibility (1/GPa) = 0.03424536
#
# Stress axis : x y z
#
# Youngs Moduli (GPa) = 65.75333 48.89933 51.68190
#
# Poissons Ratio (x) = 0.27031 -0.00758
# Poissons Ratio (y) = 0.36347 0.25841
# Poissons Ratio (z) = -0.00965 0.24450
#
# Static dielectric constant tensor:
#      x y z
#    x 1.924280 0.000000 0.000000 
#    y 0.000000 1.818670 0.000000 
#    z 0.000000 0.000000 1.821450 
# 
# From -- ./inp_files/7836.got.cif
#   From: 2010.05.17/outbox.cif.g08.bks.cpg/sg37_4_cif.got.tgz:7836.got - 2010.06.03 17:53:42.
