data_PCOD9355655
_publ_section_title
;
Structure prediction by ZEFSAII (Michael W. Deem and Ramdas Pophale) SiO2 
 PCOD9355655
Probable space group: C C C 2
;
_chemical_formula_sum "Si O2"
_cell_formula_units_Z 48
_cell_length_a 27.036122
_cell_length_b 9.423158
_cell_length_c 8.391332
_cell_angle_alpha 90.000000
_cell_angle_beta 90.000000
_cell_angle_gamma 90.000000
_cell_volume 2137.823146
_symmetry_space_group_name_H-M "C C C 2"
_symmetry_group_IT_number 37
_symmetry_cell_setting 'orthorhombic'
loop_
_space_group_symop_operation_xyz
x,y,z
-x,-y,z
-x,y,1/2+z
x,-y,1/2+z
1/2+x,1/2+y,z
1/2-x,1/2-y,z
1/2-x,1/2+y,1/2+z
1/2+x,1/2-y,1/2+z
loop_
_atom_site_type_symbol
_atom_site_label
_atom_site_fract_x
_atom_site_fract_y
_atom_site_fract_z
Si Si1 0.906218 0.795669 0.849300
Si Si2 0.556615 0.953383 0.656014
Si Si3 0.555800 0.548967 0.162835
Si Si4 0.096282 0.703596 0.844023
Si Si5 0.702106 0.662542 0.801944
Si Si6 0.298397 0.337568 0.417906
O O1 0.937835 0.659682 0.799827
O O2 0.848269 0.764478 0.862582
O O3 0.911960 0.912543 0.708936
O O4 0.925471 0.872556 0.006237
O O5 0.578260 0.874463 0.502895
O O6 0.500000 0.000000 0.635501
O O7 0.588745 0.089793 0.703539
O O8 0.500000 0.500000 0.145588
O O9 0.561500 0.662669 0.304563
O O10 0.151623 0.762211 0.857875
O O11 0.750000 0.750000 0.855723
O O12 0.700997 0.663509 0.609984
O O13 0.703089 0.500067 0.860158
O O14 0.250000 0.250000 0.364785
#
# Coordination Sequence:
#
# PCOD9355655 Si02
#       6
#     8   8   8   8   8   8
#     4  12  24  47  74 108 145 189 245 302 365 437
#     4  12  27  47  72 103 149 196 245 298 365 437
#     4  12  26  45  74 107 146 192 245 305 362 433
#     4  12  26  49  71 108 147 192 248 304 368 435
#     4  11  25  49  75 109 146 187 240 303 368 437
#     4  11  26  47  76 111 145 188 243 300 368 441
#
# _framework density 22.452748
#
# number of rings (size 3 to 8) (size 9 to 14) (size 15 to 20)
#    0.000    0.333    3.333    5.000    2.333    3.333 
#    0.000    1.667    0.000    0.000    0.000    0.000 
#    0.000    0.000    0.000    0.000    0.000    0.000 
#
# Total GULP energy -134596.443351 kJ/mol
# GULP energy per Si atom -5608.185140 kJ/mol
# Density = 2.240164 g / cm^3
# Si number density = 22.452748 Si / 1000 Ang^3
#
#
#
# Elastic Constant Matrix: (Units=GPa)
#
#
# Indices 1 2 3 4 5 6 
#
# 1 208.3112 74.8448 56.6299 0.0000 0.0000 0.0000
# 2 74.8448 139.9318 34.7381 0.0000 0.0000 0.0000
# 3 56.6299 34.7381 69.0985 0.0000 0.0000 0.0000
# 4 0.0000 0.0000 0.0000 51.8274 0.0000 0.0000
# 5 0.0000 0.0000 0.0000 0.0000 42.2421 0.0000
# 6 0.0000 0.0000 0.0000 0.0000 0.0000 54.6303
#
#
#
# Elastic Compliance Matrix: (Units=1/GPa)
#
#
# Indices 1 2 3 4 5 6 
#
# 1 0.006928 -0.002623 -0.004359 0.000000 0.000000 0.000000
# 2 -0.002623 0.009159 -0.002454 0.000000 0.000000 0.000000
# 3 -0.004359 -0.002454 0.019278 0.000000 0.000000 0.000000
# 4 0.000000 0.000000 0.000000 0.019295 0.000000 0.000000
# 5 0.000000 0.000000 0.000000 0.000000 0.023673 0.000000
# 6 0.000000 0.000000 0.000000 0.000000 0.000000 0.018305
#
#
# Mechanical properties :
#
#
# Convention : Reuss Voigt Hill
#
# Bulk Modulus (GPa) = 60.63686 83.30747 71.97216
# Shear Modulus (GPa) = 41.31914 46.48185 43.90049
#
# Velocity S-wave (km/s) = 4.29449 4.55489 4.42661
# Velocity P-wave (km/s) = 7.18716 8.05275 7.63223
#
# Compressibility (1/GPa) = 0.01649162
#
# Stress axis : x y z
#
# Youngs Moduli (GPa) = 144.33895 109.18403 51.87129
#
# Poissons Ratio (x) = 0.28644 0.22611
# Poissons Ratio (y) = 0.37867 0.12731
# Poissons Ratio (z) = 0.62918 0.26798
#
# Static dielectric constant tensor:
#      x y z
#    x 1.250490 0.000000 0.000000 
#    y 0.000000 1.812290 0.000000 
#    z 0.000000 0.000000 1.879360 
# 
# From -- ./inp_files/4945.got.cif
#   From: 2010.05.17/outbox.cif.g08.bks.cpg/sg37_3_cif.got.tgz:4945.got - 2010.06.03 17:53:42.
