data_PCOD9355228
_publ_section_title
;
Structure prediction by ZEFSAII (Michael W. Deem and Ramdas Pophale) SiO2 
 PCOD9355228
Probable space group: C C C 2
;
_chemical_formula_sum "Si O2"
_cell_formula_units_Z 60
_cell_length_a 17.513567
_cell_length_b 11.047092
_cell_length_c 14.211952
_cell_angle_alpha 90.000000
_cell_angle_beta 90.000000
_cell_angle_gamma 90.000000
_cell_volume 2749.643001
_symmetry_space_group_name_H-M "C C C 2"
_symmetry_group_IT_number 37
_symmetry_cell_setting 'orthorhombic'
loop_
_space_group_symop_operation_xyz
x,y,z
-x,-y,z
-x,y,1/2+z
x,-y,1/2+z
1/2+x,1/2+y,z
1/2-x,1/2-y,z
1/2-x,1/2+y,1/2+z
1/2+x,1/2-y,1/2+z
loop_
_atom_site_type_symbol
_atom_site_label
_atom_site_fract_x
_atom_site_fract_y
_atom_site_fract_z
Si Si1 0.674447 0.353289 0.982740
Si Si2 0.250000 0.750000 0.501254
Si Si3 0.112572 0.687489 0.840111
Si Si4 0.932829 0.577548 0.154582
Si Si5 0.326562 0.007214 0.487483
Si Si6 0.963347 0.208508 0.099562
Si Si7 0.970236 0.139302 0.314888
Si Si8 0.106530 0.117298 0.995873
O O1 0.669338 0.289434 0.881473
O O2 0.631132 0.480365 0.986664
O O3 0.759545 0.394105 0.007730
O O4 0.618387 0.278448 0.051008
O O5 0.286124 0.877567 0.459575
O O6 0.173318 0.806857 0.547194
O O7 0.117220 0.644715 0.732999
O O8 0.033143 0.761303 0.844802
O O9 0.124118 0.568929 0.904674
O O10 0.877665 0.515800 0.079316
O O11 0.000000 0.500000 0.205425
O O12 0.988213 0.668751 0.099601
O O13 0.952515 0.162203 0.205833
O O14 0.025077 0.126860 0.045113
O O15 0.902005 0.160549 0.388042
O O16 0.000000 0.000000 0.325084
#
# Coordination Sequence:
#
# PCOD9355228 Si02
#       8
#     8   4   8   8   8   8   8   8
#     4  11  22  43  70 104 141 189 236 302 368 423
#     4  10  24  42  66  94 132 198 226 294 362 432
#     4  11  24  43  72 104 138 187 236 297 365 437
#     4  11  26  45  71 106 146 195 240 294 370 443
#     4  11  25  48  69 104 148 189 245 297 372 434
#     4  11  22  40  70 104 137 189 242 295 352 432
#     4  11  21  38  68 105 135 176 236 292 363 431
#     4  11  20  41  66  97 143 177 241 293 361 427
#
# _framework density 21.821014000000002
#
# number of rings (size 3 to 8) (size 9 to 14) (size 15 to 20)
#    0.000    1.067    4.000    2.400    0.000    3.733 
#    7.200    0.000    0.000    0.000    0.000    0.000 
#    0.000    0.000    0.000    0.000    0.000    0.000 
#
# Total GULP energy -167135.921898 kJ/mol
# GULP energy per Si atom -5571.197397 kJ/mol
# Density = 2.177135 g / cm^3
# Si number density = 21.821014 Si / 1000 Ang^3
#
#
#
# Elastic Constant Matrix: (Units=GPa)
#
#
# Indices 1 2 3 4 5 6 
#
# 1 128.2977 58.3337 78.3257 0.0000 0.0000 0.0000
# 2 58.3337 111.3074 36.2345 0.0000 0.0000 0.0000
# 3 78.3257 36.2345 105.6310 0.0000 0.0000 0.0000
# 4 0.0000 0.0000 0.0000 2776.2932 0.0000 0.0000
# 5 0.0000 0.0000 0.0000 0.0000 12.8667 0.0000
# 6 0.0000 0.0000 0.0000 0.0000 0.0000 51.9294
#
#
#
# Elastic Compliance Matrix: (Units=1/GPa)
#
#
# Indices 1 2 3 4 5 6 
#
# 1 0.016610 -0.005286 -0.010503 0.000000 0.000000 0.000000
# 2 -0.005286 0.011796 -0.000127 0.000000 0.000000 0.000000
# 3 -0.010503 -0.000127 0.017298 0.000000 0.000000 0.000000
# 4 0.000000 0.000000 0.000000 0.000360 0.000000 0.000000
# 5 0.000000 0.000000 0.000000 0.000000 0.077720 0.000000
# 6 0.000000 0.000000 0.000000 0.000000 0.000000 0.019257
#
#
# Mechanical properties :
#
#
# Convention : Reuss Voigt Hill
#
# Bulk Modulus (GPa) = 72.08459 76.78043 74.43251
# Shear Modulus (GPa) = 27.85569 579.70731 303.78150
#
# Velocity S-wave (km/s) = 3.57676 16.31691 11.81175
# Velocity P-wave (km/s) = 7.08265 19.75478 14.83939
#
# Compressibility (1/GPa) = 0.01387259
#
# Stress axis : x y z
#
# Youngs Moduli (GPa) = 60.20562 84.77784 57.80853
#
# Poissons Ratio (x) = 0.44811 0.60717
# Poissons Ratio (y) = 0.31823 0.00733
# Poissons Ratio (z) = 0.63234 0.01076
#
# Static dielectric constant tensor:
#      x y z
#    x 1.863100 0.000000 0.000000 
#    y 0.000000 -6.003130 0.000000 
#    z 0.000000 0.000000 1.800510 
# 
# From -- ./inp_files/12689.got.cif
#   From: 2010.05.17/outbox.cif.g08.bks.cpg/sg37_7_cif.got.tgz:12689.got - 2010.06.03 17:53:42.
