data_PCOD9355984
_publ_section_title
;
Structure prediction by ZEFSAII (Michael W. Deem and Ramdas Pophale) SiO2 
 PCOD9355984
Probable space group: A M M 2
;
_chemical_formula_sum "Si O2"
_cell_formula_units_Z 48
_cell_length_a 7.603972
_cell_length_b 19.482071
_cell_length_c 13.820914
_cell_angle_alpha 90.000000
_cell_angle_beta 90.000000
_cell_angle_gamma 90.000000
_cell_volume 2047.445712
_symmetry_space_group_name_H-M "A M M 2"
_symmetry_group_IT_number 38
_symmetry_cell_setting 'orthorhombic'
loop_
_space_group_symop_operation_xyz
x,y,z
-x,-y,z
-x,y,z
x,-y,z
x,1/2+y,1/2+z
-x,1/2-y,1/2+z
-x,1/2+y,1/2+z
x,1/2-y,1/2+z
loop_
_atom_site_type_symbol
_atom_site_label
_atom_site_fract_x
_atom_site_fract_y
_atom_site_fract_z
Si Si1 0.784547 0.217272 0.996600
Si Si2 0.787609 0.647261 0.086419
Si Si3 0.802730 0.879442 0.158993
Si Si4 0.798152 0.345704 0.294801
Si Si5 0.299133 0.500000 0.534127
Si Si6 0.300854 0.500000 0.306046
Si Si7 0.797251 0.500000 0.788170
Si Si8 0.299426 0.000000 0.504108
O O1 0.722024 0.181373 0.896869
O O2 0.000000 0.210787 0.999022
O O3 0.738468 0.297507 0.004449
O O4 0.721051 0.182710 0.097600
O O5 0.719111 0.673269 0.190773
O O6 0.000000 0.647501 0.091838
O O7 0.735307 0.569674 0.062383
O O8 0.723728 0.928172 0.243855
O O9 0.000000 0.858541 0.190288
O O10 0.803339 0.934668 0.072069
O O11 0.792534 0.428369 0.286249
O O12 0.000000 0.321766 0.295963
O O13 0.500000 0.500000 0.572817
O O14 0.313487 0.500000 0.421177
O O15 0.500000 0.500000 0.264669
O O16 0.800710 0.500000 0.902660
O O17 0.000000 0.500000 0.752903
O O18 0.500000 0.000000 0.473869
#
# Coordination Sequence:
#
# PCOD9355984 Si02
#       8
#     8   8   8   8   4   4   4   4
#     4   9  18  34  59  89 119 146 181 233 289 342
#     4  10  22  40  62  87 112 144 190 238 286 339
#     4   9  17  32  56  87 118 149 183 228 282 333
#     4  10  20  35  59  87 115 151 190 234 284 335
#     4  10  18  27  44  76 116 155 186 222 269 321
#     4  11  21  31  50  81 117 156 191 231 276 324
#     4   9  19  34  59  89 117 152 191 232 277 329
#     4  12  26  44  61  78 108 153 196 237 284 334
#
# _framework density 23.443846000000001
#
# number of rings (size 3 to 8) (size 9 to 14) (size 15 to 20)
#    0.000    2.167    1.667    2.250    0.000    6.000 
#    0.000    6.667    0.000    2.000    0.000    0.000 
#    0.000    0.000    0.000    0.000    0.000    0.000 
#
# Total GULP energy -133708.415603 kJ/mol
# GULP energy per Si atom -5571.183983 kJ/mol
# Density = 2.339049 g / cm^3
# Si number density = 23.443846 Si / 1000 Ang^3
#
#
#
# Elastic Constant Matrix: (Units=GPa)
#
#
# Indices 1 2 3 4 5 6 
#
# 1 66.2788 -5.9255 2.2431 0.0000 0.0000 0.0000
# 2 -5.9255 142.9208 51.2460 0.0000 0.0000 0.0000
# 3 2.2431 51.2460 135.0040 0.0000 0.0000 0.0000
# 4 0.0000 0.0000 0.0000 16.4352 0.0000 0.0000
# 5 0.0000 0.0000 0.0000 0.0000 -4.1707 0.0000
# 6 0.0000 0.0000 0.0000 0.0000 0.0000 103.7772
#
#
#
# Elastic Compliance Matrix: (Units=1/GPa)
#
#
# Indices 1 2 3 4 5 6 
#
# 1 0.015182 0.000833 -0.000569 0.000000 0.000000 0.000000
# 2 0.000833 0.008145 -0.003106 0.000000 0.000000 0.000000
# 3 -0.000569 -0.003106 0.008595 0.000000 0.000000 0.000000
# 4 0.000000 0.000000 0.000000 0.060845 0.000000 0.000000
# 5 0.000000 0.000000 0.000000 0.000000 -0.239769 0.000000
# 6 0.000000 0.000000 0.000000 0.000000 0.000000 0.009636
#
#
# Mechanical properties :
#
#
# Convention : Reuss Voigt Hill
#
# Bulk Modulus (GPa) = 38.10934 48.81453 43.46193
# Shear Modulus (GPa) = -40.67094 42.98434 1.15670
#
# Velocity S-wave (km/s) = -4.16964 4.28659 0.70318
# Velocity P-wave (km/s) = 2.62494 6.73549 4.38615
#
# Compressibility (1/GPa) = 0.02624029
#
# Stress axis : x y z
#
# Youngs Moduli (GPa) = 65.86955 122.77510 116.34022
#
# Poissons Ratio (x) = -0.10231 0.06615
# Poissons Ratio (y) = -0.05489 0.36130
# Poissons Ratio (z) = 0.03745 0.38129
#
# Static dielectric constant tensor:
#      x y z
#    x 1.932780 0.000000 0.000000 
#    y 0.000000 1.934950 0.000000 
#    z 0.000000 0.000000 1.896120 
# 
# From -- ./inp_files/12180.got.cif
#   From: 2010.05.17/outbox.cif.g08.bks.cpg/sg38_7_cif.got.tgz:12180.got - 2010.06.03 18:07:57.
