data_PCOD9355924
_publ_section_title
;
Structure prediction by ZEFSAII (Michael W. Deem and Ramdas Pophale) SiO2 
 PCOD9355924
Probable space group: A M M 2
;
_chemical_formula_sum "Si O2"
_cell_formula_units_Z 48
_cell_length_a 7.407400
_cell_length_b 15.011521
_cell_length_c 21.150721
_cell_angle_alpha 90.000000
_cell_angle_beta 90.000000
_cell_angle_gamma 90.000000
_cell_volume 2351.882777
_symmetry_space_group_name_H-M "A M M 2"
_symmetry_group_IT_number 38
_symmetry_cell_setting 'orthorhombic'
loop_
_space_group_symop_operation_xyz
x,y,z
-x,-y,z
-x,y,z
x,-y,z
x,1/2+y,1/2+z
-x,1/2-y,1/2+z
-x,1/2+y,1/2+z
x,1/2-y,1/2+z
loop_
_atom_site_type_symbol
_atom_site_label
_atom_site_fract_x
_atom_site_fract_y
_atom_site_fract_z
Si Si1 0.720429 0.807851 0.135390
Si Si2 0.206821 0.500000 0.304476
Si Si3 0.720082 0.000000 0.332887
Si Si4 0.279378 0.807364 0.374983
Si Si5 0.716492 0.692850 0.253863
Si Si6 0.280245 0.500000 0.686218
Si Si7 0.721102 0.308403 0.492898
Si Si8 0.704880 0.000000 0.948535
O O1 0.500000 0.807529 0.136139
O O2 0.781246 0.738895 0.189341
O O3 0.776905 0.908280 0.153515
O O4 0.776508 0.786641 0.064116
O O5 0.242914 0.410604 0.265135
O O6 0.304360 0.500000 0.372309
O O7 0.000000 0.500000 0.323327
O O8 0.778425 0.908881 0.365656
O O9 0.774885 0.000000 0.259487
O O10 0.500000 0.000000 0.332832
O O11 0.500000 0.806626 0.374359
O O12 0.220158 0.748724 0.314828
O O13 0.220882 0.761103 0.439590
O O14 0.500000 0.700893 0.253322
O O15 0.500000 0.500000 0.685257
O O16 0.500000 0.309013 0.491322
O O17 0.783873 0.407230 0.472792
O O18 0.500000 0.000000 0.973757
#
# Coordination Sequence:
#
# PCOD9355924 Si02
#       8
#     8   4   4   8   8   4   8   4
#     4   9  16  25  42  72 106 132 159 197 246 302
#     4  12  24  35  50  74 100 127 174 226 255 289
#     4   9  14  21  35  61  91 119 151 190 229 275
#     4   9  15  24  41  65  97 130 159 192 237 293
#     4  10  18  32  52  72  98 133 168 203 250 306
#     4   9  13  20  36  63  97 122 147 190 238 282
#     4   9  16  25  41  70 103 131 158 196 246 296
#     4  10  17  30  53  76 106 136 162 202 258 312
#
# _framework density 20.409179999999999
#
# number of rings (size 3 to 8) (size 9 to 14) (size 15 to 20)
#    0.000    2.500    3.333    1.250    0.000    2.000 
#    0.000    0.833    0.000    5.000    0.000    2.333 
#    0.000    0.000    0.000    0.000    0.000    0.000 
#
# Total GULP energy -134027.928102 kJ/mol
# GULP energy per Si atom -5584.497004 kJ/mol
# Density = 2.036273 g / cm^3
# Si number density = 20.409180 Si / 1000 Ang^3
#
#
#
# Elastic Constant Matrix: (Units=GPa)
#
#
# Indices 1 2 3 4 5 6 
#
# 1 67.9862 0.3052 5.1935 0.0000 0.0000 0.0000
# 2 0.3052 194.9230 125.0176 0.0000 0.0000 0.0000
# 3 5.1935 125.0176 202.5336 0.0000 0.0000 0.0000
# 4 0.0000 0.0000 0.0000 25.8411 0.0000 0.0000
# 5 0.0000 0.0000 0.0000 0.0000 -24.9016 0.0000
# 6 0.0000 0.0000 0.0000 0.0000 0.0000 47.1022
#
#
#
# Elastic Compliance Matrix: (Units=1/GPa)
#
#
# Indices 1 2 3 4 5 6 
#
# 1 0.014753 0.000363 -0.000603 0.000000 0.000000 0.000000
# 2 0.000363 0.008501 -0.005257 0.000000 0.000000 0.000000
# 3 -0.000603 -0.005257 0.008198 0.000000 0.000000 0.000000
# 4 0.000000 0.000000 0.000000 0.038698 0.000000 0.000000
# 5 0.000000 0.000000 0.000000 0.000000 -0.040158 0.000000
# 6 0.000000 0.000000 0.000000 0.000000 0.000000 0.021230
#
#
# Mechanical properties :
#
#
# Convention : Reuss Voigt Hill
#
# Bulk Modulus (GPa) = 48.87554 80.71948 64.79751
# Shear Modulus (GPa) = 72.42700 31.93677 52.18189
#
# Velocity S-wave (km/s) = 5.96360 3.96008 5.06195
# Velocity P-wave (km/s) = 8.45098 7.78113 8.12297
#
# Compressibility (1/GPa) = 0.02046013
#
# Stress axis : x y z
#
# Youngs Moduli (GPa) = 67.78162 117.62962 121.98382
#
# Poissons Ratio (x) = -0.04275 0.07351
# Poissons Ratio (y) = -0.02463 0.64125
# Poissons Ratio (z) = 0.04085 0.61836
#
# Static dielectric constant tensor:
#      x y z
#    x 1.762920 0.000000 0.000000 
#    y 0.000000 1.697010 0.000000 
#    z 0.000000 0.000000 1.694450 
# 
# From -- ./inp_files/16773.got.cif
#   From: 2010.05.17/outbox.cif.g08.bks.cpg/sg38_9_cif.got.tgz:16773.got - 2010.06.03 18:07:57.
