data_PCOD9355408
_publ_section_title
;
Structure prediction by ZEFSAII (Michael W. Deem and Ramdas Pophale) SiO2 
 PCOD9355408
Probable space group: C C C 2
;
_chemical_formula_sum "Si O2"
_cell_formula_units_Z 24
_cell_length_a 4.896026
_cell_length_b 8.546438
_cell_length_c 23.264396
_cell_angle_alpha 90.000000
_cell_angle_beta 90.000000
_cell_angle_gamma 90.000000
_cell_volume 973.465677
_symmetry_space_group_name_H-M "C C C 2"
_symmetry_group_IT_number 37
_symmetry_cell_setting 'orthorhombic'
loop_
_space_group_symop_operation_xyz
x,y,z
-x,-y,z
-x,y,1/2+z
x,-y,1/2+z
1/2+x,1/2+y,z
1/2-x,1/2-y,z
1/2-x,1/2+y,1/2+z
1/2+x,1/2-y,1/2+z
loop_
_atom_site_type_symbol
_atom_site_label
_atom_site_fract_x
_atom_site_fract_y
_atom_site_fract_z
Si Si1 0.500000 0.000000 0.510690
Si Si2 0.250000 0.250000 0.424695
Si Si3 0.500000 0.500000 0.091337
Si Si4 0.750000 0.750000 0.841889
Si Si5 0.250000 0.250000 0.675455
Si Si6 0.500000 0.000000 0.758052
O O1 0.366007 0.122502 0.467858
O O2 0.252591 0.947894 0.551636
O O3 0.496134 0.290006 0.382202
O O4 0.591331 0.364503 0.133761
O O5 0.693885 0.907062 0.804135
O O6 0.032855 0.354161 0.712613
#
# Coordination Sequence:
#
# PCOD9355408 Si02
#       6
#     4   4   4   4   4   4
#     4  12  28  50  78 114 154 202 256 316 382 456
#     4  12  27  50  77 112 153 202 255 316 382 456
#     4  12  28  52  80 116 156 204 256 318 384 458
#     4  11  26  50  79 114 155 204 256 317 384 458
#     4  11  27  50  80 114 156 204 257 317 384 458
#     4  10  26  50  80 114 156 202 258 316 384 456
#
# _framework density 24.654183
#
# number of rings (size 3 to 8) (size 9 to 14) (size 15 to 20)
#    0.000    0.667    0.000    5.000    0.000   20.000 
#    0.000    0.000    0.000    0.000    0.000    0.000 
#    0.000    0.000    0.000    0.000    0.000    0.000 
#
# Total GULP energy -66963.116272 kJ/mol
# GULP energy per Si atom -5580.259689 kJ/mol
# Density = 2.459807 g / cm^3
# Si number density = 24.654183 Si / 1000 Ang^3
#
#
#
# Elastic Constant Matrix: (Units=GPa)
#
#
# Indices 1 2 3 4 5 6 
#
# 1 182.5312 95.0370 116.6760 0.0000 0.0000 0.0000
# 2 95.0370 197.4973 112.6350 0.0000 0.0000 0.0000
# 3 116.6760 112.6350 221.4983 0.0000 0.0000 0.0000
# 4 0.0000 0.0000 0.0000 747.2814 0.0000 0.0000
# 5 0.0000 0.0000 0.0000 0.0000 -202.0023 0.0000
# 6 0.0000 0.0000 0.0000 0.0000 0.0000 57.1809
#
#
#
# Elastic Compliance Matrix: (Units=1/GPa)
#
#
# Indices 1 2 3 4 5 6 
#
# 1 0.008930 -0.002274 -0.003548 0.000000 0.000000 0.000000
# 2 -0.002274 0.007711 -0.002723 0.000000 0.000000 0.000000
# 3 -0.003548 -0.002723 0.007768 0.000000 0.000000 0.000000
# 4 0.000000 0.000000 0.000000 0.001338 0.000000 0.000000
# 5 0.000000 0.000000 0.000000 0.000000 -0.004950 0.000000
# 6 0.000000 0.000000 0.000000 0.000000 0.000000 0.017488
#
#
# Mechanical properties :
#
#
# Convention : Reuss Voigt Hill
#
# Bulk Modulus (GPa) = 136.62212 138.91364 137.76788
# Shear Modulus (GPa) = 86.48310 138.97058 112.72684
#
# Velocity S-wave (km/s) = 5.92913 7.51600 6.76923
# Velocity P-wave (km/s) = 10.11971 11.47988 10.82119
#
# Compressibility (1/GPa) = 0.00731946
#
# Stress axis : x y z
#
# Youngs Moduli (GPa) = 111.97909 129.69071 128.72905
#
# Poissons Ratio (x) = 0.29491 0.45670
# Poissons Ratio (y) = 0.25464 0.35055
# Poissons Ratio (z) = 0.39727 0.35317
#
# Static dielectric constant tensor:
#      x y z
#    x 1.906800 0.000000 0.000000 
#    y 0.000000 1.912120 0.000000 
#    z 0.000000 0.000000 1.928520 
# 
# From -- ./inp_files/17704.got.cif
#   From: 2010.05.17/outbox.cif.g08.bks.cpg/sg37_9_cif.got.tgz:17704.got - 2010.06.03 17:53:42.
