data_PCOD9355458
_publ_section_title
;
Structure prediction by ZEFSAII (Michael W. Deem and Ramdas Pophale) SiO2 
 PCOD9355458
Probable space group: C C C 2
;
_chemical_formula_sum "Si O2"
_cell_formula_units_Z 56
_cell_length_a 20.923358
_cell_length_b 9.638100
_cell_length_c 13.872758
_cell_angle_alpha 90.000000
_cell_angle_beta 90.000000
_cell_angle_gamma 90.000000
_cell_volume 2797.600032
_symmetry_space_group_name_H-M "C C C 2"
_symmetry_group_IT_number 37
_symmetry_cell_setting 'orthorhombic'
loop_
_space_group_symop_operation_xyz
x,y,z
-x,-y,z
-x,y,1/2+z
x,-y,1/2+z
1/2+x,1/2+y,z
1/2-x,1/2-y,z
1/2-x,1/2+y,1/2+z
1/2+x,1/2-y,1/2+z
loop_
_atom_site_type_symbol
_atom_site_label
_atom_site_fract_x
_atom_site_fract_y
_atom_site_fract_z
Si Si1 0.152620 0.211904 0.115360
Si Si2 0.693269 0.456369 0.796676
Si Si3 0.021650 0.836634 0.518498
Si Si4 0.057645 0.111101 0.806180
Si Si5 0.696961 0.564072 0.519049
Si Si6 0.908391 0.740903 0.619029
Si Si7 0.694633 0.979440 0.652477
O O1 0.171378 0.160679 0.221807
O O2 0.177762 0.367694 0.113864
O O3 0.078054 0.197983 0.092373
O O4 0.183353 0.099352 0.041900
O O5 0.630544 0.554260 0.801704
O O6 0.701725 0.408802 0.906129
O O7 0.758425 0.515249 0.746571
O O8 0.047919 0.820761 0.410372
O O9 0.962110 0.735391 0.536841
O O10 0.000000 0.000000 0.529141
O O11 0.053983 0.202417 0.711342
O O12 0.000000 0.000000 0.800190
O O13 0.641696 0.647253 0.575122
O O14 0.763045 0.593799 0.571040
O O15 0.869575 0.609003 0.656441
#
# Coordination Sequence:
#
# PCOD9355458 Si02
#       7
#     8   8   8   8   8   8   8
#     4  11  22  43  64  95 131 172 217 278 335 393
#     4  11  21  40  66  95 127 172 229 276 324 392
#     4  11  21  41  68  97 122 167 230 280 332 384
#     4  11  21  37  68 102 121 164 232 287 320 382
#     4  11  21  41  68  92 126 176 231 273 316 395
#     4  12  23  41  65 100 132 173 222 280 327 401
#     4  11  27  40  59  98 143 176 211 267 351 401
#
# _framework density 20.017157000000001
#
# number of rings (size 3 to 8) (size 9 to 14) (size 15 to 20)
#    0.000    0.857    5.714    4.286    0.000    4.000 
#    2.571    0.000    0.000    5.143    0.000    0.000 
#    0.000    0.000    0.000    0.000    0.000    0.000 
#
# Total GULP energy -156205.013259 kJ/mol
# GULP energy per Si atom -5578.750474 kJ/mol
# Density = 1.997160 g / cm^3
# Si number density = 20.017157 Si / 1000 Ang^3
#
#
#
# Elastic Constant Matrix: (Units=GPa)
#
#
# Indices 1 2 3 4 5 6 
#
# 1 112.2536 40.1491 34.0445 0.0000 0.0000 0.0000
# 2 40.1491 71.2361 41.1409 0.0000 0.0000 0.0000
# 3 34.0445 41.1409 134.9426 0.0000 0.0000 0.0000
# 4 0.0000 0.0000 0.0000 2.2736 0.0000 0.0000
# 5 0.0000 0.0000 0.0000 0.0000 24.7368 0.0000
# 6 0.0000 0.0000 0.0000 0.0000 0.0000 26.2960
#
#
#
# Elastic Compliance Matrix: (Units=1/GPa)
#
#
# Indices 1 2 3 4 5 6 
#
# 1 0.011291 -0.005727 -0.001103 0.000000 0.000000 0.000000
# 2 -0.005727 0.019943 -0.004635 0.000000 0.000000 0.000000
# 3 -0.001103 -0.004635 0.009102 0.000000 0.000000 0.000000
# 4 0.000000 0.000000 0.000000 0.439824 0.000000 0.000000
# 5 0.000000 0.000000 0.000000 0.000000 0.040426 0.000000
# 6 0.000000 0.000000 0.000000 0.000000 0.000000 0.038029
#
#
# Mechanical properties :
#
#
# Convention : Reuss Voigt Hill
#
# Bulk Modulus (GPa) = 57.45123 61.01124 59.23123
# Shear Modulus (GPa) = 8.51289 24.20113 16.35701
#
# Velocity S-wave (km/s) = 2.06447 3.48087 2.86168
# Velocity P-wave (km/s) = 5.86907 6.83381 6.36973
#
# Compressibility (1/GPa) = 0.01740607
#
# Stress axis : x y z
#
# Youngs Moduli (GPa) = 88.56513 50.14414 109.86726
#
# Poissons Ratio (x) = 0.28717 0.12114
# Poissons Ratio (y) = 0.50721 0.50925
# Poissons Ratio (z) = 0.09765 0.23243
#
# Static dielectric constant tensor:
#      x y z
#    x 1.810600 0.000000 0.000000 
#    y 0.000000 1.725980 0.000000 
#    z 0.000000 0.000000 1.701640 
# 
# From -- ./inp_files/12924.got.cif
#   From: 2010.05.17/outbox.cif.g08.bks.cpg/sg37_7_cif.got.tgz:12924.got - 2010.06.03 17:53:42.
