data_PCOD9355919
_publ_section_title
;
Structure prediction by ZEFSAII (Michael W. Deem and Ramdas Pophale) SiO2 
 PCOD9355919
Probable space group: A M M 2
;
_chemical_formula_sum "Si O2"
_cell_formula_units_Z 64
_cell_length_a 7.493067
_cell_length_b 21.445802
_cell_length_c 20.300392
_cell_angle_alpha 90.000000
_cell_angle_beta 90.000000
_cell_angle_gamma 90.000000
_cell_volume 3262.168067
_symmetry_space_group_name_H-M "A M M 2"
_symmetry_group_IT_number 38
_symmetry_cell_setting 'orthorhombic'
loop_
_space_group_symop_operation_xyz
x,y,z
-x,-y,z
-x,y,z
x,-y,z
x,1/2+y,1/2+z
-x,1/2-y,1/2+z
-x,1/2+y,1/2+z
x,1/2-y,1/2+z
loop_
_atom_site_type_symbol
_atom_site_label
_atom_site_fract_x
_atom_site_fract_y
_atom_site_fract_z
Si Si1 0.204312 0.252569 0.287470
Si Si2 0.712203 0.192824 0.151344
Si Si3 0.285029 0.261771 0.932722
Si Si4 0.702616 0.894382 0.795612
Si Si5 0.718039 0.617287 0.439283
Si Si6 0.281424 0.687091 0.068844
Si Si7 0.718412 0.569084 0.153222
Si Si8 0.281733 0.431247 0.580527
O O1 0.257953 0.208468 0.227583
O O2 0.226459 0.222048 0.359100
O O3 0.304337 0.318952 0.288059
O O4 0.000000 0.270124 0.277924
O O5 0.500000 0.191538 0.140208
O O6 0.778697 0.251842 0.109210
O O7 0.780504 0.126770 0.124780
O O8 0.500000 0.261866 0.932676
O O9 0.229347 0.189972 0.945528
O O10 0.225175 0.304320 0.993242
O O11 0.500000 0.918573 0.798170
O O12 0.782192 0.906362 0.867925
O O13 0.782283 0.920088 0.728204
O O14 0.500000 0.616255 0.437102
O O15 0.771819 0.581271 0.504740
O O16 0.500000 0.686907 0.069762
O O17 0.222379 0.624930 0.106071
O O18 0.500000 0.572217 0.155099
O O19 0.768195 0.500000 0.130830
O O20 0.500000 0.430928 0.581388
O O21 0.223978 0.500000 0.601852
#
# Coordination Sequence:
#
# PCOD9355919 Si02
#       8
#     8   8   8   8   8   8   8   8
#     4  11  21  31  46  71  98 124 161 206 242 276
#     4  10  17  30  51  72  96 127 159 193 240 290
#     4   9  16  29  49  70  92 124 161 195 240 292
#     4   9  16  28  47  68  97 133 162 189 231 283
#     4   8  13  22  39  64  92 122 154 184 222 275
#     4   9  15  26  48  72  94 124 159 194 235 282
#     4   9  16  25  42  73 104 126 155 196 236 277
#     4   9  16  25  42  72 103 125 153 197 239 277
#
# _framework density 19.618853999999999
#
# number of rings (size 3 to 8) (size 9 to 14) (size 15 to 20)
#    0.000    2.750    2.500    1.875    0.000    0.500 
#    0.000    3.125    0.000    1.500    0.000    3.500 
#    0.000    0.000    0.000    0.000    0.000    0.000 
#
# Total GULP energy -178520.359919 kJ/mol
# GULP energy per Si atom -5578.761247 kJ/mol
# Density = 1.957420 g / cm^3
# Si number density = 19.618854 Si / 1000 Ang^3
#
#
#
# Elastic Constant Matrix: (Units=GPa)
#
#
# Indices 1 2 3 4 5 6 
#
# 1 51.8388 6.8456 -10.5113 0.0000 0.0000 0.0000
# 2 6.8456 131.3654 86.2385 0.0000 0.0000 0.0000
# 3 -10.5113 86.2385 122.5083 0.0000 0.0000 0.0000
# 4 0.0000 0.0000 0.0000 23.8057 0.0000 0.0000
# 5 0.0000 0.0000 0.0000 0.0000 -83.7994 0.0000
# 6 0.0000 0.0000 0.0000 0.0000 0.0000 -14.0399
#
#
#
# Elastic Compliance Matrix: (Units=1/GPa)
#
#
# Indices 1 2 3 4 5 6 
#
# 1 0.020805 -0.004194 0.004738 0.000000 0.000000 0.000000
# 2 -0.004194 0.014998 -0.010918 0.000000 0.000000 0.000000
# 3 0.004738 -0.010918 0.016255 0.000000 0.000000 0.000000
# 4 0.000000 0.000000 0.000000 0.042007 0.000000 0.000000
# 5 0.000000 0.000000 0.000000 0.000000 -0.011933 0.000000
# 6 0.000000 0.000000 0.000000 0.000000 0.000000 -0.071226
#
#
# Mechanical properties :
#
#
# Convention : Reuss Voigt Hill
#
# Bulk Modulus (GPa) = 31.93957 52.31755 42.12856
# Shear Modulus (GPa) = 118.79072 0.06927 59.42999
#
# Velocity S-wave (km/s) = 7.78978 0.18811 5.50981
# Velocity P-wave (km/s) = 9.86017 5.17417 7.87385
#
# Compressibility (1/GPa) = 0.03130913
#
# Stress axis : x y z
#
# Youngs Moduli (GPa) = 48.06514 66.67503 61.52116
#
# Poissons Ratio (x) = 0.27966 -0.29147
# Poissons Ratio (y) = 0.20160 0.67167
# Poissons Ratio (z) = -0.22772 0.72793
#
# Static dielectric constant tensor:
#      x y z
#    x 1.746410 0.000000 0.000000 
#    y 0.000000 1.678090 0.000000 
#    z 0.000000 0.000000 1.690400 
# 
# From -- ./inp_files/20231.got.cif
#   From: 2010.05.17/outbox.cif.g08.bks.cpg/sg38_11_cif.got.tgz:20231.got - 2010.06.03 18:07:57.
