data_PCOD9355283
_publ_section_title
;
Structure prediction by ZEFSAII (Michael W. Deem and Ramdas Pophale) SiO2 
 PCOD9355283
Probable space group: C C C 2
;
_chemical_formula_sum "Si O2"
_cell_formula_units_Z 60
_cell_length_a 9.522415
_cell_length_b 20.189880
_cell_length_c 13.813156
_cell_angle_alpha 90.000000
_cell_angle_beta 90.000000
_cell_angle_gamma 90.000000
_cell_volume 2655.667868
_symmetry_space_group_name_H-M "C C C 2"
_symmetry_group_IT_number 37
_symmetry_cell_setting 'orthorhombic'
loop_
_space_group_symop_operation_xyz
x,y,z
-x,-y,z
-x,y,1/2+z
x,-y,1/2+z
1/2+x,1/2+y,z
1/2-x,1/2-y,z
1/2-x,1/2+y,1/2+z
1/2+x,1/2-y,1/2+z
loop_
_atom_site_type_symbol
_atom_site_label
_atom_site_fract_x
_atom_site_fract_y
_atom_site_fract_z
Si Si1 0.601797 0.948506 0.179890
Si Si2 0.250000 0.250000 0.075863
Si Si3 0.837702 0.010299 0.533946
Si Si4 0.363232 0.349448 0.934382
Si Si5 0.241436 0.672615 0.225140
Si Si6 0.080901 0.689666 0.741393
Si Si7 0.403029 0.239251 0.449539
Si Si8 0.353148 0.897069 0.043106
O O1 0.739491 0.976485 0.127453
O O2 0.654220 0.881539 0.231788
O O3 0.488811 0.928715 0.095992
O O4 0.500000 0.000000 0.238181
O O5 0.121086 0.265458 0.148803
O O6 0.497492 0.303052 0.963112
O O7 0.851709 0.074601 0.465256
O O8 0.747750 0.949128 0.487245
O O9 0.000000 0.000000 0.561895
O O10 0.332932 0.342466 0.820034
O O11 0.252213 0.311561 0.002861
O O12 0.250000 0.750000 0.203419
O O13 0.251508 0.629331 0.128686
O O14 0.078530 0.666101 0.251698
O O15 0.107988 0.732108 0.834788
O O16 0.250000 0.250000 0.491437
O O17 0.423990 0.164090 0.486504
#
# Coordination Sequence:
#
# PCOD9355283 Si02
#       8
#     8   4   8   8   8   8   8   8
#     4   9  20  42  66  92 132 181 235 287 350 432
#     4  12  22  42  70 102 136 176 228 302 354 426
#     4  11  24  45  68 103 140 191 239 290 373 443
#     4  12  24  44  76 102 141 189 245 298 369 440
#     4  11  22  41  70 105 137 182 241 300 362 427
#     4  11  22  39  65 101 136 175 232 290 359 422
#     4  12  24  43  66 105 146 185 239 302 360 432
#     4  10  24  45  68  98 145 189 239 302 363 435
#
# _framework density 22.593185999999999
#
# number of rings (size 3 to 8) (size 9 to 14) (size 15 to 20)
#    0.000    1.067    4.000    2.800    1.867    1.067 
#    9.600    0.667    0.000    0.000    0.000    0.000 
#    0.000    0.000    0.000    0.000    0.000    0.000 
#
# Total GULP energy -167036.086670 kJ/mol
# GULP energy per Si atom -5567.869556 kJ/mol
# Density = 2.254176 g / cm^3
# Si number density = 22.593186 Si / 1000 Ang^3
#
#
#
# Elastic Constant Matrix: (Units=GPa)
#
#
# Indices 1 2 3 4 5 6 
#
# 1 99.5684 37.3776 9.7407 0.0000 0.0000 0.0000
# 2 37.3776 130.3748 36.3114 0.0000 0.0000 0.0000
# 3 9.7407 36.3114 82.0238 0.0000 0.0000 0.0000
# 4 0.0000 0.0000 0.0000 23.4226 0.0000 0.0000
# 5 0.0000 0.0000 0.0000 0.0000 17.4792 0.0000
# 6 0.0000 0.0000 0.0000 0.0000 0.0000 39.5730
#
#
#
# Elastic Compliance Matrix: (Units=1/GPa)
#
#
# Indices 1 2 3 4 5 6 
#
# 1 0.011255 -0.003256 0.000105 0.000000 0.000000 0.000000
# 2 -0.003256 0.009691 -0.003903 0.000000 0.000000 0.000000
# 3 0.000105 -0.003903 0.013907 0.000000 0.000000 0.000000
# 4 0.000000 0.000000 0.000000 0.042694 0.000000 0.000000
# 5 0.000000 0.000000 0.000000 0.000000 0.057211 0.000000
# 6 0.000000 0.000000 0.000000 0.000000 0.000000 0.025270
#
#
# Mechanical properties :
#
#
# Convention : Reuss Voigt Hill
#
# Bulk Modulus (GPa) = 48.20645 53.20290 50.70468
# Shear Modulus (GPa) = 27.61641 31.33079 29.47360
#
# Velocity S-wave (km/s) = 3.49998 3.72793 3.61575
# Velocity P-wave (km/s) = 6.14135 6.49071 6.31844
#
# Compressibility (1/GPa) = 0.02074411
#
# Stress axis : x y z
#
# Youngs Moduli (GPa) = 88.84627 103.19026 71.90544
#
# Poissons Ratio (x) = 0.33599 -0.00754
# Poissons Ratio (y) = 0.28929 0.28068
# Poissons Ratio (z) = -0.00931 0.40279
#
# Static dielectric constant tensor:
#      x y z
#    x 1.856460 0.000000 0.000000 
#    y 0.000000 2.050270 0.000000 
#    z 0.000000 0.000000 1.844300 
# 
# From -- ./inp_files/10938.got.cif
#   From: 2010.05.17/outbox.cif.g08.bks.cpg/sg37_6_cif.got.tgz:10938.got - 2010.06.03 17:53:42.
