data_PCOD9355490
_publ_section_title
;
Structure prediction by ZEFSAII (Michael W. Deem and Ramdas Pophale) SiO2 
 PCOD9355490
Probable space group: C C C 2
;
_chemical_formula_sum "Si O2"
_cell_formula_units_Z 64
_cell_length_a 8.664473
_cell_length_b 15.754221
_cell_length_c 24.360107
_cell_angle_alpha 90.000000
_cell_angle_beta 90.000000
_cell_angle_gamma 90.000000
_cell_volume 3325.203874
_symmetry_space_group_name_H-M "C C C 2"
_symmetry_group_IT_number 37
_symmetry_cell_setting 'orthorhombic'
loop_
_space_group_symop_operation_xyz
x,y,z
-x,-y,z
-x,y,1/2+z
x,-y,1/2+z
1/2+x,1/2+y,z
1/2-x,1/2-y,z
1/2-x,1/2+y,1/2+z
1/2+x,1/2-y,1/2+z
loop_
_atom_site_type_symbol
_atom_site_label
_atom_site_fract_x
_atom_site_fract_y
_atom_site_fract_z
Si Si1 0.064041 0.750000 0.046390
Si Si2 0.433880 0.091040 0.113575
Si Si3 0.066120 0.908960 0.613575
Si Si4 0.064467 0.409110 0.345935
Si Si5 0.066887 0.148188 0.729209
Si Si6 0.435533 0.409110 0.345935
Si Si7 0.433113 0.148188 0.729209
Si Si8 0.937526 0.250000 0.919650
O O1 0.250000 0.750000 0.049279
O O2 0.001733 0.666942 0.077095
O O3 0.001733 0.833058 0.077095
O O4 0.014224 0.750000 0.982837
O O5 0.250000 0.090937 0.110451
O O6 0.486696 0.108654 0.176055
O O7 0.500000 0.000000 0.096189
O O8 0.013304 0.891346 0.676055
O O9 0.000000 0.000000 0.596189
O O10 0.250000 0.411173 0.344510
O O11 0.013448 0.333693 0.386524
O O12 0.000000 0.500000 0.363546
O O13 0.002116 0.388176 0.285275
O O14 0.250000 0.131214 0.726851
O O15 0.044031 0.250000 0.728315
O O16 0.997884 0.111824 0.785275
O O17 0.500000 0.500000 0.363546
O O18 0.486552 0.333693 0.386524
O O19 0.750000 0.250000 0.919357
#
# Coordination Sequence:
#
# PCOD9355490 Si02
#       8
#     8   8   8   8   8   8   8   8
#     4  11  23  44  67  92 125 162 210 263 312 367
#     4  12  25  42  65  94 127 166 208 255 312 372
#     4  12  25  42  65  94 127 166 208 255 312 372
#     4  11  22  40  63  92 126 163 205 251 307 368
#     4  11  22  38  63  94 127 163 203 252 310 371
#     4  11  22  40  63  92 126 163 205 251 307 368
#     4  11  22  38  63  94 127 163 203 252 310 371
#     4   9  22  42  65  88 121 164 206 255 308 363
#
# _framework density 19.246939999999999
#
# number of rings (size 3 to 8) (size 9 to 14) (size 15 to 20)
#    0.000    1.000    2.500    4.875    0.000    2.000 
#    0.000    7.500    0.000    0.000    0.000    0.000 
#    0.000    0.000    0.000    0.000    0.000    0.000 
#
# Total GULP energy -179070.179899 kJ/mol
# GULP energy per Si atom -5595.943122 kJ/mol
# Density = 1.920313 g / cm^3
# Si number density = 19.246940 Si / 1000 Ang^3
#
#
#
# Elastic Constant Matrix: (Units=GPa)
#
#
# Indices 1 2 3 4 5 6 
#
# 1 113.7730 74.2466 42.6569 0.0000 0.0000 0.0000
# 2 74.2466 197.4211 97.3417 0.0000 0.0000 0.0000
# 3 42.6569 97.3417 159.1151 0.0000 0.0000 0.0000
# 4 0.0000 0.0000 0.0000 -9.7399 0.0000 0.0000
# 5 0.0000 0.0000 0.0000 0.0000 25.3910 0.0000
# 6 0.0000 0.0000 0.0000 0.0000 0.0000 28.5231
#
#
#
# Elastic Compliance Matrix: (Units=1/GPa)
#
#
# Indices 1 2 3 4 5 6 
#
# 1 0.011693 -0.004084 -0.000636 0.000000 0.000000 0.000000
# 2 -0.004084 0.008679 -0.004215 0.000000 0.000000 0.000000
# 3 -0.000636 -0.004215 0.009034 0.000000 0.000000 0.000000
# 4 0.000000 0.000000 0.000000 -0.102671 0.000000 0.000000
# 5 0.000000 0.000000 0.000000 0.000000 0.039384 0.000000
# 6 0.000000 0.000000 0.000000 0.000000 0.000000 0.035059
#
#
# Mechanical properties :
#
#
# Convention : Reuss Voigt Hill
#
# Bulk Modulus (GPa) = 86.68471 99.86661 93.27566
# Shear Modulus (GPa) = 218.38882 25.90578 122.14730
#
# Velocity S-wave (km/s) = 10.66363 3.67272 7.97502
# Velocity P-wave (km/s) = 14.02688 8.36570 11.54856
#
# Compressibility (1/GPa) = 0.01153606
#
# Stress axis : x y z
#
# Youngs Moduli (GPa) = 85.52098 115.21531 110.69301
#
# Poissons Ratio (x) = 0.47051 0.07045
# Poissons Ratio (y) = 0.34924 0.46657
# Poissons Ratio (z) = 0.05443 0.48563
#
# Static dielectric constant tensor:
#      x y z
#    x 1.647280 0.000000 0.000000 
#    y 0.000000 1.664450 0.000000 
#    z 0.000000 0.000000 1.635670 
# 
# From -- ./inp_files/18477.got.cif
#   From: 2010.05.17/outbox.cif.g08.bks.cpg/sg37_10_cif.got.tgz:18477.got - 2010.06.03 17:53:42.
