data_PCOD9355174
_publ_section_title
;
Structure prediction by ZEFSAII (Michael W. Deem and Ramdas Pophale) SiO2 
 PCOD9355174
Probable space group: C C C 2
;
_chemical_formula_sum "Si O2"
_cell_formula_units_Z 40
_cell_length_a 11.053928
_cell_length_b 12.308660
_cell_length_c 14.310724
_cell_angle_alpha 90.000000
_cell_angle_beta 90.000000
_cell_angle_gamma 90.000000
_cell_volume 1947.103389
_symmetry_space_group_name_H-M "C C C 2"
_symmetry_group_IT_number 37
_symmetry_cell_setting 'orthorhombic'
loop_
_space_group_symop_operation_xyz
x,y,z
-x,-y,z
-x,y,1/2+z
x,-y,1/2+z
1/2+x,1/2+y,z
1/2-x,1/2-y,z
1/2-x,1/2+y,1/2+z
1/2+x,1/2-y,1/2+z
loop_
_atom_site_type_symbol
_atom_site_label
_atom_site_fract_x
_atom_site_fract_y
_atom_site_fract_z
Si Si1 0.739606 0.447692 0.031680
Si Si2 0.604370 0.911878 0.347716
Si Si3 0.213067 0.126144 0.182407
Si Si4 0.250000 0.750000 0.172847
Si Si5 0.500000 0.500000 0.428986
Si Si6 0.518073 0.687675 0.790712
O O1 0.741188 0.558368 0.090456
O O2 0.762166 0.353205 0.105780
O O3 0.833723 0.435269 0.947189
O O4 0.605419 0.444459 0.988415
O O5 0.706644 0.919255 0.267872
O O6 0.551225 0.789359 0.338976
O O7 0.500000 0.000000 0.330886
O O8 0.250000 0.250000 0.166675
O O9 0.075040 0.130897 0.218059
O O10 0.367143 0.733314 0.236613
O O11 0.446059 0.595557 0.364641
#
# Coordination Sequence:
#
# PCOD9355174 Si02
#       6
#     8   8   8   4   4   8
#     4  12  25  42  70 104 136 177 235 280 341 414
#     4  11  25  44  70  99 141 182 230 286 347 405
#     4  10  23  46  69  97 138 184 227 285 346 406
#     4  12  26  42  72 104 136 182 234 282 346 414
#     4  12  24  42  72  98 138 180 228 284 344 414
#     4  11  24  44  72  96 140 185 227 280 353 409
#
# _framework density 20.543337000000001
#
# number of rings (size 3 to 8) (size 9 to 14) (size 15 to 20)
#    0.000    0.800    2.000    4.800    4.200    5.600 
#    0.000    0.000    0.000    0.000    0.000    0.000 
#    0.000    0.000    0.000    0.000    0.000    0.000 
#
# Total GULP energy -111932.297018 kJ/mol
# GULP energy per Si atom -5596.614851 kJ/mol
# Density = 2.049658 g / cm^3
# Si number density = 20.543337 Si / 1000 Ang^3
#
#
#
# Elastic Constant Matrix: (Units=GPa)
#
#
# Indices 1 2 3 4 5 6 
#
# 1 140.7447 43.2939 71.1426 0.0000 0.0000 0.0000
# 2 43.2939 94.4250 65.3609 0.0000 0.0000 0.0000
# 3 71.1426 65.3609 140.9637 0.0000 0.0000 0.0000
# 4 0.0000 0.0000 0.0000 37.1204 0.0000 0.0000
# 5 0.0000 0.0000 0.0000 0.0000 21.8259 0.0000
# 6 0.0000 0.0000 0.0000 0.0000 0.0000 30.0575
#
#
#
# Elastic Compliance Matrix: (Units=1/GPa)
#
#
# Indices 1 2 3 4 5 6 
#
# 1 0.009692 -0.001558 -0.004169 0.000000 0.000000 0.000000
# 2 -0.001558 0.015846 -0.006561 0.000000 0.000000 0.000000
# 3 -0.004169 -0.006561 0.012240 0.000000 0.000000 0.000000
# 4 0.000000 0.000000 0.000000 0.026939 0.000000 0.000000
# 5 0.000000 0.000000 0.000000 0.000000 0.045817 0.000000
# 6 0.000000 0.000000 0.000000 0.000000 0.000000 0.033270
#
#
# Mechanical properties :
#
#
# Convention : Reuss Voigt Hill
#
# Bulk Modulus (GPa) = 75.74512 81.74755 78.74634
# Shear Modulus (GPa) = 28.93835 30.88983 29.91409
#
# Velocity S-wave (km/s) = 3.75727 3.88189 3.82009
# Velocity P-wave (km/s) = 7.46818 7.74411 7.60739
#
# Compressibility (1/GPa) = 0.01320217
#
# Stress axis : x y z
#
# Youngs Moduli (GPa) = 103.18305 63.10573 81.69764
#
# Poissons Ratio (x) = 0.09831 0.34058
# Poissons Ratio (y) = 0.16075 0.53604
# Poissons Ratio (z) = 0.43015 0.41405
#
# Static dielectric constant tensor:
#      x y z
#    x 1.720620 0.000000 0.000000 
#    y 0.000000 1.835290 0.000000 
#    z 0.000000 0.000000 1.715380 
# 
# From -- ./inp_files/7679.got.cif
#   From: 2010.05.17/outbox.cif.g08.bks.cpg/sg37_4_cif.got.tgz:7679.got - 2010.06.03 17:53:42.
