data_PCOD9355575
_publ_section_title
;
Structure prediction by ZEFSAII (Michael W. Deem and Ramdas Pophale) SiO2 
 PCOD9355575
Probable space group: C C C 2
;
_chemical_formula_sum "Si O2"
_cell_formula_units_Z 36
_cell_length_a 6.478785
_cell_length_b 17.001064
_cell_length_c 13.319226
_cell_angle_alpha 90.000000
_cell_angle_beta 90.000000
_cell_angle_gamma 90.000000
_cell_volume 1467.062643
_symmetry_space_group_name_H-M "C C C 2"
_symmetry_group_IT_number 37
_symmetry_cell_setting 'orthorhombic'
loop_
_space_group_symop_operation_xyz
x,y,z
-x,-y,z
-x,y,1/2+z
x,-y,1/2+z
1/2+x,1/2+y,z
1/2-x,1/2-y,z
1/2-x,1/2+y,1/2+z
1/2+x,1/2-y,1/2+z
loop_
_atom_site_type_symbol
_atom_site_label
_atom_site_fract_x
_atom_site_fract_y
_atom_site_fract_z
Si Si1 0.475400 0.380505 0.630650
Si Si2 0.250000 0.250000 0.535058
Si Si3 0.291611 0.039750 0.974998
Si Si4 0.060705 0.698541 0.373618
Si Si5 0.500000 0.500000 0.809435
Si Si6 0.250000 0.250000 0.220044
O O1 0.271492 0.335742 0.588885
O O2 0.619674 0.432190 0.555752
O O3 0.446422 0.429224 0.733323
O O4 0.607967 0.304368 0.655474
O O5 0.448667 0.245524 0.462977
O O6 0.360586 0.117517 0.916670
O O7 0.186921 0.985772 0.888103
O O8 0.500000 0.000000 0.017670
O O9 0.250000 0.750000 0.334139
O O10 0.889412 0.693642 0.288404
#
# Coordination Sequence:
#
# PCOD9355575 Si02
#       6
#     8   4   8   8   4   4
#     4  12  27  49  79 113 156 202 264 321 392 463
#     4  11  26  46  77 110 150 198 265 326 379 468
#     4  12  28  49  75 107 156 211 252 316 391 462
#     4  11  23  47  76 108 152 200 257 320 391 452
#     4  12  30  50  72 114 156 202 256 322 384 466
#     4  11  26  44  75 118 146 198 259 320 377 464
#
# _framework density 24.538829
#
# number of rings (size 3 to 8) (size 9 to 14) (size 15 to 20)
#    0.000    0.444    2.222    4.667   14.000    2.667 
#    0.000    0.000    0.000    0.000    0.000    0.000 
#    0.000    0.000    0.000    0.000    0.000    0.000 
#
# Total GULP energy -100704.350245 kJ/mol
# GULP energy per Si atom -5594.686125 kJ/mol
# Density = 2.448298 g / cm^3
# Si number density = 24.538829 Si / 1000 Ang^3
#
#
#
# Elastic Constant Matrix: (Units=GPa)
#
#
# Indices 1 2 3 4 5 6 
#
# 1 64.8295 3.2226 26.8265 0.0000 0.0000 0.0000
# 2 3.2226 55.8697 12.3665 0.0000 0.0000 0.0000
# 3 26.8265 12.3665 110.0866 0.0000 0.0000 0.0000
# 4 0.0000 0.0000 0.0000 62.7941 0.0000 0.0000
# 5 0.0000 0.0000 0.0000 0.0000 27.6965 0.0000
# 6 0.0000 0.0000 0.0000 0.0000 0.0000 57.0062
#
#
#
# Elastic Compliance Matrix: (Units=1/GPa)
#
#
# Indices 1 2 3 4 5 6 
#
# 1 0.017155 -0.000066 -0.004173 0.000000 0.000000 0.000000
# 2 -0.000066 0.018355 -0.002046 0.000000 0.000000 0.000000
# 3 -0.004173 -0.002046 0.010330 0.000000 0.000000 0.000000
# 4 0.000000 0.000000 0.000000 0.015925 0.000000 0.000000
# 5 0.000000 0.000000 0.000000 0.000000 0.036106 0.000000
# 6 0.000000 0.000000 0.000000 0.000000 0.000000 0.017542
#
#
# Mechanical properties :
#
#
# Convention : Reuss Voigt Hill
#
# Bulk Modulus (GPa) = 30.05574 35.06853 32.56214
# Shear Modulus (GPa) = 35.95214 42.05739 39.00477
#
# Velocity S-wave (km/s) = 3.83183 4.14443 3.99119
# Velocity P-wave (km/s) = 5.64376 6.10113 5.87690
#
# Compressibility (1/GPa) = 0.03327151
#
# Stress axis : x y z
#
# Youngs Moduli (GPa) = 58.29151 54.47980 96.80078
#
# Poissons Ratio (x) = 0.00359 0.40396
# Poissons Ratio (y) = 0.00384 0.19804
# Poissons Ratio (z) = 0.24325 0.11146
#
# Static dielectric constant tensor:
#      x y z
#    x 1.936620 0.000000 0.000000 
#    y 0.000000 1.779090 0.000000 
#    z 0.000000 0.000000 1.937770 
# 
# From -- ./inp_files/9568.got.cif
#   From: 2010.05.17/outbox.cif.g08.bks.cpg/sg37_5_cif.got.tgz:9568.got - 2010.06.03 17:53:42.
