data_PCOD9355980
_publ_section_title
;
Structure prediction by ZEFSAII (Michael W. Deem and Ramdas Pophale) SiO2 
 PCOD9355980
Probable space group: A M M 2
;
_chemical_formula_sum "Si O2"
_cell_formula_units_Z 64
_cell_length_a 9.207595
_cell_length_b 14.020935
_cell_length_c 35.263668
_cell_angle_alpha 90.000000
_cell_angle_beta 90.000000
_cell_angle_gamma 90.000000
_cell_volume 4552.507484
_symmetry_space_group_name_H-M "A M M 2"
_symmetry_group_IT_number 38
_symmetry_cell_setting 'orthorhombic'
loop_
_space_group_symop_operation_xyz
x,y,z
-x,-y,z
-x,y,z
x,-y,z
x,1/2+y,1/2+z
-x,1/2-y,1/2+z
-x,1/2+y,1/2+z
x,1/2-y,1/2+z
loop_
_atom_site_type_symbol
_atom_site_label
_atom_site_fract_x
_atom_site_fract_y
_atom_site_fract_z
Si Si1 0.168068 0.883856 0.668660
Si Si2 0.326725 0.390059 0.939000
Si Si3 0.826976 0.612858 0.321108
Si Si4 0.673355 0.110411 0.972120
Si Si5 0.176763 0.390101 0.084893
Si Si6 0.333486 0.884000 0.743875
Si Si7 0.327745 0.792477 0.891634
Si Si8 0.174678 0.213536 0.508175
O O1 0.223018 0.856080 0.626766
O O2 0.260896 0.851661 0.704578
O O3 0.000000 0.854637 0.673230
O O4 0.168645 0.000000 0.668277
O O5 0.500000 0.380191 0.946729
O O6 0.296614 0.500000 0.929868
O O7 0.293637 0.314836 0.905621
O O8 0.239354 0.356212 0.975960
O O9 0.793269 0.500000 0.326717
O O10 0.756388 0.643063 0.281172
O O11 0.761066 0.671464 0.355857
O O12 0.000000 0.622578 0.319343
O O13 0.500000 0.122725 0.978018
O O14 0.701962 0.142049 0.928622
O O15 0.710425 0.000000 0.977703
O O16 0.760302 0.183066 0.998574
O O17 0.224058 0.500000 0.079051
O O18 0.218974 0.325501 0.049442
O O19 0.000000 0.391864 0.086128
O O20 0.500000 0.853136 0.746852
O O21 0.331961 0.000000 0.742849
O O22 0.500000 0.798840 0.883509
O O23 0.000000 0.214560 0.505903
#
# Coordination Sequence:
#
# PCOD9355980 Si02
#       8
#     8   8   8   8   8   8   8   8
#     4   8  13  23  38  53  73 104 137 163 190 231
#     4   9  18  32  46  59  80 111 142 170 204 246
#     4  10  19  28  39  57  81 108 136 165 198 238
#     4   9  18  32  46  58  78 110 142 171 208 251
#     4   8  14  24  38  57  82 111 138 164 198 239
#     4   9  16  25  37  54  77 104 133 164 197 233
#     4   9  17  29  44  60  77 101 135 171 204 238
#     4  10  18  27  42  64  86 107 137 175 209 243
#
# _framework density 14.058187
#
# number of rings (size 3 to 8) (size 9 to 14) (size 15 to 20)
#    0.000    3.000    0.000    3.375    0.000    5.750 
#    0.000    1.250    0.000    3.000    0.000    0.000 
#    0.000    1.000    0.000    7.250    0.000    4.000 
#
# Total GULP energy -178197.239325 kJ/mol
# GULP energy per Si atom -5568.663729 kJ/mol
# Density = 1.402619 g / cm^3
# Si number density = 14.058187 Si / 1000 Ang^3
#
#
#
# Elastic Constant Matrix: (Units=GPa)
#
#
# Indices 1 2 3 4 5 6 
#
# 1 50.1239 36.5514 61.4611 0.0000 0.0000 0.0000
# 2 36.5514 78.8977 57.8797 0.0000 0.0000 0.0000
# 3 61.4611 57.8797 141.7532 0.0000 0.0000 0.0000
# 4 0.0000 0.0000 0.0000 18.8411 0.0000 0.0000
# 5 0.0000 0.0000 0.0000 0.0000 -30.1533 0.0000
# 6 0.0000 0.0000 0.0000 0.0000 0.0000 16.4369
#
#
#
# Elastic Compliance Matrix: (Units=1/GPa)
#
#
# Indices 1 2 3 4 5 6 
#
# 1 0.047391 -0.009824 -0.016537 0.000000 0.000000 0.000000
# 2 -0.009824 0.020131 -0.003960 0.000000 0.000000 0.000000
# 3 -0.016537 -0.003960 0.015841 0.000000 0.000000 0.000000
# 4 0.000000 0.000000 0.000000 0.053076 0.000000 0.000000
# 5 0.000000 0.000000 0.000000 0.000000 -0.033164 0.000000
# 6 0.000000 0.000000 0.000000 0.000000 0.000000 0.060839
#
#
# Mechanical properties :
#
#
# Convention : Reuss Voigt Hill
#
# Bulk Modulus (GPa) = 44.00995 64.72880 54.36938
# Shear Modulus (GPa) = 21.52111 8.68377 15.10244
#
# Velocity S-wave (km/s) = 3.91686 2.48806 3.28118
# Velocity P-wave (km/s) = 7.19926 7.37546 7.28789
#
# Compressibility (1/GPa) = 0.02272213
#
# Stress axis : x y z
#
# Youngs Moduli (GPa) = 21.10100 49.67409 63.12546
#
# Poissons Ratio (x) = 0.48799 1.04387
# Poissons Ratio (y) = 0.20729 0.25000
# Poissons Ratio (z) = 0.34894 0.19673
#
# Static dielectric constant tensor:
#      x y z
#    x 1.471570 0.000000 0.000000 
#    y 0.000000 1.447140 0.000000 
#    z 0.000000 0.000000 1.459440 
# 
# From -- ./inp_files/24741.got.cif
#   From: 2010.05.17/outbox.cif.g08.bks.cpg/sg38_13_cif.got.tgz:24741.got - 2010.06.03 18:07:57.
