data_PCOD9355856
_publ_section_title
;
Structure prediction by ZEFSAII (Michael W. Deem and Ramdas Pophale) SiO2 
 PCOD9355856
Probable space group: A M M 2
;
_chemical_formula_sum "Si O2"
_cell_formula_units_Z 56
_cell_length_a 7.703049
_cell_length_b 30.463816
_cell_length_c 14.071385
_cell_angle_alpha 90.000000
_cell_angle_beta 90.000000
_cell_angle_gamma 90.000000
_cell_volume 3302.051252
_symmetry_space_group_name_H-M "A M M 2"
_symmetry_group_IT_number 38
_symmetry_cell_setting 'orthorhombic'
loop_
_space_group_symop_operation_xyz
x,y,z
-x,-y,z
-x,y,z
x,-y,z
x,1/2+y,1/2+z
-x,1/2-y,1/2+z
-x,1/2+y,1/2+z
x,1/2-y,1/2+z
loop_
_atom_site_type_symbol
_atom_site_label
_atom_site_fract_x
_atom_site_fract_y
_atom_site_fract_z
Si Si1 0.287523 0.680649 0.812540
Si Si2 0.710486 0.270930 0.215611
Si Si3 0.202417 0.594943 0.483408
Si Si4 0.295371 0.594976 0.703125
Si Si5 0.205284 0.687331 0.411912
Si Si6 0.212915 0.500000 0.489445
Si Si7 0.703271 0.221435 0.505018
Si Si8 0.207025 0.500000 0.710930
O O1 0.500000 0.680444 0.815353
O O2 0.236267 0.721655 0.746107
O O3 0.230475 0.634739 0.768223
O O4 0.224332 0.692218 0.918676
O O5 0.500000 0.271023 0.214061
O O6 0.767061 0.302543 0.300872
O O7 0.776860 0.282500 0.110814
O O8 0.212113 0.596155 0.598276
O O9 0.278018 0.640024 0.442644
O O10 0.273688 0.547277 0.451483
O O11 0.000000 0.594779 0.455858
O O12 0.500000 0.601306 0.687748
O O13 0.268221 0.546948 0.748827
O O14 0.284348 0.728155 0.469709
O O15 0.000000 0.688231 0.432499
O O16 0.264765 0.500000 0.600445
O O17 0.000000 0.500000 0.486844
O O18 0.500000 0.210279 0.512174
O O19 0.000000 0.500000 0.712928
#
# Coordination Sequence:
#
# PCOD9355856 Si02
#       8
#     8   8   8   8   8   4   8   4
#     4   8  15  26  41  63  85 105 137 177 212 247
#     4   9  17  30  46  61  82 115 148 176 209 252
#     4   9  17  28  41  59  85 115 141 168 209 257
#     4  10  17  26  43  65  86 109 141 179 211 245
#     4  10  19  28  41  64  90 113 141 177 215 256
#     4   7  12  25  41  53  72 105 138 162 191 240
#     4   9  17  31  47  61  82 114 148 178 212 255
#     4   9  17  29  41  57  86 117 140 166 207 258
#
# _framework density 16.959156
#
# number of rings (size 3 to 8) (size 9 to 14) (size 15 to 20)
#    0.000    3.000    0.000    3.643    0.000    2.857 
#    0.000    7.143    0.000    0.000    0.000    1.000 
#    0.000    3.429    0.000    0.000    0.000    0.000 
#
# Total GULP energy -155924.483633 kJ/mol
# GULP energy per Si atom -5568.731558 kJ/mol
# Density = 1.692056 g / cm^3
# Si number density = 16.959156 Si / 1000 Ang^3
#
#
#
# Elastic Constant Matrix: (Units=GPa)
#
#
# Indices 1 2 3 4 5 6 
#
# 1 25.5235 -10.4092 -10.8516 0.0000 0.0000 0.0000
# 2 -10.4092 147.4225 44.7747 0.0000 0.0000 0.0000
# 3 -10.8516 44.7747 76.0360 0.0000 0.0000 0.0000
# 4 0.0000 0.0000 0.0000 24.7264 0.0000 0.0000
# 5 0.0000 0.0000 0.0000 0.0000 17.7720 0.0000
# 6 0.0000 0.0000 0.0000 0.0000 0.0000 12.5862
#
#
#
# Elastic Compliance Matrix: (Units=1/GPa)
#
#
# Indices 1 2 3 4 5 6 
#
# 1 0.041944 0.001393 0.005166 0.000000 0.000000 0.000000
# 2 0.001393 0.008307 -0.004693 0.000000 0.000000 0.000000
# 3 0.005166 -0.004693 0.016652 0.000000 0.000000 0.000000
# 4 0.000000 0.000000 0.000000 0.040443 0.000000 0.000000
# 5 0.000000 0.000000 0.000000 0.000000 0.056268 0.000000
# 6 0.000000 0.000000 0.000000 0.000000 0.000000 0.079452
#
#
# Mechanical properties :
#
#
# Convention : Reuss Voigt Hill
#
# Bulk Modulus (GPa) = 14.15733 32.88996 23.52364
# Shear Modulus (GPa) = 19.02015 26.04814 22.53415
#
# Velocity S-wave (km/s) = 3.35255 3.92335 3.64913
# Velocity P-wave (km/s) = 4.83241 6.32134 5.62634
#
# Compressibility (1/GPa) = 0.07063480
#
# Stress axis : x y z
#
# Youngs Moduli (GPa) = 23.84134 120.38268 60.05144
#
# Poissons Ratio (x) = -0.16764 -0.31023
# Poissons Ratio (y) = -0.03320 0.28181
# Poissons Ratio (z) = -0.12317 0.56494
#
# Static dielectric constant tensor:
#      x y z
#    x 1.617020 0.000000 0.000000 
#    y 0.000000 1.609410 0.000000 
#    z 0.000000 0.000000 1.560620 
# 
# From -- ./inp_files/13024.got.cif
#   From: 2010.05.17/outbox.cif.g08.bks.cpg/sg38_7_cif.got.tgz:13024.got - 2010.06.03 18:07:57.
