data_PCOD9356765
_publ_section_title
;
Structure prediction by ZEFSAII (Michael W. Deem and Ramdas Pophale) SiO2 
 PCOD9356765
Probable space group: A M M 2
;
_chemical_formula_sum "Si O2"
_cell_formula_units_Z 64
_cell_length_a 7.699194
_cell_length_b 22.423397
_cell_length_c 16.248435
_cell_angle_alpha 90.000000
_cell_angle_beta 90.000000
_cell_angle_gamma 90.000000
_cell_volume 2805.163674
_symmetry_space_group_name_H-M "A M M 2"
_symmetry_group_IT_number 38
_symmetry_cell_setting 'orthorhombic'
loop_
_space_group_symop_operation_xyz
x,y,z
-x,-y,z
-x,y,z
x,-y,z
x,1/2+y,1/2+z
-x,1/2-y,1/2+z
-x,1/2+y,1/2+z
x,1/2-y,1/2+z
loop_
_atom_site_type_symbol
_atom_site_label
_atom_site_fract_x
_atom_site_fract_y
_atom_site_fract_z
Si Si1 0.792886 0.935336 0.190860
Si Si2 0.707040 0.568667 0.202251
Si Si3 0.786674 0.696058 0.634209
Si Si4 0.794510 0.066726 0.882605
Si Si5 0.213488 0.315509 0.454815
Si Si6 0.196523 0.747716 0.797731
Si Si7 0.794391 0.068527 0.524459
Si Si8 0.699438 0.621807 0.853093
O O1 0.730647 0.872447 0.152876
O O2 0.757633 0.928538 0.288483
O O3 0.000000 0.935881 0.177050
O O4 0.724798 0.000000 0.162147
O O5 0.500000 0.567753 0.204765
O O6 0.774342 0.500000 0.200681
O O7 0.769889 0.592101 0.289989
O O8 0.761345 0.595577 0.115004
O O9 0.733490 0.711658 0.541819
O O10 0.724663 0.739692 0.706943
O O11 0.000000 0.696425 0.638339
O O12 0.731556 0.115574 0.946856
O O13 0.000000 0.061464 0.895751
O O14 0.718410 0.000000 0.886960
O O15 0.279406 0.283530 0.372668
O O16 0.000000 0.313093 0.453524
O O17 0.191028 0.680059 0.831456
O O18 0.000000 0.770799 0.787024
O O19 0.717520 0.102468 0.447015
O O20 0.000000 0.066560 0.512108
O O21 0.726808 0.000000 0.525116
O O22 0.500000 0.636409 0.835602
#
# Coordination Sequence:
#
# PCOD9356765 Si02
#       8
#     8   8   8   8   8   8   8   8
#     4   9  17  30  50  76 106 139 174 212 262 324
#     4   9  17  30  47  68 100 139 173 208 254 310
#     4   8  15  29  50  75 103 132 171 225 271 310
#     4   9  17  30  49  75 106 135 167 214 271 329
#     4   9  17  31  53  80 105 135 180 227 272 320
#     4   9  18  35  54  72 100 137 181 227 269 316
#     4  10  19  31  49  73 102 137 179 224 268 315
#     4  11  21  32  48  71 103 139 178 222 271 323
#
# _framework density 22.815068
#
# number of rings (size 3 to 8) (size 9 to 14) (size 15 to 20)
#    0.000    2.750    0.000    3.000    0.000    4.500 
#    2.250    3.125    0.000    6.000    0.000    3.500 
#    0.000    0.000    0.000    0.000    0.000    0.000 
#
# Total GULP energy -178477.055736 kJ/mol
# GULP energy per Si atom -5577.407992 kJ/mol
# Density = 2.276314 g / cm^3
# Si number density = 22.815068 Si / 1000 Ang^3
#
#
#
# Elastic Constant Matrix: (Units=GPa)
#
#
# Indices 1 2 3 4 5 6 
#
# 1 50.3257 3.3625 -10.4132 0.0000 0.0000 0.0000
# 2 3.3625 40.0159 43.3174 0.0000 0.0000 0.0000
# 3 -10.4132 43.3174 157.1912 0.0000 0.0000 0.0000
# 4 0.0000 0.0000 0.0000 33.3543 0.0000 0.0000
# 5 0.0000 0.0000 0.0000 0.0000 -15.1072 0.0000
# 6 0.0000 0.0000 0.0000 0.0000 0.0000 -5.3534
#
#
#
# Elastic Compliance Matrix: (Units=1/GPa)
#
#
# Indices 1 2 3 4 5 6 
#
# 1 0.020724 -0.004600 0.002640 0.000000 0.000000 0.000000
# 2 -0.004600 0.036635 -0.010400 0.000000 0.000000 0.000000
# 3 0.002640 -0.010400 0.009403 0.000000 0.000000 0.000000
# 4 0.000000 0.000000 0.000000 0.029981 0.000000 0.000000
# 5 0.000000 0.000000 0.000000 0.000000 -0.066193 0.000000
# 6 0.000000 0.000000 0.000000 0.000000 0.000000 -0.186796
#
#
# Mechanical properties :
#
#
# Convention : Reuss Voigt Hill
#
# Bulk Modulus (GPa) = 23.78536 35.56291 29.67414
# Shear Modulus (GPa) = -42.54830 16.66314 -12.94258
#
# Velocity S-wave (km/s) = -4.32316 2.70544 -2.38435
# Velocity P-wave (km/s) = 3.80417 5.03791 2.33547
#
# Compressibility (1/GPa) = 0.04204267
#
# Stress axis : x y z
#
# Youngs Moduli (GPa) = 48.25265 27.29643 106.35357
#
# Poissons Ratio (x) = 0.12556 -0.28082
# Poissons Ratio (y) = 0.22195 1.10610
# Poissons Ratio (z) = -0.12741 0.28389
#
# Static dielectric constant tensor:
#      x y z
#    x 1.819180 0.000000 0.000000 
#    y 0.000000 1.901900 0.000000 
#    z 0.000000 0.000000 1.861990 
# 
# From -- ./inp_files/12744.got.cif
#   From: 2010.05.17/outbox.cif.g08.bks.cpg/sg38_7_cif.got.tgz:12744.got - 2010.06.03 18:07:57.
