data_PCOD9356109
_publ_section_title
;
Structure prediction by ZEFSAII (Michael W. Deem and Ramdas Pophale) SiO2 
 PCOD9356109
Probable space group: A M M 2
;
_chemical_formula_sum "Si O2"
_cell_formula_units_Z 58
_cell_length_a 17.881160
_cell_length_b 7.601867
_cell_length_c 20.126282
_cell_angle_alpha 90.000000
_cell_angle_beta 90.000000
_cell_angle_gamma 90.000000
_cell_volume 2735.769540
_symmetry_space_group_name_H-M "A M M 2"
_symmetry_group_IT_number 38
_symmetry_cell_setting 'orthorhombic'
loop_
_space_group_symop_operation_xyz
x,y,z
-x,-y,z
-x,y,z
x,-y,z
x,1/2+y,1/2+z
-x,1/2-y,1/2+z
-x,1/2+y,1/2+z
x,1/2-y,1/2+z
loop_
_atom_site_type_symbol
_atom_site_label
_atom_site_fract_x
_atom_site_fract_y
_atom_site_fract_z
Si Si1 0.379429 0.202501 0.409210
Si Si2 0.712843 0.789200 0.288136
Si Si3 0.244921 0.296695 0.499800
Si Si4 0.500000 0.000000 0.942484
Si Si5 0.757933 0.291510 0.142813
Si Si6 0.919299 0.703966 0.475432
Si Si7 0.122732 0.288504 0.829074
Si Si8 0.920649 0.290785 0.181391
O O1 0.355597 0.263301 0.334827
O O2 0.302466 0.203377 0.451283
O O3 0.435189 0.344085 0.439300
O O4 0.406768 0.000000 0.407216
O O5 0.713272 0.739592 0.210908
O O6 0.791580 0.725769 0.319217
O O7 0.715642 0.000000 0.291166
O O8 0.239838 0.500000 0.478539
O O9 0.273310 0.287724 0.575361
O O10 0.160285 0.219910 0.499188
O O11 0.762190 0.500000 0.133313
O O12 0.842424 0.218730 0.153944
O O13 0.920257 0.500000 0.496487
O O14 0.912640 0.712702 0.395471
O O15 0.000000 0.783204 0.494693
O O16 0.121532 0.500000 0.835176
O O17 0.083284 0.237969 0.760565
O O18 0.920040 0.500000 0.169218
O O19 0.000000 0.218701 0.156377
#
# Coordination Sequence:
#
# PCOD9356109 Si02
#       8
#     8   8   8   2   8   8   8   8
#     4  11  23  43  72 104 137 169 210 263 318 392
#     4   9  19  36  60  90 121 159 204 257 309 377
#     4  11  22  39  61  88 126 174 222 270 324 384
#     4  12  26  44  72 114 134 168 202 258 336 390
#     4  10  21  34  56  86 117 161 217 263 316 383
#     4  10  21  34  50  76 116 166 219 271 324 376
#     4  10  18  29  48  77 111 149 202 259 319 371
#     4   9  18  32  47  68 107 157 208 265 321 373
#
# _framework density 21.200616
#
# number of rings (size 3 to 8) (size 9 to 14) (size 15 to 20)
#    0.000    1.931    2.069    1.862    0.966    4.414 
#    0.000    0.000    0.000    0.828    0.000    0.000 
#    0.000    0.000    0.000    0.000    0.000    0.000 
#
# Total GULP energy -161684.796329 kJ/mol
# GULP energy per Si atom -5575.337804 kJ/mol
# Density = 2.115236 g / cm^3
# Si number density = 21.200616 Si / 1000 Ang^3
#
#
#
# Elastic Constant Matrix: (Units=GPa)
#
#
# Indices 1 2 3 4 5 6 
#
# 1 73.2095 19.6559 13.6049 0.0000 0.0000 0.0000
# 2 19.6559 78.8992 -5.0056 0.0000 0.0000 0.0000
# 3 13.6049 -5.0056 94.5498 0.0000 0.0000 0.0000
# 4 0.0000 0.0000 0.0000 16.8229 0.0000 0.0000
# 5 0.0000 0.0000 0.0000 0.0000 -48.1899 0.0000
# 6 0.0000 0.0000 0.0000 0.0000 0.0000 11.9401
#
#
#
# Elastic Compliance Matrix: (Units=1/GPa)
#
#
# Indices 1 2 3 4 5 6 
#
# 1 0.015158 -0.003928 -0.002389 0.000000 0.000000 0.000000
# 2 -0.003928 0.013735 0.001292 0.000000 0.000000 0.000000
# 3 -0.002389 0.001292 0.010989 0.000000 0.000000 0.000000
# 4 0.000000 0.000000 0.000000 0.059443 0.000000 0.000000
# 5 0.000000 0.000000 0.000000 0.000000 -0.020751 0.000000
# 6 0.000000 0.000000 0.000000 0.000000 0.000000 0.083751
#
#
# Mechanical properties :
#
#
# Convention : Reuss Voigt Hill
#
# Bulk Modulus (GPa) = 33.52057 33.68542 33.60300
# Shear Modulus (GPa) = 27.42468 10.67485 19.04977
#
# Velocity S-wave (km/s) = 3.60054 2.24635 3.00083
# Velocity P-wave (km/s) = 5.75592 4.75936 5.28120
#
# Compressibility (1/GPa) = 0.02983243
#
# Stress axis : x y z
#
# Youngs Moduli (GPa) = 65.97191 72.80721 91.00328
#
# Poissons Ratio (x) = 0.28597 0.21741
# Poissons Ratio (y) = 0.25913 -0.11761
# Poissons Ratio (z) = 0.15761 -0.09409
#
# Static dielectric constant tensor:
#      x y z
#    x 1.783250 0.000000 0.000000 
#    y 0.000000 1.759960 0.000000 
#    z 0.000000 0.000000 1.767240 
# 
# From -- ./inp_files/18705.got.cif
#   From: 2010.05.17/outbox.cif.g08.bks.cpg/sg38_10_cif.got.tgz:18705.got - 2010.06.03 18:07:57.
