data_PCOD9356533
_publ_section_title
;
Structure prediction by ZEFSAII (Michael W. Deem and Ramdas Pophale) SiO2 
 PCOD9356533
Probable space group: A M M 2
;
_chemical_formula_sum "Si O2"
_cell_formula_units_Z 56
_cell_length_a 8.689529
_cell_length_b 14.176301
_cell_length_c 30.173488
_cell_angle_alpha 90.000000
_cell_angle_beta 90.000000
_cell_angle_gamma 90.000000
_cell_volume 3716.932545
_symmetry_space_group_name_H-M "A M M 2"
_symmetry_group_IT_number 38
_symmetry_cell_setting 'orthorhombic'
loop_
_space_group_symop_operation_xyz
x,y,z
-x,-y,z
-x,y,z
x,-y,z
x,1/2+y,1/2+z
-x,1/2-y,1/2+z
-x,1/2+y,1/2+z
x,1/2-y,1/2+z
loop_
_atom_site_type_symbol
_atom_site_label
_atom_site_fract_x
_atom_site_fract_y
_atom_site_fract_z
Si Si1 0.315465 0.793548 0.463160
Si Si2 0.313036 0.894127 0.916079
Si Si3 0.184479 0.607836 0.876457
Si Si4 0.183047 0.389873 0.048978
Si Si5 0.686056 0.216152 0.827482
Si Si6 0.677825 0.385520 0.142085
Si Si7 0.688029 0.890719 0.739598
O O1 0.500000 0.797713 0.460876
O O2 0.266011 0.686755 0.450748
O O3 0.248430 0.859237 0.424175
O O4 0.259448 0.829083 0.510491
O O5 0.500000 0.897282 0.916949
O O6 0.270495 0.855291 0.867366
O O7 0.256067 0.000000 0.923925
O O8 0.230630 0.500000 0.867500
O O9 0.247502 0.682669 0.840941
O O10 0.000000 0.612745 0.877638
O O11 0.231898 0.500000 0.044162
O O12 0.230277 0.357980 0.098317
O O13 0.000000 0.386488 0.044256
O O14 0.500000 0.222162 0.827480
O O15 0.736606 0.173943 0.780506
O O16 0.500000 0.355865 0.137182
O O17 0.678875 0.500000 0.143786
O O18 0.737270 0.356657 0.190689
O O19 0.500000 0.891343 0.738746
O O20 0.735241 0.000000 0.746319
#
# Coordination Sequence:
#
# PCOD9356533 Si02
#       7
#     8   8   8   8   8   8   8
#     4  10  19  29  45  66  83 106 141 176 209 247
#     4   8  14  25  41  62  86 108 132 164 201 242
#     4  10  20  32  43  57  83 116 144 173 210 249
#     4  10  19  29  41  59  86 117 143 170 208 251
#     4   9  16  26  44  67  86 109 141 172 202 241
#     4   8  14  25  41  61  85 112 141 172 205 245
#     4   8  13  23  42  67  91 113 138 170 208 247
#
# _framework density 15.066186999999999
#
# number of rings (size 3 to 8) (size 9 to 14) (size 15 to 20)
#    0.000    3.000    0.000    3.857    0.000    5.429 
#    0.000    0.714    0.000   15.429    0.000    1.000 
#    0.000    3.429    0.000    0.000    0.000    0.000 
#
# Total GULP energy -155931.708492 kJ/mol
# GULP energy per Si atom -5568.989589 kJ/mol
# Density = 1.503190 g / cm^3
# Si number density = 15.066187 Si / 1000 Ang^3
#
#
#
# Elastic Constant Matrix: (Units=GPa)
#
#
# Indices 1 2 3 4 5 6 
#
# 1 20.1825 23.4945 26.0013 0.0000 0.0000 0.0000
# 2 23.4945 107.5876 69.7563 0.0000 0.0000 0.0000
# 3 26.0013 69.7563 138.9973 0.0000 0.0000 0.0000
# 4 0.0000 0.0000 0.0000 23.1675 0.0000 0.0000
# 5 0.0000 0.0000 0.0000 0.0000 4.0778 0.0000
# 6 0.0000 0.0000 0.0000 0.0000 0.0000 7.4849
#
#
#
# Elastic Compliance Matrix: (Units=1/GPa)
#
#
# Indices 1 2 3 4 5 6 
#
# 1 0.072384 -0.010417 -0.008312 0.000000 0.000000 0.000000
# 2 -0.010417 0.015277 -0.005718 0.000000 0.000000 0.000000
# 3 -0.008312 -0.005718 0.011619 0.000000 0.000000 0.000000
# 4 0.000000 0.000000 0.000000 0.043164 0.000000 0.000000
# 5 0.000000 0.000000 0.000000 0.000000 0.245229 0.000000
# 6 0.000000 0.000000 0.000000 0.000000 0.000000 0.133603
#
#
# Mechanical properties :
#
#
# Convention : Reuss Voigt Hill
#
# Bulk Modulus (GPa) = 19.84758 56.14126 37.99442
# Shear Modulus (GPa) = 8.51838 16.78040 12.64939
#
# Velocity S-wave (km/s) = 2.38039 3.34095 2.90071
# Velocity P-wave (km/s) = 4.55601 7.22680 6.04085
#
# Compressibility (1/GPa) = 0.05038398
#
# Stress axis : x y z
#
# Youngs Moduli (GPa) = 13.81529 65.45731 86.06594
#
# Poissons Ratio (x) = 0.68189 0.71541
# Poissons Ratio (y) = 0.14392 0.49214
# Poissons Ratio (z) = 0.11484 0.37430
#
# Static dielectric constant tensor:
#      x y z
#    x 1.507750 0.000000 0.000000 
#    y 0.000000 1.491370 0.000000 
#    z 0.000000 0.000000 1.502330 
# 
# From -- ./inp_files/24630.got.cif
#   From: 2010.05.17/outbox.cif.g08.bks.cpg/sg38_13_cif.got.tgz:24630.got - 2010.06.03 18:07:57.
