data_PCOD9356617
_publ_section_title
;
Structure prediction by ZEFSAII (Michael W. Deem and Ramdas Pophale) SiO2 
 PCOD9356617
Probable space group: A M M 2
;
_chemical_formula_sum "Si O2"
_cell_formula_units_Z 64
_cell_length_a 21.035093
_cell_length_b 18.685211
_cell_length_c 7.130580
_cell_angle_alpha 90.000000
_cell_angle_beta 90.000000
_cell_angle_gamma 90.000000
_cell_volume 2802.639894
_symmetry_space_group_name_H-M "A M M 2"
_symmetry_group_IT_number 38
_symmetry_cell_setting 'orthorhombic'
loop_
_space_group_symop_operation_xyz
x,y,z
-x,-y,z
-x,y,z
x,-y,z
x,1/2+y,1/2+z
-x,1/2-y,1/2+z
-x,1/2+y,1/2+z
x,1/2-y,1/2+z
loop_
_atom_site_type_symbol
_atom_site_label
_atom_site_fract_x
_atom_site_fract_y
_atom_site_fract_z
Si Si1 0.810894 0.176600 0.383170
Si Si2 0.927243 0.418369 0.889808
Si Si3 0.428971 0.688306 0.588508
Si Si4 0.698900 0.420621 0.955328
Si Si5 0.428101 0.351345 0.025848
Si Si6 0.675470 0.918566 0.001441
Si Si7 0.068759 0.082859 0.934816
Si Si8 0.802779 0.655395 0.440189
O O1 0.877638 0.142615 0.449396
O O2 0.752445 0.138805 0.488055
O O3 0.802515 0.261425 0.388173
O O4 0.806732 0.154723 0.166176
O O5 0.907021 0.500000 0.938668
O O6 0.929690 0.416493 0.662235
O O7 0.000000 0.407871 0.954045
O O8 0.500000 0.685763 0.507102
O O9 0.431404 0.659350 0.800102
O O10 0.411552 0.771781 0.598528
O O11 0.380556 0.638828 0.476496
O O12 0.721516 0.500000 0.003768
O O13 0.631664 0.403156 0.052742
O O14 0.687139 0.419854 0.728509
O O15 0.500000 0.372305 0.085587
O O16 0.660378 0.000000 0.947985
O O17 0.739110 0.889521 0.903076
O O18 0.132232 0.120864 0.867633
O O19 0.000000 0.114204 0.880259
O O20 0.070202 0.000000 0.877913
#
# Coordination Sequence:
#
# PCOD9356617 Si02
#       8
#     8   8   8   8   8   8   8   8
#     4  10  19  30  46  67  90 116 145 179 219 260
#     4   8  14  26  45  67  88 112 146 184 216 250
#     4   9  17  29  46  67  90 116 144 176 216 260
#     4   9  17  29  46  67  88 112 147 187 219 250
#     4   9  17  29  46  67  90 116 144 176 216 260
#     4   9  17  29  46  67  88 112 147 187 219 250
#     4   8  14  26  45  67  88 112 146 184 216 250
#     4  10  19  30  46  67  90 116 145 179 219 260
#
# _framework density 22.835612000000001
#
# number of rings (size 3 to 8) (size 9 to 14) (size 15 to 20)
#    0.000    3.000    0.000    2.250    0.000    4.000 
#    0.000    2.500    0.000    5.250    0.000    5.250 
#    0.000    0.000    0.000    0.000    0.000    0.000 
#
# Total GULP energy -178755.816727 kJ/mol
# GULP energy per Si atom -5586.119273 kJ/mol
# Density = 2.278364 g / cm^3
# Si number density = 22.835612 Si / 1000 Ang^3
#
#
#
# Elastic Constant Matrix: (Units=GPa)
#
#
# Indices 1 2 3 4 5 6 
#
# 1 113.6987 75.6166 -26.3317 0.0000 0.0000 0.0000
# 2 75.6166 117.9269 -26.2856 0.0000 0.0000 0.0000
# 3 -26.3317 -26.2856 72.3683 0.0000 0.0000 0.0000
# 4 0.0000 0.0000 0.0000 15.2917 0.0000 0.0000
# 5 0.0000 0.0000 0.0000 0.0000 -14.3434 0.0000
# 6 0.0000 0.0000 0.0000 0.0000 0.0000 38.2130
#
#
#
# Elastic Compliance Matrix: (Units=1/GPa)
#
#
# Indices 1 2 3 4 5 6 
#
# 1 0.015659 -0.009543 0.002231 0.000000 0.000000 0.000000
# 2 -0.009543 0.015043 0.001992 0.000000 0.000000 0.000000
# 3 0.002231 0.001992 0.015353 0.000000 0.000000 0.000000
# 4 0.000000 0.000000 0.000000 0.065395 0.000000 0.000000
# 5 0.000000 0.000000 0.000000 0.000000 -0.069718 0.000000
# 6 0.000000 0.000000 0.000000 0.000000 0.000000 0.026169
#
#
# Mechanical properties :
#
#
# Convention : Reuss Voigt Hill
#
# Bulk Modulus (GPa) = 28.23728 38.88806 33.56267
# Shear Modulus (GPa) = 55.34232 26.56524 40.95378
#
# Velocity S-wave (km/s) = 4.92826 3.41446 4.23947
# Velocity P-wave (km/s) = 6.69148 5.71062 6.22041
#
# Compressibility (1/GPa) = 0.03541417
#
# Stress axis : x y z
#
# Youngs Moduli (GPa) = 63.86170 66.47573 65.13205
#
# Poissons Ratio (x) = 0.63440 -0.14533
# Poissons Ratio (y) = 0.60946 -0.12971
# Poissons Ratio (z) = -0.14249 -0.13239
#
# Static dielectric constant tensor:
#      x y z
#    x 1.846380 0.000000 0.000000 
#    y 0.000000 1.777460 0.000000 
#    z 0.000000 0.000000 1.931990 
# 
# From -- ./inp_files/6971.got.cif
#   From: 2010.05.17/outbox.cif.g08.bks.cpg/sg38_4_cif.got.tgz:6971.got - 2010.06.03 18:07:57.
