data_PCOD9356212
_publ_section_title
;
Structure prediction by ZEFSAII (Michael W. Deem and Ramdas Pophale) SiO2 
 PCOD9356212
Probable space group: A M M 2
;
_chemical_formula_sum "Si O2"
_cell_formula_units_Z 40
_cell_length_a 13.133772
_cell_length_b 9.009499
_cell_length_c 19.579490
_cell_angle_alpha 90.000000
_cell_angle_beta 90.000000
_cell_angle_gamma 90.000000
_cell_volume 2316.815710
_symmetry_space_group_name_H-M "A M M 2"
_symmetry_group_IT_number 38
_symmetry_cell_setting 'orthorhombic'
loop_
_space_group_symop_operation_xyz
x,y,z
-x,-y,z
-x,y,z
x,-y,z
x,1/2+y,1/2+z
-x,1/2-y,1/2+z
-x,1/2+y,1/2+z
x,1/2-y,1/2+z
loop_
_atom_site_type_symbol
_atom_site_label
_atom_site_fract_x
_atom_site_fract_y
_atom_site_fract_z
Si Si1 0.000000 0.823945 0.516760
Si Si2 0.000000 0.324399 0.370115
Si Si3 0.382375 0.324500 0.759186
Si Si4 0.789421 0.823325 0.020218
Si Si5 0.224471 0.174157 0.857318
Si Si6 0.381596 0.322867 0.112573
O O1 0.000000 0.778674 0.436645
O O2 0.895385 0.751901 0.543355
O O3 0.000000 0.000000 0.525704
O O4 0.107477 0.300451 0.333374
O O5 0.000000 0.500000 0.392485
O O6 0.500000 0.295312 0.779332
O O7 0.371987 0.500000 0.746915
O O8 0.304711 0.271013 0.816655
O O9 0.362827 0.237430 0.688874
O O10 0.695579 0.755238 0.061138
O O11 0.795776 0.000000 0.029925
O O12 0.775359 0.796776 0.938787
O O13 0.247941 0.000000 0.847272
O O14 0.500000 0.289293 0.095975
O O15 0.368244 0.500000 0.110629
#
# Coordination Sequence:
#
# PCOD9356212 Si02
#       6
#     4   4   8   8   8   8
#     4  10  18  30  51  78 107 138 173 213 259 307
#     4   8  16  32  51  74 105 138 169 207 259 311
#     4  10  21  36  53  74 103 138 174 214 261 312
#     4  10  20  35  55  79 108 140 175 214 258 311
#     4   9  18  33  54  78 104 135 171 211 254 304
#     4  10  21  37  56  77 103 136 175 219 266 315
#
# _framework density 17.265076000000001
#
# number of rings (size 3 to 8) (size 9 to 14) (size 15 to 20)
#    0.000    2.400    0.000    3.900    0.000    7.200 
#    0.000    5.000    0.000    1.200    0.000    0.000 
#    0.000    0.000    0.000    0.000    0.000    0.000 
#
# Total GULP energy -111536.200443 kJ/mol
# GULP energy per Si atom -5576.810022 kJ/mol
# Density = 1.722578 g / cm^3
# Si number density = 17.265076 Si / 1000 Ang^3
#
#
#
# Elastic Constant Matrix: (Units=GPa)
#
#
# Indices 1 2 3 4 5 6 
#
# 1 139.6807 85.2672 69.1903 0.0000 0.0000 0.0000
# 2 85.2672 95.6277 50.4045 0.0000 0.0000 0.0000
# 3 69.1903 50.4045 49.0167 0.0000 0.0000 0.0000
# 4 0.0000 0.0000 0.0000 31.6013 0.0000 0.0000
# 5 0.0000 0.0000 0.0000 0.0000 -68.4880 0.0000
# 6 0.0000 0.0000 0.0000 0.0000 0.0000 35.8254
#
#
#
# Elastic Compliance Matrix: (Units=1/GPa)
#
#
# Indices 1 2 3 4 5 6 
#
# 1 0.026693 -0.008605 -0.028831 0.000000 0.000000 0.000000
# 2 -0.008605 0.025607 -0.014186 0.000000 0.000000 0.000000
# 3 -0.028831 -0.014186 0.075685 0.000000 0.000000 0.000000
# 4 0.000000 0.000000 0.000000 0.031644 0.000000 0.000000
# 5 0.000000 0.000000 0.000000 0.000000 -0.014601 0.000000
# 6 0.000000 0.000000 0.000000 0.000000 0.000000 0.027913
#
#
# Mechanical properties :
#
#
# Convention : Reuss Voigt Hill
#
# Bulk Modulus (GPa) = 40.41602 77.11656 58.76629
# Shear Modulus (GPa) = 17.57895 5.08527 11.33211
#
# Velocity S-wave (km/s) = 3.19435 1.71808 2.56473
# Velocity P-wave (km/s) = 6.08811 6.97846 6.54844
#
# Compressibility (1/GPa) = 0.02474267
#
# Stress axis : x y z
#
# Youngs Moduli (GPa) = 37.46304 39.05201 13.21264
#
# Poissons Ratio (x) = 0.33603 0.38093
# Poissons Ratio (y) = 0.32236 0.18743
# Poissons Ratio (z) = 1.08008 0.55399
#
# Static dielectric constant tensor:
#      x y z
#    x 1.598290 0.000000 0.000000 
#    y 0.000000 1.571960 0.000000 
#    z 0.000000 0.000000 1.556590 
# 
# From -- ./inp_files/17472.got.cif
#   From: 2010.05.17/outbox.cif.g08.bks.cpg/sg38_9_cif.got.tgz:17472.got - 2010.06.03 18:07:57.
