data_PCOD9356995
_publ_section_title
;
Structure prediction by ZEFSAII (Michael W. Deem and Ramdas Pophale) SiO2 
 PCOD9356995
Probable space group: A M M 2
;
_chemical_formula_sum "Si O2"
_cell_formula_units_Z 64
_cell_length_a 14.666434
_cell_length_b 7.684063
_cell_length_c 26.536089
_cell_angle_alpha 90.000000
_cell_angle_beta 90.000000
_cell_angle_gamma 90.000000
_cell_volume 2990.558926
_symmetry_space_group_name_H-M "A M M 2"
_symmetry_group_IT_number 38
_symmetry_cell_setting 'orthorhombic'
loop_
_space_group_symop_operation_xyz
x,y,z
-x,-y,z
-x,y,z
x,-y,z
x,1/2+y,1/2+z
-x,1/2-y,1/2+z
-x,1/2+y,1/2+z
x,1/2-y,1/2+z
loop_
_atom_site_type_symbol
_atom_site_label
_atom_site_fract_x
_atom_site_fract_y
_atom_site_fract_z
Si Si1 0.395497 0.286098 0.940660
Si Si2 0.290074 0.792231 0.341914
Si Si3 0.604242 0.707682 0.240307
Si Si4 0.605540 0.205679 0.128670
Si Si5 0.104645 0.214149 0.588124
Si Si6 0.110459 0.302620 0.198193
Si Si7 0.101749 0.702704 0.809957
Si Si8 0.276706 0.798130 0.533586
O O1 0.500000 0.229695 0.945236
O O2 0.396896 0.500000 0.941257
O O3 0.350820 0.227945 0.888163
O O4 0.334652 0.224078 0.987558
O O5 0.338409 0.763338 0.288444
O O6 0.187194 0.719422 0.339570
O O7 0.282373 0.000000 0.348600
O O8 0.500000 0.775211 0.244686
O O9 0.601227 0.500000 0.240231
O O10 0.640340 0.763180 0.185495
O O11 0.500000 0.268634 0.127246
O O12 0.664261 0.290027 0.084692
O O13 0.605311 0.000000 0.119376
O O14 0.136885 0.272242 0.643989
O O15 0.177655 0.275779 0.547425
O O16 0.000000 0.266145 0.579312
O O17 0.105588 0.000000 0.590002
O O18 0.146002 0.500000 0.202814
O O19 0.128345 0.209969 0.250712
O O20 0.000000 0.311297 0.194551
O O21 0.094678 0.500000 0.823713
O O22 0.000000 0.780303 0.815449
O O23 0.261010 0.000000 0.520660
#
# Coordination Sequence:
#
# PCOD9356995 Si02
#       8
#     8   8   8   8   8   8   8   8
#     4   9  18  33  53  76 102 135 178 224 268 315
#     4  10  20  34  53  75 102 140 180 216 262 318
#     4  10  21  36  54  78 106 134 168 215 267 317
#     4  10  21  36  53  76 108 141 169 206 264 327
#     4   8  15  28  46  72 105 136 169 212 259 305
#     4   8  14  26  44  65  93 131 168 202 248 306
#     4   9  18  31  46  69 102 135 171 216 260 304
#     4  10  19  32  54  80 104 136 180 223 259 303
#
# _framework density 21.400682
#
# number of rings (size 3 to 8) (size 9 to 14) (size 15 to 20)
#    0.000    2.750    0.000    2.250    1.750    3.000 
#    0.000    1.250    0.000    6.375    0.000    0.000 
#    0.000    2.000    0.000    0.000    0.000    0.000 
#
# Total GULP energy -178575.344759 kJ/mol
# GULP energy per Si atom -5580.479524 kJ/mol
# Density = 2.135197 g / cm^3
# Si number density = 21.400682 Si / 1000 Ang^3
#
#
#
# Elastic Constant Matrix: (Units=GPa)
#
#
# Indices 1 2 3 4 5 6 
#
# 1 134.3179 -0.4144 62.0627 0.0000 0.0000 0.0000
# 2 -0.4144 38.6571 -9.8229 0.0000 0.0000 0.0000
# 3 62.0627 -9.8229 84.1432 0.0000 0.0000 0.0000
# 4 0.0000 0.0000 0.0000 12.9254 0.0000 0.0000
# 5 0.0000 0.0000 0.0000 0.0000 19.0199 0.0000
# 6 0.0000 0.0000 0.0000 0.0000 0.0000 4.6805
#
#
#
# Elastic Compliance Matrix: (Units=1/GPa)
#
#
# Indices 1 2 3 4 5 6 
#
# 1 0.011455 -0.002086 -0.008693 0.000000 0.000000 0.000000
# 2 -0.002086 0.027039 0.004695 0.000000 0.000000 0.000000
# 3 -0.008693 0.004695 0.018844 0.000000 0.000000 0.000000
# 4 0.000000 0.000000 0.000000 0.077367 0.000000 0.000000
# 5 0.000000 0.000000 0.000000 0.000000 0.052577 0.000000
# 6 0.000000 0.000000 0.000000 0.000000 0.000000 0.213653
#
#
# Mechanical properties :
#
#
# Convention : Reuss Voigt Hill
#
# Bulk Modulus (GPa) = 22.13784 40.08542 31.11163
# Shear Modulus (GPa) = 11.67790 21.01133 16.34462
#
# Velocity S-wave (km/s) = 2.33851 3.13678 2.76659
# Velocity P-wave (km/s) = 4.20219 5.64719 4.97741
#
# Compressibility (1/GPa) = 0.04517153
#
# Stress axis : x y z
#
# Youngs Moduli (GPa) = 87.29755 36.98335 53.06687
#
# Poissons Ratio (x) = 0.07715 0.46129
# Poissons Ratio (y) = 0.18210 -0.24916
# Poissons Ratio (z) = 0.75884 -0.17364
#
# Static dielectric constant tensor:
#      x y z
#    x 1.818220 0.000000 0.000000 
#    y 0.000000 1.843990 0.000000 
#    z 0.000000 0.000000 1.747580 
# 
# From -- ./inp_files/22965.got.cif
#   From: 2010.05.17/outbox.cif.g08.bks.cpg/sg38_12_cif.got.tgz:22965.got - 2010.06.03 18:07:57.
