data_PCOD9356914
_publ_section_title
;
Structure prediction by ZEFSAII (Michael W. Deem and Ramdas Pophale) SiO2 
 PCOD9356914
Probable space group: A M M 2
;
_chemical_formula_sum "Si O2"
_cell_formula_units_Z 40
_cell_length_a 13.392803
_cell_length_b 8.426525
_cell_length_c 20.167889
_cell_angle_alpha 90.000000
_cell_angle_beta 90.000000
_cell_angle_gamma 90.000000
_cell_volume 2276.042864
_symmetry_space_group_name_H-M "A M M 2"
_symmetry_group_IT_number 38
_symmetry_cell_setting 'orthorhombic'
loop_
_space_group_symop_operation_xyz
x,y,z
-x,-y,z
-x,y,z
x,-y,z
x,1/2+y,1/2+z
-x,1/2-y,1/2+z
-x,1/2+y,1/2+z
x,1/2-y,1/2+z
loop_
_atom_site_type_symbol
_atom_site_label
_atom_site_fract_x
_atom_site_fract_y
_atom_site_fract_z
Si Si1 0.279752 0.189324 0.921630
Si Si2 0.717229 0.806940 0.572735
Si Si3 0.500000 0.191320 0.929779
Si Si4 0.113345 0.308439 0.174111
Si Si5 0.500000 0.687166 0.078763
Si Si6 0.113716 0.689560 0.821300
O O1 0.393061 0.229978 0.897617
O O2 0.194230 0.257514 0.875016
O O3 0.271526 0.000000 0.921739
O O4 0.270249 0.249297 0.997301
O O5 0.806585 0.753475 0.620129
O O6 0.608686 0.750605 0.599866
O O7 0.716115 0.000000 0.571436
O O8 0.500000 0.000000 0.942279
O O9 0.500000 0.282067 0.999769
O O10 0.113375 0.500000 0.172891
O O11 0.138894 0.254841 0.248378
O O12 0.000000 0.254032 0.159708
O O13 0.500000 0.500000 0.093126
O O14 0.112754 0.500000 0.818425
O O15 0.000000 0.743806 0.837225
#
# Coordination Sequence:
#
# PCOD9356914 Si02
#       6
#     8   8   4   8   4   8
#     4  10  19  32  52  76 101 129 163 202 242 288
#     4   9  17  30  49  73  99 127 160 198 239 284
#     4   8  16  30  47  70  99 129 159 195 241 286
#     4   9  18  33  51  69  93 127 163 199 242 290
#     4   8  14  26  45  68  95 127 159 191 233 284
#     4  10  21  36  52  70  96 130 166 205 248 292
#
# _framework density 17.574363000000002
#
# number of rings (size 3 to 8) (size 9 to 14) (size 15 to 20)
#    0.000    2.800    0.000    1.200    0.000    3.600 
#    0.000    3.000    0.000    3.600    0.000    0.000 
#    0.000    0.000    0.000    0.000    0.000    0.000 
#
# Total GULP energy -111377.205052 kJ/mol
# GULP energy per Si atom -5568.860253 kJ/mol
# Density = 1.753436 g / cm^3
# Si number density = 17.574363 Si / 1000 Ang^3
#
#
#
# Elastic Constant Matrix: (Units=GPa)
#
#
# Indices 1 2 3 4 5 6 
#
# 1 165.0333 19.9319 100.1407 0.0000 0.0000 0.0000
# 2 19.9319 9.6779 11.4704 0.0000 0.0000 0.0000
# 3 100.1407 11.4704 85.9225 0.0000 0.0000 0.0000
# 4 0.0000 0.0000 0.0000 25.3038 0.0000 0.0000
# 5 0.0000 0.0000 0.0000 0.0000 -18.8816 0.0000
# 6 0.0000 0.0000 0.0000 0.0000 0.0000 18.3169
#
#
#
# Elastic Compliance Matrix: (Units=1/GPa)
#
#
# Indices 1 2 3 4 5 6 
#
# 1 0.023238 -0.018722 -0.024584 0.000000 0.000000 0.000000
# 2 -0.018722 0.137833 0.003419 0.000000 0.000000 0.000000
# 3 -0.024584 0.003419 0.039834 0.000000 0.000000 0.000000
# 4 0.000000 0.000000 0.000000 0.039520 0.000000 0.000000
# 5 0.000000 0.000000 0.000000 0.000000 -0.052961 0.000000
# 6 0.000000 0.000000 0.000000 0.000000 0.000000 0.054594
#
#
# Mechanical properties :
#
#
# Convention : Reuss Voigt Hill
#
# Bulk Modulus (GPa) = 8.25542 58.19106 33.22324
# Shear Modulus (GPa) = 13.80428 13.55386 13.67907
#
# Velocity S-wave (km/s) = 2.80568 2.78011 2.79293
# Velocity P-wave (km/s) = 3.89915 6.59459 5.41719
#
# Compressibility (1/GPa) = 0.12113252
#
# Stress axis : x y z
#
# Youngs Moduli (GPa) = 43.03367 7.25515 25.10441
#
# Poissons Ratio (x) = 0.13583 0.61716
# Poissons Ratio (y) = 0.80566 -0.08584
# Poissons Ratio (z) = 1.05792 -0.02481
#
# Static dielectric constant tensor:
#      x y z
#    x 1.656060 0.000000 0.000000 
#    y 0.000000 1.601740 0.000000 
#    z 0.000000 0.000000 1.545810 
# 
# From -- ./inp_files/14297.got.cif
#   From: 2010.05.17/outbox.cif.g08.bks.cpg/sg38_8_cif.got.tgz:14297.got - 2010.06.03 18:07:57.
