data_PCOD9356760
_publ_section_title
;
Structure prediction by ZEFSAII (Michael W. Deem and Ramdas Pophale) SiO2 
 PCOD9356760
Probable space group: A M M 2
;
_chemical_formula_sum "Si O2"
_cell_formula_units_Z 48
_cell_length_a 19.764017
_cell_length_b 7.460191
_cell_length_c 15.623710
_cell_angle_alpha 90.000000
_cell_angle_beta 90.000000
_cell_angle_gamma 90.000000
_cell_volume 2303.612013
_symmetry_space_group_name_H-M "A M M 2"
_symmetry_group_IT_number 38
_symmetry_cell_setting 'orthorhombic'
loop_
_space_group_symop_operation_xyz
x,y,z
-x,-y,z
-x,y,z
x,-y,z
x,1/2+y,1/2+z
-x,1/2-y,1/2+z
-x,1/2+y,1/2+z
x,1/2-y,1/2+z
loop_
_atom_site_type_symbol
_atom_site_label
_atom_site_fract_x
_atom_site_fract_y
_atom_site_fract_z
Si Si1 0.076591 0.285807 0.589570
Si Si2 0.577144 0.281066 0.905160
Si Si3 0.076439 0.214334 0.392855
Si Si4 0.827070 0.279864 0.740836
Si Si5 0.576702 0.283794 0.100369
Si Si6 0.674376 0.289680 0.756405
O O1 0.073069 0.500000 0.600411
O O2 0.094943 0.250873 0.491102
O O3 0.131377 0.219858 0.657310
O O4 0.000000 0.216078 0.604104
O O5 0.500000 0.226420 0.884489
O O6 0.577301 0.500000 0.903880
O O7 0.592207 0.226776 0.002933
O O8 0.630353 0.215276 0.835193
O O9 0.130489 0.278110 0.323965
O O10 0.000000 0.284046 0.378265
O O11 0.073153 0.000000 0.382850
O O12 0.826066 0.500000 0.739170
O O13 0.749808 0.216742 0.744513
O O14 0.500000 0.223810 0.121479
O O15 0.576103 0.500000 0.100435
O O16 0.630359 0.225582 0.170515
O O17 0.682899 0.500000 0.775413
#
# Coordination Sequence:
#
# PCOD9356760 Si02
#       6
#     8   8   8   8   8   8
#     4   9  17  31  50  69  92 125 161 195 235 282
#     4   8  15  29  48  67  88 118 153 186 225 275
#     4   9  17  31  51  72  93 121 161 203 235 270
#     4   9  18  31  47  69  97 128 157 188 235 289
#     4   9  18  33  51  70  94 124 156 191 235 284
#     4  10  19  31  49  72  96 123 158 196 231 276
#
# _framework density 20.836843999999999
#
# number of rings (size 3 to 8) (size 9 to 14) (size 15 to 20)
#    0.000    3.000    0.000    2.000    0.000    4.333 
#    0.000    5.000    0.000    5.000    0.000    0.000 
#    0.000    0.000    0.000    0.000    0.000    0.000 
#
# Total GULP energy -133955.116101 kJ/mol
# GULP energy per Si atom -5581.463171 kJ/mol
# Density = 2.078942 g / cm^3
# Si number density = 20.836844 Si / 1000 Ang^3
#
#
#
# Elastic Constant Matrix: (Units=GPa)
#
#
# Indices 1 2 3 4 5 6 
#
# 1 197.0695 1.8765 154.2807 0.0000 0.0000 0.0000
# 2 1.8765 58.3865 -6.9161 0.0000 0.0000 0.0000
# 3 154.2807 -6.9161 164.0857 0.0000 0.0000 0.0000
# 4 0.0000 0.0000 0.0000 19.9217 0.0000 0.0000
# 5 0.0000 0.0000 0.0000 0.0000 9.0729 0.0000
# 6 0.0000 0.0000 0.0000 0.0000 0.0000 5.9065
#
#
#
# Elastic Compliance Matrix: (Units=1/GPa)
#
#
# Indices 1 2 3 4 5 6 
#
# 1 0.019685 -0.002839 -0.018629 0.000000 0.000000 0.000000
# 2 -0.002839 0.017623 0.003412 0.000000 0.000000 0.000000
# 3 -0.018629 0.003412 0.023754 0.000000 0.000000 0.000000
# 4 0.000000 0.000000 0.000000 0.050197 0.000000 0.000000
# 5 0.000000 0.000000 0.000000 0.000000 0.110219 0.000000
# 6 0.000000 0.000000 0.000000 0.000000 0.000000 0.169304
#
#
# Mechanical properties :
#
#
# Convention : Reuss Voigt Hill
#
# Bulk Modulus (GPa) = 40.07916 79.78044 59.92980
# Shear Modulus (GPa) = 11.48873 25.00025 18.24449
#
# Velocity S-wave (km/s) = 2.35067 3.46759 2.96224
# Velocity P-wave (km/s) = 5.16178 7.37587 6.36583
#
# Compressibility (1/GPa) = 0.02495062
#
# Stress axis : x y z
#
# Youngs Moduli (GPa) = 50.79933 56.74497 42.09868
#
# Poissons Ratio (x) = 0.16112 0.78424
# Poissons Ratio (y) = 0.14424 -0.14366
# Poissons Ratio (z) = 0.94632 -0.19364
#
# Static dielectric constant tensor:
#      x y z
#    x 1.724140 0.000000 0.000000 
#    y 0.000000 1.800880 0.000000 
#    z 0.000000 0.000000 1.710520 
# 
# From -- ./inp_files/10476.got.cif
#   From: 2010.05.17/outbox.cif.g08.bks.cpg/sg38_6_cif.got.tgz:10476.got - 2010.06.03 18:07:57.
