data_PCOD9356137
_publ_section_title
;
Structure prediction by ZEFSAII (Michael W. Deem and Ramdas Pophale) SiO2 
 PCOD9356137
Probable space group: A M M 2
;
_chemical_formula_sum "Si O2"
_cell_formula_units_Z 64
_cell_length_a 18.710647
_cell_length_b 8.868546
_cell_length_c 21.431999
_cell_angle_alpha 90.000000
_cell_angle_beta 90.000000
_cell_angle_gamma 90.000000
_cell_volume 3556.345193
_symmetry_space_group_name_H-M "A M M 2"
_symmetry_group_IT_number 38
_symmetry_cell_setting 'orthorhombic'
loop_
_space_group_symop_operation_xyz
x,y,z
-x,-y,z
-x,y,z
x,-y,z
x,1/2+y,1/2+z
-x,1/2-y,1/2+z
-x,1/2+y,1/2+z
x,1/2-y,1/2+z
loop_
_atom_site_type_symbol
_atom_site_label
_atom_site_fract_x
_atom_site_fract_y
_atom_site_fract_z
Si Si1 0.338238 0.181567 0.724020
Si Si2 0.414998 0.822295 0.342245
Si Si3 0.167863 0.173399 0.597050
Si Si4 0.081496 0.683606 0.839802
Si Si5 0.330926 0.320767 0.457323
Si Si6 0.180215 0.319960 0.724441
Si Si7 0.827356 0.682896 0.959896
Si Si8 0.658690 0.326226 0.085968
O O1 0.385464 0.245751 0.779589
O O2 0.257749 0.243714 0.731708
O O3 0.365600 0.225807 0.654577
O O4 0.336117 0.000000 0.725376
O O5 0.500000 0.804466 0.346122
O O6 0.377615 0.748246 0.401984
O O7 0.397668 0.000000 0.340851
O O8 0.149974 0.272412 0.656897
O O9 0.142915 0.223824 0.528549
O O10 0.254577 0.174695 0.591213
O O11 0.146208 0.000000 0.607895
O O12 0.079997 0.500000 0.839392
O O13 0.128162 0.729416 0.780107
O O14 0.121318 0.727453 0.903476
O O15 0.000000 0.736949 0.837051
O O16 0.329066 0.500000 0.453045
O O17 0.250602 0.255069 0.451532
O O18 0.359614 0.270157 0.525373
O O19 0.189063 0.500000 0.727122
O O20 0.819002 0.500000 0.959898
O O21 0.636722 0.500000 0.075941
#
# Coordination Sequence:
#
# PCOD9356137 Si02
#       8
#     8   8   8   8   8   8   8   8
#     4  10  20  35  57  82 107 135 169 213 260 307
#     4  11  24  40  56  75 104 141 177 213 254 303
#     4   8  15  28  47  73 102 129 161 206 257 304
#     4   9  18  32  49  70  96 130 174 216 252 297
#     4  11  21  33  55  83 108 135 170 214 258 305
#     4  10  18  29  51  78 102 132 168 208 254 305
#     4   9  17  32  54  75  98 131 170 213 257 302
#     4   8  16  32  53  78 107 136 167 207 256 306
#
# _framework density 17.996002000000001
#
# number of rings (size 3 to 8) (size 9 to 14) (size 15 to 20)
#    0.000    2.500    0.000    4.500    0.000    7.000 
#    0.000    1.875    0.000    4.875    0.000    0.000 
#    0.000    0.000    0.000    0.000    0.000    0.000 
#
# Total GULP energy -178473.244315 kJ/mol
# GULP energy per Si atom -5577.288885 kJ/mol
# Density = 1.795504 g / cm^3
# Si number density = 17.996002 Si / 1000 Ang^3
#
#
#
# Elastic Constant Matrix: (Units=GPa)
#
#
# Indices 1 2 3 4 5 6 
#
# 1 28.4867 17.1880 19.6531 0.0000 0.0000 0.0000
# 2 17.1880 40.7592 16.8642 0.0000 0.0000 0.0000
# 3 19.6531 16.8642 96.7943 0.0000 0.0000 0.0000
# 4 0.0000 0.0000 0.0000 29.7837 0.0000 0.0000
# 5 0.0000 0.0000 0.0000 0.0000 -6.6840 0.0000
# 6 0.0000 0.0000 0.0000 0.0000 0.0000 9.7715
#
#
#
# Elastic Compliance Matrix: (Units=1/GPa)
#
#
# Indices 1 2 3 4 5 6 
#
# 1 0.051315 -0.018675 -0.007165 0.000000 0.000000 0.000000
# 2 -0.018675 0.033237 -0.001999 0.000000 0.000000 0.000000
# 3 -0.007165 -0.001999 0.012134 0.000000 0.000000 0.000000
# 4 0.000000 0.000000 0.000000 0.033575 0.000000 0.000000
# 5 0.000000 0.000000 0.000000 0.000000 -0.149611 0.000000
# 6 0.000000 0.000000 0.000000 0.000000 0.000000 0.102339
#
#
# Mechanical properties :
#
#
# Convention : Reuss Voigt Hill
#
# Bulk Modulus (GPa) = 24.38558 30.38343 27.38450
# Shear Modulus (GPa) = 32.82193 14.06322 23.44258
#
# Velocity S-wave (km/s) = 4.27528 2.79850 3.61315
# Velocity P-wave (km/s) = 6.16041 5.23089 5.71458
#
# Compressibility (1/GPa) = 0.04100784
#
# Stress axis : x y z
#
# Youngs Moduli (GPa) = 19.48732 30.08740 82.41083
#
# Poissons Ratio (x) = 0.56188 0.59051
# Poissons Ratio (y) = 0.36392 0.16474
# Poissons Ratio (z) = 0.13963 0.06014
#
# Static dielectric constant tensor:
#      x y z
#    x 1.585830 0.000000 0.000000 
#    y 0.000000 1.605600 0.000000 
#    z 0.000000 0.000000 1.640530 
# 
# From -- ./inp_files/21366.got.cif
#   From: 2010.05.17/outbox.cif.g08.bks.cpg/sg38_11_cif.got.tgz:21366.got - 2010.06.03 18:07:57.
