data_PCOD9356068
_publ_section_title
;
Structure prediction by ZEFSAII (Michael W. Deem and Ramdas Pophale) SiO2 
 PCOD9356068
Probable space group: A M M 2
;
_chemical_formula_sum "Si O2"
_cell_formula_units_Z 64
_cell_length_a 7.643361
_cell_length_b 19.346863
_cell_length_c 22.406956
_cell_angle_alpha 90.000000
_cell_angle_beta 90.000000
_cell_angle_gamma 90.000000
_cell_volume 3313.429921
_symmetry_space_group_name_H-M "A M M 2"
_symmetry_group_IT_number 38
_symmetry_cell_setting 'orthorhombic'
loop_
_space_group_symop_operation_xyz
x,y,z
-x,-y,z
-x,y,z
x,-y,z
x,1/2+y,1/2+z
-x,1/2-y,1/2+z
-x,1/2+y,1/2+z
x,1/2-y,1/2+z
loop_
_atom_site_type_symbol
_atom_site_label
_atom_site_fract_x
_atom_site_fract_y
_atom_site_fract_z
Si Si1 0.196516 0.186566 0.444900
Si Si2 0.709892 0.424823 0.712539
Si Si3 0.293838 0.075295 0.799461
Si Si4 0.788556 0.627724 0.169346
Si Si5 0.785264 0.422161 0.039783
Si Si6 0.208883 0.273166 0.716680
Si Si7 0.709702 0.077110 0.350995
Si Si8 0.206304 0.723689 0.344909
O O1 0.277528 0.140899 0.497932
O O2 0.192823 0.131153 0.391261
O O3 0.280536 0.250382 0.408442
O O4 0.000000 0.206197 0.464834
O O5 0.500000 0.427899 0.711486
O O6 0.772989 0.500000 0.688646
O O7 0.756606 0.348653 0.689513
O O8 0.764874 0.421458 0.782041
O O9 0.500000 0.074970 0.810859
O O10 0.266368 0.087739 0.728869
O O11 0.221389 0.142450 0.832601
O O12 0.220825 0.000000 0.815769
O O13 0.731731 0.593766 0.107665
O O14 0.729404 0.707327 0.178428
O O15 0.000000 0.627392 0.168457
O O16 0.729640 0.500000 0.022694
O O17 0.000000 0.421706 0.036639
O O18 0.278695 0.261537 0.784840
O O19 0.000000 0.266509 0.721507
O O20 0.500000 0.089619 0.353239
O O21 0.742121 0.000000 0.373642
O O22 0.000000 0.739867 0.347787
#
# Coordination Sequence:
#
# PCOD9356068 Si02
#       8
#     8   8   8   8   8   8   8   8
#     4  10  18  29  45  66  91 119 157 194 220 259
#     4   9  17  27  39  58  85 116 148 180 219 271
#     4  10  20  32  48  71  94 117 150 193 237 278
#     4   9  18  32  49  68  93 124 158 192 230 277
#     4   9  17  29  47  70  94 125 161 191 222 263
#     4   9  16  27  42  63  88 115 149 188 229 269
#     4   9  17  27  38  56  85 121 154 180 216 264
#     4   9  18  30  44  66  94 121 149 185 231 280
#
# _framework density 19.315331
#
# number of rings (size 3 to 8) (size 9 to 14) (size 15 to 20)
#    0.000    2.750    1.250    2.625    0.000    5.000 
#    0.000    1.875    0.000    2.250    0.000    0.875 
#    0.000    7.000    0.000    0.000    0.000    0.000 
#
# Total GULP energy -178221.164242 kJ/mol
# GULP energy per Si atom -5569.411383 kJ/mol
# Density = 1.927137 g / cm^3
# Si number density = 19.315331 Si / 1000 Ang^3
#
#
#
# Elastic Constant Matrix: (Units=GPa)
#
#
# Indices 1 2 3 4 5 6 
#
# 1 33.1134 1.6431 0.9049 0.0000 0.0000 0.0000
# 2 1.6431 141.7313 31.6995 0.0000 0.0000 0.0000
# 3 0.9049 31.6995 59.9357 0.0000 0.0000 0.0000
# 4 0.0000 0.0000 0.0000 24.4877 0.0000 0.0000
# 5 0.0000 0.0000 0.0000 0.0000 -5.6794 0.0000
# 6 0.0000 0.0000 0.0000 0.0000 0.0000 20.3892
#
#
#
# Elastic Compliance Matrix: (Units=1/GPa)
#
#
# Indices 1 2 3 4 5 6 
#
# 1 0.030222 -0.000282 -0.000307 0.000000 0.000000 0.000000
# 2 -0.000282 0.008005 -0.004229 0.000000 0.000000 0.000000
# 3 -0.000307 -0.004229 0.018926 0.000000 0.000000 0.000000
# 4 0.000000 0.000000 0.000000 0.040837 0.000000 0.000000
# 5 0.000000 0.000000 0.000000 0.000000 -0.176073 0.000000
# 6 0.000000 0.000000 0.000000 0.000000 0.000000 0.049046
#
#
# Mechanical properties :
#
#
# Convention : Reuss Voigt Hill
#
# Bulk Modulus (GPa) = 21.04565 33.69727 27.37146
# Shear Modulus (GPa) = -1403.23518 21.20836 -691.01341
#
# Velocity S-wave (km/s) = -26.98268 3.31721 -18.93490
# Velocity P-wave (km/s) = 30.98118 5.67059 21.53692
#
# Compressibility (1/GPa) = 0.04751575
#
# Stress axis : x y z
#
# Youngs Moduli (GPa) = 33.08890 124.92471 52.83713
#
# Poissons Ratio (x) = 0.03518 0.01624
# Poissons Ratio (y) = 0.00932 0.22347
# Poissons Ratio (z) = 0.01017 0.52836
#
# Static dielectric constant tensor:
#      x y z
#    x 1.720000 0.000000 0.000000 
#    y 0.000000 1.768910 0.000000 
#    z 0.000000 0.000000 1.672800 
# 
# From -- ./inp_files/22258.got.cif
#   From: 2010.05.17/outbox.cif.g08.bks.cpg/sg38_12_cif.got.tgz:22258.got - 2010.06.03 18:07:57.
