data_PCOD9356050
_publ_section_title
;
Structure prediction by ZEFSAII (Michael W. Deem and Ramdas Pophale) SiO2 
 PCOD9356050
Probable space group: A M M 2
;
_chemical_formula_sum "Si O2"
_cell_formula_units_Z 64
_cell_length_a 7.861078
_cell_length_b 15.150390
_cell_length_c 28.915226
_cell_angle_alpha 90.000000
_cell_angle_beta 90.000000
_cell_angle_gamma 90.000000
_cell_volume 3443.757081
_symmetry_space_group_name_H-M "A M M 2"
_symmetry_group_IT_number 38
_symmetry_cell_setting 'orthorhombic'
loop_
_space_group_symop_operation_xyz
x,y,z
-x,-y,z
-x,y,z
x,-y,z
x,1/2+y,1/2+z
-x,1/2-y,1/2+z
-x,1/2+y,1/2+z
x,1/2-y,1/2+z
loop_
_atom_site_type_symbol
_atom_site_label
_atom_site_fract_x
_atom_site_fract_y
_atom_site_fract_z
Si Si1 0.203767 0.099366 0.680110
Si Si2 0.705466 0.897311 0.844643
Si Si3 0.297414 0.599467 0.075089
Si Si4 0.798259 0.222994 0.490852
Si Si5 0.201050 0.724792 0.259666
Si Si6 0.704009 0.900821 0.949266
Si Si7 0.792593 0.600610 0.908849
Si Si8 0.791755 0.099830 0.303169
O O1 0.236238 0.121655 0.626701
O O2 0.273668 0.169704 0.716681
O O3 0.000000 0.095386 0.686601
O O4 0.271398 0.000000 0.688411
O O5 0.500000 0.890572 0.843193
O O6 0.778480 0.833573 0.805871
O O7 0.749615 0.000000 0.835441
O O8 0.763814 0.876699 0.897114
O O9 0.500000 0.594784 0.076481
O O10 0.231836 0.500000 0.063458
O O11 0.249584 0.671516 0.037186
O O12 0.747504 0.324510 0.485103
O O13 0.727018 0.168520 0.446852
O O14 0.000000 0.219772 0.487432
O O15 0.270831 0.822042 0.270382
O O16 0.000000 0.736092 0.250921
O O17 0.500000 0.905446 0.946460
O O18 0.766153 0.000000 0.960101
O O19 0.743053 0.500000 0.920489
O O20 0.739459 0.619175 0.856211
O O21 0.000000 0.602804 0.908980
O O22 0.000000 0.100475 0.302967
O O23 0.739025 0.000000 0.291540
#
# Coordination Sequence:
#
# PCOD9356050 Si02
#       8
#     8   8   8   8   8   8   8   8
#     4   9  18  32  48  68  95 123 153 197 252 299
#     4   9  18  31  46  67  98 134 166 196 236 286
#     4  10  21  36  53  73  97 126 160 196 238 296
#     4  11  20  30  50  76  99 125 160 203 248 293
#     4  10  18  28  47  73  97 124 162 205 247 290
#     4   9  19  35  50  66  96 136 171 203 240 284
#     4   8  14  24  39  64  98 130 156 184 225 278
#     4   8  14  25  41  64  96 129 158 189 226 271
#
# _framework density 18.584354000000001
#
# number of rings (size 3 to 8) (size 9 to 14) (size 15 to 20)
#    0.000    2.750    0.000    3.750    0.000    4.250 
#    0.000    2.500    0.000    1.125    0.000    5.250 
#    0.000    0.000    0.000    0.000    0.000    0.000 
#
# Total GULP energy -178488.568665 kJ/mol
# GULP energy per Si atom -5577.767771 kJ/mol
# Density = 1.854205 g / cm^3
# Si number density = 18.584354 Si / 1000 Ang^3
#
#
#
# Elastic Constant Matrix: (Units=GPa)
#
#
# Indices 1 2 3 4 5 6 
#
# 1 18.7803 2.3688 2.8888 0.0000 0.0000 0.0000
# 2 2.3688 142.2008 107.6393 0.0000 0.0000 0.0000
# 3 2.8888 107.6393 109.3379 0.0000 0.0000 0.0000
# 4 0.0000 0.0000 0.0000 33.5269 0.0000 0.0000
# 5 0.0000 0.0000 0.0000 0.0000 9.2917 0.0000
# 6 0.0000 0.0000 0.0000 0.0000 0.0000 10.0816
#
#
#
# Elastic Compliance Matrix: (Units=1/GPa)
#
#
# Indices 1 2 3 4 5 6 
#
# 1 0.053482 0.000701 -0.002103 0.000000 0.000000 0.000000
# 2 0.000701 0.027608 -0.027197 0.000000 0.000000 0.000000
# 3 -0.002103 -0.027197 0.035977 0.000000 0.000000 0.000000
# 4 0.000000 0.000000 0.000000 0.029827 0.000000 0.000000
# 5 0.000000 0.000000 0.000000 0.000000 0.107623 0.000000
# 6 0.000000 0.000000 0.000000 0.000000 0.000000 0.099190
#
#
# Mechanical properties :
#
#
# Convention : Reuss Voigt Hill
#
# Bulk Modulus (GPa) = 16.70358 55.12366 35.91362
# Shear Modulus (GPa) = 11.60465 21.07486 16.33975
#
# Velocity S-wave (km/s) = 2.50157 3.37116 2.96838
# Velocity P-wave (km/s) = 4.16549 6.69916 5.57808
#
# Compressibility (1/GPa) = 0.05986739
#
# Stress axis : x y z
#
# Youngs Moduli (GPa) = 18.69778 36.22158 27.79592
#
# Poissons Ratio (x) = -0.02540 0.05846
# Poissons Ratio (y) = -0.01311 0.75598
# Poissons Ratio (z) = 0.03933 0.98514
#
# Static dielectric constant tensor:
#      x y z
#    x 1.666390 0.000000 0.000000 
#    y 0.000000 1.660240 0.000000 
#    z 0.000000 0.000000 1.635330 
# 
# From -- ./inp_files/22174.got.cif
#   From: 2010.05.17/outbox.cif.g08.bks.cpg/sg38_12_cif.got.tgz:22174.got - 2010.06.03 18:07:57.
