data_PCOD9356459
_publ_section_title
;
Structure prediction by ZEFSAII (Michael W. Deem and Ramdas Pophale) SiO2 
 PCOD9356459
Probable space group: A M M 2
;
_chemical_formula_sum "Si O2"
_cell_formula_units_Z 40
_cell_length_a 8.407124
_cell_length_b 29.460301
_cell_length_c 8.086243
_cell_angle_alpha 90.000000
_cell_angle_beta 90.000000
_cell_angle_gamma 90.000000
_cell_volume 2002.771585
_symmetry_space_group_name_H-M "A M M 2"
_symmetry_group_IT_number 38
_symmetry_cell_setting 'orthorhombic'
loop_
_space_group_symop_operation_xyz
x,y,z
-x,-y,z
-x,y,z
x,-y,z
x,1/2+y,1/2+z
-x,1/2-y,1/2+z
-x,1/2+y,1/2+z
x,1/2-y,1/2+z
loop_
_atom_site_type_symbol
_atom_site_label
_atom_site_fract_x
_atom_site_fract_y
_atom_site_fract_z
Si Si1 0.810345 0.392146 0.640920
Si Si2 0.690340 0.104367 0.787203
Si Si3 0.307693 0.298770 0.769065
Si Si4 0.693722 0.199748 0.649966
Si Si5 0.192377 0.552434 0.963469
O O1 0.750040 0.410914 0.466236
O O2 0.755019 0.340175 0.661132
O O3 0.751569 0.419615 0.802272
O O4 0.000000 0.393879 0.641455
O O5 0.500000 0.104599 0.788326
O O6 0.747085 0.156196 0.753409
O O7 0.747623 0.074689 0.632832
O O8 0.500000 0.299288 0.759781
O O9 0.253015 0.248888 0.713264
O O10 0.260147 0.306492 0.959169
O O11 0.500000 0.200379 0.656058
O O12 0.241554 0.500000 0.952113
O O13 0.000000 0.554031 0.964861
#
# Coordination Sequence:
#
# PCOD9356459 Si02
#       5
#     8   8   8   8   8
#     4  11  23  39  60  89 124 163 204 249 303 368
#     4  11  22  39  64  93 123 158 203 258 307 359
#     4  10  18  34  57  84 118 160 206 249 298 362
#     4   9  18  32  56  86 119 158 202 249 304 362
#     4  10  23  44  66  87 119 163 206 252 310 370
#
# _framework density 19.972325000000001
#
# number of rings (size 3 to 8) (size 9 to 14) (size 15 to 20)
#    0.000    1.800    2.000    2.400    0.000    5.200 
#    0.000    7.000    0.000    0.000    0.000    0.000 
#    0.000    0.000    0.000    0.000    0.000    0.000 
#
# Total GULP energy -111737.745288 kJ/mol
# GULP energy per Si atom -5586.887264 kJ/mol
# Density = 1.992687 g / cm^3
# Si number density = 19.972325 Si / 1000 Ang^3
#
#
#
# Elastic Constant Matrix: (Units=GPa)
#
#
# Indices 1 2 3 4 5 6 
#
# 1 17.7583 16.1437 19.0142 0.0000 0.0000 0.0000
# 2 16.1437 111.5822 50.7353 0.0000 0.0000 0.0000
# 3 19.0142 50.7353 155.1823 0.0000 0.0000 0.0000
# 4 0.0000 0.0000 0.0000 26.4996 0.0000 0.0000
# 5 0.0000 0.0000 0.0000 0.0000 29.8220 0.0000
# 6 0.0000 0.0000 0.0000 0.0000 0.0000 24.6459
#
#
#
# Elastic Compliance Matrix: (Units=1/GPa)
#
#
# Indices 1 2 3 4 5 6 
#
# 1 0.069488 -0.007262 -0.006140 0.000000 0.000000 0.000000
# 2 -0.007262 0.011286 -0.002800 0.000000 0.000000 0.000000
# 3 -0.006140 -0.002800 0.008112 0.000000 0.000000 0.000000
# 4 0.000000 0.000000 0.000000 0.037736 0.000000 0.000000
# 5 0.000000 0.000000 0.000000 0.000000 0.033532 0.000000
# 6 0.000000 0.000000 0.000000 0.000000 0.000000 0.040575
#
#
# Mechanical properties :
#
#
# Convention : Reuss Voigt Hill
#
# Bulk Modulus (GPa) = 17.70486 50.70103 34.20294
# Shear Modulus (GPa) = 19.84449 29.43547 24.63998
#
# Velocity S-wave (km/s) = 3.15556 3.84319 3.51623
# Velocity P-wave (km/s) = 4.70751 6.71820 5.80064
#
# Compressibility (1/GPa) = 0.05648167
#
# Stress axis : x y z
#
# Youngs Moduli (GPa) = 14.39107 88.60728 123.27718
#
# Poissons Ratio (x) = 0.64343 0.75693
# Poissons Ratio (y) = 0.10450 0.34518
# Poissons Ratio (z) = 0.08836 0.24810
#
# Static dielectric constant tensor:
#      x y z
#    x 1.694470 0.000000 0.000000 
#    y 0.000000 1.697840 0.000000 
#    z 0.000000 0.000000 1.698060 
# 
# From -- ./inp_files/3446.got.cif
#   From: 2010.05.17/outbox.cif.g08.bks.cpg/sg38_2_cif.got.tgz:3446.got - 2010.06.03 18:07:57.
