data_PCOD9356498
_publ_section_title
;
Structure prediction by ZEFSAII (Michael W. Deem and Ramdas Pophale) SiO2 
 PCOD9356498
Probable space group: A M M 2
;
_chemical_formula_sum "Si O2"
_cell_formula_units_Z 58
_cell_length_a 25.863711
_cell_length_b 7.913014
_cell_length_c 14.759727
_cell_angle_alpha 90.000000
_cell_angle_beta 90.000000
_cell_angle_gamma 90.000000
_cell_volume 3020.724359
_symmetry_space_group_name_H-M "A M M 2"
_symmetry_group_IT_number 38
_symmetry_cell_setting 'orthorhombic'
loop_
_space_group_symop_operation_xyz
x,y,z
-x,-y,z
-x,y,z
x,-y,z
x,1/2+y,1/2+z
-x,1/2-y,1/2+z
-x,1/2+y,1/2+z
x,1/2-y,1/2+z
loop_
_atom_site_type_symbol
_atom_site_label
_atom_site_fract_x
_atom_site_fract_y
_atom_site_fract_z
Si Si1 0.942112 0.299467 0.147420
Si Si2 0.861952 0.193176 0.995032
Si Si3 0.941748 0.303146 0.851644
Si Si4 0.665927 0.301811 0.342831
Si Si5 0.326189 0.701929 0.138754
Si Si6 0.746791 0.303027 0.981799
Si Si7 0.585408 0.304143 0.992212
Si Si8 0.500000 0.500000 0.487246
O O1 0.941861 0.500000 0.162892
O O2 0.934221 0.212500 0.244202
O O3 0.000000 0.252555 0.113912
O O4 0.898190 0.255727 0.076293
O O5 0.897364 0.210428 0.906201
O O6 0.808097 0.288824 0.985121
O O7 0.848294 0.000000 0.011241
O O8 0.939981 0.500000 0.878621
O O9 0.000000 0.239182 0.871148
O O10 0.651589 0.500000 0.338494
O O11 0.670094 0.231773 0.240864
O O12 0.720040 0.285562 0.396292
O O13 0.623371 0.211688 0.405406
O O14 0.317882 0.500000 0.148783
O O15 0.279998 0.765249 0.073922
O O16 0.378354 0.724504 0.080634
O O17 0.732100 0.500000 0.974391
O O18 0.566109 0.500000 0.996184
O O19 0.544599 0.152449 0.987422
#
# Coordination Sequence:
#
# PCOD9356498 Si02
#       8
#     8   8   8   8   8   8   8   2
#     4  10  21  38  59  82 110 149 191 235 294 362
#     4  12  24  37  55  82 117 152 194 244 297 349
#     4  10  21  38  59  82 109 147 192 239 295 360
#     4  10  18  37  64  90 118 156 201 242 291 356
#     4   8  18  37  64  86 117 156 195 242 294 350
#     4  10  21  38  56  85 116 154 196 246 298 349
#     4  10  21  40  62  90 126 165 203 244 299 348
#     4  12  22  40  64  94 124 170 198 256 294 338
#
# _framework density 19.200693999999999
#
# number of rings (size 3 to 8) (size 9 to 14) (size 15 to 20)
#    0.000    1.931    0.690    4.345    0.000    4.414 
#    2.483    4.828    0.000    0.000    0.000    0.000 
#    0.000    0.000    0.000    0.000    0.000    0.000 
#
# Total GULP energy -161569.880849 kJ/mol
# GULP energy per Si atom -5571.375202 kJ/mol
# Density = 1.915699 g / cm^3
# Si number density = 19.200694 Si / 1000 Ang^3
#
#
#
# Elastic Constant Matrix: (Units=GPa)
#
#
# Indices 1 2 3 4 5 6 
#
# 1 115.0541 21.1577 57.7154 0.0000 0.0000 0.0000
# 2 21.1577 77.7797 13.0313 0.0000 0.0000 0.0000
# 3 57.7154 13.0313 127.8426 0.0000 0.0000 0.0000
# 4 0.0000 0.0000 0.0000 22.9069 0.0000 0.0000
# 5 0.0000 0.0000 0.0000 0.0000 -19.2446 0.0000
# 6 0.0000 0.0000 0.0000 0.0000 0.0000 33.5868
#
#
#
# Elastic Compliance Matrix: (Units=1/GPa)
#
#
# Indices 1 2 3 4 5 6 
#
# 1 0.011635 -0.002325 -0.005016 0.000000 0.000000 0.000000
# 2 -0.002325 0.013545 -0.000331 0.000000 0.000000 0.000000
# 3 -0.005016 -0.000331 0.010120 0.000000 0.000000 0.000000
# 4 0.000000 0.000000 0.000000 0.043655 0.000000 0.000000
# 5 0.000000 0.000000 0.000000 0.000000 -0.051962 0.000000
# 6 0.000000 0.000000 0.000000 0.000000 0.000000 0.029774
#
#
# Mechanical properties :
#
#
# Convention : Reuss Voigt Hill
#
# Bulk Modulus (GPa) = 50.10806 56.05392 53.08099
# Shear Modulus (GPa) = 63.48254 22.70127 43.09190
#
# Velocity S-wave (km/s) = 5.75625 3.44221 4.74253
# Velocity P-wave (km/s) = 8.38647 6.71234 7.59567
#
# Compressibility (1/GPa) = 0.01995687
#
# Stress axis : x y z
#
# Youngs Moduli (GPa) = 85.94635 73.82978 98.81138
#
# Poissons Ratio (x) = 0.17163 0.49562
# Poissons Ratio (y) = 0.19980 0.03272
# Poissons Ratio (z) = 0.43109 0.02445
#
# Static dielectric constant tensor:
#      x y z
#    x 1.683840 0.000000 0.000000 
#    y 0.000000 1.692440 0.000000 
#    z 0.000000 0.000000 1.667680 
# 
# From -- ./inp_files/15668.got.cif
#   From: 2010.05.17/outbox.cif.g08.bks.cpg/sg38_8_cif.got.tgz:15668.got - 2010.06.03 18:07:57.
