data_PCOD9356041
_publ_section_title
;
Structure prediction by ZEFSAII (Michael W. Deem and Ramdas Pophale) SiO2 
 PCOD9356041
Probable space group: A M M 2
;
_chemical_formula_sum "Si O2"
_cell_formula_units_Z 40
_cell_length_a 13.781831
_cell_length_b 7.575141
_cell_length_c 19.071233
_cell_angle_alpha 90.000000
_cell_angle_beta 90.000000
_cell_angle_gamma 90.000000
_cell_volume 1991.023624
_symmetry_space_group_name_H-M "A M M 2"
_symmetry_group_IT_number 38
_symmetry_cell_setting 'orthorhombic'
loop_
_space_group_symop_operation_xyz
x,y,z
-x,-y,z
-x,y,z
x,-y,z
x,1/2+y,1/2+z
-x,1/2-y,1/2+z
-x,1/2+y,1/2+z
x,1/2-y,1/2+z
loop_
_atom_site_type_symbol
_atom_site_label
_atom_site_fract_x
_atom_site_fract_y
_atom_site_fract_z
Si Si1 0.108467 0.715153 0.191700
Si Si2 0.500000 0.210054 0.277258
Si Si3 0.291993 0.205592 0.447014
Si Si4 0.500000 0.283206 0.940172
Si Si5 0.107376 0.284232 0.028938
Si Si6 0.711968 0.708102 0.284318
O O1 0.109546 0.500000 0.193175
O O2 0.120404 0.765534 0.110314
O O3 0.198279 0.777118 0.238549
O O4 0.000000 0.770301 0.214868
O O5 0.500000 0.271865 0.358451
O O6 0.394477 0.266396 0.249534
O O7 0.500000 0.000000 0.277086
O O8 0.397079 0.278833 0.469831
O O9 0.196060 0.282096 0.482115
O O10 0.287892 0.213434 0.362579
O O11 0.293634 0.000000 0.467235
O O12 0.500000 0.500000 0.941046
O O13 0.106389 0.500000 0.026491
O O14 0.000000 0.226293 0.005816
O O15 0.725556 0.500000 0.293555
#
# Coordination Sequence:
#
# PCOD9356041 Si02
#       6
#     8   4   8   4   8   8
#     4   8  15  28  44  64  93 126 156 188 227 267
#     4   9  17  31  48  65  91 123 151 185 230 274
#     4   9  16  27  44  65  88 116 150 187 227 267
#     4   7  12  23  38  57  81 107 133 165 212 262
#     4   8  14  26  44  64  87 118 156 193 224 259
#     4  10  18  28  46  71  95 119 151 189 227 273
#
# _framework density 20.090167999999998
#
# number of rings (size 3 to 8) (size 9 to 14) (size 15 to 20)
#    0.000    3.400    0.000    3.300    0.000    0.800 
#    0.000    1.000    0.000    9.000    0.000    5.600 
#    0.000    0.000    0.000    0.000    0.000    0.000 
#
# Total GULP energy -111361.904213 kJ/mol
# GULP energy per Si atom -5568.095211 kJ/mol
# Density = 2.004444 g / cm^3
# Si number density = 20.090168 Si / 1000 Ang^3
#
#
#
# Elastic Constant Matrix: (Units=GPa)
#
#
# Indices 1 2 3 4 5 6 
#
# 1 261.3555 0.8608 80.1160 0.0000 0.0000 0.0000
# 2 0.8608 44.7108 -7.3050 0.0000 0.0000 0.0000
# 3 80.1160 -7.3050 36.5553 0.0000 0.0000 0.0000
# 4 0.0000 0.0000 0.0000 6.4161 0.0000 0.0000
# 5 0.0000 0.0000 0.0000 0.0000 -62.9746 0.0000
# 6 0.0000 0.0000 0.0000 0.0000 0.0000 7.3542
#
#
#
# Elastic Compliance Matrix: (Units=1/GPa)
#
#
# Indices 1 2 3 4 5 6 
#
# 1 0.012628 -0.004926 -0.028660 0.000000 0.000000 0.000000
# 2 -0.004926 0.025042 0.015800 0.000000 0.000000 0.000000
# 3 -0.028660 0.015800 0.093326 0.000000 0.000000 0.000000
# 4 0.000000 0.000000 0.000000 0.155857 0.000000 0.000000
# 5 0.000000 0.000000 0.000000 0.000000 -0.015879 0.000000
# 6 0.000000 0.000000 0.000000 0.000000 0.000000 0.135977
#
#
# Mechanical properties :
#
#
# Convention : Reuss Voigt Hill
#
# Bulk Modulus (GPa) = 10.47960 54.44057 32.46009
# Shear Modulus (GPa) = 10.54116 8.08914 9.31515
#
# Velocity S-wave (km/s) = 2.29310 2.00877 2.15563
# Velocity P-wave (km/s) = 3.49838 5.70414 4.73159
#
# Compressibility (1/GPa) = 0.09542348
#
# Stress axis : x y z
#
# Youngs Moduli (GPa) = 79.18968 39.93262 10.71516
#
# Poissons Ratio (x) = 0.19670 0.30710
# Poissons Ratio (y) = 0.39007 -0.16930
# Poissons Ratio (z) = 2.26959 -0.63092
#
# Static dielectric constant tensor:
#      x y z
#    x 1.782710 0.000000 0.000000 
#    y 0.000000 1.758150 0.000000 
#    z 0.000000 0.000000 1.665160 
# 
# From -- ./inp_files/14292.got.cif
#   From: 2010.05.17/outbox.cif.g08.bks.cpg/sg38_8_cif.got.tgz:14292.got - 2010.06.03 18:07:57.
