data_PCOD9356350
_publ_section_title
;
Structure prediction by ZEFSAII (Michael W. Deem and Ramdas Pophale) SiO2 
 PCOD9356350
Probable space group: A M M 2
;
_chemical_formula_sum "Si O2"
_cell_formula_units_Z 64
_cell_length_a 8.680251
_cell_length_b 23.758607
_cell_length_c 19.679934
_cell_angle_alpha 90.000000
_cell_angle_beta 90.000000
_cell_angle_gamma 90.000000
_cell_volume 4058.606017
_symmetry_space_group_name_H-M "A M M 2"
_symmetry_group_IT_number 38
_symmetry_cell_setting 'orthorhombic'
loop_
_space_group_symop_operation_xyz
x,y,z
-x,-y,z
-x,y,z
x,-y,z
x,1/2+y,1/2+z
-x,1/2-y,1/2+z
-x,1/2+y,1/2+z
x,1/2-y,1/2+z
loop_
_atom_site_type_symbol
_atom_site_label
_atom_site_fract_x
_atom_site_fract_y
_atom_site_fract_z
Si Si1 0.316654 0.772335 0.995020
Si Si2 0.684570 0.065108 0.484251
Si Si3 0.184486 0.382022 0.846357
Si Si4 0.315312 0.434559 0.707971
Si Si5 0.185811 0.251246 0.351844
Si Si6 0.814976 0.338944 0.616830
Si Si7 0.186726 0.271694 0.201736
Si Si8 0.814705 0.163255 0.571282
O O1 0.500000 0.768595 0.999696
O O2 0.263374 0.778152 0.917529
O O3 0.254452 0.821053 0.044575
O O4 0.242856 0.714347 0.023569
O O5 0.500000 0.069215 0.480951
O O6 0.753328 0.087519 0.413411
O O7 0.746626 0.105699 0.543134
O O8 0.727296 0.000000 0.494362
O O9 0.255560 0.409380 0.779117
O O10 0.221325 0.315583 0.850278
O O11 0.000000 0.387101 0.843145
O O12 0.500000 0.430823 0.706417
O O13 0.270768 0.500000 0.702732
O O14 0.245628 0.396615 0.648107
O O15 0.238172 0.275985 0.279314
O O16 0.000000 0.256576 0.357521
O O17 0.768966 0.288418 0.668852
O O18 0.000000 0.339175 0.612810
O O19 0.233312 0.319183 0.147640
O O20 0.000000 0.271614 0.203362
O O21 0.000000 0.161724 0.567807
#
# Coordination Sequence:
#
# PCOD9356350 Si02
#       8
#     8   8   8   8   8   8   8   8
#     4  11  21  32  49  75 104 133 164 206 259 308
#     4  11  23  36  49  68  99 137 173 213 257 298
#     4  11  21  33  51  72  99 138 179 213 244 293
#     4  11  23  36  50  72 105 140 173 213 258 303
#     4  10  18  32  51  74 101 134 168 205 250 301
#     4  10  19  35  54  73  97 132 175 215 251 297
#     4   8  16  31  51  72  96 123 159 205 252 293
#     4  10  19  33  52  73  96 129 169 211 252 299
#
# _framework density 15.768960999999999
#
# number of rings (size 3 to 8) (size 9 to 14) (size 15 to 20)
#    0.000    1.750    2.500    4.125    0.000    4.000 
#    0.000    1.250    0.000    0.000    0.000    0.875 
#    0.000    5.000    0.000    0.000    0.000    0.000 
#
# Total GULP energy -178641.373270 kJ/mol
# GULP energy per Si atom -5582.542915 kJ/mol
# Density = 1.573307 g / cm^3
# Si number density = 15.768961 Si / 1000 Ang^3
#
#
#
# Elastic Constant Matrix: (Units=GPa)
#
#
# Indices 1 2 3 4 5 6 
#
# 1 44.2997 31.3468 34.2698 0.0000 0.0000 0.0000
# 2 31.3468 86.1576 64.8637 0.0000 0.0000 0.0000
# 3 34.2698 64.8637 145.7890 0.0000 0.0000 0.0000
# 4 0.0000 0.0000 0.0000 19.3904 0.0000 0.0000
# 5 0.0000 0.0000 0.0000 0.0000 12.5800 0.0000
# 6 0.0000 0.0000 0.0000 0.0000 0.0000 19.6268
#
#
#
# Elastic Compliance Matrix: (Units=1/GPa)
#
#
# Indices 1 2 3 4 5 6 
#
# 1 0.031525 -0.008858 -0.003469 0.000000 0.000000 0.000000
# 2 -0.008858 0.019941 -0.006790 0.000000 0.000000 0.000000
# 3 -0.003469 -0.006790 0.010696 0.000000 0.000000 0.000000
# 4 0.000000 0.000000 0.000000 0.051572 0.000000 0.000000
# 5 0.000000 0.000000 0.000000 0.000000 0.079491 0.000000
# 6 0.000000 0.000000 0.000000 0.000000 0.000000 0.050951
#
#
# Mechanical properties :
#
#
# Convention : Reuss Voigt Hill
#
# Bulk Modulus (GPa) = 41.79270 59.68966 50.74118
# Shear Modulus (GPa) = 17.21839 20.03716 18.62777
#
# Velocity S-wave (km/s) = 3.30800 3.56851 3.44072
# Velocity P-wave (km/s) = 6.41492 7.41039 6.93055
#
# Compressibility (1/GPa) = 0.02392762
#
# Stress axis : x y z
#
# Youngs Moduli (GPa) = 31.72049 50.14729 93.49513
#
# Poissons Ratio (x) = 0.44420 0.32438
# Poissons Ratio (y) = 0.28098 0.63483
# Poissons Ratio (z) = 0.11005 0.34050
#
# Static dielectric constant tensor:
#      x y z
#    x 1.527760 0.000000 0.000000 
#    y 0.000000 1.506380 0.000000 
#    z 0.000000 0.000000 1.529660 
# 
# From -- ./inp_files/17270.got.cif
#   From: 2010.05.17/outbox.cif.g08.bks.cpg/sg38_9_cif.got.tgz:17270.got - 2010.06.03 18:07:57.
