data_PCOD9356313
_publ_section_title
;
Structure prediction by ZEFSAII (Michael W. Deem and Ramdas Pophale) SiO2 
 PCOD9356313
Probable space group: A M M 2
;
_chemical_formula_sum "Si O2"
_cell_formula_units_Z 48
_cell_length_a 18.214582
_cell_length_b 7.516109
_cell_length_c 15.592209
_cell_angle_alpha 90.000000
_cell_angle_beta 90.000000
_cell_angle_gamma 90.000000
_cell_volume 2134.616816
_symmetry_space_group_name_H-M "A M M 2"
_symmetry_group_IT_number 38
_symmetry_cell_setting 'orthorhombic'
loop_
_space_group_symop_operation_xyz
x,y,z
-x,-y,z
-x,y,z
x,-y,z
x,1/2+y,1/2+z
-x,1/2-y,1/2+z
-x,1/2+y,1/2+z
x,1/2-y,1/2+z
loop_
_atom_site_type_symbol
_atom_site_label
_atom_site_fract_x
_atom_site_fract_y
_atom_site_fract_z
Si Si1 0.657277 0.796542 0.106070
Si Si2 0.500000 0.703199 0.880133
Si Si3 0.185505 0.790968 0.148313
Si Si4 0.344755 0.789244 0.407649
Si Si5 0.185539 0.212199 0.838852
Si Si6 0.500000 0.218655 0.082791
Si Si7 0.915903 0.218078 0.995276
O O1 0.732460 0.712056 0.139142
O O2 0.576362 0.722024 0.124752
O O3 0.655048 0.000000 0.138122
O O4 0.663206 0.795723 0.002022
O O5 0.500000 0.500000 0.847540
O O6 0.581003 0.778927 0.861086
O O7 0.500000 0.712247 0.984809
O O8 0.161048 0.773776 0.245605
O O9 0.127386 0.721082 0.080018
O O10 0.193783 0.000000 0.127105
O O11 0.269504 0.765988 0.356982
O O12 0.355656 0.000000 0.421911
O O13 0.183666 0.000000 0.840309
O O14 0.132237 0.276508 0.914080
O O15 0.500000 0.000000 0.078335
O O16 0.000000 0.276933 0.992446
O O17 0.917248 0.000000 0.995094
#
# Coordination Sequence:
#
# PCOD9356313 Si02
#       7
#     8   4   8   8   8   4   8
#     4   9  16  30  51  77 108 144 183 227 276 329
#     4   8  16  28  45  74 107 142 184 230 275 321
#     4  10  20  36  57  82 112 146 186 227 273 330
#     4  10  18  31  53  79 110 147 188 231 277 327
#     4  11  22  37  57  84 115 148 187 229 277 331
#     4   8  14  24  45  74 103 138 182 224 269 325
#     4   9  19  38  62  83 109 147 184 224 279 338
#
# _framework density 22.486471000000002
#
# number of rings (size 3 to 8) (size 9 to 14) (size 15 to 20)
#    0.000    2.500    1.667    1.000    0.000    2.000 
#    0.000    0.833    0.000    6.500    0.000    0.000 
#    0.000    0.000    0.000    0.000    0.000    0.000 
#
# Total GULP energy -133952.749017 kJ/mol
# GULP energy per Si atom -5581.364542 kJ/mol
# Density = 2.243529 g / cm^3
# Si number density = 22.486471 Si / 1000 Ang^3
#
#
#
# Elastic Constant Matrix: (Units=GPa)
#
#
# Indices 1 2 3 4 5 6 
#
# 1 220.9093 7.5232 91.2412 0.0000 0.0000 0.0000
# 2 7.5232 60.8308 -20.3415 0.0000 0.0000 0.0000
# 3 91.2412 -20.3415 105.9524 0.0000 0.0000 0.0000
# 4 0.0000 0.0000 0.0000 -9.4263 0.0000 0.0000
# 5 0.0000 0.0000 0.0000 0.0000 -12.8551 0.0000
# 6 0.0000 0.0000 0.0000 0.0000 0.0000 0.8694
#
#
#
# Elastic Compliance Matrix: (Units=1/GPa)
#
#
# Indices 1 2 3 4 5 6 
#
# 1 0.007615 -0.003350 -0.007201 0.000000 0.000000 0.000000
# 2 -0.003350 0.019040 0.006540 0.000000 0.000000 0.000000
# 3 -0.007201 0.006540 0.016895 0.000000 0.000000 0.000000
# 4 0.000000 0.000000 0.000000 -0.106087 0.000000 0.000000
# 5 0.000000 0.000000 0.000000 0.000000 -0.077790 0.000000
# 6 0.000000 0.000000 0.000000 0.000000 0.000000 1.150174
#
#
# Mechanical properties :
#
#
# Convention : Reuss Voigt Hill
#
# Bulk Modulus (GPa) = 28.14579 60.50426 44.32502
# Shear Modulus (GPa) = 4.85573 16.33559 10.59566
#
# Velocity S-wave (km/s) = 1.47108 2.69822 2.17307
# Velocity P-wave (km/s) = 3.92803 6.05579 5.10402
#
# Compressibility (1/GPa) = 0.03552929
#
# Stress axis : x y z
#
# Youngs Moduli (GPa) = 131.32197 52.52031 59.19026
#
# Poissons Ratio (x) = 0.17592 0.42621
# Poissons Ratio (y) = 0.43988 -0.38711
# Poissons Ratio (z) = 0.94560 -0.34348
#
# Static dielectric constant tensor:
#      x y z
#    x 1.854850 0.000000 0.000000 
#    y 0.000000 2.106610 0.000000 
#    z 0.000000 0.000000 1.795690 
# 
# From -- ./inp_files/15069.got.cif
#   From: 2010.05.17/outbox.cif.g08.bks.cpg/sg38_8_cif.got.tgz:15069.got - 2010.06.03 18:07:57.
