data_PCOD9356548
_publ_section_title
;
Structure prediction by ZEFSAII (Michael W. Deem and Ramdas Pophale) SiO2 
 PCOD9356548
Probable space group: A M M 2
;
_chemical_formula_sum "Si O2"
_cell_formula_units_Z 56
_cell_length_a 8.618789
_cell_length_b 14.192122
_cell_length_c 30.194484
_cell_angle_alpha 90.000000
_cell_angle_beta 90.000000
_cell_angle_gamma 90.000000
_cell_volume 3693.356219
_symmetry_space_group_name_H-M "A M M 2"
_symmetry_group_IT_number 38
_symmetry_cell_setting 'orthorhombic'
loop_
_space_group_symop_operation_xyz
x,y,z
-x,-y,z
-x,y,z
x,-y,z
x,1/2+y,1/2+z
-x,1/2-y,1/2+z
-x,1/2+y,1/2+z
x,1/2-y,1/2+z
loop_
_atom_site_type_symbol
_atom_site_label
_atom_site_fract_x
_atom_site_fract_y
_atom_site_fract_z
Si Si1 0.315511 0.609303 0.340500
Si Si2 0.810487 0.890799 0.649715
Si Si3 0.811278 0.105907 0.012484
Si Si4 0.185561 0.715993 0.424193
Si Si5 0.685971 0.107664 0.473132
Si Si6 0.188009 0.292160 0.060079
Si Si7 0.179262 0.385673 0.246796
O O1 0.500000 0.610520 0.345360
O O2 0.261861 0.500000 0.345820
O O3 0.241103 0.673992 0.377957
O O4 0.270854 0.640603 0.290856
O O5 0.760674 0.829267 0.607882
O O6 0.760060 0.855929 0.698395
O O7 0.000000 0.890617 0.650963
O O8 0.763223 0.000000 0.643437
O O9 0.765993 0.145294 0.964106
O O10 0.000000 0.103274 0.013108
O O11 0.754608 0.000000 0.020074
O O12 0.763586 0.185752 0.047604
O O13 0.253060 0.817549 0.437265
O O14 0.000000 0.721699 0.424955
O O15 0.500000 0.111808 0.474357
O O16 0.750906 0.141922 0.520570
O O17 0.733870 0.000000 0.464479
O O18 0.000000 0.295644 0.058895
O O19 0.180113 0.500000 0.244665
O O20 0.000000 0.355975 0.251688
#
# Coordination Sequence:
#
# PCOD9356548 Si02
#       7
#     8   8   8   8   8   8   8
#     4  10  19  29  42  63  91 117 140 173 217 262
#     4   8  13  22  38  60  83 106 138 181 219 251
#     4   8  14  24  38  59  85 109 136 171 207 242
#     4  10  19  30  46  64  82 111 149 182 210 249
#     4  10  20  32  44  61  88 116 140 173 217 262
#     4   9  16  26  43  64  84 112 148 180 211 252
#     4   8  14  25  40  57  79 109 143 177 214 257
#
# _framework density 15.162361000000001
#
# number of rings (size 3 to 8) (size 9 to 14) (size 15 to 20)
#    0.000    3.000    0.000    3.857    0.000    3.143 
#    0.000    0.714    0.000    6.429    0.000    1.000 
#    0.000    3.429    0.000    0.000    0.000    0.000 
#
# Total GULP energy -155930.683860 kJ/mol
# GULP energy per Si atom -5568.952995 kJ/mol
# Density = 1.512785 g / cm^3
# Si number density = 15.162361 Si / 1000 Ang^3
#
#
#
# Elastic Constant Matrix: (Units=GPa)
#
#
# Indices 1 2 3 4 5 6 
#
# 1 20.8603 23.0388 22.4727 0.0000 0.0000 0.0000
# 2 23.0388 112.2363 71.6297 0.0000 0.0000 0.0000
# 3 22.4727 71.6297 135.6381 0.0000 0.0000 0.0000
# 4 0.0000 0.0000 0.0000 23.7372 0.0000 0.0000
# 5 0.0000 0.0000 0.0000 0.0000 4.4371 0.0000
# 6 0.0000 0.0000 0.0000 0.0000 0.0000 13.6376
#
#
#
# Elastic Compliance Matrix: (Units=1/GPa)
#
#
# Indices 1 2 3 4 5 6 
#
# 1 0.064684 -0.009711 -0.005589 0.000000 0.000000 0.000000
# 2 -0.009711 0.014897 -0.006258 0.000000 0.000000 0.000000
# 3 -0.005589 -0.006258 0.011603 0.000000 0.000000 0.000000
# 4 0.000000 0.000000 0.000000 0.042128 0.000000 0.000000
# 5 0.000000 0.000000 0.000000 0.000000 0.225372 0.000000
# 6 0.000000 0.000000 0.000000 0.000000 0.000000 0.073326
#
#
# Mechanical properties :
#
#
# Convention : Reuss Voigt Hill
#
# Bulk Modulus (GPa) = 20.80352 55.89077 38.34714
# Shear Modulus (GPa) = 10.18021 18.46862 14.32441
#
# Velocity S-wave (km/s) = 2.59398 3.49385 3.07699
# Velocity P-wave (km/s) = 4.76675 7.29504 6.16196
#
# Compressibility (1/GPa) = 0.04806879
#
# Stress axis : x y z
#
# Youngs Moduli (GPa) = 15.45984 67.12693 86.18182
#
# Poissons Ratio (x) = 0.65187 0.48163
# Poissons Ratio (y) = 0.15013 0.53934
# Poissons Ratio (z) = 0.08640 0.42009
#
# Static dielectric constant tensor:
#      x y z
#    x 1.508450 0.000000 0.000000 
#    y 0.000000 1.495500 0.000000 
#    z 0.000000 0.000000 1.506010 
# 
# From -- ./inp_files/24625.got.cif
#   From: 2010.05.17/outbox.cif.g08.bks.cpg/sg38_13_cif.got.tgz:24625.got - 2010.06.03 18:07:57.
