data_PCOD9356294
_publ_section_title
;
Structure prediction by ZEFSAII (Michael W. Deem and Ramdas Pophale) SiO2 
 PCOD9356294
Probable space group: A M M 2
;
_chemical_formula_sum "Si O2"
_cell_formula_units_Z 58
_cell_length_a 15.758391
_cell_length_b 7.684709
_cell_length_c 25.488547
_cell_angle_alpha 90.000000
_cell_angle_beta 90.000000
_cell_angle_gamma 90.000000
_cell_volume 3086.628610
_symmetry_space_group_name_H-M "A M M 2"
_symmetry_group_IT_number 38
_symmetry_cell_setting 'orthorhombic'
loop_
_space_group_symop_operation_xyz
x,y,z
-x,-y,z
-x,y,z
x,-y,z
x,1/2+y,1/2+z
-x,1/2-y,1/2+z
-x,1/2+y,1/2+z
x,1/2-y,1/2+z
loop_
_atom_site_type_symbol
_atom_site_label
_atom_site_fract_x
_atom_site_fract_y
_atom_site_fract_z
Si Si1 0.000000 0.000000 0.197480
Si Si2 0.677980 0.707062 0.197116
Si Si3 0.905860 0.790562 0.539099
Si Si4 0.593997 0.286373 0.092793
Si Si5 0.596123 0.799519 0.920563
Si Si6 0.404974 0.703325 0.803495
Si Si7 0.726384 0.295628 0.007184
Si Si8 0.870833 0.206995 0.662966
O O1 0.072825 0.155072 0.193762
O O2 0.667086 0.500000 0.199857
O O3 0.614765 0.771620 0.151771
O O4 0.656918 0.773073 0.254775
O O5 0.772905 0.738740 0.177043
O O6 0.822367 0.724256 0.508496
O O7 0.888621 0.761974 0.601049
O O8 0.000000 0.720656 0.526111
O O9 0.910557 0.000000 0.531611
O O10 0.500000 0.232919 0.076004
O O11 0.595551 0.500000 0.092172
O O12 0.666888 0.223590 0.053545
O O13 0.500000 0.725181 0.927952
O O14 0.616064 0.791279 0.858710
O O15 0.592575 0.000000 0.936644
O O16 0.670818 0.718051 0.954768
O O17 0.500000 0.762971 0.787630
O O18 0.408670 0.500000 0.815805
O O19 0.736352 0.500000 0.019229
O O20 0.888777 0.000000 0.672554
#
# Coordination Sequence:
#
# PCOD9356294 Si02
#       8
#     2   8   8   8   8   8   8   8
#     4  12  22  32  56  82 106 152 190 236 292 334
#     4  10  19  33  53  78 110 148 183 222 274 331
#     4   9  16  31  52  75 107 145 181 222 269 326
#     4   9  16  26  45  75 110 147 181 210 257 332
#     4  10  21  37  54  75 104 140 182 227 278 332
#     4  10  21  36  55  79 107 140 183 233 275 322
#     4  10  18  31  52  78 106 139 179 222 271 323
#     4  10  20  35  53  79 114 147 187 234 281 340
#
# _framework density 18.790728000000001
#
# number of rings (size 3 to 8) (size 9 to 14) (size 15 to 20)
#    0.000    2.207    2.069    1.862    0.966    2.759 
#    1.241    0.690    0.000    2.483    1.793    0.000 
#    0.000    0.000    0.000    0.000    0.000    0.000 
#
# Total GULP energy -161438.250324 kJ/mol
# GULP energy per Si atom -5566.836218 kJ/mol
# Density = 1.874796 g / cm^3
# Si number density = 18.790728 Si / 1000 Ang^3
#
#
#
# Elastic Constant Matrix: (Units=GPa)
#
#
# Indices 1 2 3 4 5 6 
#
# 1 148.4074 25.9213 53.6508 0.0000 0.0000 0.0000
# 2 25.9213 41.1516 -0.3474 0.0000 0.0000 0.0000
# 3 53.6508 -0.3474 64.3080 0.0000 0.0000 0.0000
# 4 0.0000 0.0000 0.0000 10.9134 0.0000 0.0000
# 5 0.0000 0.0000 0.0000 0.0000 31.8278 0.0000
# 6 0.0000 0.0000 0.0000 0.0000 0.0000 15.9720
#
#
#
# Elastic Compliance Matrix: (Units=1/GPa)
#
#
# Indices 1 2 3 4 5 6 
#
# 1 0.011501 -0.007326 -0.009634 0.000000 0.000000 0.000000
# 2 -0.007326 0.028968 0.006268 0.000000 0.000000 0.000000
# 3 -0.009634 0.006268 0.023622 0.000000 0.000000 0.000000
# 4 0.000000 0.000000 0.000000 0.091630 0.000000 0.000000
# 5 0.000000 0.000000 0.000000 0.000000 0.031419 0.000000
# 6 0.000000 0.000000 0.000000 0.000000 0.000000 0.062610
#
#
# Mechanical properties :
#
#
# Convention : Reuss Voigt Hill
#
# Bulk Modulus (GPa) = 23.41570 45.81293 34.61431
# Shear Modulus (GPa) = 17.52125 23.38547 20.45336
#
# Velocity S-wave (km/s) = 3.05690 3.53161 3.30279
# Velocity P-wave (km/s) = 4.99479 6.40806 5.74504
#
# Compressibility (1/GPa) = 0.04270639
#
# Stress axis : x y z
#
# Youngs Moduli (GPa) = 86.95199 34.52122 42.33399
#
# Poissons Ratio (x) = 0.25289 0.40786
# Poissons Ratio (y) = 0.63697 -0.26535
# Poissons Ratio (z) = 0.83772 -0.21638
#
# Static dielectric constant tensor:
#      x y z
#    x 1.674910 0.000000 0.000000 
#    y 0.000000 1.693860 0.000000 
#    z 0.000000 0.000000 1.634110 
# 
# From -- ./inp_files/22869.got.cif
#   From: 2010.05.17/outbox.cif.g08.bks.cpg/sg38_12_cif.got.tgz:22869.got - 2010.06.03 18:07:57.
