data_PCOD9356571
_publ_section_title
;
Structure prediction by ZEFSAII (Michael W. Deem and Ramdas Pophale) SiO2 
 PCOD9356571
Probable space group: A M M 2
;
_chemical_formula_sum "Si O2"
_cell_formula_units_Z 64
_cell_length_a 14.129284
_cell_length_b 17.928617
_cell_length_c 15.581762
_cell_angle_alpha 90.000000
_cell_angle_beta 90.000000
_cell_angle_gamma 90.000000
_cell_volume 3947.148909
_symmetry_space_group_name_H-M "A M M 2"
_symmetry_group_IT_number 38
_symmetry_cell_setting 'orthorhombic'
loop_
_space_group_symop_operation_xyz
x,y,z
-x,-y,z
-x,y,z
x,-y,z
x,1/2+y,1/2+z
-x,1/2-y,1/2+z
-x,1/2+y,1/2+z
x,1/2-y,1/2+z
loop_
_atom_site_type_symbol
_atom_site_label
_atom_site_fract_x
_atom_site_fract_y
_atom_site_fract_z
Si Si1 0.797565 0.585691 0.410350
Si Si2 0.886146 0.801597 0.775041
Si Si3 0.605999 0.090514 0.991746
Si Si4 0.885961 0.803869 0.581810
Si Si5 0.610111 0.589656 0.691137
Si Si6 0.886692 0.869603 0.085371
Si Si7 0.798064 0.137350 0.266248
Si Si8 0.111889 0.915988 0.436265
O O1 0.797218 0.500000 0.379273
O O2 0.850759 0.640817 0.346072
O O3 0.690533 0.612836 0.429252
O O4 0.847250 0.587365 0.503644
O O5 0.862596 0.828849 0.678443
O O6 0.836735 0.720980 0.782279
O O7 0.000000 0.791621 0.781524
O O8 0.500000 0.115597 0.968674
O O9 0.625248 0.111358 0.090982
O O10 0.605708 0.000000 0.991404
O O11 0.858569 0.717465 0.572075
O O12 0.851819 0.856893 0.506133
O O13 0.000000 0.805214 0.576741
O O14 0.500000 0.604270 0.711431
O O15 0.624816 0.500000 0.697494
O O16 0.686423 0.630863 0.749576
O O17 0.845100 0.891765 0.177564
O O18 0.000000 0.874461 0.088512
O O19 0.832317 0.091529 0.347933
O O20 0.000000 0.901407 0.419122
O O21 0.119213 0.000000 0.470412
#
# Coordination Sequence:
#
# PCOD9356571 Si02
#       8
#     8   8   8   8   8   8   8   8
#     4  11  21  32  49  76 103 132 171 214 260 308
#     4  10  21  35  50  69  99 142 177 207 251 299
#     4   8  15  30  50  72 100 131 161 198 252 313
#     4   8  17  34  49  61  85 128 176 207 236 285
#     4   9  17  31  52  77 105 134 164 206 259 311
#     4  10  19  30  46  68  98 132 162 199 249 305
#     4  11  19  32  50  72 100 132 167 200 247 316
#     4  10  19  29  45  69  95 125 163 207 246 286
#
# _framework density 16.214236
#
# number of rings (size 3 to 8) (size 9 to 14) (size 15 to 20)
#    0.000    2.375    1.250    4.125    0.000    3.000 
#    0.000    1.875    0.000    0.000    0.000    0.875 
#    0.000    2.000    0.000    0.000    0.000    0.000 
#
# Total GULP energy -178379.320780 kJ/mol
# GULP energy per Si atom -5574.353774 kJ/mol
# Density = 1.617733 g / cm^3
# Si number density = 16.214236 Si / 1000 Ang^3
#
#
#
# Elastic Constant Matrix: (Units=GPa)
#
#
# Indices 1 2 3 4 5 6 
#
# 1 91.3301 30.3028 28.4567 0.0000 0.0000 0.0000
# 2 30.3028 42.4182 32.4276 0.0000 0.0000 0.0000
# 3 28.4567 32.4276 64.4423 0.0000 0.0000 0.0000
# 4 0.0000 0.0000 0.0000 8.3956 0.0000 0.0000
# 5 0.0000 0.0000 0.0000 0.0000 21.0638 0.0000
# 6 0.0000 0.0000 0.0000 0.0000 0.0000 18.8544
#
#
#
# Elastic Compliance Matrix: (Units=1/GPa)
#
#
# Indices 1 2 3 4 5 6 
#
# 1 0.014498 -0.008878 -0.001935 0.000000 0.000000 0.000000
# 2 -0.008878 0.043750 -0.018095 0.000000 0.000000 0.000000
# 3 -0.001935 -0.018095 0.025477 0.000000 0.000000 0.000000
# 4 0.000000 0.000000 0.000000 0.119109 0.000000 0.000000
# 5 0.000000 0.000000 0.000000 0.000000 0.047475 0.000000
# 6 0.000000 0.000000 0.000000 0.000000 0.000000 0.053038
#
#
# Mechanical properties :
#
#
# Convention : Reuss Voigt Hill
#
# Bulk Modulus (GPa) = 38.59437 42.28497 40.43967
# Shear Modulus (GPa) = 13.52085 16.79633 15.15859
#
# Velocity S-wave (km/s) = 2.89084 3.22203 3.06092
# Velocity P-wave (km/s) = 5.91583 6.32278 6.12269
#
# Compressibility (1/GPa) = 0.02591051
#
# Stress axis : x y z
#
# Youngs Moduli (GPa) = 68.97628 22.85706 39.25047
#
# Poissons Ratio (x) = 0.20293 0.07593
# Poissons Ratio (y) = 0.61237 0.71023
# Poissons Ratio (z) = 0.13344 0.41359
#
# Static dielectric constant tensor:
#      x y z
#    x 1.553180 0.000000 0.000000 
#    y 0.000000 1.551670 0.000000 
#    z 0.000000 0.000000 1.543380 
# 
# From -- ./inp_files/14769.got.cif
#   From: 2010.05.17/outbox.cif.g08.bks.cpg/sg38_8_cif.got.tgz:14769.got - 2010.06.03 18:07:57.
