data_PCOD9356564
_publ_section_title
;
Structure prediction by ZEFSAII (Michael W. Deem and Ramdas Pophale) SiO2 
 PCOD9356564
Probable space group: A M M 2
;
_chemical_formula_sum "Si O2"
_cell_formula_units_Z 64
_cell_length_a 21.726017
_cell_length_b 9.596792
_cell_length_c 14.513369
_cell_angle_alpha 90.000000
_cell_angle_beta 90.000000
_cell_angle_gamma 90.000000
_cell_volume 3026.038396
_symmetry_space_group_name_H-M "A M M 2"
_symmetry_group_IT_number 38
_symmetry_cell_setting 'orthorhombic'
loop_
_space_group_symop_operation_xyz
x,y,z
-x,-y,z
-x,y,z
x,-y,z
x,1/2+y,1/2+z
-x,1/2-y,1/2+z
-x,1/2+y,1/2+z
x,1/2-y,1/2+z
loop_
_atom_site_type_symbol
_atom_site_label
_atom_site_fract_x
_atom_site_fract_y
_atom_site_fract_z
Si Si1 0.431378 0.834185 0.711900
Si Si2 0.931782 0.839648 0.653280
Si Si3 0.433143 0.166086 0.403272
Si Si4 0.300734 0.844231 0.410070
Si Si5 0.818671 0.156180 0.150481
Si Si6 0.931218 0.660276 0.928341
Si Si7 0.817869 0.344831 0.431712
Si Si8 0.316790 0.840820 0.189537
O O1 0.500000 0.812241 0.672113
O O2 0.434012 0.765596 0.814012
O O3 0.374901 0.753833 0.665120
O O4 0.420343 0.000000 0.716086
O O5 0.874832 0.747748 0.685707
O O6 0.930284 0.840921 0.540810
O O7 0.000000 0.787512 0.679274
O O8 0.925791 0.000000 0.682945
O O9 0.500000 0.184954 0.450044
O O10 0.367718 0.192677 0.451956
O O11 0.430599 0.000000 0.377412
O O12 0.245972 0.736910 0.422464
O O13 0.313428 0.849291 0.300501
O O14 0.282448 0.000000 0.440969
O O15 0.750153 0.216485 0.162070
O O16 0.818152 0.000000 0.191647
O O17 0.828136 0.143065 0.041295
O O18 0.922681 0.500000 0.898953
O O19 0.875735 0.756873 0.896197
O O20 0.000000 0.707133 0.901591
O O21 0.814389 0.500000 0.391924
O O22 0.322848 0.000000 0.153750
#
# Coordination Sequence:
#
# PCOD9356564 Si02
#       8
#     8   8   8   8   8   8   8   8
#     4   9  16  25  40  65  92 113 139 180 226 265
#     4   8  14  25  42  65  90 114 142 177 218 262
#     4   8  14  26  44  64  85 112 148 185 218 254
#     4   9  17  29  46  66  88 116 149 183 216 256
#     4   9  18  31  46  66  90 116 148 183 218 257
#     4   8  14  26  44  64  86 113 146 182 216 254
#     4  10  19  29  44  67  94 119 142 177 223 266
#     4   9  18  32  48  65  87 118 154 185 213 254
#
# _framework density 21.149766
#
# number of rings (size 3 to 8) (size 9 to 14) (size 15 to 20)
#    0.000    3.250    0.000    2.250    0.000    4.250 
#    0.000    2.500    0.000    1.500    0.000    5.250 
#    0.000    0.000    0.000    0.000    0.000    0.000 
#
# Total GULP energy -178315.464636 kJ/mol
# GULP energy per Si atom -5572.358270 kJ/mol
# Density = 2.110163 g / cm^3
# Si number density = 21.149766 Si / 1000 Ang^3
#
#
#
# Elastic Constant Matrix: (Units=GPa)
#
#
# Indices 1 2 3 4 5 6 
#
# 1 250.5080 129.5757 0.9545 0.0000 0.0000 0.0000
# 2 129.5757 110.2655 7.2776 0.0000 0.0000 0.0000
# 3 0.9545 7.2776 44.7400 0.0000 0.0000 0.0000
# 4 0.0000 0.0000 0.0000 3.9933 0.0000 0.0000
# 5 0.0000 0.0000 0.0000 0.0000 17.2661 0.0000
# 6 0.0000 0.0000 0.0000 0.0000 0.0000 33.1190
#
#
#
# Elastic Compliance Matrix: (Units=1/GPa)
#
#
# Indices 1 2 3 4 5 6 
#
# 1 0.010316 -0.012240 0.001771 0.000000 0.000000 0.000000
# 2 -0.012240 0.023689 -0.003592 0.000000 0.000000 0.000000
# 3 0.001771 -0.003592 0.022898 0.000000 0.000000 0.000000
# 4 0.000000 0.000000 0.000000 0.250420 0.000000 0.000000
# 5 0.000000 0.000000 0.000000 0.000000 0.057917 0.000000
# 6 0.000000 0.000000 0.000000 0.000000 0.000000 0.030194
#
#
# Mechanical properties :
#
#
# Convention : Reuss Voigt Hill
#
# Bulk Modulus (GPa) = 34.74495 75.68103 55.21299
# Shear Modulus (GPa) = 11.54335 28.72272 20.13303
#
# Velocity S-wave (km/s) = 2.33875 3.68919 3.08868
# Velocity P-wave (km/s) = 4.87409 7.34901 6.23557
#
# Compressibility (1/GPa) = 0.02878116
#
# Stress axis : x y z
#
# Youngs Moduli (GPa) = 96.93611 42.21350 43.67213
#
# Poissons Ratio (x) = 0.51667 -0.07734
# Poissons Ratio (y) = 1.18645 0.15688
# Poissons Ratio (z) = -0.17166 0.15164
#
# Static dielectric constant tensor:
#      x y z
#    x 1.795750 0.000000 0.000000 
#    y 0.000000 1.744010 0.000000 
#    z 0.000000 0.000000 1.836510 
# 
# From -- ./inp_files/21549.got.cif
#   From: 2010.05.17/outbox.cif.g08.bks.cpg/sg38_11_cif.got.tgz:21549.got - 2010.06.03 18:07:57.
