data_PCOD9356523
_publ_section_title
;
Structure prediction by ZEFSAII (Michael W. Deem and Ramdas Pophale) SiO2 
 PCOD9356523
Probable space group: A M M 2
;
_chemical_formula_sum "Si O2"
_cell_formula_units_Z 64
_cell_length_a 21.839584
_cell_length_b 9.465455
_cell_length_c 14.557857
_cell_angle_alpha 90.000000
_cell_angle_beta 90.000000
_cell_angle_gamma 90.000000
_cell_volume 3009.423485
_symmetry_space_group_name_H-M "A M M 2"
_symmetry_group_IT_number 38
_symmetry_cell_setting 'orthorhombic'
loop_
_space_group_symop_operation_xyz
x,y,z
-x,-y,z
-x,y,z
x,-y,z
x,1/2+y,1/2+z
-x,1/2-y,1/2+z
-x,1/2+y,1/2+z
x,1/2-y,1/2+z
loop_
_atom_site_type_symbol
_atom_site_label
_atom_site_fract_x
_atom_site_fract_y
_atom_site_fract_z
Si Si1 0.431722 0.667612 0.961230
Si Si2 0.187489 0.656319 0.141214
Si Si3 0.800750 0.159927 0.424795
Si Si4 0.685241 0.662681 0.437258
Si Si5 0.934001 0.662980 0.885327
Si Si6 0.699580 0.660688 0.662005
Si Si7 0.566693 0.331235 0.654044
Si Si8 0.067665 0.838920 0.164559
O O1 0.500000 0.687138 0.921625
O O2 0.418844 0.500000 0.963962
O O3 0.376492 0.752141 0.915558
O O4 0.434628 0.733748 0.063677
O O5 0.180482 0.500000 0.180839
O O6 0.243361 0.741405 0.185667
O O7 0.123805 0.739298 0.142010
O O8 0.204501 0.644303 0.034252
O O9 0.744000 0.256465 0.397633
O O10 0.868069 0.226100 0.409033
O O11 0.799018 0.000000 0.384637
O O12 0.682151 0.500000 0.408627
O O13 0.691979 0.662843 0.549801
O O14 0.932307 0.500000 0.920319
O O15 0.934949 0.656489 0.775180
O O16 0.000000 0.725248 0.914365
O O17 0.713478 0.500000 0.688354
O O18 0.632233 0.700089 0.699831
O O19 0.500000 0.312504 0.700375
O O20 0.570177 0.500000 0.629635
O O21 0.000000 0.792024 0.132881
O O22 0.078092 0.000000 0.132248
#
# Coordination Sequence:
#
# PCOD9356523 Si02
#       8
#     8   8   8   8   8   8   8   8
#     4   9  15  21  31  49  74 106 144 182 217 254
#     4  10  19  28  42  66  93 118 143 177 220 261
#     4   9  17  29  46  67  90 115 144 180 219 260
#     4   9  16  25  37  54  80 113 145 177 215 260
#     4   8  15  30  51  70  86 110 146 182 215 255
#     4   8  14  24  37  53  78 113 147 177 209 251
#     4   8  13  21  33  50  74 106 142 177 215 258
#     4   9  18  33  51  67  85 113 147 180 214 257
#
# _framework density 21.266532999999999
#
# number of rings (size 3 to 8) (size 9 to 14) (size 15 to 20)
#    0.000    3.250    0.000    2.625    0.000    5.000 
#    0.000    1.875    0.000    1.125    0.000    0.000 
#    0.000    1.000    0.000    8.000    0.000    7.375 
#
# Total GULP energy -178270.459724 kJ/mol
# GULP energy per Si atom -5570.951866 kJ/mol
# Density = 2.121813 g / cm^3
# Si number density = 21.266533 Si / 1000 Ang^3
#
#
#
# Elastic Constant Matrix: (Units=GPa)
#
#
# Indices 1 2 3 4 5 6 
#
# 1 243.5630 127.8651 1.4527 0.0000 0.0000 0.0000
# 2 127.8651 116.9688 9.7804 0.0000 0.0000 0.0000
# 3 1.4527 9.7804 43.4142 0.0000 0.0000 0.0000
# 4 0.0000 0.0000 0.0000 -5.4669 0.0000 0.0000
# 5 0.0000 0.0000 0.0000 0.0000 68.8708 0.0000
# 6 0.0000 0.0000 0.0000 0.0000 0.0000 22.8689
#
#
#
# Elastic Compliance Matrix: (Units=1/GPa)
#
#
# Indices 1 2 3 4 5 6 
#
# 1 0.009825 -0.010918 0.002131 0.000000 0.000000 0.000000
# 2 -0.010918 0.020847 -0.004331 0.000000 0.000000 0.000000
# 3 0.002131 -0.004331 0.023938 0.000000 0.000000 0.000000
# 4 0.000000 0.000000 0.000000 -0.182918 0.000000 0.000000
# 5 0.000000 0.000000 0.000000 0.000000 0.014520 0.000000
# 6 0.000000 0.000000 0.000000 0.000000 0.000000 0.043728
#
#
# Mechanical properties :
#
#
# Convention : Reuss Voigt Hill
#
# Bulk Modulus (GPa) = 35.24452 75.79360 55.51906
# Shear Modulus (GPa) = -145.49420 34.91107 -55.29156
#
# Velocity S-wave (km/s) = -8.28029 4.05606 -5.10449
# Velocity P-wave (km/s) = 8.64921 7.59294 2.92883
#
# Compressibility (1/GPa) = 0.02837320
#
# Stress axis : x y z
#
# Youngs Moduli (GPa) = 101.78271 47.96899 41.77402
#
# Poissons Ratio (x) = 0.52374 -0.08902
# Poissons Ratio (y) = 1.11129 0.18092
# Poissons Ratio (z) = -0.21689 0.20776
#
# Static dielectric constant tensor:
#      x y z
#    x 1.809960 0.000000 0.000000 
#    y 0.000000 1.741920 0.000000 
#    z 0.000000 0.000000 1.810210 
# 
# From -- ./inp_files/21506.got.cif
#   From: 2010.05.17/outbox.cif.g08.bks.cpg/sg38_11_cif.got.tgz:21506.got - 2010.06.03 18:07:57.
