data_PCOD9356868
_publ_section_title
;
Structure prediction by ZEFSAII (Michael W. Deem and Ramdas Pophale) SiO2 
 PCOD9356868
Probable space group: A M M 2
;
_chemical_formula_sum "Si O2"
_cell_formula_units_Z 64
_cell_length_a 19.836599
_cell_length_b 7.600110
_cell_length_c 21.370045
_cell_angle_alpha 90.000000
_cell_angle_beta 90.000000
_cell_angle_gamma 90.000000
_cell_volume 3221.755131
_symmetry_space_group_name_H-M "A M M 2"
_symmetry_group_IT_number 38
_symmetry_cell_setting 'orthorhombic'
loop_
_space_group_symop_operation_xyz
x,y,z
-x,-y,z
-x,y,z
x,-y,z
x,1/2+y,1/2+z
-x,1/2-y,1/2+z
-x,1/2+y,1/2+z
x,1/2-y,1/2+z
loop_
_atom_site_type_symbol
_atom_site_label
_atom_site_fract_x
_atom_site_fract_y
_atom_site_fract_z
Si Si1 0.575237 0.787511 0.553070
Si Si2 0.717225 0.794316 0.099086
Si Si3 0.923915 0.790250 0.526985
Si Si4 0.289207 0.204221 0.347874
Si Si5 0.924949 0.211149 0.172862
Si Si6 0.213216 0.716517 0.725865
Si Si7 0.215832 0.204434 0.972832
Si Si8 0.575579 0.215071 0.408034
O O1 0.500000 0.730889 0.571984
O O2 0.637061 0.722128 0.593989
O O3 0.585775 0.732564 0.480631
O O4 0.576520 0.000000 0.554048
O O5 0.746929 0.724830 0.163697
O O6 0.736329 0.000000 0.098229
O O7 0.748951 0.717772 0.035275
O O8 0.909356 0.748962 0.599928
O O9 0.863919 0.717967 0.484666
O O10 0.000000 0.724935 0.513821
O O11 0.924039 0.000000 0.519928
O O12 0.249811 0.279675 0.288513
O O13 0.243014 0.210630 0.409707
O O14 0.362164 0.279919 0.366729
O O15 0.301933 0.000000 0.332485
O O16 0.864010 0.274056 0.216027
O O17 0.000000 0.280904 0.186099
O O18 0.927458 0.000000 0.178674
O O19 0.212621 0.500000 0.727299
O O20 0.235001 0.000000 0.967871
O O21 0.500000 0.268629 0.388953
O O22 0.576702 0.000000 0.407921
#
# Coordination Sequence:
#
# PCOD9356868 Si02
#       8
#     8   8   8   8   8   8   8   8
#     4   9  17  30  49  74 101 129 168 215 259 307
#     4  10  19  32  50  74 104 134 167 209 256 310
#     4  10  20  33  52  80 107 131 171 222 262 300
#     4  10  19  33  54  75 103 138 176 222 260 303
#     4   9  16  30  52  74 101 138 174 208 256 314
#     4   9  18  33  50  75 105 136 175 215 257 309
#     4  11  21  34  53  76 106 138 169 208 257 316
#     4   8  14  26  46  72  97 125 168 216 260 305
#
# _framework density 19.864948999999999
#
# number of rings (size 3 to 8) (size 9 to 14) (size 15 to 20)
#    0.000    2.500    2.500    1.500    0.000    1.500 
#    0.000    2.500    0.000    4.875    0.000    0.000 
#    0.000    0.000    0.000    0.000    0.000    0.000 
#
# Total GULP energy -178519.610177 kJ/mol
# GULP energy per Si atom -5578.737818 kJ/mol
# Density = 1.981974 g / cm^3
# Si number density = 19.864949 Si / 1000 Ang^3
#
#
#
# Elastic Constant Matrix: (Units=GPa)
#
#
# Indices 1 2 3 4 5 6 
#
# 1 163.3483 -7.3083 78.6072 0.0000 0.0000 0.0000
# 2 -7.3083 42.0757 -0.6603 0.0000 0.0000 0.0000
# 3 78.6072 -0.6603 111.0956 0.0000 0.0000 0.0000
# 4 0.0000 0.0000 0.0000 8.9207 0.0000 0.0000
# 5 0.0000 0.0000 0.0000 0.0000 29.9048 0.0000
# 6 0.0000 0.0000 0.0000 0.0000 0.0000 14.8799
#
#
#
# Elastic Compliance Matrix: (Units=1/GPa)
#
#
# Indices 1 2 3 4 5 6 
#
# 1 0.009379 0.001525 -0.006627 0.000000 0.000000 0.000000
# 2 0.001525 0.024017 -0.000936 0.000000 0.000000 0.000000
# 3 -0.006627 -0.000936 0.013685 0.000000 0.000000 0.000000
# 4 0.000000 0.000000 0.000000 0.112099 0.000000 0.000000
# 5 0.000000 0.000000 0.000000 0.000000 0.033439 0.000000
# 6 0.000000 0.000000 0.000000 0.000000 0.000000 0.067205
#
#
# Mechanical properties :
#
#
# Convention : Reuss Voigt Hill
#
# Bulk Modulus (GPa) = 28.56821 50.86632 39.71727
# Shear Modulus (GPa) = 17.63234 27.13313 22.38273
#
# Velocity S-wave (km/s) = 2.98251 3.69979 3.36034
# Velocity P-wave (km/s) = 5.12571 6.62668 5.92393
#
# Compressibility (1/GPa) = 0.03500394
#
# Stress axis : x y z
#
# Youngs Moduli (GPa) = 106.61629 41.63731 73.07238
#
# Poissons Ratio (x) = -0.06350 0.48429
# Poissons Ratio (y) = -0.16261 0.06842
# Poissons Ratio (z) = 0.70660 0.03899
#
# Static dielectric constant tensor:
#      x y z
#    x 1.732880 0.000000 0.000000 
#    y 0.000000 1.769350 0.000000 
#    z 0.000000 0.000000 1.664820 
# 
# From -- ./inp_files/18885.got.cif
#   From: 2010.05.17/outbox.cif.g08.bks.cpg/sg38_10_cif.got.tgz:18885.got - 2010.06.03 18:07:57.
