data_PCOD9356882
_publ_section_title
;
Structure prediction by ZEFSAII (Michael W. Deem and Ramdas Pophale) SiO2 
 PCOD9356882
Probable space group: A M M 2
;
_chemical_formula_sum "Si O2"
_cell_formula_units_Z 64
_cell_length_a 7.448867
_cell_length_b 29.283453
_cell_length_c 13.169718
_cell_angle_alpha 90.000000
_cell_angle_beta 90.000000
_cell_angle_gamma 90.000000
_cell_volume 2872.691448
_symmetry_space_group_name_H-M "A M M 2"
_symmetry_group_IT_number 38
_symmetry_cell_setting 'orthorhombic'
loop_
_space_group_symop_operation_xyz
x,y,z
-x,-y,z
-x,y,z
x,-y,z
x,1/2+y,1/2+z
-x,1/2-y,1/2+z
-x,1/2+y,1/2+z
x,1/2-y,1/2+z
loop_
_atom_site_type_symbol
_atom_site_label
_atom_site_fract_x
_atom_site_fract_y
_atom_site_fract_z
Si Si1 0.219763 0.552976 0.429160
Si Si2 0.212681 0.091039 0.145932
Si Si3 0.714166 0.207577 0.634704
Si Si4 0.218705 0.048699 0.578623
Si Si5 0.795770 0.932092 0.361285
Si Si6 0.715715 0.195451 0.202973
Si Si7 0.717471 0.830626 0.420713
Si Si8 0.784585 0.618147 0.245217
O O1 0.273258 0.500000 0.411758
O O2 0.279819 0.570932 0.539896
O O3 0.277853 0.589617 0.343476
O O4 0.000000 0.553096 0.428068
O O5 0.286964 0.067509 0.248942
O O6 0.231508 0.145969 0.158353
O O7 0.000000 0.081981 0.147468
O O8 0.500000 0.211574 0.623809
O O9 0.784811 0.258601 0.651185
O O10 0.782331 0.187054 0.528679
O O11 0.743335 0.171212 0.725372
O O12 0.287365 0.047990 0.463479
O O13 0.282754 0.090477 0.646227
O O14 0.000000 0.052059 0.572641
O O15 0.259595 0.000000 0.628667
O O16 0.798823 0.879082 0.392210
O O17 0.000000 0.949258 0.353220
O O18 0.500000 0.195388 0.196879
O O19 0.762122 0.199251 0.322219
O O20 0.500000 0.835672 0.424130
O O21 0.000000 0.614881 0.246410
#
# Coordination Sequence:
#
# PCOD9356882 Si02
#       8
#     8   8   8   8   8   8   8   8
#     4   9  18  33  53  77 107 142 175 211 261 317
#     4   9  18  32  51  75 103 132 168 211 254 297
#     4  10  20  33  51  74 100 132 171 213 259 307
#     4   9  16  26  44  71  97 121 155 198 240 285
#     4   9  16  28  47  71  96 123 157 200 244 286
#     4   9  19  34  51  73 100 135 173 208 255 312
#     4   9  17  31  49  67  94 128 158 196 248 301
#     4  10  19  32  51  73  99 133 172 209 250 302
#
# _framework density 22.278759999999998
#
# number of rings (size 3 to 8) (size 9 to 14) (size 15 to 20)
#    0.000    2.750    1.250    0.375    0.000    3.500 
#    0.000    4.375    0.000    3.750    0.000    3.500 
#    0.000    0.000    0.000    0.000    0.000    0.000 
#
# Total GULP energy -178430.755538 kJ/mol
# GULP energy per Si atom -5575.961111 kJ/mol
# Density = 2.222805 g / cm^3
# Si number density = 22.278760 Si / 1000 Ang^3
#
#
#
# Elastic Constant Matrix: (Units=GPa)
#
#
# Indices 1 2 3 4 5 6 
#
# 1 68.1129 -1.4839 6.8738 0.0000 0.0000 0.0000
# 2 -1.4839 68.0501 28.8284 0.0000 0.0000 0.0000
# 3 6.8738 28.8284 120.7641 0.0000 0.0000 0.0000
# 4 0.0000 0.0000 0.0000 23.5545 0.0000 0.0000
# 5 0.0000 0.0000 0.0000 0.0000 1.3876 0.0000
# 6 0.0000 0.0000 0.0000 0.0000 0.0000 7.8919
#
#
#
# Elastic Compliance Matrix: (Units=1/GPa)
#
#
# Indices 1 2 3 4 5 6 
#
# 1 0.014801 0.000756 -0.001023 0.000000 0.000000 0.000000
# 2 0.000756 0.016387 -0.003955 0.000000 0.000000 0.000000
# 3 -0.001023 -0.003955 0.009283 0.000000 0.000000 0.000000
# 4 0.000000 0.000000 0.000000 0.042455 0.000000 0.000000
# 5 0.000000 0.000000 0.000000 0.000000 0.720653 0.000000
# 6 0.000000 0.000000 0.000000 0.000000 0.000000 0.126712
#
#
# Mechanical properties :
#
#
# Convention : Reuss Voigt Hill
#
# Bulk Modulus (GPa) = 31.22303 36.15153 33.68728
# Shear Modulus (GPa) = 5.26643 21.41406 13.34024
#
# Velocity S-wave (km/s) = 1.53916 3.10367 2.44967
# Velocity P-wave (km/s) = 4.14775 5.39498 4.81194
#
# Compressibility (1/GPa) = 0.03202764
#
# Stress axis : x y z
#
# Youngs Moduli (GPa) = 67.56200 61.02408 107.72456
#
# Poissons Ratio (x) = -0.04614 0.11020
# Poissons Ratio (y) = -0.05108 0.42604
# Poissons Ratio (z) = 0.06911 0.24134
#
# Static dielectric constant tensor:
#      x y z
#    x 1.870190 0.000000 0.000000 
#    y 0.000000 1.819000 0.000000 
#    z 0.000000 0.000000 1.838800 
# 
# From -- ./inp_files/8622.got.cif
#   From: 2010.05.17/outbox.cif.g08.bks.cpg/sg38_5_cif.got.tgz:8622.got - 2010.06.03 18:07:57.
