data_PCOD9356199
_publ_section_title
;
Structure prediction by ZEFSAII (Michael W. Deem and Ramdas Pophale) SiO2 
 PCOD9356199
Probable space group: A M M 2
;
_chemical_formula_sum "Si O2"
_cell_formula_units_Z 64
_cell_length_a 20.371634
_cell_length_b 8.654555
_cell_length_c 20.758982
_cell_angle_alpha 90.000000
_cell_angle_beta 90.000000
_cell_angle_gamma 90.000000
_cell_volume 3659.962701
_symmetry_space_group_name_H-M "A M M 2"
_symmetry_group_IT_number 38
_symmetry_cell_setting 'orthorhombic'
loop_
_space_group_symop_operation_xyz
x,y,z
-x,-y,z
-x,y,z
x,-y,z
x,1/2+y,1/2+z
-x,1/2-y,1/2+z
-x,1/2+y,1/2+z
x,1/2-y,1/2+z
loop_
_atom_site_type_symbol
_atom_site_label
_atom_site_fract_x
_atom_site_fract_y
_atom_site_fract_z
Si Si1 0.310608 0.814842 0.704550
Si Si2 0.832042 0.684858 0.668781
Si Si3 0.575235 0.815563 0.947079
Si Si4 0.804746 0.185592 0.534130
Si Si5 0.179646 0.688439 0.889545
Si Si6 0.652396 0.685160 0.064162
Si Si7 0.925200 0.811460 0.283580
Si Si8 0.675463 0.814903 0.342231
O O1 0.236248 0.755243 0.694607
O O2 0.349352 0.770072 0.639376
O O3 0.337645 0.747791 0.770814
O O4 0.309409 0.000000 0.707205
O O5 0.826239 0.500000 0.671202
O O6 0.839602 0.738847 0.595332
O O7 0.890296 0.732661 0.716630
O O8 0.500000 0.764813 0.938635
O O9 0.622960 0.742461 0.893925
O O10 0.578009 0.000000 0.941079
O O11 0.601990 0.766850 0.017038
O O12 0.828197 0.236607 0.463733
O O13 0.726822 0.219508 0.540534
O O14 0.811383 0.000000 0.539127
O O15 0.179989 0.500000 0.889325
O O16 0.122050 0.739489 0.841843
O O17 0.251220 0.736765 0.863602
O O18 0.643741 0.500000 0.059273
O O19 0.000000 0.757756 0.288815
O O20 0.926159 0.000000 0.285202
O O21 0.675619 0.000000 0.341247
#
# Coordination Sequence:
#
# PCOD9356199 Si02
#       8
#     8   8   8   8   8   8   8   8
#     4  10  20  34  54  82 112 139 173 224 280 323
#     4  10  18  30  50  77 105 137 180 224 264 321
#     4  11  24  39  55  80 114 147 180 221 271 328
#     4   9  17  31  51  76 107 135 166 221 277 318
#     4   9  16  30  51  76 105 136 177 225 268 317
#     4   9  18  34  55  78 106 140 177 218 268 322
#     4   9  17  30  50  76 106 142 183 226 272 321
#     4  11  20  35  58  83 109 141 184 229 271 322
#
# _framework density 17.486518
#
# number of rings (size 3 to 8) (size 9 to 14) (size 15 to 20)
#    0.000    2.250    2.500    2.250    0.000    3.500 
#    0.000    1.250    0.000    3.000    0.000    0.000 
#    0.000    0.000    0.000    0.000    0.000    0.000 
#
# Total GULP energy -178516.213164 kJ/mol
# GULP energy per Si atom -5578.631661 kJ/mol
# Density = 1.744672 g / cm^3
# Si number density = 17.486518 Si / 1000 Ang^3
#
#
#
# Elastic Constant Matrix: (Units=GPa)
#
#
# Indices 1 2 3 4 5 6 
#
# 1 109.4084 29.9134 79.0024 0.0000 0.0000 0.0000
# 2 29.9134 27.2675 36.2497 0.0000 0.0000 0.0000
# 3 79.0024 36.2497 169.0400 0.0000 0.0000 0.0000
# 4 0.0000 0.0000 0.0000 31.1246 0.0000 0.0000
# 5 0.0000 0.0000 0.0000 0.0000 23.4715 0.0000
# 6 0.0000 0.0000 0.0000 0.0000 0.0000 15.5111
#
#
#
# Elastic Compliance Matrix: (Units=1/GPa)
#
#
# Indices 1 2 3 4 5 6 
#
# 1 0.015661 -0.010421 -0.005084 0.000000 0.000000 0.000000
# 2 -0.010421 0.058233 -0.007617 0.000000 0.000000 0.000000
# 3 -0.005084 -0.007617 0.009925 0.000000 0.000000 0.000000
# 4 0.000000 0.000000 0.000000 0.032129 0.000000 0.000000
# 5 0.000000 0.000000 0.000000 0.000000 0.042605 0.000000
# 6 0.000000 0.000000 0.000000 0.000000 0.000000 0.064470
#
#
# Mechanical properties :
#
#
# Convention : Reuss Voigt Hill
#
# Bulk Modulus (GPa) = 26.61471 66.22742 46.42107
# Shear Modulus (GPa) = 17.74356 24.72481 21.23418
#
# Velocity S-wave (km/s) = 3.18889 3.76431 3.48849
# Velocity P-wave (km/s) = 5.36767 7.53983 6.54450
#
# Compressibility (1/GPa) = 0.03757321
#
# Stress axis : x y z
#
# Youngs Moduli (GPa) = 63.85405 17.17252 100.75069
#
# Poissons Ratio (x) = 0.17896 0.51226
# Poissons Ratio (y) = 0.66543 0.76744
# Poissons Ratio (z) = 0.32466 0.13081
#
# Static dielectric constant tensor:
#      x y z
#    x 1.572740 0.000000 0.000000 
#    y 0.000000 1.593630 0.000000 
#    z 0.000000 0.000000 1.603660 
# 
# From -- ./inp_files/21379.got.cif
#   From: 2010.05.17/outbox.cif.g08.bks.cpg/sg38_11_cif.got.tgz:21379.got - 2010.06.03 18:07:57.
