data_PCOD9356198
_publ_section_title
;
Structure prediction by ZEFSAII (Michael W. Deem and Ramdas Pophale) SiO2 
 PCOD9356198
Probable space group: A M M 2
;
_chemical_formula_sum "Si O2"
_cell_formula_units_Z 48
_cell_length_a 10.742553
_cell_length_b 30.379875
_cell_length_c 8.177365
_cell_angle_alpha 90.000000
_cell_angle_beta 90.000000
_cell_angle_gamma 90.000000
_cell_volume 2668.743722
_symmetry_space_group_name_H-M "A M M 2"
_symmetry_group_IT_number 38
_symmetry_cell_setting 'orthorhombic'
loop_
_space_group_symop_operation_xyz
x,y,z
-x,-y,z
-x,y,z
x,-y,z
x,1/2+y,1/2+z
-x,1/2-y,1/2+z
-x,1/2+y,1/2+z
x,1/2-y,1/2+z
loop_
_atom_site_type_symbol
_atom_site_label
_atom_site_fract_x
_atom_site_fract_y
_atom_site_fract_z
Si Si1 0.858695 0.266447 0.522590
Si Si2 0.862319 0.600680 0.401164
Si Si3 0.362492 0.629786 0.990861
Si Si4 0.139810 0.150013 0.245824
Si Si5 0.774394 0.313604 0.222917
Si Si6 0.641503 0.051542 0.735504
O O1 0.849373 0.300647 0.673145
O O2 0.764446 0.283257 0.383847
O O3 0.836790 0.217809 0.588666
O O4 0.000000 0.270598 0.456203
O O5 0.852032 0.619038 0.585226
O O6 0.850584 0.643893 0.285159
O O7 0.749137 0.569001 0.354817
O O8 0.000000 0.581150 0.378835
O O9 0.500000 0.633989 0.917458
O O10 0.250129 0.638628 0.867849
O O11 0.345562 0.664956 0.138523
O O12 0.349802 0.581962 0.074372
O O13 0.000000 0.145060 0.315820
O O14 0.500000 0.058178 0.800133
O O15 0.657115 0.000000 0.701285
#
# Coordination Sequence:
#
# PCOD9356198 Si02
#       6
#     8   8   8   8   8   8
#     4  10  18  30  50  76 103 134 175 214 249 297
#     4   9  18  33  53  79 107 131 162 209 261 304
#     4  10  21  36  53  74 102 135 171 211 256 301
#     4   9  19  34  53  78 106 136 170 208 249 298
#     4  10  19  31  48  72 102 136 170 209 251 294
#     4   9  19  36  56  76  99 131 171 210 249 303
#
# _framework density 17.985990000000001
#
# number of rings (size 3 to 8) (size 9 to 14) (size 15 to 20)
#    0.000    2.500    0.000    3.500    0.000    6.333 
#    0.000    6.667    0.000    3.000    0.000    0.000 
#    0.000    0.000    0.000    0.000    0.000    0.000 
#
# Total GULP energy -133754.184746 kJ/mol
# GULP energy per Si atom -5573.091031 kJ/mol
# Density = 1.794505 g / cm^3
# Si number density = 17.985990 Si / 1000 Ang^3
#
#
#
# Elastic Constant Matrix: (Units=GPa)
#
#
# Indices 1 2 3 4 5 6 
#
# 1 146.9491 58.9774 58.4620 0.0000 0.0000 0.0000
# 2 58.9774 100.0669 33.5686 0.0000 0.0000 0.0000
# 3 58.4620 33.5686 60.0371 0.0000 0.0000 0.0000
# 4 0.0000 0.0000 0.0000 16.1052 0.0000 0.0000
# 5 0.0000 0.0000 0.0000 0.0000 25.5594 0.0000
# 6 0.0000 0.0000 0.0000 0.0000 0.0000 16.9741
#
#
#
# Elastic Compliance Matrix: (Units=1/GPa)
#
#
# Indices 1 2 3 4 5 6 
#
# 1 0.012267 -0.003967 -0.009727 0.000000 0.000000 0.000000
# 2 -0.003967 0.013583 -0.003732 0.000000 0.000000 0.000000
# 3 -0.009727 -0.003732 0.028215 0.000000 0.000000 0.000000
# 4 0.000000 0.000000 0.000000 0.062092 0.000000 0.000000
# 5 0.000000 0.000000 0.000000 0.000000 0.039124 0.000000
# 6 0.000000 0.000000 0.000000 0.000000 0.000000 0.058913
#
#
# Mechanical properties :
#
#
# Convention : Reuss Voigt Hill
#
# Bulk Modulus (GPa) = 52.04767 67.67435 59.86101
# Shear Modulus (GPa) = 19.57319 22.13075 20.85197
#
# Velocity S-wave (km/s) = 3.30244 3.51157 3.40861
# Velocity P-wave (km/s) = 6.59865 7.35863 6.98897
#
# Compressibility (1/GPa) = 0.01921316
#
# Stress axis : x y z
#
# Youngs Moduli (GPa) = 81.51961 73.62013 35.44205
#
# Poissons Ratio (x) = 0.29204 0.34475
# Poissons Ratio (y) = 0.32337 0.13227
# Poissons Ratio (z) = 0.79296 0.27476
#
# Static dielectric constant tensor:
#      x y z
#    x 1.616980 0.000000 0.000000 
#    y 0.000000 1.612720 0.000000 
#    z 0.000000 0.000000 1.644930 
# 
# From -- ./inp_files/3770.got.cif
#   From: 2010.05.17/outbox.cif.g08.bks.cpg/sg38_2_cif.got.tgz:3770.got - 2010.06.03 18:07:57.
