data_PCOD9356556
_publ_section_title
;
Structure prediction by ZEFSAII (Michael W. Deem and Ramdas Pophale) SiO2 
 PCOD9356556
Probable space group: A M M 2
;
_chemical_formula_sum "Si O2"
_cell_formula_units_Z 64
_cell_length_a 19.119036
_cell_length_b 7.437085
_cell_length_c 21.828851
_cell_angle_alpha 90.000000
_cell_angle_beta 90.000000
_cell_angle_gamma 90.000000
_cell_volume 3103.842050
_symmetry_space_group_name_H-M "A M M 2"
_symmetry_group_IT_number 38
_symmetry_cell_setting 'orthorhombic'
loop_
_space_group_symop_operation_xyz
x,y,z
-x,-y,z
-x,y,z
x,-y,z
x,1/2+y,1/2+z
-x,1/2-y,1/2+z
-x,1/2+y,1/2+z
x,1/2-y,1/2+z
loop_
_atom_site_type_symbol
_atom_site_label
_atom_site_fract_x
_atom_site_fract_y
_atom_site_fract_z
Si Si1 0.419936 0.783020 0.191130
Si Si2 0.920245 0.287343 0.195354
Si Si3 0.672243 0.212947 0.572371
Si Si4 0.830696 0.220820 0.580567
Si Si5 0.919128 0.715737 0.829359
Si Si6 0.414886 0.708583 0.824313
Si Si7 0.081483 0.280906 0.962860
Si Si8 0.418939 0.220601 0.458433
O O1 0.500000 0.721369 0.180602
O O2 0.371157 0.737001 0.134556
O O3 0.394640 0.715245 0.257977
O O4 0.422459 0.000000 0.195458
O O5 0.926471 0.500000 0.185188
O O6 0.871913 0.217451 0.141020
O O7 0.888790 0.265028 0.263456
O O8 0.000000 0.213252 0.194067
O O9 0.750781 0.283008 0.578740
O O10 0.628930 0.283377 0.514184
O O11 0.678655 0.000000 0.561686
O O12 0.872339 0.277492 0.519844
O O13 0.830389 0.000000 0.581429
O O14 0.919810 0.500000 0.831011
O O15 0.891425 0.776282 0.895501
O O16 0.000000 0.778647 0.827489
O O17 0.500000 0.710949 0.823997
O O18 0.392421 0.500000 0.824622
O O19 0.394869 0.783141 0.890797
O O20 0.081671 0.500000 0.963459
O O21 0.000000 0.227437 0.969257
O O22 0.500000 0.272759 0.467862
O O23 0.418641 0.000000 0.457137
#
# Coordination Sequence:
#
# PCOD9356556 Si02
#       8
#     8   8   8   8   8   8   8   8
#     4   9  17  30  48  67  87 114 146 177 210 254
#     4   9  16  27  45  65  84 112 149 183 214 254
#     4  10  19  29  43  65  92 117 141 177 221 258
#     4   9  17  28  41  61  89 117 147 181 214 253
#     4   8  14  25  43  67  90 109 135 179 229 265
#     4   7  11  22  41  63  83 103 133 173 209 241
#     4   8  13  24  44  66  86 111 145 184 222 258
#     4   8  13  23  41  63  83 104 134 171 209 248
#
# _framework density 20.619607999999999
#
# number of rings (size 3 to 8) (size 9 to 14) (size 15 to 20)
#    0.000    3.500    0.000    3.000    0.000    2.250 
#    0.000    1.875    0.000    5.250    0.000    5.250 
#    0.000    0.000    0.000    0.000    0.000    0.000 
#
# Total GULP energy -178289.481714 kJ/mol
# GULP energy per Si atom -5571.546304 kJ/mol
# Density = 2.057268 g / cm^3
# Si number density = 20.619608 Si / 1000 Ang^3
#
#
#
# Elastic Constant Matrix: (Units=GPa)
#
#
# Indices 1 2 3 4 5 6 
#
# 1 100.3089 2.7258 109.1592 0.0000 0.0000 0.0000
# 2 2.7258 60.1163 -0.6406 0.0000 0.0000 0.0000
# 3 109.1592 -0.6406 254.1727 0.0000 0.0000 0.0000
# 4 0.0000 0.0000 0.0000 13.5390 0.0000 0.0000
# 5 0.0000 0.0000 0.0000 0.0000 -6.6480 0.0000
# 6 0.0000 0.0000 0.0000 0.0000 0.0000 1.1150
#
#
#
# Elastic Compliance Matrix: (Units=1/GPa)
#
#
# Indices 1 2 3 4 5 6 
#
# 1 0.018769 -0.000937 -0.008063 0.000000 0.000000 0.000000
# 2 -0.000937 0.016682 0.000444 0.000000 0.000000 0.000000
# 3 -0.008063 0.000444 0.007398 0.000000 0.000000 0.000000
# 4 0.000000 0.000000 0.000000 0.073861 0.000000 0.000000
# 5 0.000000 0.000000 0.000000 0.000000 -0.150420 0.000000
# 6 0.000000 0.000000 0.000000 0.000000 0.000000 0.896901
#
#
# Mechanical properties :
#
#
# Convention : Reuss Voigt Hill
#
# Bulk Modulus (GPa) = 38.85326 70.78740 54.82033
# Shear Modulus (GPa) = 5.62505 21.82474 13.72489
#
# Velocity S-wave (km/s) = 1.65346 3.25691 2.58277
# Velocity P-wave (km/s) = 4.74647 6.96763 5.96142
#
# Compressibility (1/GPa) = 0.02573787
#
# Stress axis : x y z
#
# Youngs Moduli (GPa) = 53.27862 59.94613 135.16560
#
# Poissons Ratio (x) = 0.05617 1.08986
# Poissons Ratio (y) = 0.04992 -0.06007
# Poissons Ratio (z) = 0.42959 -0.02664
#
# Static dielectric constant tensor:
#      x y z
#    x 1.685800 0.000000 0.000000 
#    y 0.000000 1.814010 0.000000 
#    z 0.000000 0.000000 1.765220 
# 
# From -- ./inp_files/23080.got.cif
#   From: 2010.05.17/outbox.cif.g08.bks.cpg/sg38_12_cif.got.tgz:23080.got - 2010.06.03 18:07:57.
