data_PCOD9356493
_publ_section_title
;
Structure prediction by ZEFSAII (Michael W. Deem and Ramdas Pophale) SiO2 
 PCOD9356493
Probable space group: A M M 2
;
_chemical_formula_sum "Si O2"
_cell_formula_units_Z 34
_cell_length_a 10.013880
_cell_length_b 19.090693
_cell_length_c 7.641504
_cell_angle_alpha 90.000000
_cell_angle_beta 90.000000
_cell_angle_gamma 90.000000
_cell_volume 1460.840906
_symmetry_space_group_name_H-M "A M M 2"
_symmetry_group_IT_number 38
_symmetry_cell_setting 'orthorhombic'
loop_
_space_group_symop_operation_xyz
x,y,z
-x,-y,z
-x,y,z
x,-y,z
x,1/2+y,1/2+z
-x,1/2-y,1/2+z
-x,1/2+y,1/2+z
x,1/2-y,1/2+z
loop_
_atom_site_type_symbol
_atom_site_label
_atom_site_fract_x
_atom_site_fract_y
_atom_site_fract_z
Si Si1 0.734979 0.579108 0.389730
Si Si2 0.500000 0.340800 0.948772
Si Si3 0.000000 0.000000 0.374325
Si Si4 0.500000 0.322408 0.367130
Si Si5 0.000000 0.137255 0.017838
Si Si6 0.213016 0.115497 0.483368
Si Si7 0.000000 0.219043 0.379813
O O1 0.683435 0.500000 0.409786
O O2 0.629648 0.638581 0.441617
O O3 0.870627 0.590001 0.495558
O O4 0.770834 0.591129 0.184729
O O5 0.500000 0.338507 0.160340
O O6 0.639710 0.377194 0.901133
O O7 0.500000 0.260317 0.889610
O O8 0.116304 0.060645 0.391533
O O9 0.000000 0.184329 0.189518
O O10 0.000000 0.197537 0.870005
O O11 0.134019 0.189336 0.471948
#
# Coordination Sequence:
#
# PCOD9356493 Si02
#       7
#     8   4   2   4   4   8   4
#     4  11  22  40  63  94 125 173 211 262 321 392
#     4  10  22  39  64  97 120 171 211 268 314 379
#     4  10  18  36  60  92 126 166 194 266 300 380
#     4  10  23  40  65  90 132 161 219 266 318 378
#     4  12  24  39  63  91 128 166 226 267 322 380
#     4  10  21  39  66  91 130 164 215 258 324 382
#     4  11  24  41  60  95 123 170 216 277 322 372
#
# _framework density 23.274266999999998
#
# number of rings (size 3 to 8) (size 9 to 14) (size 15 to 20)
#    0.000    1.412    1.176    4.941    0.000    6.118 
#    8.471    0.000    0.000    0.000    0.000    0.000 
#    0.000    0.000    0.000    0.000    0.000    0.000 
#
# Total GULP energy -94887.227256 kJ/mol
# GULP energy per Si atom -5581.601603 kJ/mol
# Density = 2.322129 g / cm^3
# Si number density = 23.274267 Si / 1000 Ang^3
#
#
#
# Elastic Constant Matrix: (Units=GPa)
#
#
# Indices 1 2 3 4 5 6 
#
# 1 200.6273 60.7406 9.6525 0.0000 0.0000 0.0000
# 2 60.7406 119.2670 0.0397 0.0000 0.0000 0.0000
# 3 9.6525 0.0397 59.1652 0.0000 0.0000 0.0000
# 4 0.0000 0.0000 0.0000 11.0451 0.0000 0.0000
# 5 0.0000 0.0000 0.0000 0.0000 -4.4839 0.0000
# 6 0.0000 0.0000 0.0000 0.0000 0.0000 34.8687
#
#
#
# Elastic Compliance Matrix: (Units=1/GPa)
#
#
# Indices 1 2 3 4 5 6 
#
# 1 0.005948 -0.003029 -0.000968 0.000000 0.000000 0.000000
# 2 -0.003029 0.009927 0.000487 0.000000 0.000000 0.000000
# 3 -0.000968 0.000487 0.017059 0.000000 0.000000 0.000000
# 4 0.000000 0.000000 0.000000 0.090538 0.000000 0.000000
# 5 0.000000 0.000000 0.000000 0.000000 -0.223021 0.000000
# 6 0.000000 0.000000 0.000000 0.000000 0.000000 0.028679
#
#
# Mechanical properties :
#
#
# Convention : Reuss Voigt Hill
#
# Bulk Modulus (GPa) = 38.58781 57.76946 48.17864
# Shear Modulus (GPa) = -90.56046 28.86110 -30.84968
#
# Velocity S-wave (km/s) = -6.24457 3.52525 -3.64467
# Velocity P-wave (km/s) = 5.94787 6.43777 1.74179
#
# Compressibility (1/GPa) = 0.02591492
#
# Stress axis : x y z
#
# Youngs Moduli (GPa) = 168.12506 100.73608 58.61841
#
# Poissons Ratio (x) = 0.30512 0.05676
# Poissons Ratio (y) = 0.50923 -0.02858
# Poissons Ratio (z) = 0.16280 -0.04911
#
# Static dielectric constant tensor:
#      x y z
#    x 1.849890 0.000000 0.000000 
#    y 0.000000 1.834670 0.000000 
#    z 0.000000 0.000000 1.948790 
# 
# From -- ./inp_files/3202.got.cif
#   From: 2010.05.17/outbox.cif.g08.bks.cpg/sg38_2_cif.got.tgz:3202.got - 2010.06.03 18:07:57.
