data_PCOD9356397
_publ_section_title
;
Structure prediction by ZEFSAII (Michael W. Deem and Ramdas Pophale) SiO2 
 PCOD9356397
Probable space group: A M M 2
;
_chemical_formula_sum "Si O2"
_cell_formula_units_Z 64
_cell_length_a 15.321472
_cell_length_b 16.778094
_cell_length_c 12.764495
_cell_angle_alpha 90.000000
_cell_angle_beta 90.000000
_cell_angle_gamma 90.000000
_cell_volume 3281.306151
_symmetry_space_group_name_H-M "A M M 2"
_symmetry_group_IT_number 38
_symmetry_cell_setting 'orthorhombic'
loop_
_space_group_symop_operation_xyz
x,y,z
-x,-y,z
-x,y,z
x,-y,z
x,1/2+y,1/2+z
-x,1/2-y,1/2+z
-x,1/2+y,1/2+z
x,1/2-y,1/2+z
loop_
_atom_site_type_symbol
_atom_site_label
_atom_site_fract_x
_atom_site_fract_y
_atom_site_fract_z
Si Si1 0.092566 0.184511 0.091800
Si Si2 0.402548 0.180708 0.422264
Si Si3 0.738198 0.593000 0.519936
Si Si4 0.098910 0.869947 0.536489
Si Si5 0.658057 0.408183 0.726831
Si Si6 0.705383 0.682475 0.322227
Si Si7 0.167052 0.166057 0.309584
Si Si8 0.709313 0.906750 0.603897
O O1 0.174410 0.141727 0.041584
O O2 0.098466 0.278399 0.073628
O O3 0.100168 0.170381 0.215040
O O4 0.000000 0.155421 0.049440
O O5 0.500000 0.183085 0.466379
O O6 0.401574 0.133867 0.311770
O O7 0.367993 0.266112 0.382949
O O8 0.336938 0.137404 0.504479
O O9 0.751261 0.500000 0.541176
O O10 0.667253 0.621920 0.606906
O O11 0.718396 0.608737 0.399685
O O12 0.121626 0.864503 0.413697
O O13 0.185209 0.907349 0.588691
O O14 0.000000 0.901686 0.554046
O O15 0.635122 0.500000 0.723971
O O16 0.754976 0.392638 0.773942
O O17 0.785443 0.747024 0.320140
O O18 0.689578 0.647425 0.206577
O O19 0.680987 0.000000 0.611189
#
# Coordination Sequence:
#
# PCOD9356397 Si02
#       8
#     8   8   8   8   8   8   8   8
#     4  10  19  32  52  81 117 158 211 269 312 362
#     4  11  25  42  70  98 122 159 211 267 323 389
#     4  10  20  37  60  86 119 163 205 250 313 379
#     4  11  21  35  58  88 125 172 219 265 318 379
#     4   9  19  35  60  89 119 151 194 255 320 374
#     4  11  22  41  64  89 126 167 212 251 315 389
#     4  10  18  32  57  82 115 159 209 259 306 372
#     4  12  25  43  66  97 137 175 215 270 330 388
#
# _framework density 19.504428000000001
#
# number of rings (size 3 to 8) (size 9 to 14) (size 15 to 20)
#    0.000    1.500    5.000    1.125    3.500    2.000 
#    0.000    0.625    0.000    5.625    0.000    0.000 
#    0.000    0.000    0.000    0.000    0.000    0.000 
#
# Total GULP energy -178302.797506 kJ/mol
# GULP energy per Si atom -5571.962422 kJ/mol
# Density = 1.946004 g / cm^3
# Si number density = 19.504428 Si / 1000 Ang^3
#
#
#
# Elastic Constant Matrix: (Units=GPa)
#
#
# Indices 1 2 3 4 5 6 
#
# 1 85.3069 14.3376 10.4203 0.0000 0.0000 0.0000
# 2 14.3376 64.4174 13.8668 0.0000 0.0000 0.0000
# 3 10.4203 13.8668 91.1809 0.0000 0.0000 0.0000
# 4 0.0000 0.0000 0.0000 21.5351 0.0000 0.0000
# 5 0.0000 0.0000 0.0000 0.0000 5.0097 0.0000
# 6 0.0000 0.0000 0.0000 0.0000 0.0000 9.2754
#
#
#
# Elastic Compliance Matrix: (Units=1/GPa)
#
#
# Indices 1 2 3 4 5 6 
#
# 1 0.012269 -0.002511 -0.001020 0.000000 0.000000 0.000000
# 2 -0.002511 0.016563 -0.002232 0.000000 0.000000 0.000000
# 3 -0.001020 -0.002232 0.011423 0.000000 0.000000 0.000000
# 4 0.000000 0.000000 0.000000 0.046436 0.000000 0.000000
# 5 0.000000 0.000000 0.000000 0.000000 0.199612 0.000000
# 6 0.000000 0.000000 0.000000 0.000000 0.000000 0.107812
#
#
# Mechanical properties :
#
#
# Convention : Reuss Voigt Hill
#
# Bulk Modulus (GPa) = 34.80829 35.35049 35.07939
# Shear Modulus (GPa) = 12.04185 20.64942 16.34563
#
# Velocity S-wave (km/s) = 2.48743 3.25730 2.89805
# Velocity P-wave (km/s) = 5.11222 5.68422 5.40579
#
# Compressibility (1/GPa) = 0.02872879
#
# Stress axis : x y z
#
# Youngs Moduli (GPa) = 81.50587 60.37507 87.54084
#
# Poissons Ratio (x) = 0.15161 0.08931
# Poissons Ratio (y) = 0.20467 0.19539
# Poissons Ratio (z) = 0.08315 0.13475
#
# Static dielectric constant tensor:
#      x y z
#    x 1.711550 0.000000 0.000000 
#    y 0.000000 1.694320 0.000000 
#    z 0.000000 0.000000 1.695660 
# 
# From -- ./inp_files/10238.got.cif
#   From: 2010.05.17/outbox.cif.g08.bks.cpg/sg38_6_cif.got.tgz:10238.got - 2010.06.03 18:07:57.
