data_PCOD9356279
_publ_section_title
;
Structure prediction by ZEFSAII (Michael W. Deem and Ramdas Pophale) SiO2 
 PCOD9356279
Probable space group: A M M 2
;
_chemical_formula_sum "Si O2"
_cell_formula_units_Z 64
_cell_length_a 16.858752
_cell_length_b 20.193441
_cell_length_c 9.244571
_cell_angle_alpha 90.000000
_cell_angle_beta 90.000000
_cell_angle_gamma 90.000000
_cell_volume 3147.186750
_symmetry_space_group_name_H-M "A M M 2"
_symmetry_group_IT_number 38
_symmetry_cell_setting 'orthorhombic'
loop_
_space_group_symop_operation_xyz
x,y,z
-x,-y,z
-x,y,z
x,-y,z
x,1/2+y,1/2+z
-x,1/2-y,1/2+z
-x,1/2+y,1/2+z
x,1/2-y,1/2+z
loop_
_atom_site_type_symbol
_atom_site_label
_atom_site_fract_x
_atom_site_fract_y
_atom_site_fract_z
Si Si1 0.912821 0.714628 0.206820
Si Si2 0.405902 0.077221 0.995820
Si Si3 0.092295 0.372219 0.738564
Si Si4 0.290031 0.926230 0.742716
Si Si5 0.199355 0.141953 0.485257
Si Si6 0.592611 0.711031 0.667374
Si Si7 0.692846 0.752316 0.419706
Si Si8 0.825819 0.863457 0.937134
O O1 0.908404 0.791660 0.245773
O O2 0.896927 0.670807 0.348767
O O3 0.000000 0.701227 0.146601
O O4 0.849269 0.692368 0.088221
O O5 0.500000 0.076597 0.972412
O O6 0.361309 0.098165 0.847480
O O7 0.382124 0.000000 0.030087
O O8 0.391175 0.134114 0.117602
O O9 0.137498 0.396416 0.883371
O O10 0.143582 0.384570 0.593697
O O11 0.000000 0.393644 0.728686
O O12 0.259135 0.893591 0.595418
O O13 0.212928 0.922662 0.846879
O O14 0.313497 0.000000 0.704977
O O15 0.253720 0.185048 0.379669
O O16 0.500000 0.722507 0.636595
O O17 0.656866 0.753015 0.578593
O O18 0.614248 0.737123 0.825341
O O19 0.755058 0.691499 0.422020
#
# Coordination Sequence:
#
# PCOD9356279 Si02
#       8
#     8   8   8   8   8   8   8   8
#     4  10  18  31  51  82 117 147 182 224 280 343
#     4   9  19  38  63  86 108 143 195 249 286 323
#     4  11  20  33  55  86 119 147 185 231 290 341
#     4  10  22  40  60  82 107 151 199 233 277 339
#     4  11  22  35  55  83 118 151 180 237 285 338
#     4  11  23  37  56  83 120 157 191 226 279 352
#     4  12  21  36  55  87 120 154 179 231 294 344
#     4  11  20  34  57  84 114 150 186 239 275 337
#
# _framework density 20.335621
#
# number of rings (size 3 to 8) (size 9 to 14) (size 15 to 20)
#    0.000    1.375    3.750    3.375    0.000    2.000 
#    0.000    1.875    0.000   14.250    0.000    0.000 
#    0.000    0.000    0.000    0.000    0.000    0.000 
#
# Total GULP energy -178137.348332 kJ/mol
# GULP energy per Si atom -5566.792135 kJ/mol
# Density = 2.028934 g / cm^3
# Si number density = 20.335621 Si / 1000 Ang^3
#
#
#
# Elastic Constant Matrix: (Units=GPa)
#
#
# Indices 1 2 3 4 5 6 
#
# 1 69.5453 20.7664 0.6278 0.0000 0.0000 0.0000
# 2 20.7664 21.6767 6.5141 0.0000 0.0000 0.0000
# 3 0.6278 6.5141 55.0618 0.0000 0.0000 0.0000
# 4 0.0000 0.0000 0.0000 11.0074 0.0000 0.0000
# 5 0.0000 0.0000 0.0000 0.0000 36.7151 0.0000
# 6 0.0000 0.0000 0.0000 0.0000 0.0000 12.8426
#
#
#
# Elastic Compliance Matrix: (Units=1/GPa)
#
#
# Indices 1 2 3 4 5 6 
#
# 1 0.020384 -0.020176 0.002154 0.000000 0.000000 0.000000
# 2 -0.020176 0.067802 -0.007791 0.000000 0.000000 0.000000
# 3 0.002154 -0.007791 0.019059 0.000000 0.000000 0.000000
# 4 0.000000 0.000000 0.000000 0.090848 0.000000 0.000000
# 5 0.000000 0.000000 0.000000 0.000000 0.027237 0.000000
# 6 0.000000 0.000000 0.000000 0.000000 0.000000 0.077866
#
#
# Mechanical properties :
#
#
# Convention : Reuss Voigt Hill
#
# Bulk Modulus (GPa) = 17.97910 22.45558 20.21734
# Shear Modulus (GPa) = 13.39187 20.00471 16.69829
#
# Velocity S-wave (km/s) = 2.56899 3.13985 2.86865
# Velocity P-wave (km/s) = 4.20238 4.92050 4.57555
#
# Compressibility (1/GPa) = 0.05562014
#
# Stress axis : x y z
#
# Youngs Moduli (GPa) = 49.05778 14.74878 52.46972
#
# Poissons Ratio (x) = 0.29756 -0.11304
# Poissons Ratio (y) = 0.98977 0.40881
# Poissons Ratio (z) = -0.10569 0.11491
#
# Static dielectric constant tensor:
#      x y z
#    x 1.707510 0.000000 0.000000 
#    y 0.000000 1.777250 0.000000 
#    z 0.000000 0.000000 1.724570 
# 
# From -- ./inp_files/6548.got.cif
#   From: 2010.05.17/outbox.cif.g08.bks.cpg/sg38_4_cif.got.tgz:6548.got - 2010.06.03 18:07:57.
