data_PCOD9357933
_publ_section_title
;
Structure prediction by ZEFSAII (Michael W. Deem and Ramdas Pophale) SiO2 
 PCOD9357933
Probable space group: A M M 2
;
_chemical_formula_sum "Si O2"
_cell_formula_units_Z 64
_cell_length_a 8.790290
_cell_length_b 20.490023
_cell_length_c 20.533848
_cell_angle_alpha 90.000000
_cell_angle_beta 90.000000
_cell_angle_gamma 90.000000
_cell_volume 3698.417981
_symmetry_space_group_name_H-M "A M M 2"
_symmetry_group_IT_number 38
_symmetry_cell_setting 'orthorhombic'
loop_
_space_group_symop_operation_xyz
x,y,z
-x,-y,z
-x,y,z
x,-y,z
x,1/2+y,1/2+z
-x,1/2-y,1/2+z
-x,1/2+y,1/2+z
x,1/2-y,1/2+z
loop_
_atom_site_type_symbol
_atom_site_label
_atom_site_fract_x
_atom_site_fract_y
_atom_site_fract_z
Si Si1 0.316518 0.425154 0.871520
Si Si2 0.183514 0.681645 0.625462
Si Si3 0.682099 0.924109 0.872030
Si Si4 0.817999 0.676572 0.474700
Si Si5 0.817901 0.575891 0.230309
Si Si6 0.183482 0.074846 0.230819
Si Si7 0.683514 0.818355 0.476877
Si Si8 0.317999 0.823429 0.627639
O O1 0.500000 0.423745 0.867938
O O2 0.270427 0.500000 0.885843
O O3 0.250000 0.407318 0.801169
O O4 0.268901 0.374842 0.927239
O O5 0.222981 0.664802 0.550653
O O6 0.231099 0.625159 0.675100
O O7 0.257717 0.750853 0.642843
O O8 0.000000 0.688465 0.628497
O O9 0.500000 0.919073 0.869417
O O10 0.746367 0.876399 0.926881
O O11 0.750000 0.907454 0.801169
O O12 0.722454 0.000000 0.885495
O O13 0.757717 0.749147 0.459496
O O14 0.000000 0.674806 0.468963
O O15 0.777547 0.500000 0.216844
O O16 0.753633 0.623600 0.175458
O O17 0.000000 0.580927 0.232922
O O18 0.000000 0.076255 0.234401
O O19 0.229573 0.000000 0.216496
O O20 0.500000 0.811536 0.473842
O O21 0.722982 0.835198 0.551686
O O22 0.500000 0.825194 0.633376
#
# Coordination Sequence:
#
# PCOD9357933 Si02
#       8
#     8   8   8   8   8   8   8   8
#     4   9  18  33  52  74 100 131 168 209 252 298
#     4   9  19  35  53  74 104 140 175 212 254 305
#     4  10  21  37  56  78 105 136 171 213 260 312
#     4  10  20  34  54  78 104 136 173 214 259 306
#     4  10  21  37  56  78 105 136 171 213 260 312
#     4   9  18  33  52  74 100 131 168 209 252 298
#     4   9  19  35  53  74 104 140 175 212 254 305
#     4  10  20  34  54  78 104 136 173 214 259 306
#
# _framework density 17.304697000000001
#
# number of rings (size 3 to 8) (size 9 to 14) (size 15 to 20)
#    0.000    2.500    0.000    1.500    0.000    5.500 
#    0.000    5.000    0.000    3.000    0.000    0.000 
#    0.000    0.000    0.000    0.000    0.000    0.000 
#
# Total GULP energy -178545.783302 kJ/mol
# GULP energy per Si atom -5579.555728 kJ/mol
# Density = 1.726531 g / cm^3
# Si number density = 17.304697 Si / 1000 Ang^3
#
#
#
# Elastic Constant Matrix: (Units=GPa)
#
#
# Indices 1 2 3 4 5 6 
#
# 1 33.0952 46.8983 46.2741 0.0000 0.0000 0.0000
# 2 46.8983 137.3659 127.8810 0.0000 0.0000 0.0000
# 3 46.2741 127.8810 141.9923 0.0000 0.0000 0.0000
# 4 0.0000 0.0000 0.0000 44.9447 0.0000 0.0000
# 5 0.0000 0.0000 0.0000 0.0000 31.0853 0.0000
# 6 0.0000 0.0000 0.0000 0.0000 0.0000 -14.8433
#
#
#
# Elastic Compliance Matrix: (Units=1/GPa)
#
#
# Indices 1 2 3 4 5 6 
#
# 1 0.059575 -0.014020 -0.006788 0.000000 0.000000 0.000000
# 2 -0.014020 0.048357 -0.038982 0.000000 0.000000 0.000000
# 3 -0.006788 -0.038982 0.044363 0.000000 0.000000 0.000000
# 4 0.000000 0.000000 0.000000 0.022250 0.000000 0.000000
# 5 0.000000 0.000000 0.000000 0.000000 0.032170 0.000000
# 6 0.000000 0.000000 0.000000 0.000000 0.000000 -0.067371
#
#
# Mechanical properties :
#
#
# Convention : Reuss Voigt Hill
#
# Bulk Modulus (GPa) = 30.56816 83.84001 57.20409
# Shear Modulus (GPa) = 18.53033 18.33067 18.43050
#
# Velocity S-wave (km/s) = 3.27590 3.25820 3.26706
# Velocity P-wave (km/s) = 5.65789 7.91890 6.88188
#
# Compressibility (1/GPa) = 0.03271378
#
# Stress axis : x y z
#
# Youngs Moduli (GPa) = 16.78566 20.67963 22.54137
#
# Poissons Ratio (x) = 0.28992 0.15302
# Poissons Ratio (y) = 0.23533 0.87871
# Poissons Ratio (z) = 0.11395 0.80613
#
# Static dielectric constant tensor:
#      x y z
#    x 1.581350 0.000000 0.000000 
#    y 0.000000 1.566680 0.000000 
#    z 0.000000 0.000000 1.563470 
# 
# From -- ./inp_files/17183.got.cif
#   From: 2010.05.17/outbox.cif.g08.bks.cpg/sg38_9_cif.got.tgz:17183.got - 2010.06.03 18:07:57.
