data_PCOD9357034
_publ_section_title
;
Structure prediction by ZEFSAII (Michael W. Deem and Ramdas Pophale) SiO2 
 PCOD9357034
Probable space group: A M M 2
;
_chemical_formula_sum "Si O2"
_cell_formula_units_Z 64
_cell_length_a 8.922259
_cell_length_b 23.698576
_cell_length_c 19.474755
_cell_angle_alpha 90.000000
_cell_angle_beta 90.000000
_cell_angle_gamma 90.000000
_cell_volume 4117.836319
_symmetry_space_group_name_H-M "A M M 2"
_symmetry_group_IT_number 38
_symmetry_cell_setting 'orthorhombic'
loop_
_space_group_symop_operation_xyz
x,y,z
-x,-y,z
-x,y,z
x,-y,z
x,1/2+y,1/2+z
-x,1/2-y,1/2+z
-x,1/2+y,1/2+z
x,1/2-y,1/2+z
loop_
_atom_site_type_symbol
_atom_site_label
_atom_site_fract_x
_atom_site_fract_y
_atom_site_fract_z
Si Si1 0.821787 0.660334 0.232800
Si Si2 0.679937 0.754815 0.958408
Si Si3 0.321237 0.276319 0.110436
Si Si4 0.678868 0.434183 0.323027
Si Si5 0.179676 0.120372 0.957944
Si Si6 0.678458 0.337889 0.693837
Si Si7 0.820059 0.934648 0.105276
Si Si8 0.821172 0.225214 0.317667
O O1 0.764056 0.679432 0.158291
O O2 0.740793 0.605816 0.263055
O O3 0.787880 0.713469 0.283315
O O4 0.000000 0.652344 0.232635
O O5 0.500000 0.758951 0.954173
O O6 0.748927 0.817559 0.959559
O O7 0.745037 0.724079 0.891760
O O8 0.718755 0.724825 0.030377
O O9 0.500000 0.285323 0.117108
O O10 0.288753 0.214104 0.141606
O O11 0.500000 0.427310 0.328794
O O12 0.712228 0.500000 0.311371
O O13 0.755264 0.413312 0.393337
O O14 0.000000 0.125219 0.951065
O O15 0.214523 0.088385 0.028959
O O16 0.500000 0.340867 0.702507
O O17 0.741395 0.394407 0.660151
O O18 0.755947 0.320585 0.765043
O O19 0.000000 0.930656 0.113732
O O20 0.776354 0.000000 0.111358
O O21 0.000000 0.220116 0.323100
#
# Coordination Sequence:
#
# PCOD9357034 Si02
#       8
#     8   8   8   8   8   8   8   8
#     4  10  20  33  51  74  98 130 169 210 253 296
#     4  11  20  32  51  76 104 135 168 205 251 302
#     4   9  19  33  50  72 101 132 164 205 254 301
#     4  11  23  36  51  71  99 137 176 213 252 294
#     4  11  21  33  49  71 102 138 175 211 245 291
#     4  10  19  33  51  73  98 131 170 211 254 296
#     4  10  21  35  50  70 100 138 175 212 253 296
#     4  10  20  33  50  74 101 132 167 206 255 302
#
# _framework density 15.542142999999999
#
# number of rings (size 3 to 8) (size 9 to 14) (size 15 to 20)
#    0.000    1.750    2.500    2.625    0.000    4.750 
#    0.000    0.000    0.000    0.000    0.000    0.875 
#    0.000    1.000    0.000    0.000    0.000    0.000 
#
# Total GULP energy -178685.665899 kJ/mol
# GULP energy per Si atom -5583.927059 kJ/mol
# Density = 1.550677 g / cm^3
# Si number density = 15.542143 Si / 1000 Ang^3
#
#
#
# Elastic Constant Matrix: (Units=GPa)
#
#
# Indices 1 2 3 4 5 6 
#
# 1 55.4928 50.0239 64.9930 0.0000 0.0000 0.0000
# 2 50.0239 95.9541 72.5007 0.0000 0.0000 0.0000
# 3 64.9930 72.5007 146.6174 0.0000 0.0000 0.0000
# 4 0.0000 0.0000 0.0000 18.0460 0.0000 0.0000
# 5 0.0000 0.0000 0.0000 0.0000 29.8421 0.0000
# 6 0.0000 0.0000 0.0000 0.0000 0.0000 22.6892
#
#
#
# Elastic Compliance Matrix: (Units=1/GPa)
#
#
# Indices 1 2 3 4 5 6 
#
# 1 0.046816 -0.013932 -0.013864 0.000000 0.000000 0.000000
# 2 -0.013932 0.020784 -0.004102 0.000000 0.000000 0.000000
# 3 -0.013864 -0.004102 0.014994 0.000000 0.000000 0.000000
# 4 0.000000 0.000000 0.000000 0.055414 0.000000 0.000000
# 5 0.000000 0.000000 0.000000 0.000000 0.033510 0.000000
# 6 0.000000 0.000000 0.000000 0.000000 0.000000 0.044074
#
#
# Mechanical properties :
#
#
# Convention : Reuss Voigt Hill
#
# Bulk Modulus (GPa) = 53.19133 74.78884 63.99008
# Shear Modulus (GPa) = 17.50377 21.48523 19.49450
#
# Velocity S-wave (km/s) = 3.35955 3.72208 3.54545
# Velocity P-wave (km/s) = 7.02474 8.16678 7.61720
#
# Compressibility (1/GPa) = 0.01880006
#
# Stress axis : x y z
#
# Youngs Moduli (GPa) = 21.36017 48.11433 66.69202
#
# Poissons Ratio (x) = 0.67031 0.92460
# Poissons Ratio (y) = 0.29758 0.27355
# Poissons Ratio (z) = 0.29613 0.19735
#
# Static dielectric constant tensor:
#      x y z
#    x 1.515930 0.000000 0.000000 
#    y 0.000000 1.489930 0.000000 
#    z 0.000000 0.000000 1.508700 
# 
# From -- ./inp_files/17152.got.cif
#   From: 2010.05.17/outbox.cif.g08.bks.cpg/sg38_9_cif.got.tgz:17152.got - 2010.06.03 18:07:57.
