data_PCOD9357126
_publ_section_title
;
Structure prediction by ZEFSAII (Michael W. Deem and Ramdas Pophale) SiO2 
 PCOD9357126
Probable space group: A M M 2
;
_chemical_formula_sum "Si O2"
_cell_formula_units_Z 64
_cell_length_a 19.621865
_cell_length_b 9.056848
_cell_length_c 20.895421
_cell_angle_alpha 90.000000
_cell_angle_beta 90.000000
_cell_angle_gamma 90.000000
_cell_volume 3713.372255
_symmetry_space_group_name_H-M "A M M 2"
_symmetry_group_IT_number 38
_symmetry_cell_setting 'orthorhombic'
loop_
_space_group_symop_operation_xyz
x,y,z
-x,-y,z
-x,y,z
x,-y,z
x,1/2+y,1/2+z
-x,1/2-y,1/2+z
-x,1/2+y,1/2+z
x,1/2-y,1/2+z
loop_
_atom_site_type_symbol
_atom_site_label
_atom_site_fract_x
_atom_site_fract_y
_atom_site_fract_z
Si Si1 0.421387 0.174424 0.735820
Si Si2 0.702392 0.175245 0.295343
Si Si3 0.077920 0.676438 0.368969
Si Si4 0.421467 0.176141 0.097086
Si Si5 0.290901 0.676267 0.047478
Si Si6 0.786422 0.175149 0.164394
Si Si7 0.922274 0.175921 0.230595
Si Si8 0.791018 0.322690 0.918973
O O1 0.500000 0.198177 0.755086
O O2 0.367514 0.237542 0.785855
O O3 0.411082 0.257653 0.668236
O O4 0.410940 0.000000 0.725908
O O5 0.746411 0.198886 0.231010
O O6 0.746187 0.219656 0.356940
O O7 0.688506 0.000000 0.300116
O O8 0.083782 0.500000 0.367869
O O9 0.088487 0.739956 0.297335
O O10 0.135889 0.745819 0.413220
O O11 0.000000 0.715058 0.387507
O O12 0.500000 0.207569 0.078733
O O13 0.364888 0.248479 0.052186
O O14 0.412287 0.000000 0.099771
O O15 0.298646 0.500000 0.050598
O O16 0.248042 0.734058 0.108070
O O17 0.250242 0.714372 0.982983
O O18 0.864681 0.215447 0.179384
O O19 0.782261 0.000000 0.149514
O O20 0.000000 0.202491 0.209438
O O21 0.914471 0.000000 0.243431
O O22 0.800476 0.500000 0.916642
#
# Coordination Sequence:
#
# PCOD9357126 Si02
#       8
#     8   8   8   8   8   8   8   8
#     4  10  20  33  52  81 112 140 176 224 274 320
#     4  10  19  34  56  80 106 139 181 222 264 319
#     4  10  20  33  53  83 112 139 177 226 275 319
#     4  10  20  35  56  80 107 142 181 219 265 323
#     4  11  23  37  56  81 110 144 182 225 271 319
#     4  10  19  33  55  81 109 140 178 223 268 320
#     4   9  17  32  55  80 107 143 183 222 268 322
#     4  10  22  40  57  78 109 148 188 221 263 324
#
# _framework density 17.235007
#
# number of rings (size 3 to 8) (size 9 to 14) (size 15 to 20)
#    0.000    2.000    2.500    1.500    0.000    4.250 
#    0.000    1.250    0.000    6.000    0.000    0.000 
#    0.000    0.000    0.000    0.000    0.000    0.000 
#
# Total GULP energy -178605.028710 kJ/mol
# GULP energy per Si atom -5581.407147 kJ/mol
# Density = 1.719578 g / cm^3
# Si number density = 17.235007 Si / 1000 Ang^3
#
#
#
# Elastic Constant Matrix: (Units=GPa)
#
#
# Indices 1 2 3 4 5 6 
#
# 1 156.5099 68.4500 67.2981 0.0000 0.0000 0.0000
# 2 68.4500 53.4090 46.6192 0.0000 0.0000 0.0000
# 3 67.2981 46.6192 87.7105 0.0000 0.0000 0.0000
# 4 0.0000 0.0000 0.0000 21.4047 0.0000 0.0000
# 5 0.0000 0.0000 0.0000 0.0000 27.9990 0.0000
# 6 0.0000 0.0000 0.0000 0.0000 0.0000 30.5850
#
#
#
# Elastic Compliance Matrix: (Units=1/GPa)
#
#
# Indices 1 2 3 4 5 6 
#
# 1 0.014799 -0.016893 -0.002376 0.000000 0.000000 0.000000
# 2 -0.016893 0.054210 -0.015852 0.000000 0.000000 0.000000
# 3 -0.002376 -0.015852 0.021650 0.000000 0.000000 0.000000
# 4 0.000000 0.000000 0.000000 0.046719 0.000000 0.000000
# 5 0.000000 0.000000 0.000000 0.000000 0.035716 0.000000
# 6 0.000000 0.000000 0.000000 0.000000 0.000000 0.032696
#
#
# Mechanical properties :
#
#
# Convention : Reuss Voigt Hill
#
# Bulk Modulus (GPa) = 48.97826 73.59601 61.28713
# Shear Modulus (GPa) = 17.67798 23.68190 20.67994
#
# Velocity S-wave (km/s) = 3.20613 3.71085 3.46769
# Velocity P-wave (km/s) = 6.49502 7.82015 7.18819
#
# Compressibility (1/GPa) = 0.02041722
#
# Stress axis : x y z
#
# Youngs Moduli (GPa) = 67.57075 18.44668 46.18921
#
# Poissons Ratio (x) = 0.31161 0.10977
# Poissons Ratio (y) = 1.14146 0.73219
# Poissons Ratio (z) = 0.16058 0.29242
#
# Static dielectric constant tensor:
#      x y z
#    x 1.607240 0.000000 0.000000 
#    y 0.000000 1.576340 0.000000 
#    z 0.000000 0.000000 1.551320 
# 
# From -- ./inp_files/21455.got.cif
#   From: 2010.05.17/outbox.cif.g08.bks.cpg/sg38_11_cif.got.tgz:21455.got - 2010.06.03 18:07:57.
