data_PCOD9357360
_publ_section_title
;
Structure prediction by ZEFSAII (Michael W. Deem and Ramdas Pophale) SiO2 
 PCOD9357360
Probable space group: A M M 2
;
_chemical_formula_sum "Si O2"
_cell_formula_units_Z 56
_cell_length_a 16.050517
_cell_length_b 7.850792
_cell_length_c 20.863610
_cell_angle_alpha 90.000000
_cell_angle_beta 90.000000
_cell_angle_gamma 90.000000
_cell_volume 2629.008275
_symmetry_space_group_name_H-M "A M M 2"
_symmetry_group_IT_number 38
_symmetry_cell_setting 'orthorhombic'
loop_
_space_group_symop_operation_xyz
x,y,z
-x,-y,z
-x,y,z
x,-y,z
x,1/2+y,1/2+z
-x,1/2-y,1/2+z
-x,1/2+y,1/2+z
x,1/2-y,1/2+z
loop_
_atom_site_type_symbol
_atom_site_label
_atom_site_fract_x
_atom_site_fract_y
_atom_site_fract_z
Si Si1 0.411949 0.799288 0.147090
Si Si2 0.371690 0.802718 0.789051
Si Si3 0.408968 0.801198 0.431756
Si Si4 0.775243 0.702571 0.471655
Si Si5 0.769602 0.291332 0.611267
Si Si6 0.190600 0.798017 0.250935
Si Si7 0.092579 0.205904 0.868703
O O1 0.500000 0.723861 0.125184
O O2 0.405565 0.779362 0.223922
O O3 0.326023 0.730097 0.119379
O O4 0.412550 0.000000 0.132279
O O5 0.400880 0.719197 0.854796
O O6 0.271696 0.788842 0.782398
O O7 0.395803 0.000000 0.790551
O O8 0.500000 0.728441 0.451089
O O9 0.323349 0.727045 0.459749
O O10 0.408883 0.000000 0.447714
O O11 0.788626 0.500000 0.471854
O O12 0.799712 0.768003 0.542129
O O13 0.834489 0.772169 0.415647
O O14 0.769188 0.500000 0.610220
O O15 0.815757 0.241913 0.676871
O O16 0.113783 0.761361 0.296655
O O17 0.208014 0.000000 0.250623
O O18 0.000000 0.261133 0.888067
O O19 0.094307 0.000000 0.869683
#
# Coordination Sequence:
#
# PCOD9357360 Si02
#       7
#     8   8   8   8   8   8   8
#     4   9  17  30  48  71 103 144 189 237 285 330
#     4  11  20  31  50  77 108 143 185 236 286 331
#     4  11  23  36  51  76 113 154 192 235 285 331
#     4  10  20  37  59  82 112 151 192 234 279 334
#     4   8  17  33  54  80 109 145 187 231 280 329
#     4  10  19  35  59  84 111 143 183 232 282 334
#     4  10  21  37  59  88 118 147 183 233 291 342
#
# _framework density 21.300808
#
# number of rings (size 3 to 8) (size 9 to 14) (size 15 to 20)
#    0.000    2.143    1.429    3.429    0.000    4.000 
#    0.000    5.714    0.000    2.571    0.000    0.000 
#    0.000    0.000    0.000    0.000    0.000    0.000 
#
# Total GULP energy -156274.078907 kJ/mol
# GULP energy per Si atom -5581.217104 kJ/mol
# Density = 2.125233 g / cm^3
# Si number density = 21.300808 Si / 1000 Ang^3
#
#
#
# Elastic Constant Matrix: (Units=GPa)
#
#
# Indices 1 2 3 4 5 6 
#
# 1 88.8293 3.8962 52.1604 0.0000 0.0000 0.0000
# 2 3.8962 34.7348 -0.5102 0.0000 0.0000 0.0000
# 3 52.1604 -0.5102 129.6454 0.0000 0.0000 0.0000
# 4 0.0000 0.0000 0.0000 10.2202 0.0000 0.0000
# 5 0.0000 0.0000 0.0000 0.0000 4.0623 0.0000
# 6 0.0000 0.0000 0.0000 0.0000 0.0000 15.8271
#
#
#
# Elastic Compliance Matrix: (Units=1/GPa)
#
#
# Indices 1 2 3 4 5 6 
#
# 1 0.014846 -0.001753 -0.005980 0.000000 0.000000 0.000000
# 2 -0.001753 0.028998 0.000819 0.000000 0.000000 0.000000
# 3 -0.005980 0.000819 0.010122 0.000000 0.000000 0.000000
# 4 0.000000 0.000000 0.000000 0.097846 0.000000 0.000000
# 5 0.000000 0.000000 0.000000 0.000000 0.246164 0.000000
# 6 0.000000 0.000000 0.000000 0.000000 0.000000 0.063183
#
#
# Mechanical properties :
#
#
# Convention : Reuss Voigt Hill
#
# Bulk Modulus (GPa) = 24.91307 40.47803 32.69555
# Shear Modulus (GPa) = 10.23823 19.19946 14.71884
#
# Velocity S-wave (km/s) = 2.19475 3.00550 2.63154
# Velocity P-wave (km/s) = 4.25955 5.57570 4.96146
#
# Compressibility (1/GPa) = 0.04013957
#
# Stress axis : x y z
#
# Youngs Moduli (GPa) = 67.35927 34.48482 98.79047
#
# Poissons Ratio (x) = 0.06045 0.59075
# Poissons Ratio (y) = 0.11809 -0.08095
# Poissons Ratio (z) = 0.40280 -0.02826
#
# Static dielectric constant tensor:
#      x y z
#    x 1.789930 0.000000 0.000000 
#    y 0.000000 1.781230 0.000000 
#    z 0.000000 0.000000 1.778450 
# 
# From -- ./inp_files/21098.got.cif
#   From: 2010.05.17/outbox.cif.g08.bks.cpg/sg38_11_cif.got.tgz:21098.got - 2010.06.03 18:07:57.
