data_PCOD9357562
_publ_section_title
;
Structure prediction by ZEFSAII (Michael W. Deem and Ramdas Pophale) SiO2 
 PCOD9357562
Probable space group: A M M 2
;
_chemical_formula_sum "Si O2"
_cell_formula_units_Z 56
_cell_length_a 14.765544
_cell_length_b 21.328746
_cell_length_c 9.761693
_cell_angle_alpha 90.000000
_cell_angle_beta 90.000000
_cell_angle_gamma 90.000000
_cell_volume 3074.255224
_symmetry_space_group_name_H-M "A M M 2"
_symmetry_group_IT_number 38
_symmetry_cell_setting 'orthorhombic'
loop_
_space_group_symop_operation_xyz
x,y,z
-x,-y,z
-x,y,z
x,-y,z
x,1/2+y,1/2+z
-x,1/2-y,1/2+z
-x,1/2+y,1/2+z
x,1/2-y,1/2+z
loop_
_atom_site_type_symbol
_atom_site_label
_atom_site_fract_x
_atom_site_fract_y
_atom_site_fract_z
Si Si1 0.295340 0.760752 0.474540
Si Si2 0.398207 0.703278 0.231544
Si Si3 0.897240 0.927085 0.262141
Si Si4 0.394836 0.574899 0.788748
Si Si5 0.690732 0.571335 0.279735
Si Si6 0.234203 0.605052 0.995579
Si Si7 0.743186 0.123193 0.067390
O O1 0.331651 0.745095 0.324105
O O2 0.377017 0.780935 0.574799
O O3 0.229127 0.819654 0.484688
O O4 0.255946 0.695884 0.528851
O O5 0.500000 0.718226 0.268525
O O6 0.378470 0.629732 0.260801
O O7 0.847923 0.922374 0.408926
O O8 0.000000 0.903309 0.264384
O O9 0.898824 0.000000 0.223383
O O10 0.830430 0.893436 0.156540
O O11 0.500000 0.594039 0.807092
O O12 0.393484 0.500000 0.765066
O O13 0.328884 0.587762 0.917944
O O14 0.345107 0.607650 0.660471
O O15 0.654750 0.500000 0.274054
O O16 0.735843 0.583682 0.427250
O O17 0.757619 0.581489 0.150532
#
# Coordination Sequence:
#
# PCOD9357562 Si02
#       7
#     8   8   8   8   8   8   8
#     4  10  21  34  51  72 100 140 178 210 258 306
#     4  10  20  32  48  71 100 136 179 222 253 291
#     4  10  20  37  63  87 102 126 169 217 264 312
#     4  10  20  34  54  78 104 142 189 230 267 304
#     4  10  20  33  50  73 104 141 169 203 265 318
#     4  10  20  36  55  77 107 139 172 217 259 307
#     4  10  20  36  55  77 107 139 172 217 259 307
#
# _framework density 18.215793999999999
#
# number of rings (size 3 to 8) (size 9 to 14) (size 15 to 20)
#    0.000    2.000    0.000    5.571    0.000    7.143 
#    0.000    1.429    0.000    2.571    0.000    0.000 
#    0.000    0.000    0.000    0.000    0.000    0.000 
#
# Total GULP energy -156214.532978 kJ/mol
# GULP energy per Si atom -5579.090463 kJ/mol
# Density = 1.817433 g / cm^3
# Si number density = 18.215794 Si / 1000 Ang^3
#
#
#
# Elastic Constant Matrix: (Units=GPa)
#
#
# Indices 1 2 3 4 5 6 
#
# 1 90.8293 1.1624 17.3192 0.0000 0.0000 0.0000
# 2 1.1624 88.0812 -0.5363 0.0000 0.0000 0.0000
# 3 17.3192 -0.5363 78.9864 0.0000 0.0000 0.0000
# 4 0.0000 0.0000 0.0000 25.1462 0.0000 0.0000
# 5 0.0000 0.0000 0.0000 0.0000 2.9974 0.0000
# 6 0.0000 0.0000 0.0000 0.0000 0.0000 11.2459
#
#
#
# Elastic Compliance Matrix: (Units=1/GPa)
#
#
# Indices 1 2 3 4 5 6 
#
# 1 0.011493 -0.000167 -0.002521 0.000000 0.000000 0.000000
# 2 -0.000167 0.011356 0.000114 0.000000 0.000000 0.000000
# 3 -0.002521 0.000114 0.013214 0.000000 0.000000 0.000000
# 4 0.000000 0.000000 0.000000 0.039767 0.000000 0.000000
# 5 0.000000 0.000000 0.000000 0.000000 0.333618 0.000000
# 6 0.000000 0.000000 0.000000 0.000000 0.000000 0.088922
#
#
# Mechanical properties :
#
#
# Convention : Reuss Voigt Hill
#
# Bulk Modulus (GPa) = 32.34798 32.64304 32.49551
# Shear Modulus (GPa) = 9.73097 23.87468 16.80283
#
# Velocity S-wave (km/s) = 2.31380 3.62423 3.04045
# Velocity P-wave (km/s) = 4.99349 5.95588 5.49579
#
# Compressibility (1/GPa) = 0.03091383
#
# Stress axis : x y z
#
# Youngs Moduli (GPa) = 87.01319 88.05869 75.67751
#
# Poissons Ratio (x) = 0.01471 0.19079
# Poissons Ratio (y) = 0.01453 -0.00861
# Poissons Ratio (z) = 0.21937 -0.01002
#
# Static dielectric constant tensor:
#      x y z
#    x 1.590250 0.000000 0.000000 
#    y 0.000000 1.656510 0.000000 
#    z 0.000000 0.000000 1.633430 
# 
# From -- ./inp_files/5683.got.cif
#   From: 2010.05.17/outbox.cif.g08.bks.cpg/sg38_3_cif.got.tgz:5683.got - 2010.06.03 18:07:57.
