data_PCOD9357239
_publ_section_title
;
Structure prediction by ZEFSAII (Michael W. Deem and Ramdas Pophale) SiO2 
 PCOD9357239
Probable space group: A M M 2
;
_chemical_formula_sum "Si O2"
_cell_formula_units_Z 56
_cell_length_a 8.271940
_cell_length_b 25.185739
_cell_length_c 14.880233
_cell_angle_alpha 90.000000
_cell_angle_beta 90.000000
_cell_angle_gamma 90.000000
_cell_volume 3100.072179
_symmetry_space_group_name_H-M "A M M 2"
_symmetry_group_IT_number 38
_symmetry_cell_setting 'orthorhombic'
loop_
_space_group_symop_operation_xyz
x,y,z
-x,-y,z
-x,y,z
x,-y,z
x,1/2+y,1/2+z
-x,1/2-y,1/2+z
-x,1/2+y,1/2+z
x,1/2-y,1/2+z
loop_
_atom_site_type_symbol
_atom_site_label
_atom_site_fract_x
_atom_site_fract_y
_atom_site_fract_z
Si Si1 0.692952 0.212769 0.725200
Si Si2 0.316670 0.335915 0.944273
Si Si3 0.814050 0.386083 0.113762
Si Si4 0.303445 0.681587 0.617603
Si Si5 0.693208 0.000000 0.350660
Si Si6 0.191324 0.610965 0.771186
Si Si7 0.310173 0.288797 0.427128
Si Si8 0.196800 0.000000 0.559098
O O1 0.500000 0.220696 0.732981
O O2 0.724705 0.158594 0.671465
O O3 0.752570 0.264537 0.669923
O O4 0.760227 0.207497 0.826755
O O5 0.500000 0.352318 0.967001
O O6 0.279720 0.350860 0.842528
O O7 0.304601 0.273098 0.954277
O O8 0.198497 0.366025 0.010983
O O9 0.000000 0.387075 0.142942
O O10 0.750301 0.446253 0.109449
O O11 0.500000 0.683125 0.615751
O O12 0.246694 0.631085 0.674119
O O13 0.243306 0.681500 0.514593
O O14 0.758839 0.947927 0.300594
O O15 0.500000 0.000000 0.347973
O O16 0.745663 0.000000 0.455509
O O17 0.000000 0.616934 0.779996
O O18 0.500000 0.303880 0.419575
O O19 0.000000 0.000000 0.556485
#
# Coordination Sequence:
#
# PCOD9357239 Si02
#       8
#     8   8   8   8   4   8   8   4
#     4  10  19  34  56  81 111 147 189 233 276 326
#     4  11  19  33  55  81 111 149 189 223 267 331
#     4  11  22  35  52  79 114 149 184 229 285 332
#     4  10  19  35  57  80 109 148 191 228 274 334
#     4  12  24  38  60  83 106 147 192 225 270 338
#     4  12  24  37  53  82 119 149 180 230 284 331
#     4   9  18  33  54  80 111 147 186 233 273 317
#     4  10  22  38  54  77 114 149 180 231 286 330
#
# _framework density 18.064094999999998
#
# number of rings (size 3 to 8) (size 9 to 14) (size 15 to 20)
#    0.000    1.429    4.286    2.786    0.000    1.143 
#    0.000    0.714    0.000    0.857    0.000    5.000 
#    0.000    0.000    0.000    0.000    0.000    0.000 
#
# Total GULP energy -156243.836318 kJ/mol
# GULP energy per Si atom -5580.137011 kJ/mol
# Density = 1.802298 g / cm^3
# Si number density = 18.064095 Si / 1000 Ang^3
#
#
#
# Elastic Constant Matrix: (Units=GPa)
#
#
# Indices 1 2 3 4 5 6 
#
# 1 26.1093 7.5547 1.3666 0.0000 0.0000 0.0000
# 2 7.5547 50.4525 15.6493 0.0000 0.0000 0.0000
# 3 1.3666 15.6493 69.3315 0.0000 0.0000 0.0000
# 4 0.0000 0.0000 0.0000 28.5721 0.0000 0.0000
# 5 0.0000 0.0000 0.0000 0.0000 7.8473 0.0000
# 6 0.0000 0.0000 0.0000 0.0000 0.0000 19.6360
#
#
#
# Elastic Compliance Matrix: (Units=1/GPa)
#
#
# Indices 1 2 3 4 5 6 
#
# 1 0.040059 -0.006187 0.000607 0.000000 0.000000 0.000000
# 2 -0.006187 0.022268 -0.004904 0.000000 0.000000 0.000000
# 3 0.000607 -0.004904 0.015518 0.000000 0.000000 0.000000
# 4 0.000000 0.000000 0.000000 0.034999 0.000000 0.000000
# 5 0.000000 0.000000 0.000000 0.000000 0.127433 0.000000
# 6 0.000000 0.000000 0.000000 0.000000 0.000000 0.050927
#
#
# Mechanical properties :
#
#
# Convention : Reuss Voigt Hill
#
# Bulk Modulus (GPa) = 17.58170 21.67050 19.62610
# Shear Modulus (GPa) = 15.09973 19.29927 17.19950
#
# Velocity S-wave (km/s) = 2.89433 3.27215 3.08902
# Velocity P-wave (km/s) = 4.57423 5.12820 4.85912
#
# Compressibility (1/GPa) = 0.05687731
#
# Stress axis : x y z
#
# Youngs Moduli (GPa) = 24.96329 44.90701 64.43923
#
# Poissons Ratio (x) = 0.27782 -0.03910
# Poissons Ratio (y) = 0.15444 0.31604
# Poissons Ratio (z) = -0.01515 0.22024
#
# Static dielectric constant tensor:
#      x y z
#    x 1.627540 0.000000 0.000000 
#    y 0.000000 1.622070 0.000000 
#    z 0.000000 0.000000 1.632020 
# 
# From -- ./inp_files/12515.got.cif
#   From: 2010.05.17/outbox.cif.g08.bks.cpg/sg38_7_cif.got.tgz:12515.got - 2010.06.03 18:07:57.
