data_PCOD9357390
_publ_section_title
;
Structure prediction by ZEFSAII (Michael W. Deem and Ramdas Pophale) SiO2 
 PCOD9357390
Probable space group: A M M 2
;
_chemical_formula_sum "Si O2"
_cell_formula_units_Z 64
_cell_length_a 24.362938
_cell_length_b 8.595520
_cell_length_c 15.849889
_cell_angle_alpha 90.000000
_cell_angle_beta 90.000000
_cell_angle_gamma 90.000000
_cell_volume 3319.158871
_symmetry_space_group_name_H-M "A M M 2"
_symmetry_group_IT_number 38
_symmetry_cell_setting 'orthorhombic'
loop_
_space_group_symop_operation_xyz
x,y,z
-x,-y,z
-x,y,z
x,-y,z
x,1/2+y,1/2+z
-x,1/2-y,1/2+z
-x,1/2+y,1/2+z
x,1/2-y,1/2+z
loop_
_atom_site_type_symbol
_atom_site_label
_atom_site_fract_x
_atom_site_fract_y
_atom_site_fract_z
Si Si1 0.435884 0.185305 0.493090
Si Si2 0.373039 0.314873 0.331720
Si Si3 0.936863 0.188126 0.998582
Si Si4 0.743829 0.187970 0.907502
Si Si5 0.136588 0.689308 0.341284
Si Si6 0.742684 0.314377 0.096701
Si Si7 0.371279 0.316695 0.652848
Si Si8 0.865465 0.312014 0.152173
O O1 0.500000 0.225845 0.499355
O O2 0.408658 0.266316 0.412275
O O3 0.404478 0.234846 0.577771
O O4 0.430762 0.000000 0.482641
O O5 0.375481 0.500000 0.319982
O O6 0.309948 0.272395 0.353804
O O7 0.390797 0.233725 0.245386
O O8 0.903706 0.242178 0.915619
O O9 0.000000 0.239945 0.997616
O O10 0.936284 0.000000 0.997835
O O11 0.905112 0.244336 0.081362
O O12 0.800884 0.233249 0.863555
O O13 0.744104 0.000000 0.919023
O O14 0.740160 0.266655 0.998744
O O15 0.135423 0.500000 0.340851
O O16 0.121055 0.740001 0.247233
O O17 0.736856 0.500000 0.105923
O O18 0.692125 0.234002 0.143248
O O19 0.802432 0.268951 0.131585
O O20 0.376140 0.500000 0.641735
O O21 0.868621 0.500000 0.148727
#
# Coordination Sequence:
#
# PCOD9357390 Si02
#       8
#     8   8   8   8   8   8   8   8
#     4  11  25  45  67  92 124 162 207 260 311 360
#     4  11  23  40  65  95 126 161 204 253 305 366
#     4  10  21  37  57  81 111 151 198 248 298 351
#     4  10  19  35  61  89 118 156 195 238 299 367
#     4   9  18  35  58  82 114 152 193 235 285 356
#     4  11  21  35  59  90 125 156 194 248 304 363
#     4  12  25  41  64  93 126 167 208 249 306 366
#     4  10  21  37  59  87 115 152 194 241 297 354
#
# _framework density 19.281994000000001
#
# number of rings (size 3 to 8) (size 9 to 14) (size 15 to 20)
#    0.000    1.500    2.500    3.000    0.000    5.250 
#    0.000    2.500    0.000    0.000    0.000    0.000 
#    0.000    0.000    0.000    0.000    0.000    0.000 
#
# Total GULP energy -178876.079662 kJ/mol
# GULP energy per Si atom -5589.877489 kJ/mol
# Density = 1.923811 g / cm^3
# Si number density = 19.281994 Si / 1000 Ang^3
#
#
#
# Elastic Constant Matrix: (Units=GPa)
#
#
# Indices 1 2 3 4 5 6 
#
# 1 109.5176 15.0689 33.3512 0.0000 0.0000 0.0000
# 2 15.0689 8.8949 -1.1951 0.0000 0.0000 0.0000
# 3 33.3512 -1.1951 117.3054 0.0000 0.0000 0.0000
# 4 0.0000 0.0000 0.0000 23.8976 0.0000 0.0000
# 5 0.0000 0.0000 0.0000 0.0000 -2.8944 0.0000
# 6 0.0000 0.0000 0.0000 0.0000 0.0000 25.2345
#
#
#
# Elastic Compliance Matrix: (Units=1/GPa)
#
#
# Indices 1 2 3 4 5 6 
#
# 1 0.013641 -0.023663 -0.004119 0.000000 0.000000 0.000000
# 2 -0.023663 0.153627 0.008293 0.000000 0.000000 0.000000
# 3 -0.004119 0.008293 0.009780 0.000000 0.000000 0.000000
# 4 0.000000 0.000000 0.000000 0.041845 0.000000 0.000000
# 5 0.000000 0.000000 0.000000 0.000000 -0.345491 0.000000
# 6 0.000000 0.000000 0.000000 0.000000 0.000000 0.039628
#
#
# Mechanical properties :
#
#
# Convention : Reuss Voigt Hill
#
# Bulk Modulus (GPa) = 7.24275 36.68532 21.96404
# Shear Modulus (GPa) = -2543.98200 21.81373 -1261.08413
#
# Velocity S-wave (km/s) = -36.36235 3.36713 -25.60159
# Velocity P-wave (km/s) = 41.94277 5.84669 29.36846
#
# Compressibility (1/GPa) = 0.13806905
#
# Stress axis : x y z
#
# Youngs Moduli (GPa) = 73.30641 6.50926 102.24479
#
# Poissons Ratio (x) = 0.15403 0.42119
# Poissons Ratio (y) = 1.73468 -0.84791
# Poissons Ratio (z) = 0.30198 -0.05398
#
# Static dielectric constant tensor:
#      x y z
#    x 1.658100 0.000000 0.000000 
#    y 0.000000 1.657490 0.000000 
#    z 0.000000 0.000000 1.656590 
# 
# From -- ./inp_files/15801.got.cif
#   From: 2010.05.17/outbox.cif.g08.bks.cpg/sg38_8_cif.got.tgz:15801.got - 2010.06.03 18:07:57.
