data_PCOD9357143
_publ_section_title
;
Structure prediction by ZEFSAII (Michael W. Deem and Ramdas Pophale) SiO2 
 PCOD9357143
Probable space group: A M M 2
;
_chemical_formula_sum "Si O2"
_cell_formula_units_Z 64
_cell_length_a 8.743566
_cell_length_b 25.644144
_cell_length_c 15.327840
_cell_angle_alpha 90.000000
_cell_angle_beta 90.000000
_cell_angle_gamma 90.000000
_cell_volume 3436.827683
_symmetry_space_group_name_H-M "A M M 2"
_symmetry_group_IT_number 38
_symmetry_cell_setting 'orthorhombic'
loop_
_space_group_symop_operation_xyz
x,y,z
-x,-y,z
-x,y,z
x,-y,z
x,1/2+y,1/2+z
-x,1/2-y,1/2+z
-x,1/2+y,1/2+z
x,1/2-y,1/2+z
loop_
_atom_site_type_symbol
_atom_site_label
_atom_site_fract_x
_atom_site_fract_y
_atom_site_fract_z
Si Si1 0.815974 0.766675 0.930870
Si Si2 0.183682 0.350210 0.905145
Si Si3 0.316742 0.221987 0.737474
Si Si4 0.681983 0.363519 0.531786
Si Si5 0.315435 0.441371 0.022026
Si Si6 0.817290 0.061267 0.885846
Si Si7 0.816764 0.168376 0.204279
Si Si8 0.316245 0.894886 0.705902
O O1 0.773047 0.706173 0.945460
O O2 0.756975 0.779877 0.833761
O O3 0.000000 0.771109 0.933745
O O4 0.741334 0.808174 0.994748
O O5 0.226652 0.348398 0.802651
O O6 0.000000 0.353700 0.909017
O O7 0.255173 0.398015 0.956207
O O8 0.500000 0.227599 0.744379
O O9 0.247103 0.272955 0.692662
O O10 0.282788 0.166516 0.693451
O O11 0.500000 0.364067 0.533366
O O12 0.742786 0.407009 0.465186
O O13 0.748696 0.367700 0.629015
O O14 0.500000 0.440162 0.020855
O O15 0.264857 0.500000 0.000390
O O16 0.267455 0.426441 0.120447
O O17 0.759604 0.084575 0.794193
O O18 0.000000 0.067207 0.890863
O O19 0.779144 0.000000 0.889827
O O20 0.000000 0.169603 0.198648
O O21 0.500000 0.899989 0.715926
#
# Coordination Sequence:
#
# PCOD9357143 Si02
#       8
#     8   8   8   8   8   8   8   8
#     4  10  20  36  57  85 120 156 193 239 297 357
#     4   9  21  40  61  86 114 151 198 244 298 350
#     4  10  19  33  55  88 122 156 197 238 289 353
#     4  12  24  38  60  90 121 157 201 249 300 360
#     4  10  22  39  59  85 118 156 198 245 296 348
#     4  11  24  41  62  88 120 160 204 249 300 361
#     4  10  22  40  60  84 121 161 196 248 306 359
#     4  10  21  37  58  87 122 160 199 242 295 354
#
# _framework density 18.621822999999999
#
# number of rings (size 3 to 8) (size 9 to 14) (size 15 to 20)
#    0.000    1.750    1.250    3.750    1.750    5.750 
#    0.000    0.625    0.000    0.750    0.000    0.000 
#    0.000    0.000    0.000    0.000    0.000    0.000 
#
# Total GULP energy -178788.005431 kJ/mol
# GULP energy per Si atom -5587.125170 kJ/mol
# Density = 1.857944 g / cm^3
# Si number density = 18.621823 Si / 1000 Ang^3
#
#
#
# Elastic Constant Matrix: (Units=GPa)
#
#
# Indices 1 2 3 4 5 6 
#
# 1 59.4846 52.0421 39.3555 0.0000 0.0000 0.0000
# 2 52.0421 128.5809 63.2798 0.0000 0.0000 0.0000
# 3 39.3555 63.2798 90.3287 0.0000 0.0000 0.0000
# 4 0.0000 0.0000 0.0000 29.2901 0.0000 0.0000
# 5 0.0000 0.0000 0.0000 0.0000 38.5513 0.0000
# 6 0.0000 0.0000 0.0000 0.0000 0.0000 23.5817
#
#
#
# Elastic Compliance Matrix: (Units=1/GPa)
#
#
# Indices 1 2 3 4 5 6 
#
# 1 0.028385 -0.008245 -0.006591 0.000000 0.000000 0.000000
# 2 -0.008245 0.014264 -0.006401 0.000000 0.000000 0.000000
# 3 -0.006591 -0.006401 0.018426 0.000000 0.000000 0.000000
# 4 0.000000 0.000000 0.000000 0.034141 0.000000 0.000000
# 5 0.000000 0.000000 0.000000 0.000000 0.025939 0.000000
# 6 0.000000 0.000000 0.000000 0.000000 0.000000 0.042406
#
#
# Mechanical properties :
#
#
# Convention : Reuss Voigt Hill
#
# Bulk Modulus (GPa) = 53.75658 65.30543 59.53100
# Shear Modulus (GPa) = 23.55862 26.53239 25.04550
#
# Velocity S-wave (km/s) = 3.56069 3.77875 3.67134
# Velocity P-wave (km/s) = 6.77015 7.36098 7.07174
#
# Compressibility (1/GPa) = 0.01860238
#
# Stress axis : x y z
#
# Youngs Moduli (GPa) = 35.22965 70.10539 54.27004
#
# Poissons Ratio (x) = 0.57801 0.35771
# Poissons Ratio (y) = 0.29046 0.34736
# Poissons Ratio (z) = 0.23221 0.44872
#
# Static dielectric constant tensor:
#      x y z
#    x 1.623950 0.000000 0.000000 
#    y 0.000000 1.635220 0.000000 
#    z 0.000000 0.000000 1.655430 
# 
# From -- ./inp_files/12779.got.cif
#   From: 2010.05.17/outbox.cif.g08.bks.cpg/sg38_7_cif.got.tgz:12779.got - 2010.06.03 18:07:57.
