data_PCOD9357206
_publ_section_title
;
Structure prediction by ZEFSAII (Michael W. Deem and Ramdas Pophale) SiO2 
 PCOD9357206
Probable space group: A M M 2
;
_chemical_formula_sum "Si O2"
_cell_formula_units_Z 58
_cell_length_a 23.164995
_cell_length_b 7.492820
_cell_length_c 14.816358
_cell_angle_alpha 90.000000
_cell_angle_beta 90.000000
_cell_angle_gamma 90.000000
_cell_volume 2571.692117
_symmetry_space_group_name_H-M "A M M 2"
_symmetry_group_IT_number 38
_symmetry_cell_setting 'orthorhombic'
loop_
_space_group_symop_operation_xyz
x,y,z
-x,-y,z
-x,y,z
x,-y,z
x,1/2+y,1/2+z
-x,1/2-y,1/2+z
-x,1/2+y,1/2+z
x,1/2-y,1/2+z
loop_
_atom_site_type_symbol
_atom_site_label
_atom_site_fract_x
_atom_site_fract_y
_atom_site_fract_z
Si Si1 0.358040 0.287145 0.017050
Si Si2 0.853801 0.799462 0.421723
Si Si3 0.564216 0.710890 0.676832
Si Si4 0.063873 0.794657 0.577755
Si Si5 0.768489 0.792783 0.059137
Si Si6 0.337205 0.781762 0.312902
Si Si7 0.208523 0.781230 0.254569
Si Si8 0.000000 0.500000 0.671320
O O1 0.356366 0.500000 0.015580
O O2 0.413039 0.231814 0.074935
O O3 0.300090 0.223116 0.067205
O O4 0.353681 0.224447 0.914005
O O5 0.893902 0.721744 0.500259
O O6 0.791684 0.806658 0.471597
O O7 0.839599 0.717486 0.325144
O O8 0.876469 0.000000 0.407397
O O9 0.500000 0.785566 0.689131
O O10 0.561047 0.500000 0.695562
O O11 0.614110 0.781772 0.742910
O O12 0.000000 0.799917 0.532959
O O13 0.050596 0.657782 0.658661
O O14 0.078540 0.000000 0.602292
O O15 0.798089 0.726692 0.150861
O O16 0.782128 0.000000 0.046598
O O17 0.272586 0.724889 0.286107
O O18 0.336319 0.000000 0.310866
O O19 0.207648 0.000000 0.256302
#
# Coordination Sequence:
#
# PCOD9357206 Si02
#       8
#     8   8   8   8   8   8   8   2
#     4  11  21  35  56  78 105 136 172 215 264 317
#     4  10  19  34  55  77 109 144 182 221 271 321
#     4  10  21  38  58  76 100 134 173 217 261 312
#     4   8  16  29  50  78 105 146 189 228 275 330
#     4  11  21  32  53  81 109 139 180 220 264 320
#     4   9  17  33  55  75  99 137 176 206 252 319
#     4   9  17  32  52  76 105 141 176 213 260 325
#     4   8  14  28  52  74 112 140 186 230 282 318
#
# _framework density 22.553245
#
# number of rings (size 3 to 8) (size 9 to 14) (size 15 to 20)
#    0.414    1.931    2.759    0.828    0.966    0.828 
#    0.000    5.517    0.000    0.828    0.000    1.931 
#    0.000    0.000    0.000    0.000    0.000    0.000 
#
# Total GULP energy -161490.994395 kJ/mol
# GULP energy per Si atom -5568.654979 kJ/mol
# Density = 2.250191 g / cm^3
# Si number density = 22.553245 Si / 1000 Ang^3
#
#
#
# Elastic Constant Matrix: (Units=GPa)
#
#
# Indices 1 2 3 4 5 6 
#
# 1 55.3097 4.5973 -6.7993 0.0000 0.0000 0.0000
# 2 4.5973 84.6799 -2.8759 0.0000 0.0000 0.0000
# 3 -6.7993 -2.8759 81.0379 0.0000 0.0000 0.0000
# 4 0.0000 0.0000 0.0000 11.1500 0.0000 0.0000
# 5 0.0000 0.0000 0.0000 0.0000 -9.9381 0.0000
# 6 0.0000 0.0000 0.0000 0.0000 0.0000 -1.9206
#
#
#
# Elastic Compliance Matrix: (Units=1/GPa)
#
#
# Indices 1 2 3 4 5 6 
#
# 1 0.018344 -0.000945 0.001506 0.000000 0.000000 0.000000
# 2 -0.000945 0.011872 0.000342 0.000000 0.000000 0.000000
# 3 0.001506 0.000342 0.012478 0.000000 0.000000 0.000000
# 4 0.000000 0.000000 0.000000 0.089686 0.000000 0.000000
# 5 0.000000 0.000000 0.000000 0.000000 -0.100623 0.000000
# 6 0.000000 0.000000 0.000000 0.000000 0.000000 -0.520671
#
#
# Mechanical properties :
#
#
# Convention : Reuss Voigt Hill
#
# Bulk Modulus (GPa) = 22.47201 23.43018 22.95109
# Shear Modulus (GPa) = -10.50672 14.93195 2.21261
#
# Velocity S-wave (km/s) = -2.16073 2.57587 0.99156
# Velocity P-wave (km/s) = 1.93923 4.38842 3.39255
#
# Compressibility (1/GPa) = 0.04449981
#
# Stress axis : x y z
#
# Youngs Moduli (GPa) = 54.51485 84.23117 80.13872
#
# Poissons Ratio (x) = 0.07958 -0.12065
# Poissons Ratio (y) = 0.05150 -0.02741
# Poissons Ratio (z) = -0.08208 -0.02881
#
# Static dielectric constant tensor:
#      x y z
#    x 1.883500 0.000000 0.000000 
#    y 0.000000 1.864170 0.000000 
#    z 0.000000 0.000000 1.835810 
# 
# From -- ./inp_files/15650.got.cif
#   From: 2010.05.17/outbox.cif.g08.bks.cpg/sg38_8_cif.got.tgz:15650.got - 2010.06.03 18:07:57.
