data_PCOD9357935
_publ_section_title
;
Structure prediction by ZEFSAII (Michael W. Deem and Ramdas Pophale) SiO2 
 PCOD9357935
Probable space group: A M M 2
;
_chemical_formula_sum "Si O2"
_cell_formula_units_Z 48
_cell_length_a 8.837355
_cell_length_b 16.839192
_cell_length_c 18.819550
_cell_angle_alpha 90.000000
_cell_angle_beta 90.000000
_cell_angle_gamma 90.000000
_cell_volume 2800.610963
_symmetry_space_group_name_H-M "A M M 2"
_symmetry_group_IT_number 38
_symmetry_cell_setting 'orthorhombic'
loop_
_space_group_symop_operation_xyz
x,y,z
-x,-y,z
-x,y,z
x,-y,z
x,1/2+y,1/2+z
-x,1/2-y,1/2+z
-x,1/2+y,1/2+z
x,1/2-y,1/2+z
loop_
_atom_site_type_symbol
_atom_site_label
_atom_site_fract_x
_atom_site_fract_y
_atom_site_fract_z
Si Si1 0.179651 0.500000 0.764480
Si Si2 0.182201 0.091662 0.733915
Si Si3 0.181172 0.190946 0.872725
Si Si4 0.319415 0.736633 0.151782
Si Si5 0.319286 0.000000 0.106952
Si Si6 0.181180 0.344245 0.535437
Si Si7 0.679674 0.663491 0.794058
O O1 0.253437 0.500000 0.686286
O O2 0.236551 0.419813 0.801535
O O3 0.000000 0.500000 0.758316
O O4 0.218517 0.125126 0.812822
O O5 0.259002 0.151829 0.678644
O O6 0.000000 0.096342 0.725765
O O7 0.227835 0.000000 0.726236
O O8 0.264799 0.271184 0.849927
O O9 0.000000 0.203998 0.869022
O O10 0.218567 0.165449 0.952439
O O11 0.500000 0.734662 0.142337
O O12 0.238969 0.770142 0.081978
O O13 0.285656 0.798163 0.216489
O O14 0.260007 0.922119 0.066986
O O15 0.500000 0.000000 0.110642
O O16 0.000000 0.351680 0.542526
O O17 0.500000 0.652088 0.798151
#
# Coordination Sequence:
#
# PCOD9357935 Si02
#       7
#     4   8   8   8   4   8   8
#     4  12  22  34  58  84 110 143 184 229 272 324
#     4   9  18  34  57  81 107 139 180 228 271 320
#     4   9  20  36  56  81 111 144 182 222 270 329
#     4  10  20  34  54  78 110 145 181 226 272 327
#     4  12  24  36  52  82 118 147 180 225 276 330
#     4  11  22  36  57  82 112 148 184 224 271 329
#     4  10  20  35  55  80 112 146 182 225 273 324
#
# _framework density 17.139116000000001
#
# number of rings (size 3 to 8) (size 9 to 14) (size 15 to 20)
#    0.000    1.833    1.667    3.000    1.167    3.000 
#    0.000    0.000    1.833    0.000    0.000    0.000 
#    0.000    0.000    0.000    0.000    0.000    0.000 
#
# Total GULP energy -134026.746510 kJ/mol
# GULP energy per Si atom -5584.447771 kJ/mol
# Density = 1.710011 g / cm^3
# Si number density = 17.139116 Si / 1000 Ang^3
#
#
#
# Elastic Constant Matrix: (Units=GPa)
#
#
# Indices 1 2 3 4 5 6 
#
# 1 52.9665 47.0238 22.9467 0.0000 0.0000 0.0000
# 2 47.0238 139.8826 34.6069 0.0000 0.0000 0.0000
# 3 22.9467 34.6069 60.8130 0.0000 0.0000 0.0000
# 4 0.0000 0.0000 0.0000 14.7716 0.0000 0.0000
# 5 0.0000 0.0000 0.0000 0.0000 16.8718 0.0000
# 6 0.0000 0.0000 0.0000 0.0000 0.0000 -21.6978
#
#
#
# Elastic Compliance Matrix: (Units=1/GPa)
#
#
# Indices 1 2 3 4 5 6 
#
# 1 0.028811 -0.008142 -0.006238 0.000000 0.000000 0.000000
# 2 -0.008142 0.010621 -0.002972 0.000000 0.000000 0.000000
# 3 -0.006238 -0.002972 0.020489 0.000000 0.000000 0.000000
# 4 0.000000 0.000000 0.000000 0.067698 0.000000 0.000000
# 5 0.000000 0.000000 0.000000 0.000000 0.059270 0.000000
# 6 0.000000 0.000000 0.000000 0.000000 0.000000 -0.046088
#
#
# Mechanical properties :
#
#
# Convention : Reuss Voigt Hill
#
# Bulk Modulus (GPa) = 39.65550 51.42409 45.53980
# Shear Modulus (GPa) = 27.18717 11.92811 19.55764
#
# Velocity S-wave (km/s) = 3.98711 2.64096 3.38170
# Velocity P-wave (km/s) = 6.66211 6.27444 6.47118
#
# Compressibility (1/GPa) = 0.02521718
#
# Stress axis : x y z
#
# Youngs Moduli (GPa) = 34.70931 94.15166 48.80705
#
# Poissons Ratio (x) = 0.76658 0.30445
# Poissons Ratio (y) = 0.28260 0.14505
# Poissons Ratio (z) = 0.21651 0.27982
#
# Static dielectric constant tensor:
#      x y z
#    x 1.568040 0.000000 0.000000 
#    y 0.000000 1.567600 0.000000 
#    z 0.000000 0.000000 1.561080 
# 
# From -- ./inp_files/16664.got.cif
#   From: 2010.05.17/outbox.cif.g08.bks.cpg/sg38_9_cif.got.tgz:16664.got - 2010.06.03 18:07:57.
