data_PCOD9357797
_publ_section_title
;
Structure prediction by ZEFSAII (Michael W. Deem and Ramdas Pophale) SiO2 
 PCOD9357797
Probable space group: A M M 2
;
_chemical_formula_sum "Si O2"
_cell_formula_units_Z 64
_cell_length_a 16.513527
_cell_length_b 9.139389
_cell_length_c 23.572975
_cell_angle_alpha 90.000000
_cell_angle_beta 90.000000
_cell_angle_gamma 90.000000
_cell_volume 3557.717001
_symmetry_space_group_name_H-M "A M M 2"
_symmetry_group_IT_number 38
_symmetry_cell_setting 'orthorhombic'
loop_
_space_group_symop_operation_xyz
x,y,z
-x,-y,z
-x,y,z
x,-y,z
x,1/2+y,1/2+z
-x,1/2-y,1/2+z
-x,1/2+y,1/2+z
x,1/2-y,1/2+z
loop_
_atom_site_type_symbol
_atom_site_label
_atom_site_fract_x
_atom_site_fract_y
_atom_site_fract_z
Si Si1 0.227654 0.827895 0.306040
Si Si2 0.595695 0.662938 0.106437
Si Si3 0.094852 0.677124 0.999171
Si Si4 0.908522 0.336581 0.247801
Si Si5 0.846513 0.172064 0.625518
Si Si6 0.405852 0.175610 0.990503
Si Si7 0.698274 0.673782 0.686957
Si Si8 0.240170 0.824133 0.926212
O O1 0.140884 0.786652 0.279751
O O2 0.285071 0.789999 0.252574
O O3 0.238929 0.734457 0.362171
O O4 0.234593 0.000000 0.318268
O O5 0.500000 0.650807 0.104772
O O6 0.631338 0.500000 0.104479
O O7 0.620559 0.747245 0.162597
O O8 0.617241 0.754769 0.050826
O O9 0.100456 0.500000 0.993061
O O10 0.115665 0.713848 0.065115
O O11 0.000000 0.716924 0.987099
O O12 0.164792 0.751613 0.960705
O O13 0.872966 0.500000 0.258379
O O14 0.905051 0.314561 0.179977
O O15 0.000000 0.336915 0.267290
O O16 0.769505 0.264830 0.646163
O O17 0.825225 0.000000 0.621319
O O18 0.500000 0.220352 0.975813
O O19 0.329912 0.214518 0.950447
O O20 0.407436 0.000000 0.995031
O O21 0.694674 0.500000 0.681789
O O22 0.231527 0.000000 0.928736
#
# Coordination Sequence:
#
# PCOD9357797 Si02
#       8
#     8   8   8   8   8   8   8   8
#     4  10  22  38  54  73 100 137 180 221 262 312
#     4  10  20  33  53  83 113 139 169 206 252 310
#     4  10  21  36  54  78 110 147 183 220 266 320
#     4   9  17  31  53  79 105 134 171 217 266 315
#     4   9  17  31  53  79 106 136 172 215 264 318
#     4   9  19  37  60  85 112 141 174 216 269 326
#     4  10  20  34  53  77 105 138 174 213 263 318
#     4  11  23  38  57  79 105 141 184 228 272 317
#
# _framework density 17.989063999999999
#
# number of rings (size 3 to 8) (size 9 to 14) (size 15 to 20)
#    0.000    2.250    0.000    2.625    0.000    8.250 
#    0.000    0.625    0.000    4.500    0.000    0.000 
#    0.000    0.000    0.000    0.000    0.000    0.000 
#
# Total GULP energy -178283.372358 kJ/mol
# GULP energy per Si atom -5571.355386 kJ/mol
# Density = 1.794812 g / cm^3
# Si number density = 17.989064 Si / 1000 Ang^3
#
#
#
# Elastic Constant Matrix: (Units=GPa)
#
#
# Indices 1 2 3 4 5 6 
#
# 1 71.0678 29.6156 62.4076 0.0000 0.0000 0.0000
# 2 29.6156 30.2720 43.4106 0.0000 0.0000 0.0000
# 3 62.4076 43.4106 111.8536 0.0000 0.0000 0.0000
# 4 0.0000 0.0000 0.0000 18.7020 0.0000 0.0000
# 5 0.0000 0.0000 0.0000 0.0000 2.9034 0.0000
# 6 0.0000 0.0000 0.0000 0.0000 0.0000 21.4998
#
#
#
# Elastic Compliance Matrix: (Units=1/GPa)
#
#
# Indices 1 2 3 4 5 6 
#
# 1 0.029343 -0.011793 -0.011795 0.000000 0.000000 0.000000
# 2 -0.011793 0.079231 -0.024170 0.000000 0.000000 0.000000
# 3 -0.011795 -0.024170 0.024902 0.000000 0.000000 0.000000
# 4 0.000000 0.000000 0.000000 0.053470 0.000000 0.000000
# 5 0.000000 0.000000 0.000000 0.000000 0.344424 0.000000
# 6 0.000000 0.000000 0.000000 0.000000 0.000000 0.046512
#
#
# Mechanical properties :
#
#
# Convention : Reuss Voigt Hill
#
# Bulk Modulus (GPa) = 26.34332 53.78456 40.06394
# Shear Modulus (GPa) = 7.28809 13.80500 10.54655
#
# Velocity S-wave (km/s) = 2.01499 2.77322 2.42394
# Velocity P-wave (km/s) = 4.48213 6.34175 5.49123
#
# Compressibility (1/GPa) = 0.03796029
#
# Stress axis : x y z
#
# Youngs Moduli (GPa) = 34.07987 12.62129 40.15822
#
# Poissons Ratio (x) = 0.14884 0.47366
# Poissons Ratio (y) = 0.40189 0.97063
# Poissons Ratio (z) = 0.40196 0.30506
#
# Static dielectric constant tensor:
#      x y z
#    x 1.651070 0.000000 0.000000 
#    y 0.000000 1.624020 0.000000 
#    z 0.000000 0.000000 1.599340 
# 
# From -- ./inp_files/21427.got.cif
#   From: 2010.05.17/outbox.cif.g08.bks.cpg/sg38_11_cif.got.tgz:21427.got - 2010.06.03 18:07:57.
