data_PCOD9357385
_publ_section_title
;
Structure prediction by ZEFSAII (Michael W. Deem and Ramdas Pophale) SiO2 
 PCOD9357385
Probable space group: A M M 2
;
_chemical_formula_sum "Si O2"
_cell_formula_units_Z 48
_cell_length_a 14.600733
_cell_length_b 8.306025
_cell_length_c 20.832018
_cell_angle_alpha 90.000000
_cell_angle_beta 90.000000
_cell_angle_gamma 90.000000
_cell_volume 2526.383262
_symmetry_space_group_name_H-M "A M M 2"
_symmetry_group_IT_number 38
_symmetry_cell_setting 'orthorhombic'
loop_
_space_group_symop_operation_xyz
x,y,z
-x,-y,z
-x,y,z
x,-y,z
x,1/2+y,1/2+z
-x,1/2-y,1/2+z
-x,1/2+y,1/2+z
x,1/2-y,1/2+z
loop_
_atom_site_type_symbol
_atom_site_label
_atom_site_fract_x
_atom_site_fract_y
_atom_site_fract_z
Si Si1 0.500000 0.694939 0.418591
Si Si2 0.692679 0.805516 0.863605
Si Si3 0.000000 0.697368 0.436853
Si Si4 0.803421 0.691148 0.740765
Si Si5 0.500000 0.191227 0.567200
Si Si6 0.000000 0.692002 0.287453
Si Si7 0.303087 0.804641 0.113700
Si Si8 0.192269 0.695582 0.489246
O O1 0.500000 0.500000 0.421839
O O2 0.410359 0.745828 0.379468
O O3 0.500000 0.751151 0.492633
O O4 0.741318 0.732713 0.802077
O O5 0.749558 0.761869 0.926825
O O6 0.694777 0.000000 0.856993
O O7 0.089816 0.750543 0.474886
O O8 0.000000 0.500000 0.435158
O O9 0.000000 0.750436 0.362161
O O10 0.812141 0.500000 0.734405
O O11 0.748474 0.751344 0.678072
O O12 0.906013 0.756117 0.752858
O O13 0.407462 0.250771 0.602167
O O14 0.500000 0.000000 0.567215
O O15 0.000000 0.500000 0.290512
O O16 0.304146 0.000000 0.114062
O O17 0.242678 0.748167 0.053047
O O18 0.190367 0.500000 0.492776
#
# Coordination Sequence:
#
# PCOD9357385 Si02
#       8
#     4   8   4   8   4   4   8   8
#     4  10  20  37  62  87 117 159 209 249 288 360
#     4  10  19  35  61  88 114 156 204 244 290 351
#     4   9  16  28  55  91 111 138 194 249 283 323
#     4  11  24  39  59  90 125 157 194 248 304 353
#     4  12  24  37  60  91 119 151 195 255 314 356
#     4  11  21  38  63  87 117 158 202 243 295 365
#     4  10  22  41  62  84 119 164 201 240 296 366
#     4   9  16  31  58  86 110 146 202 244 274 340
#
# _framework density 18.999493000000001
#
# number of rings (size 3 to 8) (size 9 to 14) (size 15 to 20)
#    0.000    1.833    3.333    1.500    0.000    3.333 
#    0.000    4.167    0.000    0.000    0.000    0.000 
#    0.000    0.000    0.000    0.000    0.000    0.000 
#
# Total GULP energy -133960.840718 kJ/mol
# GULP energy per Si atom -5581.701697 kJ/mol
# Density = 1.895625 g / cm^3
# Si number density = 18.999493 Si / 1000 Ang^3
#
#
#
# Elastic Constant Matrix: (Units=GPa)
#
#
# Indices 1 2 3 4 5 6 
#
# 1 231.0619 27.4707 107.7539 0.0000 0.0000 0.0000
# 2 27.4707 23.2650 23.1989 0.0000 0.0000 0.0000
# 3 107.7539 23.1989 165.0676 0.0000 0.0000 0.0000
# 4 0.0000 0.0000 0.0000 23.0113 0.0000 0.0000
# 5 0.0000 0.0000 0.0000 0.0000 29.7060 0.0000
# 6 0.0000 0.0000 0.0000 0.0000 0.0000 21.3873
#
#
#
# Elastic Compliance Matrix: (Units=1/GPa)
#
#
# Indices 1 2 3 4 5 6 
#
# 1 0.006531 -0.004024 -0.003698 0.000000 0.000000 0.000000
# 2 -0.004024 0.052468 -0.004747 0.000000 0.000000 0.000000
# 3 -0.003698 -0.004747 0.009139 0.000000 0.000000 0.000000
# 4 0.000000 0.000000 0.000000 0.043457 0.000000 0.000000
# 5 0.000000 0.000000 0.000000 0.000000 0.033663 0.000000
# 6 0.000000 0.000000 0.000000 0.000000 0.000000 0.046757
#
#
# Mechanical properties :
#
#
# Convention : Reuss Voigt Hill
#
# Bulk Modulus (GPa) = 23.14798 81.80460 52.47629
# Shear Modulus (GPa) = 21.61208 32.21901 26.91555
#
# Velocity S-wave (km/s) = 3.37636 4.12246 3.76792
# Velocity P-wave (km/s) = 5.23542 8.11229 6.82711
#
# Compressibility (1/GPa) = 0.04320031
#
# Stress axis : x y z
#
# Youngs Moduli (GPa) = 153.12604 19.05917 109.42154
#
# Poissons Ratio (x) = 0.07670 0.40459
# Poissons Ratio (y) = 0.61620 0.51943
# Poissons Ratio (z) = 0.56618 0.09048
#
# Static dielectric constant tensor:
#      x y z
#    x 1.213480 0.000000 0.000000 
#    y 0.000000 1.666510 0.000000 
#    z 0.000000 0.000000 1.637210 
# 
# From -- ./inp_files/18240.got.cif
#   From: 2010.05.17/outbox.cif.g08.bks.cpg/sg38_10_cif.got.tgz:18240.got - 2010.06.03 18:07:57.
