data_PCOD9357311
_publ_section_title
;
Structure prediction by ZEFSAII (Michael W. Deem and Ramdas Pophale) SiO2 
 PCOD9357311
Probable space group: A M M 2
;
_chemical_formula_sum "Si O2"
_cell_formula_units_Z 36
_cell_length_a 8.433680
_cell_length_b 15.501356
_cell_length_c 11.521682
_cell_angle_alpha 90.000000
_cell_angle_beta 90.000000
_cell_angle_gamma 90.000000
_cell_volume 1506.269538
_symmetry_space_group_name_H-M "A M M 2"
_symmetry_group_IT_number 38
_symmetry_cell_setting 'orthorhombic'
loop_
_space_group_symop_operation_xyz
x,y,z
-x,-y,z
-x,y,z
x,-y,z
x,1/2+y,1/2+z
-x,1/2-y,1/2+z
-x,1/2+y,1/2+z
x,1/2-y,1/2+z
loop_
_atom_site_type_symbol
_atom_site_label
_atom_site_fract_x
_atom_site_fract_y
_atom_site_fract_z
Si Si1 0.827012 0.601552 0.238410
Si Si2 0.173733 0.092583 0.101353
Si Si3 0.500000 0.373202 0.731700
Si Si4 0.500000 0.836473 0.740981
Si Si5 0.167527 0.718917 0.004805
Si Si6 0.500000 0.147787 0.472512
O O1 0.815743 0.500000 0.207608
O O2 0.662507 0.629832 0.297423
O O3 0.833055 0.663370 0.124652
O O4 0.000000 0.613138 0.296791
O O5 0.335476 0.098769 0.173462
O O6 0.169974 0.180347 0.030663
O O7 0.000000 0.092933 0.164113
O O8 0.179103 0.000000 0.037106
O O9 0.500000 0.267193 0.726490
O O10 0.500000 0.410990 0.860945
O O11 0.500000 0.876208 0.608279
O O12 0.335644 0.697507 0.951005
O O13 0.000000 0.697329 0.943883
#
# Coordination Sequence:
#
# PCOD9357311 Si02
#       6
#     8   8   4   4   8   4
#     4   9  16  28  51  77 101 137 178 217 268 322
#     4  10  20  36  60  85 112 151 193 236 288 340
#     4  12  21  34  57  81 114 150 184 229 291 338
#     4  10  19  35  51  74 106 141 180 225 267 328
#     4   9  17  34  55  80 110 142 186 232 275 330
#     4  10  20  33  54  81 106 147 188 220 280 334
#
# _framework density 23.900105
#
# number of rings (size 3 to 8) (size 9 to 14) (size 15 to 20)
#    0.000    2.222    4.444    0.667    0.000    0.889 
#    0.000    8.889    0.000   13.333    0.000    3.111 
#    0.000    0.000    0.000    0.000    0.000    0.000 
#
# Total GULP energy -100259.731313 kJ/mol
# GULP energy per Si atom -5569.985073 kJ/mol
# Density = 2.384571 g / cm^3
# Si number density = 23.900105 Si / 1000 Ang^3
#
#
#
# Elastic Constant Matrix: (Units=GPa)
#
#
# Indices 1 2 3 4 5 6 
#
# 1 300.9015 63.4339 25.0636 0.0000 0.0000 0.0000
# 2 63.4339 165.9917 9.7745 0.0000 0.0000 0.0000
# 3 25.0636 9.7745 47.7915 0.0000 0.0000 0.0000
# 4 0.0000 0.0000 0.0000 -4.0688 0.0000 0.0000
# 5 0.0000 0.0000 0.0000 0.0000 -69.0585 0.0000
# 6 0.0000 0.0000 0.0000 0.0000 0.0000 178.2310
#
#
#
# Elastic Compliance Matrix: (Units=1/GPa)
#
#
# Indices 1 2 3 4 5 6 
#
# 1 0.003745 -0.001332 -0.001692 0.000000 0.000000 0.000000
# 2 -0.001332 0.006571 -0.000646 0.000000 0.000000 0.000000
# 3 -0.001692 -0.000646 0.021943 0.000000 0.000000 0.000000
# 4 0.000000 0.000000 0.000000 -0.245774 0.000000 0.000000
# 5 0.000000 0.000000 0.000000 0.000000 -0.014480 0.000000
# 6 0.000000 0.000000 0.000000 0.000000 0.000000 0.005611
#
#
# Mechanical properties :
#
#
# Convention : Reuss Voigt Hill
#
# Bulk Modulus (GPa) = 40.12530 79.02542 59.57536
# Shear Modulus (GPa) = -24.18511 48.78159 12.29824
#
# Velocity S-wave (km/s) = -3.18453 4.52271 2.27087
# Velocity P-wave (km/s) = 1.81758 7.77238 5.64418
#
# Compressibility (1/GPa) = 0.02492193
#
# Stress axis : x y z
#
# Youngs Moduli (GPa) = 267.02583 152.17772 45.57170
#
# Poissons Ratio (x) = 0.20263 0.07709
# Poissons Ratio (y) = 0.35555 0.02942
# Poissons Ratio (z) = 0.45172 0.09826
#
# Static dielectric constant tensor:
#      x y z
#    x 1.996230 0.000000 0.000000 
#    y 0.000000 1.874930 0.000000 
#    z 0.000000 0.000000 1.887440 
# 
# From -- ./inp_files/11615.got.cif
#   From: 2010.05.17/outbox.cif.g08.bks.cpg/sg38_6_cif.got.tgz:11615.got - 2010.06.03 18:07:57.
