data_PCOD9357098
_publ_section_title
;
Structure prediction by ZEFSAII (Michael W. Deem and Ramdas Pophale) SiO2 
 PCOD9357098
Probable space group: A M M 2
;
_chemical_formula_sum "Si O2"
_cell_formula_units_Z 48
_cell_length_a 7.899223
_cell_length_b 15.001590
_cell_length_c 21.063017
_cell_angle_alpha 90.000000
_cell_angle_beta 90.000000
_cell_angle_gamma 90.000000
_cell_volume 2495.986572
_symmetry_space_group_name_H-M "A M M 2"
_symmetry_group_IT_number 38
_symmetry_cell_setting 'orthorhombic'
loop_
_space_group_symop_operation_xyz
x,y,z
-x,-y,z
-x,y,z
x,-y,z
x,1/2+y,1/2+z
-x,1/2-y,1/2+z
-x,1/2+y,1/2+z
x,1/2-y,1/2+z
loop_
_atom_site_type_symbol
_atom_site_label
_atom_site_fract_x
_atom_site_fract_y
_atom_site_fract_z
Si Si1 0.796078 0.190983 0.093540
Si Si2 0.797417 0.000000 0.285572
Si Si3 0.796545 0.500000 0.025735
Si Si4 0.295303 0.693006 0.216723
Si Si5 0.704968 0.500000 0.174195
Si Si6 0.797527 0.309806 0.978447
Si Si7 0.792500 0.000000 0.138745
Si Si8 0.700782 0.806879 0.335894
O O1 0.753823 0.250529 0.154765
O O2 0.734322 0.090684 0.105438
O O3 0.000000 0.186040 0.089303
O O4 0.731161 0.239973 0.030455
O O5 0.740782 0.909436 0.319199
O O6 0.738079 0.000000 0.212389
O O7 0.000000 0.000000 0.285397
O O8 0.759101 0.500000 0.100629
O O9 0.000000 0.500000 0.017609
O O10 0.730279 0.408956 0.994409
O O11 0.500000 0.691387 0.219546
O O12 0.236153 0.591397 0.207163
O O13 0.231206 0.743717 0.279501
O O14 0.500000 0.500000 0.175234
O O15 0.764977 0.285337 0.905965
O O16 0.000000 0.313753 0.987249
O O17 0.000000 0.000000 0.139031
O O18 0.500000 0.796663 0.336646
#
# Coordination Sequence:
#
# PCOD9357098 Si02
#       8
#     8   4   4   8   4   8   4   8
#     4  10  19  35  58  82 109 143 182 225 272 325
#     4  11  20  34  59  85 112 143 180 225 280 334
#     4  10  19  33  54  82 110 134 174 227 274 321
#     4  10  21  36  55  80 109 143 183 227 271 323
#     4  10  20  35  56  81 109 141 177 222 275 323
#     4  10  21  35  54  80 112 147 182 224 275 328
#     4   9  18  32  55  86 111 138 177 224 275 324
#     4  11  23  37  54  80 115 149 185 226 272 329
#
# _framework density 19.230872999999999
#
# number of rings (size 3 to 8) (size 9 to 14) (size 15 to 20)
#    0.000    1.833    3.333    1.250    0.000    2.667 
#    0.000    1.250    0.000    0.000    0.000    0.000 
#    0.000    0.000    0.000    0.000    0.000    0.000 
#
# Total GULP energy -134029.711502 kJ/mol
# GULP energy per Si atom -5584.571313 kJ/mol
# Density = 1.918710 g / cm^3
# Si number density = 19.230873 Si / 1000 Ang^3
#
#
#
# Elastic Constant Matrix: (Units=GPa)
#
#
# Indices 1 2 3 4 5 6 
#
# 1 9.9126 -0.7736 -9.2844 0.0000 0.0000 0.0000
# 2 -0.7736 167.0637 90.8483 0.0000 0.0000 0.0000
# 3 -9.2844 90.8483 170.3122 0.0000 0.0000 0.0000
# 4 0.0000 0.0000 0.0000 25.3616 0.0000 0.0000
# 5 0.0000 0.0000 0.0000 0.0000 51.9388 0.0000
# 6 0.0000 0.0000 0.0000 0.0000 0.0000 0.3406
#
#
#
# Elastic Compliance Matrix: (Units=1/GPa)
#
#
# Indices 1 2 3 4 5 6 
#
# 1 0.108000 -0.003805 0.007917 0.000000 0.000000 0.000000
# 2 -0.003805 0.008566 -0.004777 0.000000 0.000000 0.000000
# 3 0.007917 -0.004777 0.008851 0.000000 0.000000 0.000000
# 4 0.000000 0.000000 0.000000 0.039430 0.000000 0.000000
# 5 0.000000 0.000000 0.000000 0.000000 0.019253 0.000000
# 6 0.000000 0.000000 0.000000 0.000000 0.000000 2.935910
#
#
# Mechanical properties :
#
#
# Convention : Reuss Voigt Hill
#
# Bulk Modulus (GPa) = 8.05881 56.54103 32.29992
# Shear Modulus (GPa) = 1.58093 33.29475 17.43784
#
# Velocity S-wave (km/s) = 0.90767 4.16542 3.01452
# Velocity P-wave (km/s) = 2.30177 7.25254 5.38040
#
# Compressibility (1/GPa) = 0.12408787
#
# Stress axis : x y z
#
# Youngs Moduli (GPa) = 9.25924 116.74663 112.98068
#
# Poissons Ratio (x) = 0.44426 -0.89451
# Poissons Ratio (y) = 0.03523 0.53965
# Poissons Ratio (z) = -0.07331 0.55764
#
# Static dielectric constant tensor:
#      x y z
#    x 1.652030 0.000000 0.000000 
#    y 0.000000 1.673650 0.000000 
#    z 0.000000 0.000000 1.650810 
# 
# From -- ./inp_files/16711.got.cif
#   From: 2010.05.17/outbox.cif.g08.bks.cpg/sg38_9_cif.got.tgz:16711.got - 2010.06.03 18:07:57.
