data_PCOD9357246
_publ_section_title
;
Structure prediction by ZEFSAII (Michael W. Deem and Ramdas Pophale) SiO2 
 PCOD9357246
Probable space group: A M M 2
;
_chemical_formula_sum "Si O2"
_cell_formula_units_Z 64
_cell_length_a 8.496144
_cell_length_b 25.840620
_cell_length_c 15.455973
_cell_angle_alpha 90.000000
_cell_angle_beta 90.000000
_cell_angle_gamma 90.000000
_cell_volume 3393.291307
_symmetry_space_group_name_H-M "A M M 2"
_symmetry_group_IT_number 38
_symmetry_cell_setting 'orthorhombic'
loop_
_space_group_symop_operation_xyz
x,y,z
-x,-y,z
-x,y,z
x,-y,z
x,1/2+y,1/2+z
-x,1/2-y,1/2+z
-x,1/2+y,1/2+z
x,1/2-y,1/2+z
loop_
_atom_site_type_symbol
_atom_site_label
_atom_site_fract_x
_atom_site_fract_y
_atom_site_fract_z
Si Si1 0.185828 0.777485 0.486700
Si Si2 0.688880 0.848323 0.812510
Si Si3 0.190512 0.558724 0.196383
Si Si4 0.810141 0.559050 0.833621
Si Si5 0.192090 0.892324 0.515515
Si Si6 0.688111 0.666228 0.508031
Si Si7 0.184578 0.236873 0.280609
Si Si8 0.686930 0.636771 0.690187
O O1 0.243333 0.832563 0.521617
O O2 0.271671 0.726657 0.520186
O O3 0.202869 0.777489 0.382325
O O4 0.000000 0.772331 0.505893
O O5 0.500000 0.845095 0.812612
O O6 0.743719 0.898643 0.761482
O O7 0.755402 0.795437 0.771050
O O8 0.746615 0.849330 0.912643
O O9 0.240423 0.500000 0.215408
O O10 0.238434 0.575019 0.099138
O O11 0.000000 0.560453 0.199498
O O12 0.755203 0.500000 0.824053
O O13 0.760721 0.595309 0.754765
O O14 0.000000 0.558545 0.837019
O O15 0.754724 0.583010 0.924997
O O16 0.000000 0.891387 0.513046
O O17 0.500000 0.660770 0.506479
O O18 0.747574 0.635097 0.591316
O O19 0.274880 0.193890 0.226310
O O20 0.000000 0.234332 0.259298
O O21 0.500000 0.629231 0.690062
#
# Coordination Sequence:
#
# PCOD9357246 Si02
#       8
#     8   8   8   8   8   8   8   8
#     4   9  17  31  53  81 111 143 180 219 267 326
#     4  10  21  39  59  80 109 146 189 234 282 331
#     4  10  21  37  58  84 112 145 188 235 280 329
#     4  10  20  37  60  83 111 149 190 230 273 328
#     4   9  17  33  55  83 113 145 183 223 273 331
#     4   9  21  38  54  76 111 149 185 226 277 332
#     4  10  19  34  56  83 113 144 181 224 273 330
#     4  11  22  36  55  82 115 149 186 229 278 329
#
# _framework density 18.860745999999999
#
# number of rings (size 3 to 8) (size 9 to 14) (size 15 to 20)
#    0.000    2.250    1.250    1.500    1.750    4.000 
#    0.000    1.250    0.000    5.250    0.000    0.000 
#    0.000    0.000    0.000    0.000    0.000    0.000 
#
# Total GULP energy -178630.318478 kJ/mol
# GULP energy per Si atom -5582.197452 kJ/mol
# Density = 1.881782 g / cm^3
# Si number density = 18.860746 Si / 1000 Ang^3
#
#
#
# Elastic Constant Matrix: (Units=GPa)
#
#
# Indices 1 2 3 4 5 6 
#
# 1 5.4618 4.0338 4.9297 0.0000 0.0000 0.0000
# 2 4.0338 131.5860 63.0738 0.0000 0.0000 0.0000
# 3 4.9297 63.0738 94.2911 0.0000 0.0000 0.0000
# 4 0.0000 0.0000 0.0000 27.5847 0.0000 0.0000
# 5 0.0000 0.0000 0.0000 0.0000 17.5988 0.0000
# 6 0.0000 0.0000 0.0000 0.0000 0.0000 -13.0451
#
#
#
# Elastic Compliance Matrix: (Units=1/GPa)
#
#
# Indices 1 2 3 4 5 6 
#
# 1 0.192382 -0.001584 -0.008998 0.000000 0.000000 0.000000
# 2 -0.001584 0.011199 -0.007409 0.000000 0.000000 0.000000
# 3 -0.008998 -0.007409 0.016032 0.000000 0.000000 0.000000
# 4 0.000000 0.000000 0.000000 0.036252 0.000000 0.000000
# 5 0.000000 0.000000 0.000000 0.000000 0.056822 0.000000
# 6 0.000000 0.000000 0.000000 0.000000 0.000000 -0.076657
#
#
# Mechanical properties :
#
#
# Convention : Reuss Voigt Hill
#
# Bulk Modulus (GPa) = 5.44570 41.71260 23.57915
# Shear Modulus (GPa) = 15.00493 17.04779 16.02636
#
# Velocity S-wave (km/s) = 2.82363 3.00972 2.91816
# Velocity P-wave (km/s) = 3.67752 5.85166 4.88703
#
# Compressibility (1/GPa) = 0.18363097
#
# Stress axis : x y z
#
# Youngs Moduli (GPa) = 5.19798 89.29017 62.37590
#
# Poissons Ratio (x) = 0.14146 0.56128
# Poissons Ratio (y) = 0.00823 0.46213
# Poissons Ratio (z) = 0.04677 0.66153
#
# Static dielectric constant tensor:
#      x y z
#    x 1.648190 0.000000 0.000000 
#    y 0.000000 1.623920 0.000000 
#    z 0.000000 0.000000 1.677490 
# 
# From -- ./inp_files/12723.got.cif
#   From: 2010.05.17/outbox.cif.g08.bks.cpg/sg38_7_cif.got.tgz:12723.got - 2010.06.03 18:07:57.
