data_PCOD9358839
_publ_section_title
;
Structure prediction by ZEFSAII (Michael W. Deem and Ramdas Pophale) SiO2 
 PCOD9358839
Probable space group: A M M 2
;
_chemical_formula_sum "Si O2"
_cell_formula_units_Z 56
_cell_length_a 8.686950
_cell_length_b 19.055859
_cell_length_c 17.135691
_cell_angle_alpha 90.000000
_cell_angle_beta 90.000000
_cell_angle_gamma 90.000000
_cell_volume 2836.595925
_symmetry_space_group_name_H-M "A M M 2"
_symmetry_group_IT_number 38
_symmetry_cell_setting 'orthorhombic'
loop_
_space_group_symop_operation_xyz
x,y,z
-x,-y,z
-x,y,z
x,-y,z
x,1/2+y,1/2+z
-x,1/2-y,1/2+z
-x,1/2+y,1/2+z
x,1/2-y,1/2+z
loop_
_atom_site_type_symbol
_atom_site_label
_atom_site_fract_x
_atom_site_fract_y
_atom_site_fract_z
Si Si1 0.182349 0.304813 0.626710
Si Si2 0.684374 0.418567 0.519843
Si Si3 0.317087 0.665691 0.063356
Si Si4 0.183390 0.661165 0.370025
Si Si5 0.182404 0.917096 0.707376
Si Si6 0.684186 0.798023 0.297996
Si Si7 0.312599 0.580002 0.910393
O O1 0.258820 0.375554 0.594788
O O2 0.235614 0.240458 0.572162
O O3 0.238142 0.288458 0.714170
O O4 0.000000 0.310690 0.624768
O O5 0.500000 0.415430 0.515758
O O6 0.731675 0.500000 0.521636
O O7 0.754258 0.379714 0.444725
O O8 0.500000 0.677238 0.057241
O O9 0.278235 0.621862 0.141006
O O10 0.264631 0.620449 0.988972
O O11 0.214005 0.615350 0.292197
O O12 0.264128 0.735591 0.355215
O O13 0.000000 0.670997 0.377057
O O14 0.000000 0.906077 0.691370
O O15 0.212939 0.000000 0.707140
O O16 0.500000 0.796020 0.288937
O O17 0.730190 0.871817 0.337067
O O18 0.500000 0.577872 0.912120
O O19 0.257024 0.500000 0.907582
#
# Coordination Sequence:
#
# PCOD9358839 Si02
#       7
#     8   8   8   8   8   8   8
#     4  12  25  42  64  91 126 165 208 259 318 377
#     4  11  25  44  66  93 125 163 211 264 317 377
#     4  11  21  37  63  92 122 160 209 256 307 372
#     4  11  22  39  63  91 127 168 208 254 314 378
#     4  10  21  36  56  86 126 168 205 248 308 371
#     4  11  22  39  65  93 123 164 214 261 310 371
#     4   9  20  38  60  89 123 157 197 251 309 361
#
# _framework density 19.741972000000001
#
# number of rings (size 3 to 8) (size 9 to 14) (size 15 to 20)
#    0.000    1.286    1.429    4.714    0.000    4.857 
#    0.000    3.571    0.000    4.714    0.000    0.000 
#    0.000    0.000    0.000    0.000    0.000    0.000 
#
# Total GULP energy -156622.588424 kJ/mol
# GULP energy per Si atom -5593.663872 kJ/mol
# Density = 1.969704 g / cm^3
# Si number density = 19.741972 Si / 1000 Ang^3
#
#
#
# Elastic Constant Matrix: (Units=GPa)
#
#
# Indices 1 2 3 4 5 6 
#
# 1 38.9622 16.2770 7.1442 0.0000 0.0000 0.0000
# 2 16.2770 125.7976 26.2683 0.0000 0.0000 0.0000
# 3 7.1442 26.2683 31.2799 0.0000 0.0000 0.0000
# 4 0.0000 0.0000 0.0000 26.2930 0.0000 0.0000
# 5 0.0000 0.0000 0.0000 0.0000 32.0114 0.0000
# 6 0.0000 0.0000 0.0000 0.0000 0.0000 19.3446
#
#
#
# Elastic Compliance Matrix: (Units=1/GPa)
#
#
# Indices 1 2 3 4 5 6 
#
# 1 0.027539 -0.002728 -0.003999 0.000000 0.000000 0.000000
# 2 -0.002728 0.009910 -0.007699 0.000000 0.000000 0.000000
# 3 -0.003999 -0.007699 0.039348 0.000000 0.000000 0.000000
# 4 0.000000 0.000000 0.000000 0.038033 0.000000 0.000000
# 5 0.000000 0.000000 0.000000 0.000000 0.031239 0.000000
# 6 0.000000 0.000000 0.000000 0.000000 0.000000 0.051694
#
#
# Mechanical properties :
#
#
# Convention : Reuss Voigt Hill
#
# Bulk Modulus (GPa) = 20.85716 32.82430 26.84073
# Shear Modulus (GPa) = 20.61036 25.28649 22.94842
#
# Velocity S-wave (km/s) = 3.23458 3.58278 3.41312
# Velocity P-wave (km/s) = 4.95357 5.81187 5.39980
#
# Compressibility (1/GPa) = 0.04794517
#
# Stress axis : x y z
#
# Youngs Moduli (GPa) = 36.31232 100.90847 25.41407
#
# Poissons Ratio (x) = 0.27531 0.10162
# Poissons Ratio (y) = 0.09907 0.19567
# Poissons Ratio (z) = 0.14520 0.77690
#
# Static dielectric constant tensor:
#      x y z
#    x 1.658400 0.000000 0.000000 
#    y 0.000000 1.684340 0.000000 
#    z 0.000000 0.000000 1.669130 
# 
# From -- ./inp_files/12447.got.cif
#   From: 2010.05.17/outbox.cif.g08.bks.cpg/sg38_7_cif.got.tgz:12447.got - 2010.06.03 18:07:57.
