data_PCOD9358656
_publ_section_title
;
Structure prediction by ZEFSAII (Michael W. Deem and Ramdas Pophale) SiO2 
 PCOD9358656
Probable space group: A M M 2
;
_chemical_formula_sum "Si O2"
_cell_formula_units_Z 56
_cell_length_a 14.999568
_cell_length_b 7.561498
_cell_length_c 21.725871
_cell_angle_alpha 90.000000
_cell_angle_beta 90.000000
_cell_angle_gamma 90.000000
_cell_volume 2464.130983
_symmetry_space_group_name_H-M "A M M 2"
_symmetry_group_IT_number 38
_symmetry_cell_setting 'orthorhombic'
loop_
_space_group_symop_operation_xyz
x,y,z
-x,-y,z
-x,y,z
x,-y,z
x,1/2+y,1/2+z
-x,1/2-y,1/2+z
-x,1/2+y,1/2+z
x,1/2-y,1/2+z
loop_
_atom_site_type_symbol
_atom_site_label
_atom_site_fract_x
_atom_site_fract_y
_atom_site_fract_z
Si Si1 0.103767 0.784395 0.832040
Si Si2 0.600010 0.705883 0.401089
Si Si3 0.607898 0.703550 0.764312
Si Si4 0.218766 0.712394 0.446817
Si Si5 0.218765 0.287606 0.081805
Si Si6 0.600010 0.294115 0.127534
Si Si7 0.103769 0.715604 0.196582
O O1 0.160036 0.720762 0.890034
O O2 0.137313 0.728809 0.764311
O O3 0.000000 0.733402 0.837228
O O4 0.105754 0.000000 0.832577
O O5 0.500000 0.784075 0.405945
O O6 0.591680 0.500000 0.417190
O O7 0.632376 0.713929 0.329735
O O8 0.680258 0.784346 0.440502
O O9 0.500000 0.713124 0.764312
O O10 0.635118 0.500000 0.764315
O O11 0.632377 0.786059 0.698887
O O12 0.223333 0.500000 0.440336
O O13 0.181942 0.750001 0.514311
O O14 0.223330 0.500000 0.088288
O O15 0.319742 0.215657 0.088120
O O16 0.160037 0.220757 0.138588
O O17 0.500000 0.215926 0.122678
O O18 0.591681 0.500000 0.111437
O O19 0.105758 0.500000 0.196044
O O20 0.000000 0.766592 0.191394
#
# Coordination Sequence:
#
# PCOD9358656 Si02
#       7
#     8   8   8   8   8   8   8
#     4   8  15  30  53  78 100 126 166 212 253 298
#     4   9  18  32  49  70  99 136 174 209 247 296
#     4   9  17  29  47  73 100 127 164 212 261 299
#     4  10  21  34  51  75 104 136 172 210 253 301
#     4  10  21  34  51  75 104 136 172 210 253 301
#     4   9  18  32  49  70  99 136 174 209 247 296
#     4   8  15  30  53  78 100 126 166 212 253 298
#
# _framework density 22.726067
#
# number of rings (size 3 to 8) (size 9 to 14) (size 15 to 20)
#    0.000    3.000    0.000    1.286    2.000    4.000 
#    0.000    0.000    0.000    0.000    0.000    2.000 
#    0.000    0.000    0.000    0.000    0.000    0.000 
#
# Total GULP energy -156229.138903 kJ/mol
# GULP energy per Si atom -5579.612104 kJ/mol
# Density = 2.267434 g / cm^3
# Si number density = 22.726067 Si / 1000 Ang^3
#
#
#
# Elastic Constant Matrix: (Units=GPa)
#
#
# Indices 1 2 3 4 5 6 
#
# 1 80.8702 1.6233 90.1690 0.0000 0.0000 0.0000
# 2 1.6233 52.1117 -3.9349 0.0000 0.0000 0.0000
# 3 90.1690 -3.9349 176.2802 0.0000 0.0000 0.0000
# 4 0.0000 0.0000 0.0000 4.5226 0.0000 0.0000
# 5 0.0000 0.0000 0.0000 0.0000 1.1404 0.0000
# 6 0.0000 0.0000 0.0000 0.0000 0.0000 -5.1174
#
#
#
# Elastic Compliance Matrix: (Units=1/GPa)
#
#
# Indices 1 2 3 4 5 6 
#
# 1 0.028991 -0.002026 -0.014874 0.000000 0.000000 0.000000
# 2 -0.002026 0.019364 0.001469 0.000000 0.000000 0.000000
# 3 -0.014874 0.001469 0.013314 0.000000 0.000000 0.000000
# 4 0.000000 0.000000 0.000000 0.221110 0.000000 0.000000
# 5 0.000000 0.000000 0.000000 0.000000 0.876885 0.000000
# 6 0.000000 0.000000 0.000000 0.000000 0.000000 -0.195413
#
#
# Mechanical properties :
#
#
# Convention : Reuss Voigt Hill
#
# Bulk Modulus (GPa) = 32.46272 53.88630 43.17451
# Shear Modulus (GPa) = 4.97323 14.86944 9.92134
#
# Velocity S-wave (km/s) = 1.48091 2.56068 2.09167
# Velocity P-wave (km/s) = 4.15205 5.70136 4.98723
#
# Compressibility (1/GPa) = 0.03080457
#
# Stress axis : x y z
#
# Youngs Moduli (GPa) = 34.49377 51.64334 75.10949
#
# Poissons Ratio (x) = 0.10464 1.11720
# Poissons Ratio (y) = 0.06989 -0.11031
# Poissons Ratio (z) = 0.51307 -0.07585
#
# Static dielectric constant tensor:
#      x y z
#    x 1.866840 0.000000 0.000000 
#    y 0.000000 1.852280 0.000000 
#    z 0.000000 0.000000 1.844810 
# 
# From -- ./inp_files/21019.got.cif
#   From: 2010.05.17/outbox.cif.g08.bks.cpg/sg38_11_cif.got.tgz:21019.got - 2010.06.03 18:07:57.
