data_PCOD9358547
_publ_section_title
;
Structure prediction by ZEFSAII (Michael W. Deem and Ramdas Pophale) SiO2 
 PCOD9358547
Probable space group: A M M 2
;
_chemical_formula_sum "Si O2"
_cell_formula_units_Z 58
_cell_length_a 9.754920
_cell_length_b 16.864342
_cell_length_c 17.229437
_cell_angle_alpha 90.000000
_cell_angle_beta 90.000000
_cell_angle_gamma 90.000000
_cell_volume 2834.419971
_symmetry_space_group_name_H-M "A M M 2"
_symmetry_group_IT_number 38
_symmetry_cell_setting 'orthorhombic'
loop_
_space_group_symop_operation_xyz
x,y,z
-x,-y,z
-x,y,z
x,-y,z
x,1/2+y,1/2+z
-x,1/2-y,1/2+z
-x,1/2+y,1/2+z
x,1/2-y,1/2+z
loop_
_atom_site_type_symbol
_atom_site_label
_atom_site_fract_x
_atom_site_fract_y
_atom_site_fract_z
Si Si1 0.338044 0.204294 0.959510
Si Si2 0.000000 0.500000 0.978177
Si Si3 0.660068 0.089060 0.817885
Si Si4 0.651649 0.590354 0.851528
Si Si5 0.160389 0.827168 0.235758
Si Si6 0.837047 0.145308 0.678553
Si Si7 0.343760 0.092585 0.108079
Si Si8 0.236706 0.369810 0.002861
O O1 0.500000 0.229559 0.955812
O O2 0.307424 0.156074 0.881259
O O3 0.327142 0.143386 0.030563
O O4 0.238032 0.277182 0.978460
O O5 0.116202 0.429576 0.980849
O O6 0.500000 0.099830 0.794617
O O7 0.760682 0.096707 0.745211
O O8 0.671220 0.000000 0.851417
O O9 0.500000 0.606823 0.820981
O O10 0.689516 0.500000 0.830158
O O11 0.758478 0.651279 0.814148
O O12 0.648534 0.597891 0.944356
O O13 0.173452 0.736747 0.206304
O O14 0.234247 0.880425 0.171134
O O15 0.000000 0.845136 0.244709
O O16 0.762233 0.131107 0.596267
O O17 0.000000 0.126097 0.670038
O O18 0.500000 0.106717 0.136365
O O19 0.330211 0.000000 0.091249
#
# Coordination Sequence:
#
# PCOD9358547 Si02
#       8
#     8   2   8   8   8   8   8   8
#     4  10  21  42  70  99 133 174 223 283 338 402
#     4  12  28  44  70  96 134 184 224 284 344 412
#     4  10  23  43  69 102 138 178 224 275 333 399
#     4  11  25  43  65  95 131 168 218 278 338 400
#     4  11  24  41  63  95 132 177 224 275 332 400
#     4  11  25  43  65  94 133 177 225 274 333 395
#     4  10  20  37  64  97 135 179 225 276 337 399
#     4  12  24  44  68  94 127 179 224 275 336 403
#
# _framework density 20.46274
#
# number of rings (size 3 to 8) (size 9 to 14) (size 15 to 20)
#    0.000    1.241    2.759    2.483    1.931    7.448 
#    1.241    1.379    0.000    1.655    0.000    0.000 
#    0.000    0.000    0.000    0.000    0.000    0.000 
#
# Total GULP energy -161578.719729 kJ/mol
# GULP energy per Si atom -5571.679991 kJ/mol
# Density = 2.041617 g / cm^3
# Si number density = 20.462740 Si / 1000 Ang^3
#
#
#
# Elastic Constant Matrix: (Units=GPa)
#
#
# Indices 1 2 3 4 5 6 
#
# 1 75.5433 48.5501 47.0947 0.0000 0.0000 0.0000
# 2 48.5501 106.7572 32.2525 0.0000 0.0000 0.0000
# 3 47.0947 32.2525 117.2834 0.0000 0.0000 0.0000
# 4 0.0000 0.0000 0.0000 26.0971 0.0000 0.0000
# 5 0.0000 0.0000 0.0000 0.0000 57.8041 0.0000
# 6 0.0000 0.0000 0.0000 0.0000 0.0000 48.6800
#
#
#
# Elastic Compliance Matrix: (Units=1/GPa)
#
#
# Indices 1 2 3 4 5 6 
#
# 1 0.022891 -0.008325 -0.006902 0.000000 0.000000 0.000000
# 2 -0.008325 0.013243 -0.000299 0.000000 0.000000 0.000000
# 3 -0.006902 -0.000299 0.011380 0.000000 0.000000 0.000000
# 4 0.000000 0.000000 0.000000 0.038318 0.000000 0.000000
# 5 0.000000 0.000000 0.000000 0.000000 0.017300 0.000000
# 6 0.000000 0.000000 0.000000 0.000000 0.000000 0.020542
#
#
# Mechanical properties :
#
#
# Convention : Reuss Voigt Hill
#
# Bulk Modulus (GPa) = 60.74694 61.70872 61.22783
# Shear Modulus (GPa) = 31.20824 37.96202 34.58513
#
# Velocity S-wave (km/s) = 3.90952 4.31185 4.11561
# Velocity P-wave (km/s) = 7.08027 7.41697 7.25058
#
# Compressibility (1/GPa) = 0.01646173
#
# Stress axis : x y z
#
# Youngs Moduli (GPa) = 43.68610 75.51020 87.87169
#
# Poissons Ratio (x) = 0.62860 0.60652
# Poissons Ratio (y) = 0.36367 0.02628
# Poissons Ratio (z) = 0.30154 0.02258
#
# Static dielectric constant tensor:
#      x y z
#    x 1.716690 0.000000 0.000000 
#    y 0.000000 1.732570 0.000000 
#    z 0.000000 0.000000 1.739250 
# 
# From -- ./inp_files/16988.got.cif
#   From: 2010.05.17/outbox.cif.g08.bks.cpg/sg38_9_cif.got.tgz:16988.got - 2010.06.03 18:07:57.
