data_PCOD9358449
_publ_section_title
;
Structure prediction by ZEFSAII (Michael W. Deem and Ramdas Pophale) SiO2 
 PCOD9358449
Probable space group: A M M 2
;
_chemical_formula_sum "Si O2"
_cell_formula_units_Z 48
_cell_length_a 15.433307
_cell_length_b 17.836605
_cell_length_c 8.932137
_cell_angle_alpha 90.000000
_cell_angle_beta 90.000000
_cell_angle_gamma 90.000000
_cell_volume 2458.819030
_symmetry_space_group_name_H-M "A M M 2"
_symmetry_group_IT_number 38
_symmetry_cell_setting 'orthorhombic'
loop_
_space_group_symop_operation_xyz
x,y,z
-x,-y,z
-x,y,z
x,-y,z
x,1/2+y,1/2+z
-x,1/2-y,1/2+z
-x,1/2+y,1/2+z
x,1/2-y,1/2+z
loop_
_atom_site_type_symbol
_atom_site_label
_atom_site_fract_x
_atom_site_fract_y
_atom_site_fract_z
Si Si1 0.290704 0.914561 0.538810
Si Si2 0.642401 0.770273 0.690621
Si Si3 0.806743 0.685490 0.832507
Si Si4 0.777421 0.917855 0.873178
Si Si5 0.101945 0.299723 0.528633
Si Si6 0.407247 0.358226 0.473180
O O1 0.347997 0.839544 0.572650
O O2 0.236677 0.890656 0.392575
O O3 0.236821 0.916065 0.694396
O O4 0.327177 0.000000 0.524173
O O5 0.732600 0.740526 0.763968
O O6 0.603462 0.697819 0.611825
O O7 0.591421 0.805345 0.827510
O O8 0.875008 0.679868 0.698877
O O9 0.852507 0.722839 0.975982
O O10 0.848024 0.859421 0.926497
O O11 0.682702 0.902541 0.947863
O O12 0.806201 0.000000 0.918341
O O13 0.000000 0.297250 0.503912
O O14 0.500000 0.399143 0.482513
#
# Coordination Sequence:
#
# PCOD9358449 Si02
#       6
#     8   8   8   8   8   8
#     4  10  20  36  63  87 117 162 199 242 309 363
#     4  11  18  37  60  87 118 153 200 248 300 354
#     4  12  19  39  61  87 119 156 204 252 303 357
#     4  10  21  40  60  85 123 163 200 249 306 362
#     4  12  23  37  62  89 117 158 209 256 299 360
#     4  11  21  35  60  89 116 154 202 251 297 358
#
# _framework density 19.521567000000001
#
# number of rings (size 3 to 8) (size 9 to 14) (size 15 to 20)
#    0.000    1.000    8.333    1.000    0.000    1.333 
#    0.000    0.833    0.000    5.000    0.000    0.000 
#    0.000    0.000    0.000    0.000    0.000    0.000 
#
# Total GULP energy -133716.150214 kJ/mol
# GULP energy per Si atom -5571.506259 kJ/mol
# Density = 1.947714 g / cm^3
# Si number density = 19.521567 Si / 1000 Ang^3
#
#
#
# Elastic Constant Matrix: (Units=GPa)
#
#
# Indices 1 2 3 4 5 6 
#
# 1 95.1272 7.6909 -4.2412 0.0000 0.0000 0.0000
# 2 7.6909 67.4871 -4.4307 0.0000 0.0000 0.0000
# 3 -4.2412 -4.4307 45.1328 0.0000 0.0000 0.0000
# 4 0.0000 0.0000 0.0000 15.9616 0.0000 0.0000
# 5 0.0000 0.0000 0.0000 0.0000 -21.7528 0.0000
# 6 0.0000 0.0000 0.0000 0.0000 0.0000 -9.0716
#
#
#
# Elastic Compliance Matrix: (Units=1/GPa)
#
#
# Indices 1 2 3 4 5 6 
#
# 1 0.010645 -0.001155 0.000887 0.000000 0.000000 0.000000
# 2 -0.001155 0.015039 0.001368 0.000000 0.000000 0.000000
# 3 0.000887 0.001368 0.022374 0.000000 0.000000 0.000000
# 4 0.000000 0.000000 0.000000 0.062650 0.000000 0.000000
# 5 0.000000 0.000000 0.000000 0.000000 -0.045971 0.000000
# 6 0.000000 0.000000 0.000000 0.000000 0.000000 -0.110234
#
#
# Mechanical properties :
#
#
# Convention : Reuss Voigt Hill
#
# Bulk Modulus (GPa) = 19.89712 22.86502 21.38107
# Shear Modulus (GPa) = -161.58495 10.94265 -75.32115
#
# Velocity S-wave (km/s) = -9.10781 2.37014 -6.21831
# Velocity P-wave (km/s) = 10.01940 4.38500 6.37025
#
# Compressibility (1/GPa) = 0.05025852
#
# Stress axis : x y z
#
# Youngs Moduli (GPa) = 93.93939 66.49352 44.69379
#
# Poissons Ratio (x) = 0.07679 -0.03964
# Poissons Ratio (y) = 0.10849 -0.06113
# Poissons Ratio (z) = -0.08332 -0.09095
#
# Static dielectric constant tensor:
#      x y z
#    x 1.734500 0.000000 0.000000 
#    y 0.000000 1.700430 0.000000 
#    z 0.000000 0.000000 1.707170 
# 
# From -- ./inp_files/5451.got.cif
#   From: 2010.05.17/outbox.cif.g08.bks.cpg/sg38_3_cif.got.tgz:5451.got - 2010.06.03 18:07:57.
