data_PCOD9358344
_publ_section_title
;
Structure prediction by ZEFSAII (Michael W. Deem and Ramdas Pophale) SiO2 
 PCOD9358344
Probable space group: A M M 2
;
_chemical_formula_sum "Si O2"
_cell_formula_units_Z 64
_cell_length_a 7.835814
_cell_length_b 31.769566
_cell_length_c 12.275013
_cell_angle_alpha 90.000000
_cell_angle_beta 90.000000
_cell_angle_gamma 90.000000
_cell_volume 3055.746769
_symmetry_space_group_name_H-M "A M M 2"
_symmetry_group_IT_number 38
_symmetry_cell_setting 'orthorhombic'
loop_
_space_group_symop_operation_xyz
x,y,z
-x,-y,z
-x,y,z
x,-y,z
x,1/2+y,1/2+z
-x,1/2-y,1/2+z
-x,1/2+y,1/2+z
x,1/2-y,1/2+z
loop_
_atom_site_type_symbol
_atom_site_label
_atom_site_fract_x
_atom_site_fract_y
_atom_site_fract_z
Si Si1 0.699873 0.370162 0.820950
Si Si2 0.202040 0.705986 0.974393
Si Si3 0.708524 0.953623 0.927515
Si Si4 0.208385 0.162311 0.693253
Si Si5 0.800959 0.045790 0.443932
Si Si6 0.206271 0.798893 0.922915
Si Si7 0.704886 0.375950 0.575098
Si Si8 0.300962 0.934551 0.684292
O O1 0.500000 0.361016 0.811522
O O2 0.775886 0.330658 0.885650
O O3 0.720445 0.413276 0.888669
O O4 0.770776 0.375765 0.698853
O O5 0.271760 0.751660 0.942445
O O6 0.000000 0.711878 0.989522
O O7 0.268276 0.688883 0.089450
O O8 0.500000 0.951466 0.924621
O O9 0.765560 0.949430 0.801806
O O10 0.755558 0.000000 0.969291
O O11 0.769717 0.914863 0.001315
O O12 0.262158 0.183263 0.806247
O O13 0.280959 0.115654 0.684968
O O14 0.000000 0.159336 0.690938
O O15 0.785504 0.049274 0.574625
O O16 0.000000 0.046924 0.415220
O O17 0.729660 0.000000 0.410528
O O18 0.000000 0.797762 0.919903
O O19 0.257172 0.832147 0.015185
O O20 0.500000 0.381012 0.580239
O O21 0.500000 0.946277 0.676917
#
# Coordination Sequence:
#
# PCOD9358344 Si02
#       8
#     8   8   8   8   8   8   8   8
#     4  11  24  40  60  87 117 153 198 245 293 347
#     4  10  22  39  61  86 117 156 195 241 293 347
#     4   9  18  34  57  84 114 150 189 232 289 349
#     4  10  20  36  58  87 120 152 195 242 292 347
#     4  11  24  41  61  86 119 157 194 238 293 348
#     4  10  22  38  61  89 117 155 198 240 289 349
#     4  10  22  40  59  84 118 153 194 246 296 345
#     4  11  20  34  60  90 120 152 192 239 290 346
#
# _framework density 20.944143
#
# number of rings (size 3 to 8) (size 9 to 14) (size 15 to 20)
#    0.000    1.750    2.500    1.500    1.750    3.500 
#    0.000    1.250    0.000    1.125    0.000    0.000 
#    0.000    0.000    0.000    0.000    0.000    0.000 
#
# Total GULP energy -178783.092929 kJ/mol
# GULP energy per Si atom -5586.971654 kJ/mol
# Density = 2.089647 g / cm^3
# Si number density = 20.944143 Si / 1000 Ang^3
#
#
#
# Elastic Constant Matrix: (Units=GPa)
#
#
# Indices 1 2 3 4 5 6 
#
# 1 19.0422 -12.8599 -8.2144 0.0000 0.0000 0.0000
# 2 -12.8599 169.7990 62.3910 0.0000 0.0000 0.0000
# 3 -8.2144 62.3910 135.3970 0.0000 0.0000 0.0000
# 4 0.0000 0.0000 0.0000 33.4927 0.0000 0.0000
# 5 0.0000 0.0000 0.0000 0.0000 2.3063 0.0000
# 6 0.0000 0.0000 0.0000 0.0000 0.0000 16.3212
#
#
#
# Elastic Compliance Matrix: (Units=1/GPa)
#
#
# Indices 1 2 3 4 5 6 
#
# 1 0.055679 0.003582 0.001727 0.000000 0.000000 0.000000
# 2 0.003582 0.007320 -0.003156 0.000000 0.000000 0.000000
# 3 0.001727 -0.003156 0.008945 0.000000 0.000000 0.000000
# 4 0.000000 0.000000 0.000000 0.029857 0.000000 0.000000
# 5 0.000000 0.000000 0.000000 0.000000 0.433600 0.000000
# 6 0.000000 0.000000 0.000000 0.000000 0.000000 0.061270
#
#
# Mechanical properties :
#
#
# Convention : Reuss Voigt Hill
#
# Bulk Modulus (GPa) = 13.11450 45.20796 29.16123
# Shear Modulus (GPa) = 8.09348 29.28548 18.68948
#
# Velocity S-wave (km/s) = 1.96792 3.74340 2.99046
# Velocity P-wave (km/s) = 3.38214 6.34948 5.08698
#
# Compressibility (1/GPa) = 0.07625148
#
# Stress axis : x y z
#
# Youngs Moduli (GPa) = 17.96004 136.60833 111.79824
#
# Poissons Ratio (x) = -0.48937 -0.19311
# Poissons Ratio (y) = -0.06434 0.35282
# Poissons Ratio (z) = -0.03102 0.43111
#
# Static dielectric constant tensor:
#      x y z
#    x 1.761600 0.000000 0.000000 
#    y 0.000000 1.735420 0.000000 
#    z 0.000000 0.000000 1.738030 
# 
# From -- ./inp_files/8530.got.cif
#   From: 2010.05.17/outbox.cif.g08.bks.cpg/sg38_5_cif.got.tgz:8530.got - 2010.06.03 18:07:57.
