data_PCOD9358150
_publ_section_title
;
Structure prediction by ZEFSAII (Michael W. Deem and Ramdas Pophale) SiO2 
 PCOD9358150
Probable space group: A M M 2
;
_chemical_formula_sum "Si O2"
_cell_formula_units_Z 64
_cell_length_a 9.001744
_cell_length_b 18.711054
_cell_length_c 21.460273
_cell_angle_alpha 90.000000
_cell_angle_beta 90.000000
_cell_angle_gamma 90.000000
_cell_volume 3614.599236
_symmetry_space_group_name_H-M "A M M 2"
_symmetry_group_IT_number 38
_symmetry_cell_setting 'orthorhombic'
loop_
_space_group_symop_operation_xyz
x,y,z
-x,-y,z
-x,y,z
x,-y,z
x,1/2+y,1/2+z
-x,1/2-y,1/2+z
-x,1/2+y,1/2+z
x,1/2-y,1/2+z
loop_
_atom_site_type_symbol
_atom_site_label
_atom_site_fract_x
_atom_site_fract_y
_atom_site_fract_z
Si Si1 0.678814 0.170167 0.418750
Si Si2 0.329150 0.086865 0.661943
Si Si3 0.821764 0.916121 0.790788
Si Si4 0.821612 0.582604 0.533511
Si Si5 0.680962 0.417717 0.796733
Si Si6 0.176701 0.914704 0.532743
Si Si7 0.820264 0.325806 0.413281
Si Si8 0.671910 0.587044 0.660546
O O1 0.500000 0.170786 0.421927
O O2 0.724824 0.129229 0.355430
O O3 0.743491 0.127992 0.477855
O O4 0.743129 0.249511 0.415978
O O5 0.500000 0.110098 0.657932
O O6 0.255638 0.108987 0.727139
O O7 0.239486 0.108075 0.600230
O O8 0.326838 0.000000 0.662662
O O9 0.780989 0.869361 0.850746
O O10 0.000000 0.912577 0.782775
O O11 0.784371 0.000000 0.801407
O O12 0.773246 0.500000 0.525482
O O13 0.776345 0.628824 0.474188
O O14 0.759583 0.609823 0.599358
O O15 0.000000 0.582784 0.536206
O O16 0.500000 0.418616 0.794192
O O17 0.729136 0.500000 0.805175
O O18 0.730236 0.390401 0.728596
O O19 0.000000 0.903623 0.530384
O O20 0.205178 0.000000 0.525623
O O21 0.000000 0.317879 0.414071
O O22 0.500000 0.608382 0.654334
O O23 0.675937 0.500000 0.662487
#
# Coordination Sequence:
#
# PCOD9358150 Si02
#       8
#     8   8   8   8   8   8   8   8
#     4  11  22  35  52  74 102 137 175 214 255 302
#     4   9  17  30  51  80 109 133 163 209 260 308
#     4   9  17  32  55  78  99 131 176 220 263 312
#     4   9  17  31  52  76 100 129 167 209 252 298
#     4   8  15  30  52  75  98 126 160 198 243 295
#     4  10  20  35  56  80 105 134 169 210 257 310
#     4  10  21  36  51  70 102 140 174 212 258 308
#     4   8  14  27  49  75  99 123 156 201 250 298
#
# _framework density 17.705971999999999
#
# number of rings (size 3 to 8) (size 9 to 14) (size 15 to 20)
#    0.000    2.750    0.000    2.625    0.000    5.250 
#    0.000    2.500    0.000   12.750    0.000    0.000 
#    0.000    0.000    0.000    0.000    0.000    0.000 
#
# Total GULP energy -178410.988570 kJ/mol
# GULP energy per Si atom -5575.343393 kJ/mol
# Density = 1.766567 g / cm^3
# Si number density = 17.705972 Si / 1000 Ang^3
#
#
#
# Elastic Constant Matrix: (Units=GPa)
#
#
# Indices 1 2 3 4 5 6 
#
# 1 43.3192 40.4129 64.5349 0.0000 0.0000 0.0000
# 2 40.4129 73.8010 85.7454 0.0000 0.0000 0.0000
# 3 64.5349 85.7454 217.5883 0.0000 0.0000 0.0000
# 4 0.0000 0.0000 0.0000 -4.8552 0.0000 0.0000
# 5 0.0000 0.0000 0.0000 0.0000 33.3556 0.0000
# 6 0.0000 0.0000 0.0000 0.0000 0.0000 20.9665
#
#
#
# Elastic Compliance Matrix: (Units=1/GPa)
#
#
# Indices 1 2 3 4 5 6 
#
# 1 0.053853 -0.020164 -0.008026 0.000000 0.000000 0.000000
# 2 -0.020164 0.032543 -0.006844 0.000000 0.000000 0.000000
# 3 -0.008026 -0.006844 0.009673 0.000000 0.000000 0.000000
# 4 0.000000 0.000000 0.000000 -0.205966 0.000000 0.000000
# 5 0.000000 0.000000 0.000000 0.000000 0.029980 0.000000
# 6 0.000000 0.000000 0.000000 0.000000 0.000000 0.047695
#
#
# Mechanical properties :
#
#
# Convention : Reuss Voigt Hill
#
# Bulk Modulus (GPa) = 38.46023 79.56610 59.01317
# Shear Modulus (GPa) = 107.49251 19.49439 63.49345
#
# Velocity S-wave (km/s) = 7.80010 3.32174 5.99481
# Velocity P-wave (km/s) = 10.14351 7.72962 9.01770
#
# Compressibility (1/GPa) = 0.02600088
#
# Stress axis : x y z
#
# Youngs Moduli (GPa) = 18.56904 30.72834 103.37774
#
# Poissons Ratio (x) = 0.61962 0.82973
# Poissons Ratio (y) = 0.37443 0.70749
# Poissons Ratio (z) = 0.14904 0.21030
#
# Static dielectric constant tensor:
#      x y z
#    x 1.580160 0.000000 0.000000 
#    y 0.000000 1.581500 0.000000 
#    z 0.000000 0.000000 1.602720 
# 
# From -- ./inp_files/20092.got.cif
#   From: 2010.05.17/outbox.cif.g08.bks.cpg/sg38_11_cif.got.tgz:20092.got - 2010.06.03 18:07:57.
