data_PCOD9358893
_publ_section_title
;
Structure prediction by ZEFSAII (Michael W. Deem and Ramdas Pophale) SiO2 
 PCOD9358893
Probable space group: A M M 2
;
_chemical_formula_sum "Si O2"
_cell_formula_units_Z 48
_cell_length_a 7.753788
_cell_length_b 29.106567
_cell_length_c 10.487438
_cell_angle_alpha 90.000000
_cell_angle_beta 90.000000
_cell_angle_gamma 90.000000
_cell_volume 2366.869505
_symmetry_space_group_name_H-M "A M M 2"
_symmetry_group_IT_number 38
_symmetry_cell_setting 'orthorhombic'
loop_
_space_group_symop_operation_xyz
x,y,z
-x,-y,z
-x,y,z
x,-y,z
x,1/2+y,1/2+z
-x,1/2-y,1/2+z
-x,1/2+y,1/2+z
x,1/2-y,1/2+z
loop_
_atom_site_type_symbol
_atom_site_label
_atom_site_fract_x
_atom_site_fract_y
_atom_site_fract_z
Si Si1 0.199847 0.857240 0.438560
Si Si2 0.797622 0.201974 0.205591
Si Si3 0.300399 0.806418 0.689497
Si Si4 0.208704 0.051466 0.561438
Si Si5 0.293265 0.551001 0.358480
Si Si6 0.290216 0.647286 0.453269
O O1 0.276128 0.827812 0.323017
O O2 0.206646 0.827471 0.567531
O O3 0.275170 0.907057 0.474170
O O4 0.000000 0.865184 0.403364
O O5 0.712202 0.251594 0.192184
O O6 0.000000 0.210998 0.229921
O O7 0.777635 0.173130 0.076670
O O8 0.500000 0.820389 0.676369
O O9 0.236566 0.826823 0.823470
O O10 0.256471 0.059907 0.709064
O O11 0.000000 0.051814 0.555847
O O12 0.268331 0.000000 0.527693
O O13 0.500000 0.549582 0.372380
O O14 0.224728 0.500000 0.389484
O O15 0.231733 0.594418 0.439575
O O16 0.500000 0.648461 0.458549
#
# Coordination Sequence:
#
# PCOD9358893 Si02
#       6
#     8   8   8   8   8   8
#     4  10  21  37  56  81 111 143 180 221 269 321
#     4  11  24  38  53  77 110 148 183 220 269 321
#     4  11  22  37  58  82 105 138 184 228 271 319
#     4   9  17  31  54  82 109 138 175 220 268 317
#     4   9  17  32  55  82 110 138 174 221 268 316
#     4  10  21  37  56  82 111 143 180 220 269 320
#
# _framework density 20.279952000000002
#
# number of rings (size 3 to 8) (size 9 to 14) (size 15 to 20)
#    0.000    2.000    1.667    2.000    0.000    6.000 
#    0.000    0.833    0.000    1.000    0.000    0.000 
#    0.000    0.000    0.000    0.000    0.000    0.000 
#
# Total GULP energy -134012.499223 kJ/mol
# GULP energy per Si atom -5583.854134 kJ/mol
# Density = 2.023379 g / cm^3
# Si number density = 20.279952 Si / 1000 Ang^3
#
#
#
# Elastic Constant Matrix: (Units=GPa)
#
#
# Indices 1 2 3 4 5 6 
#
# 1 32.3668 -7.7015 -8.9829 0.0000 0.0000 0.0000
# 2 -7.7015 146.7777 45.3984 0.0000 0.0000 0.0000
# 3 -8.9829 45.3984 89.5222 0.0000 0.0000 0.0000
# 4 0.0000 0.0000 0.0000 -23.6356 0.0000 0.0000
# 5 0.0000 0.0000 0.0000 0.0000 15.8182 0.0000
# 6 0.0000 0.0000 0.0000 0.0000 0.0000 3.1747
#
#
#
# Elastic Compliance Matrix: (Units=1/GPa)
#
#
# Indices 1 2 3 4 5 6 
#
# 1 0.031862 0.000810 0.002786 0.000000 0.000000 0.000000
# 2 0.000810 0.008101 -0.004027 0.000000 0.000000 0.000000
# 3 0.002786 -0.004027 0.013492 0.000000 0.000000 0.000000
# 4 0.000000 0.000000 0.000000 -0.042309 0.000000 0.000000
# 5 0.000000 0.000000 0.000000 0.000000 0.063218 0.000000
# 6 0.000000 0.000000 0.000000 0.000000 0.000000 0.314995
#
#
# Mechanical properties :
#
#
# Convention : Reuss Voigt Hill
#
# Bulk Modulus (GPa) = 19.01360 36.23275 27.62318
# Shear Modulus (GPa) = 12.26237 15.06830 13.66533
#
# Velocity S-wave (km/s) = 2.46164 2.72879 2.59865
# Velocity P-wave (km/s) = 4.18037 5.27574 4.75967
#
# Compressibility (1/GPa) = 0.05259393
#
# Stress axis : x y z
#
# Youngs Moduli (GPa) = 31.38542 123.44069 74.11730
#
# Poissons Ratio (x) = -0.09999 -0.20651
# Poissons Ratio (y) = -0.02542 0.29846
# Poissons Ratio (z) = -0.08745 0.49709
#
# Static dielectric constant tensor:
#      x y z
#    x 1.727430 0.000000 0.000000 
#    y 0.000000 1.742470 0.000000 
#    z 0.000000 0.000000 1.672920 
# 
# From -- ./inp_files/3737.got.cif
#   From: 2010.05.17/outbox.cif.g08.bks.cpg/sg38_2_cif.got.tgz:3737.got - 2010.06.03 18:07:57.
