data_PCOD9358964
_publ_section_title
;
Structure prediction by ZEFSAII (Michael W. Deem and Ramdas Pophale) SiO2 
 PCOD9358964
Probable space group: A M M 2
;
_chemical_formula_sum "Si O2"
_cell_formula_units_Z 64
_cell_length_a 9.028423
_cell_length_b 14.138091
_cell_length_c 24.400480
_cell_angle_alpha 90.000000
_cell_angle_beta 90.000000
_cell_angle_gamma 90.000000
_cell_volume 3114.591119
_symmetry_space_group_name_H-M "A M M 2"
_symmetry_group_IT_number 38
_symmetry_cell_setting 'orthorhombic'
loop_
_space_group_symop_operation_xyz
x,y,z
-x,-y,z
-x,y,z
x,-y,z
x,1/2+y,1/2+z
-x,1/2-y,1/2+z
-x,1/2+y,1/2+z
x,1/2-y,1/2+z
loop_
_atom_site_type_symbol
_atom_site_label
_atom_site_fract_x
_atom_site_fract_y
_atom_site_fract_z
Si Si1 0.174794 0.611788 0.318180
Si Si2 0.823537 0.281161 0.981765
Si Si3 0.675460 0.218195 0.370632
Si Si4 0.829756 0.885086 0.147919
Si Si5 0.674204 0.387882 0.535120
Si Si6 0.824577 0.386543 0.769930
Si Si7 0.824711 0.887276 0.593379
Si Si8 0.330810 0.384675 0.204612
O O1 0.200518 0.500000 0.325837
O O2 0.265262 0.675772 0.360016
O O3 0.230606 0.638110 0.257109
O O4 0.000000 0.630119 0.323132
O O5 0.746946 0.318009 0.926908
O O6 0.000000 0.284362 0.975696
O O7 0.767642 0.175199 0.993626
O O8 0.781547 0.339179 0.036357
O O9 0.500000 0.216179 0.373695
O O10 0.734230 0.160162 0.318531
O O11 0.728758 0.861385 0.096360
O O12 0.779492 0.854933 0.208500
O O13 0.000000 0.853486 0.138590
O O14 0.834228 0.000000 0.150016
O O15 0.500000 0.368953 0.528971
O O16 0.699383 0.500000 0.527957
O O17 0.808583 0.500000 0.772697
O O18 0.000000 0.365221 0.775677
O O19 0.737410 0.852706 0.646921
O O20 0.000000 0.871287 0.602121
O O21 0.802431 0.000000 0.588641
O O22 0.500000 0.352524 0.212292
O O23 0.332814 0.500000 0.202375
#
# Coordination Sequence:
#
# PCOD9358964 Si02
#       8
#     8   8   8   8   8   8   8   8
#     4  10  21  39  63  87 113 149 192 236 282 338
#     4  11  24  41  60  81 108 148 197 241 280 332
#     4  12  26  41  58  83 116 151 191 241 291 342
#     4   8  15  31  57  87 115 145 184 228 275 331
#     4  10  21  37  58  85 117 150 183 228 286 340
#     4   9  19  38  63  88 117 154 194 236 280 331
#     4   9  19  37  60  85 113 147 187 230 277 331
#     4   9  17  31  55  88 121 149 180 224 281 340
#
# _framework density 20.548444
#
# number of rings (size 3 to 8) (size 9 to 14) (size 15 to 20)
#    0.000    2.250    0.000    3.375    0.000    6.750 
#    0.000    3.750    0.000    0.000    0.000    0.000 
#    0.000    0.000    0.000    0.000    0.000    0.000 
#
# Total GULP energy -178882.081033 kJ/mol
# GULP energy per Si atom -5590.065032 kJ/mol
# Density = 2.050168 g / cm^3
# Si number density = 20.548444 Si / 1000 Ang^3
#
#
#
# Elastic Constant Matrix: (Units=GPa)
#
#
# Indices 1 2 3 4 5 6 
#
# 1 69.0149 9.1250 34.1776 0.0000 0.0000 0.0000
# 2 9.1250 45.0906 11.2481 0.0000 0.0000 0.0000
# 3 34.1776 11.2481 89.0506 0.0000 0.0000 0.0000
# 4 0.0000 0.0000 0.0000 25.4884 0.0000 0.0000
# 5 0.0000 0.0000 0.0000 0.0000 112.5735 0.0000
# 6 0.0000 0.0000 0.0000 0.0000 0.0000 22.2201
#
#
#
# Elastic Compliance Matrix: (Units=1/GPa)
#
#
# Indices 1 2 3 4 5 6 
#
# 1 0.018061 -0.001988 -0.006681 0.000000 0.000000 0.000000
# 2 -0.001988 0.023118 -0.002157 0.000000 0.000000 0.000000
# 3 -0.006681 -0.002157 0.014066 0.000000 0.000000 0.000000
# 4 0.000000 0.000000 0.000000 0.039233 0.000000 0.000000
# 5 0.000000 0.000000 0.000000 0.000000 0.008883 0.000000
# 6 0.000000 0.000000 0.000000 0.000000 0.000000 0.045004
#
#
# Mechanical properties :
#
#
# Convention : Reuss Voigt Hill
#
# Bulk Modulus (GPa) = 29.76812 34.69530 32.23171
# Shear Modulus (GPa) = 27.59147 41.96345 34.77746
#
# Velocity S-wave (km/s) = 3.66833 4.52394 4.11842
# Velocity P-wave (km/s) = 5.69741 6.64901 6.19152
#
# Compressibility (1/GPa) = 0.03359299
#
# Stress axis : x y z
#
# Youngs Moduli (GPa) = 55.36821 43.25631 71.09329
#
# Poissons Ratio (x) = 0.08601 0.47495
# Poissons Ratio (y) = 0.11010 0.15334
# Poissons Ratio (z) = 0.36989 0.09330
#
# Static dielectric constant tensor:
#      x y z
#    x 1.682230 0.000000 0.000000 
#    y 0.000000 1.777260 0.000000 
#    z 0.000000 0.000000 1.715410 
# 
# From -- ./inp_files/22158.got.cif
#   From: 2010.05.17/outbox.cif.g08.bks.cpg/sg38_12_cif.got.tgz:22158.got - 2010.06.03 18:07:57.
