data_PCOD9358525
_publ_section_title
;
Structure prediction by ZEFSAII (Michael W. Deem and Ramdas Pophale) SiO2 
 PCOD9358525
Probable space group: A M M 2
;
_chemical_formula_sum "Si O2"
_cell_formula_units_Z 40
_cell_length_a 11.894656
_cell_length_b 8.150934
_cell_length_c 21.033013
_cell_angle_alpha 90.000000
_cell_angle_beta 90.000000
_cell_angle_gamma 90.000000
_cell_volume 2039.204371
_symmetry_space_group_name_H-M "A M M 2"
_symmetry_group_IT_number 38
_symmetry_cell_setting 'orthorhombic'
loop_
_space_group_symop_operation_xyz
x,y,z
-x,-y,z
-x,y,z
x,-y,z
x,1/2+y,1/2+z
-x,1/2-y,1/2+z
-x,1/2+y,1/2+z
x,1/2-y,1/2+z
loop_
_atom_site_type_symbol
_atom_site_label
_atom_site_fract_x
_atom_site_fract_y
_atom_site_fract_z
Si Si1 0.129985 0.197534 0.729520
Si Si2 0.738717 0.196412 0.103827
Si Si3 0.128287 0.299506 0.479490
Si Si4 0.261407 0.698256 0.354902
Si Si5 0.500000 0.804292 0.405374
Si Si6 0.500000 0.696117 0.053325
O O1 0.200656 0.240478 0.666934
O O2 0.199474 0.257352 0.791136
O O3 0.000000 0.257672 0.727357
O O4 0.123969 0.000000 0.734030
O O5 0.610838 0.247819 0.090770
O O6 0.743253 0.000000 0.105395
O O7 0.807985 0.256129 0.042390
O O8 0.129404 0.500000 0.479478
O O9 0.191629 0.245017 0.416320
O O10 0.000000 0.245998 0.479676
O O11 0.258693 0.500000 0.353552
O O12 0.389147 0.749152 0.367760
O O13 0.500000 0.741548 0.479328
O O14 0.500000 0.000000 0.409017
O O15 0.500000 0.500000 0.050402
#
# Coordination Sequence:
#
# PCOD9358525 Si02
#       6
#     8   8   8   8   4   4
#     4  10  22  40  61  88 124 162 198 241 295 354
#     4  11  22  37  61  89 119 156 199 248 300 350
#     4   9  17  31  55  86 113 143 192 245 288 338
#     4  10  20  37  62  86 114 156 202 242 287 349
#     4  11  23  38  59  88 123 153 189 248 309 354
#     4  11  23  40  61  86 121 157 197 248 305 362
#
# _framework density 19.615492
#
# number of rings (size 3 to 8) (size 9 to 14) (size 15 to 20)
#    0.000    1.800    2.000    2.400    0.000    6.000 
#    0.000    1.000    0.000    3.000    0.000    0.000 
#    0.000    0.000    0.000    0.000    0.000    0.000 
#
# Total GULP energy -111704.397197 kJ/mol
# GULP energy per Si atom -5585.219860 kJ/mol
# Density = 1.957085 g / cm^3
# Si number density = 19.615492 Si / 1000 Ang^3
#
#
#
# Elastic Constant Matrix: (Units=GPa)
#
#
# Indices 1 2 3 4 5 6 
#
# 1 236.6695 13.2544 130.0791 0.0000 0.0000 0.0000
# 2 13.2544 18.8662 17.6363 0.0000 0.0000 0.0000
# 3 130.0791 17.6363 209.6889 0.0000 0.0000 0.0000
# 4 0.0000 0.0000 0.0000 25.3965 0.0000 0.0000
# 5 0.0000 0.0000 0.0000 0.0000 38.3839 0.0000
# 6 0.0000 0.0000 0.0000 0.0000 0.0000 10.9572
#
#
#
# Elastic Compliance Matrix: (Units=1/GPa)
#
#
# Indices 1 2 3 4 5 6 
#
# 1 0.006424 -0.000855 -0.003913 0.000000 0.000000 0.000000
# 2 -0.000855 0.057642 -0.004318 0.000000 0.000000 0.000000
# 3 -0.003913 -0.004318 0.007560 0.000000 0.000000 0.000000
# 4 0.000000 0.000000 0.000000 0.039376 0.000000 0.000000
# 5 0.000000 0.000000 0.000000 0.000000 0.026053 0.000000
# 6 0.000000 0.000000 0.000000 0.000000 0.000000 0.091264
#
#
# Mechanical properties :
#
#
# Convention : Reuss Voigt Hill
#
# Bulk Modulus (GPa) = 18.70783 87.46271 53.08527
# Shear Modulus (GPa) = 18.91740 35.23116 27.07428
#
# Velocity S-wave (km/s) = 3.10887 4.24263 3.71920
# Velocity P-wave (km/s) = 4.73758 8.28765 6.75018
#
# Compressibility (1/GPa) = 0.05345355
#
# Stress axis : x y z
#
# Youngs Moduli (GPa) = 155.66772 17.34854 132.28217
#
# Poissons Ratio (x) = 0.01483 0.51764
# Poissons Ratio (y) = 0.13311 0.57115
# Poissons Ratio (z) = 0.60915 0.07490
#
# Static dielectric constant tensor:
#      x y z
#    x 1.672640 0.000000 0.000000 
#    y 0.000000 1.692420 0.000000 
#    z 0.000000 0.000000 1.672500 
# 
# From -- ./inp_files/20456.got.cif
#   From: 2010.05.17/outbox.cif.g08.bks.cpg/sg38_11_cif.got.tgz:20456.got - 2010.06.03 18:07:57.
