data_PCOD9358041
_publ_section_title
;
Structure prediction by ZEFSAII (Michael W. Deem and Ramdas Pophale) SiO2 
 PCOD9358041
Probable space group: A M M 2
;
_chemical_formula_sum "Si O2"
_cell_formula_units_Z 48
_cell_length_a 18.145107
_cell_length_b 8.891620
_cell_length_c 15.628967
_cell_angle_alpha 90.000000
_cell_angle_beta 90.000000
_cell_angle_gamma 90.000000
_cell_volume 2521.568101
_symmetry_space_group_name_H-M "A M M 2"
_symmetry_group_IT_number 38
_symmetry_cell_setting 'orthorhombic'
loop_
_space_group_symop_operation_xyz
x,y,z
-x,-y,z
-x,y,z
x,-y,z
x,1/2+y,1/2+z
-x,1/2-y,1/2+z
-x,1/2+y,1/2+z
x,1/2-y,1/2+z
loop_
_atom_site_type_symbol
_atom_site_label
_atom_site_fract_x
_atom_site_fract_y
_atom_site_fract_z
Si Si1 0.000000 0.166116 0.947310
Si Si2 0.000000 0.329042 0.244204
Si Si3 0.849601 0.331385 0.990543
Si Si4 0.689501 0.180447 0.185622
Si Si5 0.311325 0.316741 0.996623
Si Si6 0.415625 0.816922 0.340804
Si Si7 0.842225 0.171897 0.695410
O O1 0.000000 0.158276 0.845319
O O2 0.075784 0.245411 0.971884
O O3 0.000000 0.000000 0.985402
O O4 0.921657 0.259749 0.219086
O O5 0.000000 0.500000 0.205352
O O6 0.856949 0.500000 0.955399
O O7 0.770068 0.268023 0.963189
O O8 0.842044 0.338856 0.092934
O O9 0.676248 0.250511 0.091396
O O10 0.628984 0.227920 0.255683
O O11 0.769669 0.235644 0.218230
O O12 0.689484 0.000000 0.178566
O O13 0.309225 0.500000 0.003275
O O14 0.372026 0.272531 0.926810
O O15 0.500000 0.764806 0.340311
O O16 0.416182 0.000000 0.340844
O O17 0.838349 0.000000 0.730185
#
# Coordination Sequence:
#
# PCOD9358041 Si02
#       7
#     4   4   8   8   8   8   8
#     4  11  22  31  45  75 108 135 168 218 271 310
#     4   9  19  33  49  73 102 137 178 216 259 310
#     4   9  18  33  53  72  95 135 181 219 254 308
#     4  10  20  34  56  86 114 139 176 229 280 317
#     4   9  19  37  59  80 106 147 190 219 259 327
#     4   9  19  36  58  83 112 146 180 218 269 329
#     4   9  18  36  57  72  97 141 184 216 257 318
#
# _framework density 19.035774
#
# number of rings (size 3 to 8) (size 9 to 14) (size 15 to 20)
#    0.000    2.667    0.000    2.250    2.333    4.667 
#    0.000    2.917    0.000    3.500    0.000    0.000 
#    0.000    0.000    0.000    0.000    0.000    0.000 
#
# Total GULP energy -133744.055514 kJ/mol
# GULP energy per Si atom -5572.668980 kJ/mol
# Density = 1.899245 g / cm^3
# Si number density = 19.035774 Si / 1000 Ang^3
#
#
#
# Elastic Constant Matrix: (Units=GPa)
#
#
# Indices 1 2 3 4 5 6 
#
# 1 221.2233 45.3743 81.6748 0.0000 0.0000 0.0000
# 2 45.3743 33.8100 22.2547 0.0000 0.0000 0.0000
# 3 81.6748 22.2547 75.3876 0.0000 0.0000 0.0000
# 4 0.0000 0.0000 0.0000 13.1035 0.0000 0.0000
# 5 0.0000 0.0000 0.0000 0.0000 38.1544 0.0000
# 6 0.0000 0.0000 0.0000 0.0000 0.0000 20.7820
#
#
#
# Elastic Compliance Matrix: (Units=1/GPa)
#
#
# Indices 1 2 3 4 5 6 
#
# 1 0.008610 -0.006721 -0.007344 0.000000 0.000000 0.000000
# 2 -0.006721 0.041957 -0.005104 0.000000 0.000000 0.000000
# 3 -0.007344 -0.005104 0.022728 0.000000 0.000000 0.000000
# 4 0.000000 0.000000 0.000000 0.076316 0.000000 0.000000
# 5 0.000000 0.000000 0.000000 0.000000 0.026209 0.000000
# 6 0.000000 0.000000 0.000000 0.000000 0.000000 0.048119
#
#
# Mechanical properties :
#
#
# Convention : Reuss Voigt Hill
#
# Bulk Modulus (GPa) = 28.60712 69.89205 49.24958
# Shear Modulus (GPa) = 18.25280 26.48245 22.36763
#
# Velocity S-wave (km/s) = 3.09992 3.73392 3.43159
# Velocity P-wave (km/s) = 5.27952 7.44214 6.45208
#
# Compressibility (1/GPa) = 0.03495634
#
# Stress axis : x y z
#
# Youngs Moduli (GPa) = 116.13882 23.83402 43.99784
#
# Poissons Ratio (x) = 0.16019 0.32314
# Poissons Ratio (y) = 0.78059 0.22457
# Poissons Ratio (z) = 0.85296 0.12165
#
# Static dielectric constant tensor:
#      x y z
#    x 1.691450 0.000000 0.000000 
#    y 0.000000 1.696640 0.000000 
#    z 0.000000 0.000000 1.649800 
# 
# From -- ./inp_files/15057.got.cif
#   From: 2010.05.17/outbox.cif.g08.bks.cpg/sg38_8_cif.got.tgz:15057.got - 2010.06.03 18:07:57.
