data_PCOD9358357
_publ_section_title
;
Structure prediction by ZEFSAII (Michael W. Deem and Ramdas Pophale) SiO2 
 PCOD9358357
Probable space group: A M M 2
;
_chemical_formula_sum "Si O2"
_cell_formula_units_Z 32
_cell_length_a 14.415052
_cell_length_b 7.903167
_cell_length_c 14.285379
_cell_angle_alpha 90.000000
_cell_angle_beta 90.000000
_cell_angle_gamma 90.000000
_cell_volume 1627.455564
_symmetry_space_group_name_H-M "A M M 2"
_symmetry_group_IT_number 38
_symmetry_cell_setting 'orthorhombic'
loop_
_space_group_symop_operation_xyz
x,y,z
-x,-y,z
-x,y,z
x,-y,z
x,1/2+y,1/2+z
-x,1/2-y,1/2+z
-x,1/2+y,1/2+z
x,1/2-y,1/2+z
loop_
_atom_site_type_symbol
_atom_site_label
_atom_site_fract_x
_atom_site_fract_y
_atom_site_fract_z
Si Si1 0.105555 0.500000 0.853801
Si Si2 0.105844 0.000000 0.125098
Si Si3 0.237757 0.805730 0.851769
Si Si4 0.234649 0.188745 0.628122
Si Si5 0.394255 0.703055 0.496107
O O1 0.102838 0.500000 0.739380
O O2 0.162338 0.667262 0.881521
O O3 0.000000 0.500000 0.887494
O O4 0.163795 0.834409 0.097044
O O5 0.000000 0.000000 0.091501
O O6 0.246994 0.795778 0.739808
O O7 0.211720 0.000000 0.875244
O O8 0.334842 0.766498 0.902218
O O9 0.332523 0.216639 0.577649
O O10 0.199575 0.000000 0.607855
O O11 0.500000 0.762895 0.491766
O O12 0.395589 0.500000 0.510533
#
# Coordination Sequence:
#
# PCOD9358357 Si02
#       5
#     4   4   8   8   8
#     4   9  18  34  59  85 110 145 187 231 279 331
#     4   9  18  36  59  83 114 149 185 231 283 331
#     4   9  20  37  57  81 114 149 184 230 278 333
#     4  10  20  36  59  84 113 148 188 232 278 333
#     4  10  21  38  59  81 113 152 188 233 286 337
#
# _framework density 19.662595
#
# number of rings (size 3 to 8) (size 9 to 14) (size 15 to 20)
#    0.000    2.500    1.250    0.000    1.750    2.500 
#    0.000    8.750    0.000    0.000    0.000    0.000 
#    0.000    0.000    0.000    0.000    0.000    0.000 
#
# Total GULP energy -89332.223689 kJ/mol
# GULP energy per Si atom -5583.263981 kJ/mol
# Density = 1.961784 g / cm^3
# Si number density = 19.662595 Si / 1000 Ang^3
#
#
#
# Elastic Constant Matrix: (Units=GPa)
#
#
# Indices 1 2 3 4 5 6 
#
# 1 190.6293 115.3033 36.9170 0.0000 0.0000 0.0000
# 2 115.3033 139.0493 48.8122 0.0000 0.0000 0.0000
# 3 36.9170 48.8122 56.2811 0.0000 0.0000 0.0000
# 4 0.0000 0.0000 0.0000 12.6891 0.0000 0.0000
# 5 0.0000 0.0000 0.0000 0.0000 31.2885 0.0000
# 6 0.0000 0.0000 0.0000 0.0000 0.0000 22.3030
#
#
#
# Elastic Compliance Matrix: (Units=1/GPa)
#
#
# Indices 1 2 3 4 5 6 
#
# 1 0.010560 -0.009094 0.000960 0.000000 0.000000 0.000000
# 2 -0.009094 0.018171 -0.009794 0.000000 0.000000 0.000000
# 3 0.000960 -0.009794 0.025633 0.000000 0.000000 0.000000
# 4 0.000000 0.000000 0.000000 0.078808 0.000000 0.000000
# 5 0.000000 0.000000 0.000000 0.000000 0.031961 0.000000
# 6 0.000000 0.000000 0.000000 0.000000 0.000000 0.044837
#
#
# Mechanical properties :
#
#
# Convention : Reuss Voigt Hill
#
# Bulk Modulus (GPa) = 54.03180 87.55830 70.79505
# Shear Modulus (GPa) = 19.84167 25.58461 22.71314
#
# Velocity S-wave (km/s) = 3.18009 3.61110 3.40243
# Velocity P-wave (km/s) = 6.40493 7.87488 7.17764
#
# Compressibility (1/GPa) = 0.01850762
#
# Stress axis : x y z
#
# Youngs Moduli (GPa) = 94.69322 55.03292 39.01266
#
# Poissons Ratio (x) = 0.50047 -0.03746
# Poissons Ratio (y) = 0.86114 0.38210
# Poissons Ratio (z) = -0.09092 0.53901
#
# Static dielectric constant tensor:
#      x y z
#    x 1.641440 0.000000 0.000000 
#    y 0.000000 1.700440 0.000000 
#    z 0.000000 0.000000 1.705660 
# 
# From -- ./inp_files/13303.got.cif
#   From: 2010.05.17/outbox.cif.g08.bks.cpg/sg38_7_cif.got.tgz:13303.got - 2010.06.03 18:07:57.
