data_PCOD9358489
_publ_section_title
;
Structure prediction by ZEFSAII (Michael W. Deem and Ramdas Pophale) SiO2 
 PCOD9358489
Probable space group: A M M 2
;
_chemical_formula_sum "Si O2"
_cell_formula_units_Z 64
_cell_length_a 24.308113
_cell_length_b 7.609825
_cell_length_c 16.057605
_cell_angle_alpha 90.000000
_cell_angle_beta 90.000000
_cell_angle_gamma 90.000000
_cell_volume 2970.343577
_symmetry_space_group_name_H-M "A M M 2"
_symmetry_group_IT_number 38
_symmetry_cell_setting 'orthorhombic'
loop_
_space_group_symop_operation_xyz
x,y,z
-x,-y,z
-x,y,z
x,-y,z
x,1/2+y,1/2+z
-x,1/2-y,1/2+z
-x,1/2+y,1/2+z
x,1/2-y,1/2+z
loop_
_atom_site_type_symbol
_atom_site_label
_atom_site_fract_x
_atom_site_fract_y
_atom_site_fract_z
Si Si1 0.741734 0.291625 0.748790
Si Si2 0.437150 0.712609 0.354558
Si Si3 0.753505 0.214860 0.440801
Si Si4 0.862851 0.788260 0.691640
Si Si5 0.377223 0.702428 0.190413
Si Si6 0.871415 0.711640 0.007791
Si Si7 0.062029 0.210308 0.843290
Si Si8 0.638557 0.290317 0.011938
O O1 0.731743 0.500000 0.749912
O O2 0.749077 0.231248 0.844351
O O3 0.798639 0.256003 0.701914
O O4 0.687929 0.206435 0.709210
O O5 0.500000 0.772567 0.361037
O O6 0.437131 0.500000 0.351920
O O7 0.408458 0.780138 0.269942
O O8 0.401129 0.762354 0.434177
O O9 0.810790 0.274329 0.480159
O O10 0.699435 0.276754 0.489339
O O11 0.753760 0.000000 0.441602
O O12 0.883816 0.726084 0.601400
O O13 0.897310 0.720883 0.770959
O O14 0.866702 0.000000 0.692690
O O15 0.396108 0.500000 0.185975
O O16 0.384295 0.782619 0.098917
O O17 0.869199 0.500000 0.011097
O O18 0.913405 0.757155 0.934618
O O19 0.000000 0.279170 0.835433
O O20 0.059736 0.000000 0.832851
O O21 0.644620 0.500000 0.023448
#
# Coordination Sequence:
#
# PCOD9358489 Si02
#       8
#     8   8   8   8   8   8   8   8
#     4  11  20  33  57  86 117 147 180 226 277 330
#     4  10  22  39  56  79 113 148 185 233 282 325
#     4   9  17  31  53  82 113 139 172 224 275 318
#     4  10  21  37  59  84 112 147 186 227 275 332
#     4  10  21  37  59  84 112 147 186 227 275 332
#     4  10  20  37  60  84 110 144 186 229 273 329
#     4  10  22  39  56  79 113 148 185 233 282 325
#     4  10  20  37  60  84 110 144 186 229 273 329
#
# _framework density 21.546327000000002
#
# number of rings (size 3 to 8) (size 9 to 14) (size 15 to 20)
#    0.000    2.000    2.500    1.125    0.000    4.500 
#    0.000    3.125    0.000    0.000    0.000    0.000 
#    0.000    0.000    0.000    0.000    0.000    0.000 
#
# Total GULP energy -178794.797419 kJ/mol
# GULP energy per Si atom -5587.337419 kJ/mol
# Density = 2.149729 g / cm^3
# Si number density = 21.546327 Si / 1000 Ang^3
#
#
#
# Elastic Constant Matrix: (Units=GPa)
#
#
# Indices 1 2 3 4 5 6 
#
# 1 82.0399 -11.6154 5.4483 0.0000 0.0000 0.0000
# 2 -11.6154 46.4259 -1.4451 0.0000 0.0000 0.0000
# 3 5.4483 -1.4451 108.0741 0.0000 0.0000 0.0000
# 4 0.0000 0.0000 0.0000 15.4330 0.0000 0.0000
# 5 0.0000 0.0000 0.0000 0.0000 1.0856 0.0000
# 6 0.0000 0.0000 0.0000 0.0000 0.0000 -12.9397
#
#
#
# Elastic Compliance Matrix: (Units=1/GPa)
#
#
# Indices 1 2 3 4 5 6 
#
# 1 0.012675 0.003153 -0.000597 0.000000 0.000000 0.000000
# 2 0.003153 0.022333 0.000140 0.000000 0.000000 0.000000
# 3 -0.000597 0.000140 0.009285 0.000000 0.000000 0.000000
# 4 0.000000 0.000000 0.000000 0.064796 0.000000 0.000000
# 5 0.000000 0.000000 0.000000 0.000000 0.921184 0.000000
# 6 0.000000 0.000000 0.000000 0.000000 0.000000 -0.077282
#
#
# Mechanical properties :
#
#
# Convention : Reuss Voigt Hill
#
# Bulk Modulus (GPa) = 20.12723 24.59060 22.35891
# Shear Modulus (GPa) = 5.18585 16.99259 11.08922
#
# Velocity S-wave (km/s) = 1.55308 2.81134 2.27109
# Velocity P-wave (km/s) = 3.54651 4.68784 4.15654
#
# Compressibility (1/GPa) = 0.04968394
#
# Stress axis : x y z
#
# Youngs Moduli (GPa) = 78.89428 44.77712 107.70217
#
# Poissons Ratio (x) = -0.14117 0.06428
# Poissons Ratio (y) = -0.24873 -0.01505
# Poissons Ratio (z) = 0.04709 -0.00626
#
# Static dielectric constant tensor:
#      x y z
#    x 1.738330 0.000000 0.000000 
#    y 0.000000 1.806820 0.000000 
#    z 0.000000 0.000000 1.791270 
# 
# From -- ./inp_files/15743.got.cif
#   From: 2010.05.17/outbox.cif.g08.bks.cpg/sg38_8_cif.got.tgz:15743.got - 2010.06.03 18:07:57.
