data_PCOD9358203
_publ_section_title
;
Structure prediction by ZEFSAII (Michael W. Deem and Ramdas Pophale) SiO2 
 PCOD9358203
Probable space group: A M M 2
;
_chemical_formula_sum "Si O2"
_cell_formula_units_Z 64
_cell_length_a 9.140916
_cell_length_b 17.915196
_cell_length_c 21.202872
_cell_angle_alpha 90.000000
_cell_angle_beta 90.000000
_cell_angle_gamma 90.000000
_cell_volume 3472.209920
_symmetry_space_group_name_H-M "A M M 2"
_symmetry_group_IT_number 38
_symmetry_cell_setting 'orthorhombic'
loop_
_space_group_symop_operation_xyz
x,y,z
-x,-y,z
-x,y,z
x,-y,z
x,1/2+y,1/2+z
-x,1/2-y,1/2+z
-x,1/2+y,1/2+z
x,1/2-y,1/2+z
loop_
_atom_site_type_symbol
_atom_site_label
_atom_site_fract_x
_atom_site_fract_y
_atom_site_fract_z
Si Si1 0.668447 0.590830 0.998960
Si Si2 0.825238 0.677585 0.253189
Si Si3 0.830959 0.090222 0.135668
Si Si4 0.325566 0.589197 0.141232
Si Si5 0.168076 0.090270 0.373576
Si Si6 0.331805 0.090989 0.008569
Si Si7 0.325418 0.338021 0.755065
Si Si8 0.173472 0.412053 0.381104
O O1 0.500000 0.613751 0.987957
O O2 0.669109 0.500000 0.999440
O O3 0.770279 0.615021 0.941531
O O4 0.712585 0.613495 0.069669
O O5 0.766524 0.630997 0.193817
O O6 0.741854 0.755591 0.254959
O O7 0.793855 0.632743 0.317695
O O8 0.000000 0.688288 0.248889
O O9 0.761714 0.114808 0.069132
O O10 0.737614 0.120450 0.193681
O O11 0.000000 0.113860 0.141176
O O12 0.827931 0.000000 0.137102
O O13 0.500000 0.602349 0.149601
O O14 0.302403 0.500000 0.145992
O O15 0.266914 0.120888 0.317474
O O16 0.000000 0.114121 0.364788
O O17 0.171697 0.000000 0.372105
O O18 0.500000 0.114679 0.014334
O O19 0.329099 0.000000 0.008302
O O20 0.261985 0.114600 0.942247
O O21 0.500000 0.336741 0.753778
O O22 0.205463 0.500000 0.371020
O O23 0.000000 0.405845 0.394312
#
# Coordination Sequence:
#
# PCOD9358203 Si02
#       8
#     8   8   8   8   8   8   8   8
#     4   8  15  30  53  81 111 141 174 215 263 314
#     4  11  23  38  55  77 109 146 185 228 271 319
#     4  10  20  36  59  84 110 140 175 218 267 319
#     4   9  18  34  57  84 113 144 180 223 269 318
#     4  10  20  35  57  84 111 139 175 220 268 319
#     4   9  17  30  52  83 113 139 172 216 264 315
#     4  12  25  39  55  76 107 145 183 224 269 320
#     4   9  18  34  56  81 108 140 178 220 267 317
#
# _framework density 18.432065999999999
#
# number of rings (size 3 to 8) (size 9 to 14) (size 15 to 20)
#    0.000    2.250    0.000    4.125    0.000    6.750 
#    0.000    3.750    0.000    6.000    0.000    0.000 
#    0.000    0.000    0.000    0.000    0.000    0.000 
#
# Total GULP energy -178645.131538 kJ/mol
# GULP energy per Si atom -5582.660361 kJ/mol
# Density = 1.839011 g / cm^3
# Si number density = 18.432066 Si / 1000 Ang^3
#
#
#
# Elastic Constant Matrix: (Units=GPa)
#
#
# Indices 1 2 3 4 5 6 
#
# 1 140.2872 44.3806 106.7133 0.0000 0.0000 0.0000
# 2 44.3806 26.8530 39.3363 0.0000 0.0000 0.0000
# 3 106.7133 39.3363 171.5657 0.0000 0.0000 0.0000
# 4 0.0000 0.0000 0.0000 -13.5731 0.0000 0.0000
# 5 0.0000 0.0000 0.0000 0.0000 39.3203 0.0000
# 6 0.0000 0.0000 0.0000 0.0000 0.0000 23.0762
#
#
#
# Elastic Compliance Matrix: (Units=1/GPa)
#
#
# Indices 1 2 3 4 5 6 
#
# 1 0.019351 -0.021608 -0.007082 0.000000 0.000000 0.000000
# 2 -0.021608 0.080200 -0.004948 0.000000 0.000000 0.000000
# 3 -0.007082 -0.004948 0.011368 0.000000 0.000000 0.000000
# 4 0.000000 0.000000 0.000000 -0.073675 0.000000 0.000000
# 5 0.000000 0.000000 0.000000 0.000000 0.025432 0.000000
# 6 0.000000 0.000000 0.000000 0.000000 0.000000 0.043335
#
#
# Mechanical properties :
#
#
# Convention : Reuss Voigt Hill
#
# Bulk Modulus (GPa) = 22.91307 79.95179 51.43243
# Shear Modulus (GPa) = 26.61913 19.64973 23.13443
#
# Velocity S-wave (km/s) = 3.80435 3.26860 3.54661
# Velocity P-wave (km/s) = 5.63521 7.59708 6.68847
#
# Compressibility (1/GPa) = 0.04364322
#
# Stress axis : x y z
#
# Youngs Moduli (GPa) = 51.67638 12.46885 87.96387
#
# Poissons Ratio (x) = 0.26942 0.62298
# Poissons Ratio (y) = 1.11661 0.43526
# Poissons Ratio (z) = 0.36598 0.06170
#
# Static dielectric constant tensor:
#      x y z
#    x 1.618100 0.000000 0.000000 
#    y 0.000000 1.625730 0.000000 
#    z 0.000000 0.000000 1.616050 
# 
# From -- ./inp_files/20035.got.cif
#   From: 2010.05.17/outbox.cif.g08.bks.cpg/sg38_11_cif.got.tgz:20035.got - 2010.06.03 18:07:57.
