data_PCOD9358201
_publ_section_title
;
Structure prediction by ZEFSAII (Michael W. Deem and Ramdas Pophale) SiO2 
 PCOD9358201
Probable space group: A M M 2
;
_chemical_formula_sum "Si O2"
_cell_formula_units_Z 64
_cell_length_a 17.930621
_cell_length_b 7.964634
_cell_length_c 20.582775
_cell_angle_alpha 90.000000
_cell_angle_beta 90.000000
_cell_angle_gamma 90.000000
_cell_volume 2939.443257
_symmetry_space_group_name_H-M "A M M 2"
_symmetry_group_IT_number 38
_symmetry_cell_setting 'orthorhombic'
loop_
_space_group_symop_operation_xyz
x,y,z
-x,-y,z
-x,y,z
x,-y,z
x,1/2+y,1/2+z
-x,1/2-y,1/2+z
-x,1/2+y,1/2+z
x,1/2-y,1/2+z
loop_
_atom_site_type_symbol
_atom_site_label
_atom_site_fract_x
_atom_site_fract_y
_atom_site_fract_z
Si Si1 0.362619 0.705371 0.083490
Si Si2 0.083530 0.303896 0.482626
Si Si3 0.416542 0.703700 0.942291
Si Si4 0.193943 0.304540 0.091524
Si Si5 0.302061 0.802030 0.832634
Si Si6 0.866232 0.303905 0.843239
Si Si7 0.082067 0.299002 0.703207
Si Si8 0.417373 0.705033 0.224260
O O1 0.363275 0.500000 0.082981
O O2 0.277056 0.766625 0.084723
O O3 0.402158 0.756433 0.150167
O O4 0.401592 0.755944 0.016617
O O5 0.084174 0.500000 0.500533
O O6 0.146330 0.218552 0.526223
O O7 0.102532 0.285316 0.406946
O O8 0.000000 0.237731 0.495117
O O9 0.500000 0.754712 0.922292
O O10 0.412361 0.500000 0.939333
O O11 0.353720 0.775872 0.895401
O O12 0.204110 0.500000 0.104381
O O13 0.145350 0.237851 0.151033
O O14 0.223042 0.713091 0.840271
O O15 0.351332 0.739244 0.771803
O O16 0.287018 0.000000 0.823732
O O17 0.886543 0.500000 0.849264
O O18 0.898117 0.235928 0.775240
O O19 0.078592 0.500000 0.708205
O O20 0.000000 0.237285 0.682585
O O21 0.500000 0.760108 0.245250
O O22 0.416769 0.500000 0.226240
#
# Coordination Sequence:
#
# PCOD9358201 Si02
#       8
#     8   8   8   8   8   8   8   8
#     4   9  18  33  53  79 110 143 184 234 282 328
#     4  11  24  41  61  86 117 152 191 239 295 351
#     4  10  20  35  57  83 111 147 191 238 288 342
#     4  11  22  36  58  87 119 156 196 237 284 343
#     4  11  22  36  56  83 116 151 187 232 289 349
#     4  11  23  40  62  86 114 151 196 243 294 351
#     4  10  22  40  60  83 114 151 190 238 296 350
#     4   9  17  31  53  80 109 143 185 232 280 330
#
# _framework density 21.772829999999999
#
# number of rings (size 3 to 8) (size 9 to 14) (size 15 to 20)
#    0.000    1.750    0.000    4.500    0.000    8.500 
#    0.000    0.625    0.000    1.500    0.000    0.000 
#    0.000    0.000    0.000    0.000    0.000    0.000 
#
# Total GULP energy -178937.943479 kJ/mol
# GULP energy per Si atom -5591.810734 kJ/mol
# Density = 2.172327 g / cm^3
# Si number density = 21.772830 Si / 1000 Ang^3
#
#
#
# Elastic Constant Matrix: (Units=GPa)
#
#
# Indices 1 2 3 4 5 6 
#
# 1 84.8830 -4.3573 -13.1806 0.0000 0.0000 0.0000
# 2 -4.3573 19.0727 -9.7304 0.0000 0.0000 0.0000
# 3 -13.1806 -9.7304 70.2263 0.0000 0.0000 0.0000
# 4 0.0000 0.0000 0.0000 24.7293 0.0000 0.0000
# 5 0.0000 0.0000 0.0000 0.0000 41.7035 0.0000
# 6 0.0000 0.0000 0.0000 0.0000 0.0000 17.3037
#
#
#
# Elastic Compliance Matrix: (Units=1/GPa)
#
#
# Indices 1 2 3 4 5 6 
#
# 1 0.012461 0.004347 0.002941 0.000000 0.000000 0.000000
# 2 0.004347 0.057936 0.008843 0.000000 0.000000 0.000000
# 3 0.002941 0.008843 0.016017 0.000000 0.000000 0.000000
# 4 0.000000 0.000000 0.000000 0.040438 0.000000 0.000000
# 5 0.000000 0.000000 0.000000 0.000000 0.023979 0.000000
# 6 0.000000 0.000000 0.000000 0.000000 0.000000 0.057791
#
#
# Mechanical properties :
#
#
# Convention : Reuss Voigt Hill
#
# Bulk Modulus (GPa) = 8.42625 13.29393 10.86009
# Shear Modulus (GPa) = 23.15708 30.17734 26.66721
#
# Velocity S-wave (km/s) = 3.26479 3.72695 3.50350
# Velocity P-wave (km/s) = 4.25327 4.96379 4.62220
#
# Compressibility (1/GPa) = 0.11867675
#
# Stress axis : x y z
#
# Youngs Moduli (GPa) = 80.25189 17.26053 62.43366
#
# Poissons Ratio (x) = -0.07504 -0.18362
# Poissons Ratio (y) = -0.34887 -0.55212
# Poissons Ratio (z) = -0.23603 -0.15264
#
# Static dielectric constant tensor:
#      x y z
#    x 1.780680 0.000000 0.000000 
#    y 0.000000 1.794240 0.000000 
#    z 0.000000 0.000000 1.759690 
# 
# From -- ./inp_files/21436.got.cif
#   From: 2010.05.17/outbox.cif.g08.bks.cpg/sg38_11_cif.got.tgz:21436.got - 2010.06.03 18:07:57.
