data_PCOD9358941
_publ_section_title
;
Structure prediction by ZEFSAII (Michael W. Deem and Ramdas Pophale) SiO2 
 PCOD9358941
Probable space group: A M M 2
;
_chemical_formula_sum "Si O2"
_cell_formula_units_Z 56
_cell_length_a 14.311981
_cell_length_b 15.847727
_cell_length_c 10.864025
_cell_angle_alpha 90.000000
_cell_angle_beta 90.000000
_cell_angle_gamma 90.000000
_cell_volume 2464.095233
_symmetry_space_group_name_H-M "A M M 2"
_symmetry_group_IT_number 38
_symmetry_cell_setting 'orthorhombic'
loop_
_space_group_symop_operation_xyz
x,y,z
-x,-y,z
-x,y,z
x,-y,z
x,1/2+y,1/2+z
-x,1/2-y,1/2+z
-x,1/2+y,1/2+z
x,1/2-y,1/2+z
loop_
_atom_site_type_symbol
_atom_site_label
_atom_site_fract_x
_atom_site_fract_y
_atom_site_fract_z
Si Si1 0.391494 0.770852 0.411020
Si Si2 0.720960 0.408957 0.777850
Si Si3 0.148736 0.408416 0.554829
Si Si4 0.393036 0.405163 0.126454
Si Si5 0.885933 0.667416 0.909782
Si Si6 0.102300 0.735758 0.168233
Si Si7 0.701219 0.095363 0.879514
O O1 0.500000 0.761549 0.380128
O O2 0.339887 0.827331 0.308309
O O3 0.382529 0.831086 0.529394
O O4 0.348144 0.678952 0.431426
O O5 0.674434 0.500000 0.798115
O O6 0.757781 0.406623 0.638871
O O7 0.816411 0.403749 0.858939
O O8 0.104679 0.500000 0.573445
O O9 0.095097 0.328432 0.604047
O O10 0.190617 0.402871 0.418857
O O11 0.500000 0.400060 0.176451
O O12 0.384007 0.500000 0.073320
O O13 0.319189 0.396963 0.235079
O O14 0.864629 0.740427 0.806140
O O15 0.000000 0.654460 0.905289
O O16 0.855767 0.686480 0.050642
O O17 0.000000 0.697624 0.186427
O O18 0.666572 0.000000 0.913036
#
# Coordination Sequence:
#
# PCOD9358941 Si02
#       7
#     8   8   8   8   8   8   8
#     4  11  23  37  59  84 112 152 198 244 297 353
#     4  10  21  37  57  85 120 153 193 245 297 353
#     4   9  19  35  54  80 113 148 189 240 295 353
#     4   9  19  37  58  79 106 143 192 241 285 348
#     4   9  18  34  58  85 115 153 195 241 295 354
#     4   9  17  32  55  83 114 149 191 240 293 352
#     4  10  21  38  58  81 112 148 189 243 297 348
#
# _framework density 22.726393999999999
#
# number of rings (size 3 to 8) (size 9 to 14) (size 15 to 20)
#    0.000    2.429    0.000    1.714    2.000    2.286 
#    2.571    3.571    0.000    5.143    0.000    4.000 
#    0.000    0.000    0.000    0.000    0.000    0.000 
#
# Total GULP energy -155933.063015 kJ/mol
# GULP energy per Si atom -5569.037965 kJ/mol
# Density = 2.267467 g / cm^3
# Si number density = 22.726394 Si / 1000 Ang^3
#
#
#
# Elastic Constant Matrix: (Units=GPa)
#
#
# Indices 1 2 3 4 5 6 
#
# 1 56.9169 27.0938 7.4053 0.0000 0.0000 0.0000
# 2 27.0938 155.0807 7.6545 0.0000 0.0000 0.0000
# 3 7.4053 7.6545 62.7981 0.0000 0.0000 0.0000
# 4 0.0000 0.0000 0.0000 27.3884 0.0000 0.0000
# 5 0.0000 0.0000 0.0000 0.0000 -33.0683 0.0000
# 6 0.0000 0.0000 0.0000 0.0000 0.0000 12.3259
#
#
#
# Elastic Compliance Matrix: (Units=1/GPa)
#
#
# Indices 1 2 3 4 5 6 
#
# 1 0.019382 -0.003293 -0.001884 0.000000 0.000000 0.000000
# 2 -0.003293 0.007047 -0.000471 0.000000 0.000000 0.000000
# 3 -0.001884 -0.000471 0.016204 0.000000 0.000000 0.000000
# 4 0.000000 0.000000 0.000000 0.036512 0.000000 0.000000
# 5 0.000000 0.000000 0.000000 0.000000 -0.030240 0.000000
# 6 0.000000 0.000000 0.000000 0.000000 0.000000 0.081130
#
#
# Mechanical properties :
#
#
# Convention : Reuss Voigt Hill
#
# Bulk Modulus (GPa) = 31.91149 39.90033 35.90591
# Shear Modulus (GPa) = 32.94334 16.83867 24.89101
#
# Velocity S-wave (km/s) = 3.81144 2.72496 3.31304
# Velocity P-wave (km/s) = 5.78287 5.24361 5.51983
#
# Compressibility (1/GPa) = 0.03133667
#
# Stress axis : x y z
#
# Youngs Moduli (GPa) = 51.59350 141.90760 61.71473
#
# Poissons Ratio (x) = 0.46734 0.11628
# Poissons Ratio (y) = 0.16991 0.02904
# Poissons Ratio (z) = 0.09721 0.06678
#
# Static dielectric constant tensor:
#      x y z
#    x 1.866800 0.000000 0.000000 
#    y 0.000000 1.851250 0.000000 
#    z 0.000000 0.000000 1.898840 
# 
# From -- ./inp_files/10091.got.cif
#   From: 2010.05.17/outbox.cif.g08.bks.cpg/sg38_6_cif.got.tgz:10091.got - 2010.06.03 18:07:57.
