data_PCOD9358504
_publ_section_title
;
Structure prediction by ZEFSAII (Michael W. Deem and Ramdas Pophale) SiO2 
 PCOD9358504
Probable space group: A M M 2
;
_chemical_formula_sum "Si O2"
_cell_formula_units_Z 48
_cell_length_a 9.200101
_cell_length_b 7.906308
_cell_length_c 35.001429
_cell_angle_alpha 90.000000
_cell_angle_beta 90.000000
_cell_angle_gamma 90.000000
_cell_volume 2545.963069
_symmetry_space_group_name_H-M "A M M 2"
_symmetry_group_IT_number 38
_symmetry_cell_setting 'orthorhombic'
loop_
_space_group_symop_operation_xyz
x,y,z
-x,-y,z
-x,y,z
x,-y,z
x,1/2+y,1/2+z
-x,1/2-y,1/2+z
-x,1/2+y,1/2+z
x,1/2-y,1/2+z
loop_
_atom_site_type_symbol
_atom_site_label
_atom_site_fract_x
_atom_site_fract_y
_atom_site_fract_z
Si Si1 0.834396 0.296137 0.026410
Si Si2 0.675207 0.302542 0.104648
Si Si3 0.174636 0.191269 0.791764
Si Si4 0.676246 0.000000 0.159818
Si Si5 0.833685 0.301544 0.875024
Si Si6 0.675453 0.500000 0.748410
Si Si7 0.335644 0.298867 0.450113
O O1 0.837778 0.500000 0.025745
O O2 0.746593 0.249313 0.064514
O O3 0.000000 0.233657 0.027866
O O4 0.755851 0.239918 0.987892
O O5 0.500000 0.295279 0.101037
O O6 0.713478 0.500000 0.112603
O O7 0.721281 0.169269 0.137064
O O8 0.213472 0.206504 0.836693
O O9 0.259432 0.334147 0.768716
O O10 0.000000 0.221341 0.789424
O O11 0.204261 0.000000 0.778502
O O12 0.500000 0.000000 0.159548
O O13 0.720210 0.000000 0.203892
O O14 0.833900 0.500000 0.865290
O O15 0.737316 0.273888 0.912139
O O16 0.000000 0.250480 0.884052
O O17 0.500000 0.500000 0.751039
O O18 0.500000 0.234491 0.454787
O O19 0.339958 0.500000 0.445365
#
# Coordination Sequence:
#
# PCOD9358504 Si02
#       7
#     8   8   8   4   8   4   8
#     4  10  21  37  56  80 111 146 188 237 291 348
#     4   9  18  35  59  83 111 150 193 240 292 347
#     4  10  21  40  65  89 119 162 206 249 302 366
#     4   9  20  37  59  87 117 153 197 241 295 363
#     4  10  20  37  61  84 110 148 196 246 295 349
#     4  11  23  39  61  93 129 161 199 253 309 367
#     4  11  24  37  51  78 115 152 192 239 288 344
#
# _framework density 18.853376999999998
#
# number of rings (size 3 to 8) (size 9 to 14) (size 15 to 20)
#    0.000    2.000    0.833    2.250    1.167    7.000 
#    0.000    3.333    0.000    2.000    0.000    0.000 
#    0.000    0.000    0.000    0.000    0.000    0.000 
#
# Total GULP energy -134009.091178 kJ/mol
# GULP energy per Si atom -5583.712132 kJ/mol
# Density = 1.881047 g / cm^3
# Si number density = 18.853377 Si / 1000 Ang^3
#
#
#
# Elastic Constant Matrix: (Units=GPa)
#
#
# Indices 1 2 3 4 5 6 
#
# 1 66.7761 42.7289 56.1685 0.0000 0.0000 0.0000
# 2 42.7289 99.2212 68.0322 0.0000 0.0000 0.0000
# 3 56.1685 68.0322 142.4750 0.0000 0.0000 0.0000
# 4 0.0000 0.0000 0.0000 9.6167 0.0000 0.0000
# 5 0.0000 0.0000 0.0000 0.0000 56.8838 0.0000
# 6 0.0000 0.0000 0.0000 0.0000 0.0000 28.4063
#
#
#
# Elastic Compliance Matrix: (Units=1/GPa)
#
#
# Indices 1 2 3 4 5 6 
#
# 1 0.024486 -0.005837 -0.006866 0.000000 0.000000 0.000000
# 2 -0.005837 0.016376 -0.005518 0.000000 0.000000 0.000000
# 3 -0.006866 -0.005518 0.012361 0.000000 0.000000 0.000000
# 4 0.000000 0.000000 0.000000 0.103985 0.000000 0.000000
# 5 0.000000 0.000000 0.000000 0.000000 0.017580 0.000000
# 6 0.000000 0.000000 0.000000 0.000000 0.000000 0.035203
#
#
# Mechanical properties :
#
#
# Convention : Reuss Voigt Hill
#
# Bulk Modulus (GPa) = 59.59605 71.37017 65.48311
# Shear Modulus (GPa) = 19.83921 28.41754 24.12837
#
# Velocity S-wave (km/s) = 3.24742 3.88660 3.58130
# Velocity P-wave (km/s) = 6.76313 7.62092 7.20480
#
# Compressibility (1/GPa) = 0.01677964
#
# Stress axis : x y z
#
# Youngs Moduli (GPa) = 40.84043 61.06541 80.90201
#
# Poissons Ratio (x) = 0.35643 0.55547
# Poissons Ratio (y) = 0.23838 0.44645
# Poissons Ratio (z) = 0.28041 0.33699
#
# Static dielectric constant tensor:
#      x y z
#    x 1.650430 0.000000 0.000000 
#    y 0.000000 1.677560 0.000000 
#    z 0.000000 0.000000 1.617630 
# 
# From -- ./inp_files/24362.got.cif
#   From: 2010.05.17/outbox.cif.g08.bks.cpg/sg38_13_cif.got.tgz:24362.got - 2010.06.03 18:07:57.
