data_PCOD9358276
_publ_section_title
;
Structure prediction by ZEFSAII (Michael W. Deem and Ramdas Pophale) SiO2 
 PCOD9358276
Probable space group: A M M 2
;
_chemical_formula_sum "Si O2"
_cell_formula_units_Z 58
_cell_length_a 8.948522
_cell_length_b 20.128194
_cell_length_c 17.443469
_cell_angle_alpha 90.000000
_cell_angle_beta 90.000000
_cell_angle_gamma 90.000000
_cell_volume 3141.875542
_symmetry_space_group_name_H-M "A M M 2"
_symmetry_group_IT_number 38
_symmetry_cell_setting 'orthorhombic'
loop_
_space_group_symop_operation_xyz
x,y,z
-x,-y,z
-x,y,z
x,-y,z
x,1/2+y,1/2+z
-x,1/2-y,1/2+z
-x,1/2+y,1/2+z
x,1/2-y,1/2+z
loop_
_atom_site_type_symbol
_atom_site_label
_atom_site_fract_x
_atom_site_fract_y
_atom_site_fract_z
Si Si1 0.676204 0.574590 0.687680
Si Si2 0.675876 0.273246 0.099774
Si Si3 0.000000 0.000000 0.515928
Si Si4 0.817879 0.923159 0.878832
Si Si5 0.820849 0.864460 0.043950
Si Si6 0.164978 0.633445 0.986325
Si Si7 0.178281 0.310995 0.261374
Si Si8 0.176173 0.834568 0.313861
O O1 0.500000 0.582512 0.673539
O O2 0.703355 0.500000 0.717438
O O3 0.764396 0.585107 0.608873
O O4 0.731231 0.628611 0.748599
O O5 0.500000 0.262800 0.106653
O O6 0.751814 0.205861 0.069028
O O7 0.742594 0.296343 0.181141
O O8 0.718253 0.329803 0.039072
O O9 0.872414 0.940933 0.511838
O O10 0.770802 0.875675 0.808580
O O11 0.000000 0.923581 0.877968
O O12 0.768840 0.000000 0.873296
O O13 0.774036 0.889811 0.959750
O O14 0.000000 0.859933 0.045266
O O15 0.208804 0.636736 0.897505
O O16 0.000000 0.668868 0.991621
O O17 0.200938 0.244465 0.311728
O O18 0.000000 0.317462 0.247162
O O19 0.000000 0.845909 0.297669
#
# Coordination Sequence:
#
# PCOD9358276 Si02
#       8
#     8   8   2   8   8   8   8   8
#     4  11  24  37  53  85 128 166 198 244 308 374
#     4  12  24  39  59  88 125 162 204 254 309 363
#     4   8  20  40  66  88 120 148 198 268 296 360
#     4   9  19  37  63  94 122 151 198 258 313 362
#     4  11  21  38  64  90 118 158 208 256 303 362
#     4   9  20  39  63  89 113 154 201 248 304 356
#     4  10  20  37  60  91 120 157 199 252 302 359
#     4  10  20  35  62  88 117 153 206 252 298 359
#
# _framework density 18.460311000000001
#
# number of rings (size 3 to 8) (size 9 to 14) (size 15 to 20)
#    0.414    1.379    1.379    3.310    0.966    4.414 
#    1.241    3.103    0.000    1.655    0.000    0.000 
#    0.000    0.000    0.000    0.000    0.000    0.000 
#
# Total GULP energy -161552.109857 kJ/mol
# GULP energy per Si atom -5570.762409 kJ/mol
# Density = 1.841829 g / cm^3
# Si number density = 18.460311 Si / 1000 Ang^3
#
#
#
# Elastic Constant Matrix: (Units=GPa)
#
#
# Indices 1 2 3 4 5 6 
#
# 1 51.4811 45.1872 29.1388 0.0000 0.0000 0.0000
# 2 45.1872 131.9976 56.3715 0.0000 0.0000 0.0000
# 3 29.1388 56.3715 54.3360 0.0000 0.0000 0.0000
# 4 0.0000 0.0000 0.0000 18.1450 0.0000 0.0000
# 5 0.0000 0.0000 0.0000 0.0000 -30.0613 0.0000
# 6 0.0000 0.0000 0.0000 0.0000 0.0000 13.5351
#
#
#
# Elastic Compliance Matrix: (Units=1/GPa)
#
#
# Indices 1 2 3 4 5 6 
#
# 1 0.030477 -0.006201 -0.009911 0.000000 0.000000 0.000000
# 2 -0.006201 0.014864 -0.012096 0.000000 0.000000 0.000000
# 3 -0.009911 -0.012096 0.036268 0.000000 0.000000 0.000000
# 4 0.000000 0.000000 0.000000 0.055112 0.000000 0.000000
# 5 0.000000 0.000000 0.000000 0.000000 -0.033265 0.000000
# 6 0.000000 0.000000 0.000000 0.000000 0.000000 0.073882
#
#
# Mechanical properties :
#
#
# Convention : Reuss Voigt Hill
#
# Bulk Modulus (GPa) = 39.69164 55.46773 47.57968
# Shear Modulus (GPa) = 20.64833 7.46491 14.05662
#
# Velocity S-wave (km/s) = 3.34806 2.01309 2.76243
# Velocity P-wave (km/s) = 6.04101 5.95950 6.00039
#
# Compressibility (1/GPa) = 0.02519422
#
# Stress axis : x y z
#
# Youngs Moduli (GPa) = 32.81176 67.27506 27.57251
#
# Poissons Ratio (x) = 0.41715 0.27327
# Poissons Ratio (y) = 0.20346 0.33352
# Poissons Ratio (z) = 0.32519 0.81376
#
# Static dielectric constant tensor:
#      x y z
#    x 1.627110 0.000000 0.000000 
#    y 0.000000 1.641580 0.000000 
#    z 0.000000 0.000000 1.629810 
# 
# From -- ./inp_files/16986.got.cif
#   From: 2010.05.17/outbox.cif.g08.bks.cpg/sg38_9_cif.got.tgz:16986.got - 2010.06.03 18:07:57.
