data_PCOD9358605
_publ_section_title
;
Structure prediction by ZEFSAII (Michael W. Deem and Ramdas Pophale) SiO2 
 PCOD9358605
Probable space group: A M M 2
;
_chemical_formula_sum "Si O2"
_cell_formula_units_Z 48
_cell_length_a 7.679307
_cell_length_b 33.800617
_cell_length_c 9.702377
_cell_angle_alpha 90.000000
_cell_angle_beta 90.000000
_cell_angle_gamma 90.000000
_cell_volume 2518.400540
_symmetry_space_group_name_H-M "A M M 2"
_symmetry_group_IT_number 38
_symmetry_cell_setting 'orthorhombic'
loop_
_space_group_symop_operation_xyz
x,y,z
-x,-y,z
-x,y,z
x,-y,z
x,1/2+y,1/2+z
-x,1/2-y,1/2+z
-x,1/2+y,1/2+z
x,1/2-y,1/2+z
loop_
_atom_site_type_symbol
_atom_site_label
_atom_site_fract_x
_atom_site_fract_y
_atom_site_fract_z
Si Si1 0.798191 0.634807 0.460120
Si Si2 0.200384 0.171496 0.527208
Si Si3 0.500000 0.729097 0.123061
Si Si4 0.295426 0.621077 0.769875
Si Si5 0.208717 0.407621 0.200431
Si Si6 0.211722 0.044362 0.446552
Si Si7 0.500000 0.199170 0.929354
O O1 0.785440 0.622965 0.619041
O O2 0.738772 0.599357 0.357736
O O3 0.669642 0.671260 0.432893
O O4 0.000000 0.644478 0.426967
O O5 0.332224 0.206178 0.562672
O O6 0.219392 0.154039 0.373400
O O7 0.247052 0.133915 0.623863
O O8 0.000000 0.182342 0.552389
O O9 0.500000 0.724426 0.288155
O O10 0.500000 0.772931 0.062738
O O11 0.500000 0.628592 0.756909
O O12 0.267526 0.578482 0.841153
O O13 0.000000 0.412504 0.201445
O O14 0.274433 0.441662 0.098612
O O15 0.000000 0.044583 0.446496
O O16 0.269811 0.000000 0.414134
#
# Coordination Sequence:
#
# PCOD9358605 Si02
#       7
#     8   8   4   8   8   8   4
#     4  11  22  41  63  87 120 161 208 251 297 356
#     4  10  20  39  63  85 114 157 203 245 294 358
#     4  12  26  42  62  90 123 155 196 246 313 365
#     4  11  21  35  61  90 122 160 204 250 297 356
#     4   8  16  33  60  85 109 154 203 241 289 348
#     4   9  18  35  59  90 124 156 198 251 302 356
#     4  12  28  42  62  90 123 157 196 250 311 365
#
# _framework density 19.059715000000001
#
# number of rings (size 3 to 8) (size 9 to 14) (size 15 to 20)
#    0.000    1.833    3.333    2.500    2.333    1.000 
#    0.000    0.833    0.000    3.000    0.000    0.000 
#    0.000    0.000    0.000    0.000    0.000    0.000 
#
# Total GULP energy -133943.356319 kJ/mol
# GULP energy per Si atom -5580.973180 kJ/mol
# Density = 1.901633 g / cm^3
# Si number density = 19.059715 Si / 1000 Ang^3
#
#
#
# Elastic Constant Matrix: (Units=GPa)
#
#
# Indices 1 2 3 4 5 6 
#
# 1 83.3722 23.2544 0.1708 0.0000 0.0000 0.0000
# 2 23.2544 47.9804 16.4041 0.0000 0.0000 0.0000
# 3 0.1708 16.4041 132.6417 0.0000 0.0000 0.0000
# 4 0.0000 0.0000 0.0000 18.7723 0.0000 0.0000
# 5 0.0000 0.0000 0.0000 0.0000 15.0256 0.0000
# 6 0.0000 0.0000 0.0000 0.0000 0.0000 19.5400
#
#
#
# Elastic Compliance Matrix: (Units=1/GPa)
#
#
# Indices 1 2 3 4 5 6 
#
# 1 0.013962 -0.007059 0.000855 0.000000 0.000000 0.000000
# 2 -0.007059 0.025331 -0.003124 0.000000 0.000000 0.000000
# 3 0.000855 -0.003124 0.007924 0.000000 0.000000 0.000000
# 4 0.000000 0.000000 0.000000 0.053270 0.000000 0.000000
# 5 0.000000 0.000000 0.000000 0.000000 0.066553 0.000000
# 6 0.000000 0.000000 0.000000 0.000000 0.000000 0.051177
#
#
# Mechanical properties :
#
#
# Convention : Reuss Voigt Hill
#
# Bulk Modulus (GPa) = 35.01198 38.18365 36.59781
# Shear Modulus (GPa) = 20.29276 25.61189 22.95233
#
# Velocity S-wave (km/s) = 3.26650 3.66973 3.47397
# Velocity P-wave (km/s) = 5.71281 6.16709 5.94429
#
# Compressibility (1/GPa) = 0.02856165
#
# Stress axis : x y z
#
# Youngs Moduli (GPa) = 71.62513 39.47727 126.19387
#
# Poissons Ratio (x) = 0.27867 -0.10790
# Poissons Ratio (y) = 0.50560 0.39419
# Poissons Ratio (z) = -0.06124 0.12331
#
# Static dielectric constant tensor:
#      x y z
#    x 1.688250 0.000000 0.000000 
#    y 0.000000 1.629260 0.000000 
#    z 0.000000 0.000000 1.688870 
# 
# From -- ./inp_files/3815.got.cif
#   From: 2010.05.17/outbox.cif.g08.bks.cpg/sg38_2_cif.got.tgz:3815.got - 2010.06.03 18:07:57.
