data_PCOD9358282
_publ_section_title
;
Structure prediction by ZEFSAII (Michael W. Deem and Ramdas Pophale) SiO2 
 PCOD9358282
Probable space group: A M M 2
;
_chemical_formula_sum "Si O2"
_cell_formula_units_Z 64
_cell_length_a 8.573329
_cell_length_b 29.259809
_cell_length_c 13.325125
_cell_angle_alpha 90.000000
_cell_angle_beta 90.000000
_cell_angle_gamma 90.000000
_cell_volume 3342.660494
_symmetry_space_group_name_H-M "A M M 2"
_symmetry_group_IT_number 38
_symmetry_cell_setting 'orthorhombic'
loop_
_space_group_symop_operation_xyz
x,y,z
-x,-y,z
-x,y,z
x,-y,z
x,1/2+y,1/2+z
-x,1/2-y,1/2+z
-x,1/2+y,1/2+z
x,1/2-y,1/2+z
loop_
_atom_site_type_symbol
_atom_site_label
_atom_site_fract_x
_atom_site_fract_y
_atom_site_fract_z
Si Si1 0.682275 0.883362 0.143480
Si Si2 0.688176 0.446588 0.460852
Si Si3 0.188428 0.446921 0.245314
Si Si4 0.177468 0.792961 0.707185
Si Si5 0.679188 0.252626 0.883450
Si Si6 0.827664 0.205775 0.069598
Si Si7 0.188735 0.878745 0.572346
Si Si8 0.187226 0.146730 0.351552
O O1 0.500000 0.892207 0.161527
O O2 0.740611 0.919007 0.059388
O O3 0.706215 0.833629 0.093737
O O4 0.766873 0.880369 0.250968
O O5 0.500000 0.443608 0.457065
O O6 0.732326 0.500000 0.469413
O O7 0.752501 0.429416 0.353566
O O8 0.236461 0.500000 0.236112
O O9 0.243688 0.417836 0.149282
O O10 0.000000 0.445234 0.246923
O O11 0.295609 0.784938 0.796923
O O12 0.169677 0.743708 0.655448
O O13 0.225785 0.830719 0.626408
O O14 0.000000 0.804580 0.741685
O O15 0.500000 0.254880 0.914655
O O16 0.734685 0.303070 0.850818
O O17 0.786851 0.234501 0.972014
O O18 0.000000 0.184674 0.062488
O O19 0.238493 0.877304 0.456171
O O20 0.000000 0.882035 0.569147
O O21 0.000000 0.152825 0.353641
#
# Coordination Sequence:
#
# PCOD9358282 Si02
#       8
#     8   8   8   8   8   8   8   8
#     4  11  23  38  57  85 115 146 191 241 288 334
#     4   9  20  40  62  83 113 149 181 224 286 349
#     4   9  18  35  61  90 114 138 177 232 287 336
#     4  10  20  36  55  76 106 150 196 228 269 334
#     4  12  24  36  52  78 114 148 188 242 287 324
#     4  11  22  37  57  78 108 152 194 229 277 340
#     4   9  19  36  57  81 109 145 187 229 273 330
#     4  11  21  38  58  78 111 156 198 229 278 344
#
# _framework density 19.146425000000001
#
# number of rings (size 3 to 8) (size 9 to 14) (size 15 to 20)
#    0.000    1.750    2.500    2.250    1.750    1.500 
#    0.000    1.875    0.000    0.750    0.000    0.000 
#    0.000    0.000    0.000    0.000    0.000    0.000 
#
# Total GULP energy -178510.812587 kJ/mol
# GULP energy per Si atom -5578.462893 kJ/mol
# Density = 1.910285 g / cm^3
# Si number density = 19.146425 Si / 1000 Ang^3
#
#
#
# Elastic Constant Matrix: (Units=GPa)
#
#
# Indices 1 2 3 4 5 6 
#
# 1 20.0260 0.4654 6.0647 0.0000 0.0000 0.0000
# 2 0.4654 64.7110 48.7719 0.0000 0.0000 0.0000
# 3 6.0647 48.7719 132.6605 0.0000 0.0000 0.0000
# 4 0.0000 0.0000 0.0000 34.3598 0.0000 0.0000
# 5 0.0000 0.0000 0.0000 0.0000 56.2244 0.0000
# 6 0.0000 0.0000 0.0000 0.0000 0.0000 16.5263
#
#
#
# Elastic Compliance Matrix: (Units=1/GPa)
#
#
# Indices 1 2 3 4 5 6 
#
# 1 0.050807 0.001916 -0.003027 0.000000 0.000000 0.000000
# 2 0.001916 0.021449 -0.007973 0.000000 0.000000 0.000000
# 3 -0.003027 -0.007973 0.010608 0.000000 0.000000 0.000000
# 4 0.000000 0.000000 0.000000 0.029104 0.000000 0.000000
# 5 0.000000 0.000000 0.000000 0.000000 0.017786 0.000000
# 6 0.000000 0.000000 0.000000 0.000000 0.000000 0.060509
#
#
# Mechanical properties :
#
#
# Convention : Reuss Voigt Hill
#
# Bulk Modulus (GPa) = 15.45705 36.44460 25.95083
# Shear Modulus (GPa) = 21.73949 32.22848 26.98398
#
# Velocity S-wave (km/s) = 3.37327 4.10721 3.75820
# Velocity P-wave (km/s) = 4.82313 6.44734 5.69345
#
# Compressibility (1/GPa) = 0.06469541
#
# Stress axis : x y z
#
# Youngs Moduli (GPa) = 19.68225 46.62265 94.27109
#
# Poissons Ratio (x) = -0.08934 0.28537
# Poissons Ratio (y) = -0.03771 0.75164
# Poissons Ratio (z) = 0.05958 0.37173
#
# Static dielectric constant tensor:
#      x y z
#    x 1.649820 0.000000 0.000000 
#    y 0.000000 1.651110 0.000000 
#    z 0.000000 0.000000 1.699360 
# 
# From -- ./inp_files/8586.got.cif
#   From: 2010.05.17/outbox.cif.g08.bks.cpg/sg38_5_cif.got.tgz:8586.got - 2010.06.03 18:07:57.
