data_PCOD9358258
_publ_section_title
;
Structure prediction by ZEFSAII (Michael W. Deem and Ramdas Pophale) SiO2 
 PCOD9358258
Probable space group: A M M 2
;
_chemical_formula_sum "Si O2"
_cell_formula_units_Z 48
_cell_length_a 17.885856
_cell_length_b 8.727143
_cell_length_c 15.817005
_cell_angle_alpha 90.000000
_cell_angle_beta 90.000000
_cell_angle_gamma 90.000000
_cell_volume 2468.914635
_symmetry_space_group_name_H-M "A M M 2"
_symmetry_group_IT_number 38
_symmetry_cell_setting 'orthorhombic'
loop_
_space_group_symop_operation_xyz
x,y,z
-x,-y,z
-x,y,z
x,-y,z
x,1/2+y,1/2+z
-x,1/2-y,1/2+z
-x,1/2+y,1/2+z
x,1/2-y,1/2+z
loop_
_atom_site_type_symbol
_atom_site_label
_atom_site_fract_x
_atom_site_fract_y
_atom_site_fract_z
Si Si1 0.000000 0.176282 0.921190
Si Si2 0.000000 0.823476 0.245415
Si Si3 0.845365 0.327704 0.976228
Si Si4 0.689746 0.314373 0.176833
Si Si5 0.311054 0.183165 0.987979
Si Si6 0.414044 0.686940 0.332292
Si Si7 0.855305 0.173937 0.678179
O O1 0.000000 0.204883 0.821869
O O2 0.076265 0.253984 0.951693
O O3 0.000000 0.000000 0.945729
O O4 0.075980 0.784917 0.196314
O O5 0.000000 0.000000 0.273387
O O6 0.840276 0.500000 0.941406
O O7 0.771046 0.233360 0.955381
O O8 0.846403 0.336676 0.077606
O O9 0.689372 0.500000 0.170706
O O10 0.630215 0.265657 0.247535
O O11 0.773626 0.272153 0.208169
O O12 0.676775 0.250390 0.082306
O O13 0.371050 0.234648 0.917750
O O14 0.313403 0.000000 0.994307
O O15 0.500000 0.737265 0.331531
O O16 0.413291 0.500000 0.332146
O O17 0.870045 0.000000 0.710083
#
# Coordination Sequence:
#
# PCOD9358258 Si02
#       7
#     4   4   8   8   8   8   8
#     4  12  25  38  55  81 115 153 193 236 285 340
#     4  12  25  36  51  81 115 149 191 238 283 332
#     4  10  21  39  60  83 113 150 191 238 289 342
#     4   9  19  37  60  84 114 155 197 240 294 354
#     4  10  20  35  59  89 118 154 197 244 296 352
#     4   9  19  36  59  87 118 154 195 239 295 363
#     4   9  19  36  57  78 107 147 188 234 286 340
#
# _framework density 19.441741
#
# number of rings (size 3 to 8) (size 9 to 14) (size 15 to 20)
#    0.000    2.167    0.000    4.000    2.333    6.000 
#    0.000    1.667    0.000    3.500    0.000    0.000 
#    0.000    0.000    0.000    0.000    0.000    0.000 
#
# Total GULP energy -133899.569550 kJ/mol
# GULP energy per Si atom -5579.148731 kJ/mol
# Density = 1.939749 g / cm^3
# Si number density = 19.441741 Si / 1000 Ang^3
#
#
#
# Elastic Constant Matrix: (Units=GPa)
#
#
# Indices 1 2 3 4 5 6 
#
# 1 185.1734 35.7391 75.4759 0.0000 0.0000 0.0000
# 2 35.7391 44.0146 20.1917 0.0000 0.0000 0.0000
# 3 75.4759 20.1917 77.3782 0.0000 0.0000 0.0000
# 4 0.0000 0.0000 0.0000 35.5390 0.0000 0.0000
# 5 0.0000 0.0000 0.0000 0.0000 37.6882 0.0000
# 6 0.0000 0.0000 0.0000 0.0000 0.0000 122.7297
#
#
#
# Elastic Compliance Matrix: (Units=1/GPa)
#
#
# Indices 1 2 3 4 5 6 
#
# 1 0.009532 -0.003947 -0.008268 0.000000 0.000000 0.000000
# 2 -0.003947 0.027444 -0.003311 0.000000 0.000000 0.000000
# 3 -0.008268 -0.003311 0.021852 0.000000 0.000000 0.000000
# 4 0.000000 0.000000 0.000000 0.028138 0.000000 0.000000
# 5 0.000000 0.000000 0.000000 0.000000 0.026533 0.000000
# 6 0.000000 0.000000 0.000000 0.000000 0.000000 0.008148
#
#
# Mechanical properties :
#
#
# Convention : Reuss Voigt Hill
#
# Bulk Modulus (GPa) = 36.00286 63.26441 49.63363
# Shear Modulus (GPa) = 30.87214 50.86867 40.87040
#
# Velocity S-wave (km/s) = 3.98921 5.12069 4.58995
# Velocity P-wave (km/s) = 6.30689 8.22029 7.32632
#
# Compressibility (1/GPa) = 0.02777557
#
# Stress axis : x y z
#
# Youngs Moduli (GPa) = 104.90960 36.43817 45.76217
#
# Poissons Ratio (x) = 0.14382 0.37835
# Poissons Ratio (y) = 0.41408 0.15154
# Poissons Ratio (z) = 0.86736 0.12066
#
# Static dielectric constant tensor:
#      x y z
#    x 1.761170 0.000000 0.000000 
#    y 0.000000 1.666120 0.000000 
#    z 0.000000 0.000000 1.687490 
# 
# From -- ./inp_files/15043.got.cif
#   From: 2010.05.17/outbox.cif.g08.bks.cpg/sg38_8_cif.got.tgz:15043.got - 2010.06.03 18:07:57.
