data_PCOD9358038
_publ_section_title
;
Structure prediction by ZEFSAII (Michael W. Deem and Ramdas Pophale) SiO2 
 PCOD9358038
Probable space group: A M M 2
;
_chemical_formula_sum "Si O2"
_cell_formula_units_Z 64
_cell_length_a 9.311895
_cell_length_b 32.121695
_cell_length_c 11.979913
_cell_angle_alpha 90.000000
_cell_angle_beta 90.000000
_cell_angle_gamma 90.000000
_cell_volume 3583.357913
_symmetry_space_group_name_H-M "A M M 2"
_symmetry_group_IT_number 38
_symmetry_cell_setting 'orthorhombic'
loop_
_space_group_symop_operation_xyz
x,y,z
-x,-y,z
-x,y,z
x,-y,z
x,1/2+y,1/2+z
-x,1/2-y,1/2+z
-x,1/2+y,1/2+z
x,1/2-y,1/2+z
loop_
_atom_site_type_symbol
_atom_site_label
_atom_site_fract_x
_atom_site_fract_y
_atom_site_fract_z
Si Si1 0.671143 0.721353 0.958660
Si Si2 0.170535 0.549665 0.431921
Si Si3 0.835575 0.906125 0.517067
Si Si4 0.671477 0.882566 0.068856
Si Si5 0.328569 0.137678 0.324964
Si Si6 0.671107 0.185702 0.880744
Si Si7 0.663130 0.450108 0.206115
Si Si8 0.836438 0.819768 0.653917
O O1 0.500000 0.720044 0.979528
O O2 0.704267 0.684152 0.871168
O O3 0.706867 0.766763 0.912549
O O4 0.752963 0.711825 0.073178
O O5 0.193442 0.500000 0.447924
O O6 0.241383 0.577145 0.528664
O O7 0.247398 0.562515 0.315845
O O8 0.000000 0.556830 0.424066
O O9 0.758568 0.894578 0.401486
O O10 0.743096 0.936586 0.593979
O O11 0.837788 0.863174 0.587215
O O12 0.000000 0.920134 0.502033
O O13 0.500000 0.890949 0.062302
O O14 0.704228 0.868557 0.194926
O O15 0.703966 0.845397 0.982247
O O16 0.500000 0.131465 0.340667
O O17 0.500000 0.183526 0.860030
O O18 0.755475 0.174223 0.769654
O O19 0.500000 0.433395 0.210522
O O20 0.656286 0.500000 0.208967
O O21 0.000000 0.806390 0.672500
#
# Coordination Sequence:
#
# PCOD9358038 Si02
#       8
#     8   8   8   8   8   8   8   8
#     4   9  19  35  57  78 103 140 182 227 272 319
#     4  10  21  37  57  82 113 148 185 226 278 336
#     4  10  20  35  55  78 107 142 179 219 267 326
#     4  10  21  36  56  84 112 143 188 234 277 329
#     4   9  19  36  56  78 107 145 187 230 272 321
#     4  10  21  34  55  82 108 139 180 228 272 323
#     4  10  20  34  56  85 113 140 175 223 276 327
#     4  10  21  35  51  75 107 139 175 217 266 321
#
# _framework density 17.860341999999999
#
# number of rings (size 3 to 8) (size 9 to 14) (size 15 to 20)
#    0.000    2.250    0.000    2.250    1.750    6.500 
#    0.000    0.625    0.000    0.750    0.000    0.000 
#    0.000    0.000    0.000    0.000    0.000    0.000 
#
# Total GULP energy -178613.593944 kJ/mol
# GULP energy per Si atom -5581.674811 kJ/mol
# Density = 1.781969 g / cm^3
# Si number density = 17.860342 Si / 1000 Ang^3
#
#
#
# Elastic Constant Matrix: (Units=GPa)
#
#
# Indices 1 2 3 4 5 6 
#
# 1 80.3767 42.7534 75.8014 0.0000 0.0000 0.0000
# 2 42.7534 49.2461 41.5820 0.0000 0.0000 0.0000
# 3 75.8014 41.5820 154.2925 0.0000 0.0000 0.0000
# 4 0.0000 0.0000 0.0000 17.4477 0.0000 0.0000
# 5 0.0000 0.0000 0.0000 0.0000 2.2827 0.0000
# 6 0.0000 0.0000 0.0000 0.0000 0.0000 17.1219
#
#
#
# Elastic Compliance Matrix: (Units=1/GPa)
#
#
# Indices 1 2 3 4 5 6 
#
# 1 0.033295 -0.019540 -0.011091 0.000000 0.000000 0.000000
# 2 -0.019540 0.037756 -0.000576 0.000000 0.000000 0.000000
# 3 -0.011091 -0.000576 0.012085 0.000000 0.000000 0.000000
# 4 0.000000 0.000000 0.000000 0.057314 0.000000 0.000000
# 5 0.000000 0.000000 0.000000 0.000000 0.438079 0.000000
# 6 0.000000 0.000000 0.000000 0.000000 0.000000 0.058405
#
#
# Mechanical properties :
#
#
# Convention : Reuss Voigt Hill
#
# Bulk Modulus (GPa) = 48.25679 67.13211 57.69445
# Shear Modulus (GPa) = 7.07959 15.62235 11.35097
#
# Velocity S-wave (km/s) = 1.99310 2.96073 2.52373
# Velocity P-wave (km/s) = 5.68984 7.02544 6.39261
#
# Compressibility (1/GPa) = 0.02072247
#
# Stress axis : x y z
#
# Youngs Moduli (GPa) = 30.03463 26.48580 82.74582
#
# Poissons Ratio (x) = 0.51754 0.91775
# Poissons Ratio (y) = 0.58688 0.04762
# Poissons Ratio (z) = 0.33312 0.01524
#
# Static dielectric constant tensor:
#      x y z
#    x 1.608640 0.000000 0.000000 
#    y 0.000000 1.614680 0.000000 
#    z 0.000000 0.000000 1.579970 
# 
# From -- ./inp_files/8550.got.cif
#   From: 2010.05.17/outbox.cif.g08.bks.cpg/sg38_5_cif.got.tgz:8550.got - 2010.06.03 18:07:57.
