data_PCOD9358914
_publ_section_title
;
Structure prediction by ZEFSAII (Michael W. Deem and Ramdas Pophale) SiO2 
 PCOD9358914
Probable space group: A M M 2
;
_chemical_formula_sum "Si O2"
_cell_formula_units_Z 64
_cell_length_a 7.808990
_cell_length_b 25.937988
_cell_length_c 15.367241
_cell_angle_alpha 90.000000
_cell_angle_beta 90.000000
_cell_angle_gamma 90.000000
_cell_volume 3112.626811
_symmetry_space_group_name_H-M "A M M 2"
_symmetry_group_IT_number 38
_symmetry_cell_setting 'orthorhombic'
loop_
_space_group_symop_operation_xyz
x,y,z
-x,-y,z
-x,y,z
x,-y,z
x,1/2+y,1/2+z
-x,1/2-y,1/2+z
-x,1/2+y,1/2+z
x,1/2-y,1/2+z
loop_
_atom_site_type_symbol
_atom_site_label
_atom_site_fract_x
_atom_site_fract_y
_atom_site_fract_z
Si Si1 0.799117 0.442993 0.928050
Si Si2 0.798022 0.326409 0.230535
Si Si3 0.696808 0.867978 0.907313
Si Si4 0.709519 0.559790 0.560009
Si Si5 0.301298 0.899899 0.246482
Si Si6 0.789720 0.346058 0.036357
Si Si7 0.796146 0.768855 0.009902
Si Si8 0.796253 0.286523 0.716235
O O1 0.724364 0.500000 0.942574
O O2 0.786234 0.427646 0.827078
O O3 0.000000 0.445749 0.950607
O O4 0.726273 0.395437 0.983669
O O5 0.775028 0.363371 0.311956
O O6 0.733523 0.346221 0.137401
O O7 0.730259 0.268682 0.250272
O O8 0.000000 0.318329 0.217018
O O9 0.500000 0.882225 0.894758
O O10 0.773195 0.907412 0.977762
O O11 0.709423 0.811832 0.951570
O O12 0.500000 0.563571 0.559991
O O13 0.755231 0.500000 0.554197
O O14 0.767974 0.583350 0.651985
O O15 0.500000 0.914936 0.249826
O O16 0.285874 0.838203 0.252512
O O17 0.739057 0.290249 0.998077
O O18 0.000000 0.346167 0.033886
O O19 0.771207 0.783015 0.111686
O O20 0.000000 0.771253 0.992100
O O21 0.000000 0.291070 0.733500
#
# Coordination Sequence:
#
# PCOD9358914 Si02
#       8
#     8   8   8   8   8   8   8   8
#     4  10  21  37  57  81 108 140 184 232 271 318
#     4   9  19  36  56  77 107 146 182 219 268 329
#     4  11  21  33  52  81 112 141 180 226 268 316
#     4   9  19  36  54  72 104 150 186 213 260 323
#     4  11  21  34  54  80 111 145 179 221 271 328
#     4   8  17  36  58  77 101 140 184 220 267 323
#     4   9  17  32  54  77 104 140 178 216 262 321
#     4   9  18  33  53  77 107 144 182 217 261 321
#
# _framework density 20.561412000000001
#
# number of rings (size 3 to 8) (size 9 to 14) (size 15 to 20)
#    0.000    2.500    1.250    2.625    1.750    1.250 
#    0.000    3.125    0.000    4.500    0.000    0.000 
#    0.000    0.000    0.000    0.000    0.000    0.000 
#
# Total GULP energy -178603.782577 kJ/mol
# GULP energy per Si atom -5581.368206 kJ/mol
# Density = 2.051461 g / cm^3
# Si number density = 20.561412 Si / 1000 Ang^3
#
#
#
# Elastic Constant Matrix: (Units=GPa)
#
#
# Indices 1 2 3 4 5 6 
#
# 1 17.9496 -5.8259 -5.2975 0.0000 0.0000 0.0000
# 2 -5.8259 134.5849 56.2429 0.0000 0.0000 0.0000
# 3 -5.2975 56.2429 73.3347 0.0000 0.0000 0.0000
# 4 0.0000 0.0000 0.0000 22.0232 0.0000 0.0000
# 5 0.0000 0.0000 0.0000 0.0000 -7.7792 0.0000
# 6 0.0000 0.0000 0.0000 0.0000 0.0000 11.1419
#
#
#
# Elastic Compliance Matrix: (Units=1/GPa)
#
#
# Indices 1 2 3 4 5 6 
#
# 1 0.057036 0.001100 0.003277 0.000000 0.000000 0.000000
# 2 0.001100 0.010956 -0.008323 0.000000 0.000000 0.000000
# 3 0.003277 -0.008323 0.020256 0.000000 0.000000 0.000000
# 4 0.000000 0.000000 0.000000 0.045407 0.000000 0.000000
# 5 0.000000 0.000000 0.000000 0.000000 -0.128548 0.000000
# 6 0.000000 0.000000 0.000000 0.000000 0.000000 0.089751
#
#
# Mechanical properties :
#
#
# Convention : Reuss Voigt Hill
#
# Bulk Modulus (GPa) = 12.44487 35.12311 23.78399
# Shear Modulus (GPa) = 38.59909 17.12716 27.86312
#
# Velocity S-wave (km/s) = 4.33743 2.88926 3.68519
# Velocity P-wave (km/s) = 5.58123 5.31503 5.44976
#
# Compressibility (1/GPa) = 0.08035442
#
# Stress axis : x y z
#
# Youngs Moduli (GPa) = 17.53288 91.27338 49.36771
#
# Poissons Ratio (x) = -0.10036 -0.16177
# Poissons Ratio (y) = -0.01928 0.41090
# Poissons Ratio (z) = -0.05745 0.75968
#
# Static dielectric constant tensor:
#      x y z
#    x 1.753970 0.000000 0.000000 
#    y 0.000000 1.732670 0.000000 
#    z 0.000000 0.000000 1.728260 
# 
# From -- ./inp_files/12858.got.cif
#   From: 2010.05.17/outbox.cif.g08.bks.cpg/sg38_7_cif.got.tgz:12858.got - 2010.06.03 18:07:57.
