data_PCOD9358772
_publ_section_title
;
Structure prediction by ZEFSAII (Michael W. Deem and Ramdas Pophale) SiO2 
 PCOD9358772
Probable space group: A M M 2
;
_chemical_formula_sum "Si O2"
_cell_formula_units_Z 64
_cell_length_a 14.280485
_cell_length_b 8.939554
_cell_length_c 26.807726
_cell_angle_alpha 90.000000
_cell_angle_beta 90.000000
_cell_angle_gamma 90.000000
_cell_volume 3422.305581
_symmetry_space_group_name_H-M "A M M 2"
_symmetry_group_IT_number 38
_symmetry_cell_setting 'orthorhombic'
loop_
_space_group_symop_operation_xyz
x,y,z
-x,-y,z
-x,y,z
x,-y,z
x,1/2+y,1/2+z
-x,1/2-y,1/2+z
-x,1/2+y,1/2+z
x,1/2-y,1/2+z
loop_
_atom_site_type_symbol
_atom_site_label
_atom_site_fract_x
_atom_site_fract_y
_atom_site_fract_z
Si Si1 0.890945 0.319044 0.701970
Si Si2 0.887194 0.675451 0.907466
Si Si3 0.207313 0.678418 0.106485
Si Si4 0.606424 0.680027 0.848975
Si Si5 0.886794 0.826038 0.010850
Si Si6 0.613871 0.329804 0.452686
Si Si7 0.793715 0.182023 0.303974
Si Si8 0.607364 0.179480 0.556575
O O1 0.886759 0.500000 0.700420
O O2 0.837603 0.254956 0.654379
O O3 0.843759 0.267196 0.753679
O O4 0.000000 0.275952 0.700675
O O5 0.862505 0.500000 0.913968
O O6 0.844796 0.729231 0.855085
O O7 0.000000 0.684830 0.904015
O O8 0.856925 0.764538 0.956692
O O9 0.198824 0.500000 0.110560
O O10 0.155356 0.733396 0.056464
O O11 0.316747 0.717652 0.098400
O O12 0.500000 0.731872 0.839132
O O13 0.604762 0.500000 0.851157
O O14 0.638365 0.739331 0.903037
O O15 0.684951 0.725529 0.809278
O O16 0.000000 0.814280 0.012847
O O17 0.861539 0.000000 0.016230
O O18 0.500000 0.332059 0.453000
O O19 0.647443 0.500000 0.450177
O O20 0.639523 0.252534 0.504540
O O21 0.798438 0.000000 0.303614
O O22 0.500000 0.225217 0.567096
O O23 0.608014 0.000000 0.550091
#
# Coordination Sequence:
#
# PCOD9358772 Si02
#       8
#     8   8   8   8   8   8   8   8
#     4  10  21  39  61  82 106 139 181 231 283 332
#     4   9  17  31  52  77 104 135 174 220 267 318
#     4  11  23  37  57  82 107 139 182 227 273 326
#     4   9  17  30  49  74 107 145 182 219 261 316
#     4  10  21  36  53  77 111 146 177 216 272 332
#     4   9  17  29  47  74 108 143 178 219 265 311
#     4   9  18  33  55  79 103 137 183 224 265 322
#     4   9  19  36  55  75 104 143 184 222 264 320
#
# _framework density 18.700842000000002
#
# number of rings (size 3 to 8) (size 9 to 14) (size 15 to 20)
#    0.000    2.500    0.000    1.875    1.750    6.500 
#    0.000    1.875    0.000    2.250    0.000    0.000 
#    0.000    0.000    0.000    0.000    0.000    0.000 
#
# Total GULP energy -178598.745629 kJ/mol
# GULP energy per Si atom -5581.210801 kJ/mol
# Density = 1.865828 g / cm^3
# Si number density = 18.700842 Si / 1000 Ang^3
#
#
#
# Elastic Constant Matrix: (Units=GPa)
#
#
# Indices 1 2 3 4 5 6 
#
# 1 107.0921 32.4489 78.3816 0.0000 0.0000 0.0000
# 2 32.4489 20.2431 26.6159 0.0000 0.0000 0.0000
# 3 78.3816 26.6159 143.0905 0.0000 0.0000 0.0000
# 4 0.0000 0.0000 0.0000 27.6883 0.0000 0.0000
# 5 0.0000 0.0000 0.0000 0.0000 37.1042 0.0000
# 6 0.0000 0.0000 0.0000 0.0000 0.0000 16.6224
#
#
#
# Elastic Compliance Matrix: (Units=1/GPa)
#
#
# Indices 1 2 3 4 5 6 
#
# 1 0.023107 -0.027001 -0.007635 0.000000 0.000000 0.000000
# 2 -0.027001 0.096944 -0.003241 0.000000 0.000000 0.000000
# 3 -0.007635 -0.003241 0.011774 0.000000 0.000000 0.000000
# 4 0.000000 0.000000 0.000000 0.036116 0.000000 0.000000
# 5 0.000000 0.000000 0.000000 0.000000 0.026951 0.000000
# 6 0.000000 0.000000 0.000000 0.000000 0.000000 0.060160
#
#
# Mechanical properties :
#
#
# Convention : Reuss Voigt Hill
#
# Bulk Modulus (GPa) = 17.83527 60.59093 39.21310
# Shear Modulus (GPa) = 14.30622 25.14828 19.72725
#
# Velocity S-wave (km/s) = 2.76887 3.67109 3.25142
# Velocity P-wave (km/s) = 4.44748 7.10208 5.92535
#
# Compressibility (1/GPa) = 0.05606868
#
# Stress axis : x y z
#
# Youngs Moduli (GPa) = 43.27603 10.31528 84.93330
#
# Poissons Ratio (x) = 0.27853 0.64849
# Poissons Ratio (y) = 1.16851 0.27531
# Poissons Ratio (z) = 0.33042 0.03344
#
# Static dielectric constant tensor:
#      x y z
#    x 1.699910 0.000000 0.000000 
#    y 0.000000 1.632980 0.000000 
#    z 0.000000 0.000000 1.603340 
# 
# From -- ./inp_files/22901.got.cif
#   From: 2010.05.17/outbox.cif.g08.bks.cpg/sg38_12_cif.got.tgz:22901.got - 2010.06.03 18:07:57.
