data_PCOD9358018
_publ_section_title
;
Structure prediction by ZEFSAII (Michael W. Deem and Ramdas Pophale) SiO2 
 PCOD9358018
Probable space group: A M M 2
;
_chemical_formula_sum "Si O2"
_cell_formula_units_Z 64
_cell_length_a 20.228662
_cell_length_b 8.784574
_cell_length_c 20.557943
_cell_angle_alpha 90.000000
_cell_angle_beta 90.000000
_cell_angle_gamma 90.000000
_cell_volume 3653.150136
_symmetry_space_group_name_H-M "A M M 2"
_symmetry_group_IT_number 38
_symmetry_cell_setting 'orthorhombic'
loop_
_space_group_symop_operation_xyz
x,y,z
-x,-y,z
-x,y,z
x,-y,z
x,1/2+y,1/2+z
-x,1/2-y,1/2+z
-x,1/2+y,1/2+z
x,1/2-y,1/2+z
loop_
_atom_site_type_symbol
_atom_site_label
_atom_site_fract_x
_atom_site_fract_y
_atom_site_fract_z
Si Si1 0.708588 0.318011 0.958710
Si Si2 0.672788 0.682387 0.100785
Si Si3 0.814471 0.318310 0.636246
Si Si4 0.319739 0.317777 0.813559
Si Si5 0.149537 0.818474 0.992266
Si Si6 0.923652 0.181255 0.375495
Si Si7 0.821776 0.681033 0.272558
Si Si8 0.575794 0.683762 0.214127
O O1 0.722179 0.500000 0.958022
O O2 0.675436 0.279406 0.890205
O O3 0.778339 0.232852 0.966335
O O4 0.667096 0.284783 0.023951
O O5 0.683371 0.500000 0.107583
O O6 0.738641 0.765514 0.125896
O O7 0.611277 0.724561 0.145931
O O8 0.816489 0.500000 0.644653
O O9 0.851287 0.278920 0.568799
O O10 0.840720 0.237181 0.700499
O O11 0.318649 0.500000 0.806683
O O12 0.249764 0.252364 0.788993
O O13 0.378784 0.250275 0.771073
O O14 0.096362 0.736310 0.947407
O O15 0.143327 0.000000 0.985931
O O16 0.874488 0.261442 0.325082
O O17 0.000000 0.217400 0.361892
O O18 0.914289 0.000000 0.370846
O O19 0.816470 0.500000 0.274441
O O20 0.500000 0.735236 0.217146
O O21 0.576555 0.500000 0.218753
#
# Coordination Sequence:
#
# PCOD9358018 Si02
#       8
#     8   8   8   8   8   8   8   8
#     4   9  18  32  53  80 110 142 181 231 282 327
#     4   9  17  32  53  78 107 143 185 229 278 334
#     4  10  20  34  55  85 116 145 183 234 283 329
#     4  11  21  34  55  83 114 148 186 236 288 339
#     4  10  20  34  56  85 114 146 184 228 280 336
#     4  11  24  41  60  83 115 154 192 234 286 342
#     4  12  23  36  58  86 115 151 192 238 287 339
#     4  10  21  36  54  78 111 151 193 238 290 346
#
# _framework density 17.519127000000001
#
# number of rings (size 3 to 8) (size 9 to 14) (size 15 to 20)
#    0.000    1.750    2.500    2.625    0.000    3.250 
#    0.000    1.250    0.000    3.000    0.000    0.000 
#    0.000    0.000    0.000    0.000    0.000    0.000 
#
# Total GULP energy -178652.283758 kJ/mol
# GULP energy per Si atom -5582.883867 kJ/mol
# Density = 1.747925 g / cm^3
# Si number density = 17.519127 Si / 1000 Ang^3
#
#
#
# Elastic Constant Matrix: (Units=GPa)
#
#
# Indices 1 2 3 4 5 6 
#
# 1 74.0058 29.6061 46.7480 0.0000 0.0000 0.0000
# 2 29.6061 38.6256 39.4476 0.0000 0.0000 0.0000
# 3 46.7480 39.4476 126.6950 0.0000 0.0000 0.0000
# 4 0.0000 0.0000 0.0000 30.2570 0.0000 0.0000
# 5 0.0000 0.0000 0.0000 0.0000 24.4242 0.0000
# 6 0.0000 0.0000 0.0000 0.0000 0.0000 23.0769
#
#
#
# Elastic Compliance Matrix: (Units=1/GPa)
#
#
# Indices 1 2 3 4 5 6 
#
# 1 0.020765 -0.011864 -0.003968 0.000000 0.000000 0.000000
# 2 -0.011864 0.044739 -0.009552 0.000000 0.000000 0.000000
# 3 -0.003968 -0.009552 0.012331 0.000000 0.000000 0.000000
# 4 0.000000 0.000000 0.000000 0.033050 0.000000 0.000000
# 5 0.000000 0.000000 0.000000 0.000000 0.040943 0.000000
# 6 0.000000 0.000000 0.000000 0.000000 0.000000 0.043333
#
#
# Mechanical properties :
#
#
# Convention : Reuss Voigt Hill
#
# Bulk Modulus (GPa) = 36.94551 52.32552 44.63552
# Shear Modulus (GPa) = 19.61154 23.78660 21.69907
#
# Velocity S-wave (km/s) = 3.34943 3.68876 3.52318
# Velocity P-wave (km/s) = 6.00772 6.93362 6.48721
#
# Compressibility (1/GPa) = 0.02706689
#
# Stress axis : x y z
#
# Youngs Moduli (GPa) = 48.15777 22.35205 81.09450
#
# Poissons Ratio (x) = 0.26518 0.32179
# Poissons Ratio (y) = 0.57133 0.77464
# Poissons Ratio (z) = 0.19109 0.21351
#
# Static dielectric constant tensor:
#      x y z
#    x 1.559530 0.000000 0.000000 
#    y 0.000000 1.586400 0.000000 
#    z 0.000000 0.000000 1.620720 
# 
# From -- ./inp_files/21404.got.cif
#   From: 2010.05.17/outbox.cif.g08.bks.cpg/sg38_11_cif.got.tgz:21404.got - 2010.06.03 18:07:57.
