data_PCOD9358268
_publ_section_title
;
Structure prediction by ZEFSAII (Michael W. Deem and Ramdas Pophale) SiO2 
 PCOD9358268
Probable space group: A M M 2
;
_chemical_formula_sum "Si O2"
_cell_formula_units_Z 58
_cell_length_a 14.935862
_cell_length_b 15.185023
_cell_length_c 11.642634
_cell_angle_alpha 90.000000
_cell_angle_beta 90.000000
_cell_angle_gamma 90.000000
_cell_volume 2640.565784
_symmetry_space_group_name_H-M "A M M 2"
_symmetry_group_IT_number 38
_symmetry_cell_setting 'orthorhombic'
loop_
_space_group_symop_operation_xyz
x,y,z
-x,-y,z
-x,y,z
x,-y,z
x,1/2+y,1/2+z
-x,1/2-y,1/2+z
-x,1/2+y,1/2+z
x,1/2-y,1/2+z
loop_
_atom_site_type_symbol
_atom_site_label
_atom_site_fract_x
_atom_site_fract_y
_atom_site_fract_z
Si Si1 0.710536 0.154151 0.181120
Si Si2 0.097665 0.601947 0.647743
Si Si3 0.657478 0.131635 0.927724
Si Si4 0.161557 0.903399 0.786057
Si Si5 0.753401 0.839636 0.567952
Si Si6 0.500000 0.500000 0.369403
Si Si7 0.394719 0.662004 0.907726
Si Si8 0.097121 0.760252 0.937739
O O1 0.810534 0.122589 0.213243
O O2 0.720396 0.257464 0.147580
O O3 0.641775 0.136486 0.282658
O O4 0.677334 0.111754 0.061772
O O5 0.101190 0.500000 0.613099
O O6 0.100309 0.665032 0.537381
O O7 0.000000 0.616189 0.704539
O O8 0.747963 0.109788 0.859979
O O9 0.629132 0.233910 0.919271
O O10 0.578033 0.075459 0.877100
O O11 0.189615 0.898378 0.653712
O O12 0.105741 0.817179 0.821765
O O13 0.122449 0.000000 0.812045
O O14 0.667208 0.880492 0.506417
O O15 0.819632 0.801080 0.470020
O O16 0.500000 0.647132 0.921105
O O17 0.000000 0.716558 0.944831
#
# Coordination Sequence:
#
# PCOD9358268 Si02
#       8
#     8   8   8   8   8   2   8   8
#     4  10  20  35  60  86 121 161 213 264 311 375
#     4   9  17  31  54  87 122 157 198 250 311 368
#     4  11  22  36  57  87 119 158 203 267 324 379
#     4  12  22  39  65  93 130 164 204 266 325 381
#     4  10  21  40  58  88 125 166 207 257 315 381
#     4  12  24  36  52  92 128 148 206 268 356 378
#     4  11  22  40  61  85 115 164 221 259 305 376
#     4  10  20  36  61  92 126 164 207 252 307 377
#
# _framework density 21.964988999999999
#
# number of rings (size 3 to 8) (size 9 to 14) (size 15 to 20)
#    0.000    1.517    6.897    0.414    1.931    1.931 
#    1.241    4.138    0.000    0.828    0.000    0.000 
#    0.000    0.000    0.000    0.000    0.000    0.000 
#
# Total GULP energy -161723.118959 kJ/mol
# GULP energy per Si atom -5576.659274 kJ/mol
# Density = 2.191500 g / cm^3
# Si number density = 21.964989 Si / 1000 Ang^3
#
#
#
# Elastic Constant Matrix: (Units=GPa)
#
#
# Indices 1 2 3 4 5 6 
#
# 1 162.0917 -6.2655 33.3223 0.0000 0.0000 0.0000
# 2 -6.2655 26.2557 7.0513 0.0000 0.0000 0.0000
# 3 33.3223 7.0513 88.5382 0.0000 0.0000 0.0000
# 4 0.0000 0.0000 0.0000 4.3963 0.0000 0.0000
# 5 0.0000 0.0000 0.0000 0.0000 23.3187 0.0000
# 6 0.0000 0.0000 0.0000 0.0000 0.0000 12.8186
#
#
#
# Elastic Compliance Matrix: (Units=1/GPa)
#
#
# Indices 1 2 3 4 5 6 
#
# 1 0.006828 0.002370 -0.002759 0.000000 0.000000 0.000000
# 2 0.002370 0.039742 -0.004057 0.000000 0.000000 0.000000
# 3 -0.002759 -0.004057 0.012656 0.000000 0.000000 0.000000
# 4 0.000000 0.000000 0.000000 0.227464 0.000000 0.000000
# 5 0.000000 0.000000 0.000000 0.000000 0.042884 0.000000
# 6 0.000000 0.000000 0.000000 0.000000 0.000000 0.078012
#
#
# Mechanical properties :
#
#
# Convention : Reuss Voigt Hill
#
# Bulk Modulus (GPa) = 19.86682 38.34462 29.10572
# Shear Modulus (GPa) = 11.54053 24.29188 17.91620
#
# Velocity S-wave (km/s) = 2.29466 3.32917 2.85909
# Velocity P-wave (km/s) = 4.01061 5.68092 4.91721
#
# Compressibility (1/GPa) = 0.05033518
#
# Stress axis : x y z
#
# Youngs Moduli (GPa) = 146.45427 25.16213 79.01445
#
# Poissons Ratio (x) = -0.05964 0.21797
# Poissons Ratio (y) = -0.34714 0.32058
# Poissons Ratio (z) = 0.40401 0.10209
#
# Static dielectric constant tensor:
#      x y z
#    x 1.806920 0.000000 0.000000 
#    y 0.000000 1.823460 0.000000 
#    z 0.000000 0.000000 1.836280 
# 
# From -- ./inp_files/10224.got.cif
#   From: 2010.05.17/outbox.cif.g08.bks.cpg/sg38_6_cif.got.tgz:10224.got - 2010.06.03 18:07:57.
