data_PCOD9358002
_publ_section_title
;
Structure prediction by ZEFSAII (Michael W. Deem and Ramdas Pophale) SiO2 
 PCOD9358002
Probable space group: A M M 2
;
_chemical_formula_sum "Si O2"
_cell_formula_units_Z 56
_cell_length_a 19.969779
_cell_length_b 8.331040
_cell_length_c 16.438516
_cell_angle_alpha 90.000000
_cell_angle_beta 90.000000
_cell_angle_gamma 90.000000
_cell_volume 2734.859923
_symmetry_space_group_name_H-M "A M M 2"
_symmetry_group_IT_number 38
_symmetry_cell_setting 'orthorhombic'
loop_
_space_group_symop_operation_xyz
x,y,z
-x,-y,z
-x,y,z
x,-y,z
x,1/2+y,1/2+z
-x,1/2-y,1/2+z
-x,1/2+y,1/2+z
x,1/2-y,1/2+z
loop_
_atom_site_type_symbol
_atom_site_label
_atom_site_fract_x
_atom_site_fract_y
_atom_site_fract_z
Si Si1 0.284282 0.309615 0.089640
Si Si2 0.922318 0.196198 0.997970
Si Si3 0.572593 0.194467 0.340551
Si Si4 0.286540 0.805962 0.406650
Si Si5 0.847297 0.310366 0.660716
Si Si6 0.847292 0.190914 0.835142
Si Si7 0.574035 0.192968 0.147703
O O1 0.274351 0.500000 0.094837
O O2 0.231377 0.227753 0.149192
O O3 0.361512 0.270841 0.107299
O O4 0.269062 0.253386 0.997927
O O5 0.888158 0.252296 0.913886
O O6 0.000000 0.241804 0.000389
O O7 0.919086 0.000000 0.997890
O O8 0.884376 0.252698 0.079546
O O9 0.500000 0.253655 0.370550
O O10 0.639475 0.254032 0.383584
O O11 0.577034 0.227858 0.244304
O O12 0.572133 0.000000 0.348570
O O13 0.228950 0.748254 0.346880
O O14 0.287882 0.000000 0.405343
O O15 0.856520 0.500000 0.662811
O O16 0.872183 0.243268 0.746609
O O17 0.848655 0.000000 0.838143
O O18 0.500000 0.244871 0.118209
O O19 0.578128 0.000000 0.138581
#
# Coordination Sequence:
#
# PCOD9358002 Si02
#       7
#     8   8   8   8   8   8   8
#     4  11  22  34  53  83 117 151 197 255 302 349
#     4   9  20  40  64  90 122 159 196 236 292 361
#     4   8  15  30  51  73  98 136 187 237 285 339
#     4  10  20  34  55  82 113 150 194 245 295 353
#     4  11  22  39  63  88 119 162 202 241 294 357
#     4  11  22  38  62  91 121 155 196 246 297 351
#     4   9  18  33  53  76 106 149 200 248 298 360
#
# _framework density 20.476368000000001
#
# number of rings (size 3 to 8) (size 9 to 14) (size 15 to 20)
#    0.000    2.143    1.429    3.000    0.000    3.143 
#    0.000    1.429    0.000    7.286    0.000    0.000 
#    0.000    0.000    0.000    0.000    0.000    0.000 
#
# Total GULP energy -156314.617870 kJ/mol
# GULP energy per Si atom -5582.664924 kJ/mol
# Density = 2.042976 g / cm^3
# Si number density = 20.476368 Si / 1000 Ang^3
#
#
#
# Elastic Constant Matrix: (Units=GPa)
#
#
# Indices 1 2 3 4 5 6 
#
# 1 112.3380 1.5374 56.2868 0.0000 0.0000 0.0000
# 2 1.5374 8.1382 15.2146 0.0000 0.0000 0.0000
# 3 56.2868 15.2146 132.1270 0.0000 0.0000 0.0000
# 4 0.0000 0.0000 0.0000 21.4577 0.0000 0.0000
# 5 0.0000 0.0000 0.0000 0.0000 19.0835 0.0000
# 6 0.0000 0.0000 0.0000 0.0000 0.0000 12.8371
#
#
#
# Elastic Compliance Matrix: (Units=1/GPa)
#
#
# Indices 1 2 3 4 5 6 
#
# 1 0.011830 0.009158 -0.006094 0.000000 0.000000 0.000000
# 2 0.009158 0.163677 -0.022749 0.000000 0.000000 0.000000
# 3 -0.006094 -0.022749 0.012784 0.000000 0.000000 0.000000
# 4 0.000000 0.000000 0.000000 0.046603 0.000000 0.000000
# 5 0.000000 0.000000 0.000000 0.000000 0.052401 0.000000
# 6 0.000000 0.000000 0.000000 0.000000 0.000000 0.077899
#
#
# Mechanical properties :
#
#
# Convention : Reuss Voigt Hill
#
# Bulk Modulus (GPa) = 6.71495 44.29786 25.50640
# Shear Modulus (GPa) = 11.00824 22.64664 16.82744
#
# Velocity S-wave (km/s) = 2.32115 3.32925 2.86981
# Velocity P-wave (km/s) = 3.23576 6.03814 4.84403
#
# Compressibility (1/GPa) = 0.14892149
#
# Stress axis : x y z
#
# Youngs Moduli (GPa) = 84.53193 6.10958 78.22146
#
# Poissons Ratio (x) = -0.05595 0.47670
# Poissons Ratio (y) = -0.77418 1.77947
# Poissons Ratio (z) = 0.51515 0.13899
#
# Static dielectric constant tensor:
#      x y z
#    x 1.725190 0.000000 0.000000 
#    y 0.000000 1.706790 0.000000 
#    z 0.000000 0.000000 1.743400 
# 
# From -- ./inp_files/15501.got.cif
#   From: 2010.05.17/outbox.cif.g08.bks.cpg/sg38_8_cif.got.tgz:15501.got - 2010.06.03 18:07:57.
