data_PCOD9358819
_publ_section_title
;
Structure prediction by ZEFSAII (Michael W. Deem and Ramdas Pophale) SiO2 
 PCOD9358819
Probable space group: A M M 2
;
_chemical_formula_sum "Si O2"
_cell_formula_units_Z 48
_cell_length_a 7.757067
_cell_length_b 23.760375
_cell_length_c 12.113656
_cell_angle_alpha 90.000000
_cell_angle_beta 90.000000
_cell_angle_gamma 90.000000
_cell_volume 2232.677880
_symmetry_space_group_name_H-M "A M M 2"
_symmetry_group_IT_number 38
_symmetry_cell_setting 'orthorhombic'
loop_
_space_group_symop_operation_xyz
x,y,z
-x,-y,z
-x,y,z
x,-y,z
x,1/2+y,1/2+z
-x,1/2-y,1/2+z
-x,1/2+y,1/2+z
x,1/2-y,1/2+z
loop_
_atom_site_type_symbol
_atom_site_label
_atom_site_fract_x
_atom_site_fract_y
_atom_site_fract_z
Si Si1 0.692366 0.147261 0.230470
Si Si2 0.795583 0.766352 0.410867
Si Si3 0.791325 0.149547 0.599365
Si Si4 0.792895 0.564491 0.918530
Si Si5 0.787761 0.644524 0.350203
Si Si6 0.794625 0.063684 0.036074
O O1 0.500000 0.163645 0.200401
O O2 0.773244 0.201078 0.293546
O O3 0.698834 0.101100 0.327624
O O4 0.767591 0.112282 0.128046
O O5 0.726003 0.802820 0.513784
O O6 0.730065 0.703002 0.405698
O O7 0.000000 0.763049 0.428002
O O8 0.757368 0.091078 0.537181
O O9 0.728583 0.147849 0.723828
O O10 0.000000 0.156192 0.604771
O O11 0.747382 0.500000 0.910932
O O12 0.000000 0.570699 0.898138
O O13 0.730642 0.590926 0.421478
O O14 0.000000 0.643849 0.349769
O O15 0.000000 0.057969 0.027651
O O16 0.727405 0.000000 0.060461
#
# Coordination Sequence:
#
# PCOD9358819 Si02
#       6
#     8   8   8   8   8   8
#     4  11  22  35  53  78 108 144 183 228 274 320
#     4   9  18  33  56  81 107 139 179 226 274 325
#     4   8  15  28  47  78 107 131 169 217 267 317
#     4   9  17  31  53  78 105 138 175 220 270 317
#     4   9  18  31  54  83 110 142 178 220 270 326
#     4  10  21  36  55  82 114 147 185 227 272 325
#
# _framework density 21.498849
#
# number of rings (size 3 to 8) (size 9 to 14) (size 15 to 20)
#    0.000    2.667    0.000    3.000    2.333    3.333 
#    0.000    4.167    0.000    4.000    0.000    4.667 
#    0.000    0.000    0.000    0.000    0.000    0.000 
#
# Total GULP energy -133789.608417 kJ/mol
# GULP energy per Si atom -5574.567017 kJ/mol
# Density = 2.144992 g / cm^3
# Si number density = 21.498849 Si / 1000 Ang^3
#
#
#
# Elastic Constant Matrix: (Units=GPa)
#
#
# Indices 1 2 3 4 5 6 
#
# 1 20.8684 1.8022 -1.2877 0.0000 0.0000 0.0000
# 2 1.8022 55.8323 12.2310 0.0000 0.0000 0.0000
# 3 -1.2877 12.2310 102.9396 0.0000 0.0000 0.0000
# 4 0.0000 0.0000 0.0000 13.5986 0.0000 0.0000
# 5 0.0000 0.0000 0.0000 0.0000 -61.7474 0.0000
# 6 0.0000 0.0000 0.0000 0.0000 0.0000 -11.8387
#
#
#
# Elastic Compliance Matrix: (Units=1/GPa)
#
#
# Indices 1 2 3 4 5 6 
#
# 1 0.048119 -0.001730 0.000808 0.000000 0.000000 0.000000
# 2 -0.001730 0.018452 -0.002214 0.000000 0.000000 0.000000
# 3 0.000808 -0.002214 0.009988 0.000000 0.000000 0.000000
# 4 0.000000 0.000000 0.000000 0.073537 0.000000 0.000000
# 5 0.000000 0.000000 0.000000 0.000000 -0.016195 0.000000
# 6 0.000000 0.000000 0.000000 0.000000 0.000000 -0.084468
#
#
# Mechanical properties :
#
#
# Convention : Reuss Voigt Hill
#
# Bulk Modulus (GPa) = 14.22787 22.79236 18.51011
# Shear Modulus (GPa) = 63.18501 -0.87119 31.15691
#
# Velocity S-wave (km/s) = 5.42713 -0.63726 3.81101
# Velocity P-wave (km/s) = 6.77525 3.17541 5.29090
#
# Compressibility (1/GPa) = 0.07028460
#
# Stress axis : x y z
#
# Youngs Moduli (GPa) = 20.78196 54.19575 100.12417
#
# Poissons Ratio (x) = 0.09377 -0.08085
# Poissons Ratio (y) = 0.03596 0.22168
# Poissons Ratio (z) = -0.01678 0.11999
#
# Static dielectric constant tensor:
#      x y z
#    x 1.871160 0.000000 0.000000 
#    y 0.000000 1.796700 0.000000 
#    z 0.000000 0.000000 1.785890 
# 
# From -- ./inp_files/8234.got.cif
#   From: 2010.05.17/outbox.cif.g08.bks.cpg/sg38_5_cif.got.tgz:8234.got - 2010.06.03 18:07:57.
