data_PCOD9358595
_publ_section_title
;
Structure prediction by ZEFSAII (Michael W. Deem and Ramdas Pophale) SiO2 
 PCOD9358595
Probable space group: A M M 2
;
_chemical_formula_sum "Si O2"
_cell_formula_units_Z 60
_cell_length_a 22.098525
_cell_length_b 13.647767
_cell_length_c 7.169164
_cell_angle_alpha 90.000000
_cell_angle_beta 90.000000
_cell_angle_gamma 90.000000
_cell_volume 2162.187746
_symmetry_space_group_name_H-M "A M M 2"
_symmetry_group_IT_number 38
_symmetry_cell_setting 'orthorhombic'
loop_
_space_group_symop_operation_xyz
x,y,z
-x,-y,z
-x,y,z
x,-y,z
x,1/2+y,1/2+z
-x,1/2-y,1/2+z
-x,1/2+y,1/2+z
x,1/2-y,1/2+z
loop_
_atom_site_type_symbol
_atom_site_label
_atom_site_fract_x
_atom_site_fract_y
_atom_site_fract_z
Si Si1 0.378066 0.388570 0.767310
Si Si2 0.410009 0.891247 0.823801
Si Si3 0.799984 0.117056 0.050649
Si Si4 0.933522 0.882303 0.019035
Si Si5 0.936442 0.882657 0.461527
Si Si6 0.292589 0.698994 0.264713
Si Si7 0.805178 0.883494 0.494553
Si Si8 0.500000 0.708335 0.836004
O O1 0.356134 0.500000 0.805277
O O2 0.396134 0.385529 0.546514
O O3 0.328315 0.302191 0.795771
O O4 0.443396 0.367994 0.864296
O O5 0.433862 0.000000 0.788466
O O6 0.347544 0.874455 0.718206
O O7 0.449958 0.795926 0.787776
O O8 0.865328 0.149500 0.966510
O O9 0.799143 0.134783 0.273174
O O10 0.798395 0.000000 0.029401
O O11 0.741524 0.157204 0.946299
O O12 0.935018 0.862264 0.241233
O O13 0.000000 0.850985 0.945036
O O14 0.933146 0.000000 0.993624
O O15 0.873453 0.854174 0.549057
O O16 0.000000 0.847144 0.539877
O O17 0.936845 0.000000 0.475984
O O18 0.241331 0.822515 0.613368
O O19 0.797719 0.000000 0.526140
#
# Coordination Sequence:
#
# PCOD9358595 Si02
#       8
#     8   8   8   8   8   8   8   4
#     4  10  23  45  74 106 147 201 253 306 368 428
#     4  10  21  41  72 109 150 195 237 291 362 433
#     4   9  17  31  55  93 145 204 257 314 389 460
#     4   7  10  19  39  72 124 192 254 304 371 462
#     4   7  10  19  39  72 125 193 251 302 374 459
#     4  11  22  39  67 101 143 198 257 310 365 436
#     4   9  17  31  55  94 145 201 259 316 381 463
#     4  10  20  38  76 118 146 184 240 292 348 432
#
# _framework density 27.749670999999999
#
# number of rings (size 3 to 8) (size 9 to 14) (size 15 to 20)
#    0.000    2.933    0.000    4.400    0.000    1.067 
#    4.800    0.667    0.000   41.600    0.000    0.000 
#    0.000    6.400    0.000   19.200    0.000   16.667 
#
# Total GULP energy -167398.770750 kJ/mol
# GULP energy per Si atom -5579.959025 kJ/mol
# Density = 2.768651 g / cm^3
# Si number density = 27.749671 Si / 1000 Ang^3
#
#
#
# Elastic Constant Matrix: (Units=GPa)
#
#
# Indices 1 2 3 4 5 6 
#
# 1 292.1370 64.6778 39.9935 0.0000 0.0000 0.0000
# 2 64.6778 204.9273 24.5352 0.0000 0.0000 0.0000
# 3 39.9935 24.5352 97.8592 0.0000 0.0000 0.0000
# 4 0.0000 0.0000 0.0000 18.3483 0.0000 0.0000
# 5 0.0000 0.0000 0.0000 0.0000 75.2434 0.0000
# 6 0.0000 0.0000 0.0000 0.0000 0.0000 69.5871
#
#
#
# Elastic Compliance Matrix: (Units=1/GPa)
#
#
# Indices 1 2 3 4 5 6 
#
# 1 0.003835 -0.001054 -0.001303 0.000000 0.000000 0.000000
# 2 -0.001054 0.005321 -0.000903 0.000000 0.000000 0.000000
# 3 -0.001303 -0.000903 0.010978 0.000000 0.000000 0.000000
# 4 0.000000 0.000000 0.000000 0.054501 0.000000 0.000000
# 5 0.000000 0.000000 0.000000 0.000000 0.013290 0.000000
# 6 0.000000 0.000000 0.000000 0.000000 0.000000 0.014370
#
#
# Mechanical properties :
#
#
# Convention : Reuss Voigt Hill
#
# Bulk Modulus (GPa) = 73.46188 94.81516 84.13852
# Shear Modulus (GPa) = 44.10995 63.68355 53.89675
#
# Velocity S-wave (km/s) = 3.99126 4.79574 4.41188
# Velocity P-wave (km/s) = 6.91164 8.05653 7.50595
#
# Compressibility (1/GPa) = 0.01361250
#
# Stress axis : x y z
#
# Youngs Moduli (GPa) = 260.76689 187.94638 91.09405
#
# Poissons Ratio (x) = 0.19816 0.11869
# Poissons Ratio (y) = 0.27494 0.08227
# Poissons Ratio (z) = 0.33975 0.16973
#
# Static dielectric constant tensor:
#      x y z
#    x 2.184000 0.000000 0.000000 
#    y 0.000000 2.129350 0.000000 
#    z 0.000000 0.000000 2.325670 
# 
# From -- ./inp_files/10808.got.cif
#   From: 2010.05.17/outbox.cif.g08.bks.cpg/sg38_6_cif.got.tgz:10808.got - 2010.06.03 18:07:57.
