data_PCOD9358916
_publ_section_title
;
Structure prediction by ZEFSAII (Michael W. Deem and Ramdas Pophale) SiO2 
 PCOD9358916
Probable space group: A M M 2
;
_chemical_formula_sum "Si O2"
_cell_formula_units_Z 64
_cell_length_a 20.708012
_cell_length_b 8.808967
_cell_length_c 19.023244
_cell_angle_alpha 90.000000
_cell_angle_beta 90.000000
_cell_angle_gamma 90.000000
_cell_volume 3470.147775
_symmetry_space_group_name_H-M "A M M 2"
_symmetry_group_IT_number 38
_symmetry_cell_setting 'orthorhombic'
loop_
_space_group_symop_operation_xyz
x,y,z
-x,-y,z
-x,y,z
x,-y,z
x,1/2+y,1/2+z
-x,1/2-y,1/2+z
-x,1/2+y,1/2+z
x,1/2-y,1/2+z
loop_
_atom_site_type_symbol
_atom_site_label
_atom_site_fract_x
_atom_site_fract_y
_atom_site_fract_z
Si Si1 0.311717 0.319541 0.117350
Si Si2 0.688283 0.680459 0.772653
Si Si3 0.424297 0.318295 0.526725
Si Si4 0.073502 0.682896 0.271485
Si Si5 0.804678 0.683574 0.526624
Si Si6 0.073502 0.682896 0.618520
Si Si7 0.575703 0.181704 0.863276
Si Si8 0.804677 0.816427 0.863380
O O1 0.308031 0.500000 0.121692
O O2 0.308652 0.250000 0.195002
O O3 0.377322 0.268382 0.078766
O O4 0.252905 0.255813 0.070933
O O5 0.691971 0.500000 0.768311
O O6 0.622678 0.731615 0.811237
O O7 0.747094 0.744188 0.819071
O O8 0.500000 0.285715 0.538785
O O9 0.415184 0.500000 0.534908
O O10 0.409591 0.281647 0.445001
O O11 0.074288 0.500000 0.266460
O O12 0.089426 0.750000 0.195003
O O13 0.127172 0.727285 0.328056
O O14 0.000000 0.729583 0.289392
O O15 0.799031 0.500000 0.530313
O O16 0.872829 0.727287 0.561949
O O17 0.801549 0.727409 0.445002
O O18 0.074289 0.500000 0.623545
O O19 0.000000 0.729582 0.600614
O O20 0.500000 0.214281 0.851217
O O21 0.584818 0.000000 0.855093
O O22 0.799029 0.000000 0.859692
#
# Coordination Sequence:
#
# PCOD9358916 Si02
#       8
#     8   8   8   8   8   8   8   8
#     4  12  25  39  57  81 111 147 187 231 276 325
#     4  12  25  39  57  81 111 147 187 231 276 325
#     4   9  19  38  63  88 115 147 181 220 270 327
#     4   9  18  33  54  80 109 143 183 225 271 324
#     4  10  21  37  57  81 111 146 183 227 278 330
#     4   9  18  33  54  80 109 143 183 225 271 324
#     4   9  19  38  63  88 115 147 181 220 270 327
#     4  10  21  37  57  81 111 146 183 227 278 330
#
# _framework density 18.443017999999999
#
# number of rings (size 3 to 8) (size 9 to 14) (size 15 to 20)
#    0.000    2.000    0.000    4.500    0.000    8.500 
#    0.000    3.750    0.000    0.000    0.000    5.250 
#    0.000    0.000    0.000    0.000    0.000    0.000 
#
# Total GULP energy -178772.096325 kJ/mol
# GULP energy per Si atom -5586.628010 kJ/mol
# Density = 1.840104 g / cm^3
# Si number density = 18.443018 Si / 1000 Ang^3
#
#
#
# Elastic Constant Matrix: (Units=GPa)
#
#
# Indices 1 2 3 4 5 6 
#
# 1 114.6950 57.1877 117.7826 0.0000 0.0000 0.0000
# 2 57.1877 48.6474 70.4817 0.0000 0.0000 0.0000
# 3 117.7826 70.4817 187.0209 0.0000 0.0000 0.0000
# 4 0.0000 0.0000 0.0000 30.3106 0.0000 0.0000
# 5 0.0000 0.0000 0.0000 0.0000 40.0479 0.0000
# 6 0.0000 0.0000 0.0000 0.0000 0.0000 4.8931
#
#
#
# Elastic Compliance Matrix: (Units=1/GPa)
#
#
# Indices 1 2 3 4 5 6 
#
# 1 0.030212 -0.017509 -0.012428 0.000000 0.000000 0.000000
# 2 -0.017509 0.055427 -0.009861 0.000000 0.000000 0.000000
# 3 -0.012428 -0.009861 0.016891 0.000000 0.000000 0.000000
# 4 0.000000 0.000000 0.000000 0.032992 0.000000 0.000000
# 5 0.000000 0.000000 0.000000 0.000000 0.024970 0.000000
# 6 0.000000 0.000000 0.000000 0.000000 0.000000 0.204371
#
#
# Mechanical properties :
#
#
# Convention : Reuss Voigt Hill
#
# Bulk Modulus (GPa) = 43.60867 93.47415 68.54141
# Shear Modulus (GPa) = 11.05941 22.04439 16.55190
#
# Velocity S-wave (km/s) = 2.45144 3.46102 2.99902
# Velocity P-wave (km/s) = 5.63109 8.17094 7.01689
#
# Compressibility (1/GPa) = 0.02293122
#
# Stress axis : x y z
#
# Youngs Moduli (GPa) = 33.09948 18.04184 59.20486
#
# Poissons Ratio (x) = 0.31590 0.73582
# Poissons Ratio (y) = 0.57955 0.58384
# Poissons Ratio (z) = 0.41137 0.17792
#
# Static dielectric constant tensor:
#      x y z
#    x 1.632650 0.000000 0.000000 
#    y 0.000000 1.619970 0.000000 
#    z 0.000000 0.000000 1.599530 
# 
# From -- ./inp_files/18982.got.cif
#   From: 2010.05.17/outbox.cif.g08.bks.cpg/sg38_10_cif.got.tgz:18982.got - 2010.06.03 18:07:57.
