data_PCOD9359807
_publ_section_title
;
Structure prediction by ZEFSAII (Michael W. Deem and Ramdas Pophale) SiO2 
 PCOD9359807
Probable space group: A B M 2
;
_chemical_formula_sum "Si O2"
_cell_formula_units_Z 28
_cell_length_a 7.219866
_cell_length_b 5.538449
_cell_length_c 30.871531
_cell_angle_alpha 90.000000
_cell_angle_beta 90.000000
_cell_angle_gamma 90.000000
_cell_volume 1234.455577
_symmetry_space_group_name_H-M "A B M 2"
_symmetry_group_IT_number 39
_symmetry_cell_setting 'orthorhombic'
loop_
_space_group_symop_operation_xyz
x,y,z
-x,-y,z
-x,1/2+y,z
x,1/2-y,z
x,1/2+y,1/2+z
-x,1/2-y,1/2+z
-x,y,1/2+z
x,-y,1/2+z
loop_
_atom_site_type_symbol
_atom_site_label
_atom_site_fract_x
_atom_site_fract_y
_atom_site_fract_z
Si Si1 0.216266 0.750000 0.373461
Si Si2 0.209656 0.250000 0.338248
Si Si3 0.727235 0.750000 0.236480
Si Si4 0.882562 0.750000 0.971498
Si Si5 0.699053 0.250000 0.099674
Si Si6 0.717987 0.250000 0.564655
Si Si7 0.306317 0.750000 0.202203
O O1 0.293920 0.499637 0.355400
O O2 0.218126 0.750000 0.425227
O O3 0.001415 0.750000 0.356569
O O4 0.220910 0.250000 0.286633
O O5 0.504828 0.750000 0.226971
O O6 0.790415 0.498599 0.215517
O O7 0.000000 0.500000 0.972842
O O8 0.754626 0.750000 0.013710
O O9 0.791341 0.500613 0.085253
O O10 0.499718 0.250000 0.076036
O O11 0.663268 0.250000 0.150862
#
# Coordination Sequence:
#
# PCOD9359807 Si02
#       7
#     4   4   4   4   4   4   4
#     4  10  19  35  52  76  98 139 183 216 259 325
#     4  10  18  32  53  76 102 132 179 222 260 306
#     4  10  18  29  51  84 105 132 175 225 261 311
#     4  12  21  37  57  87 108 145 200 222 277 326
#     4  10  19  38  57  87 109 149 188 216 293 326
#     4  10  20  32  59  85 111 141 189 237 261 339
#     4  10  19  33  55  83 105 140 182 214 267 337
#
# _framework density 22.682065000000001
#
# number of rings (size 3 to 8) (size 9 to 14) (size 15 to 20)
#    0.000    1.714    2.857    6.000    0.000    0.000 
#    0.000    0.000    0.000   20.571  126.286    0.000 
#    0.000    0.000    0.000    0.000    0.000    0.000 
#
# Total GULP energy -78207.018625 kJ/mol
# GULP energy per Si atom -5586.215616 kJ/mol
# Density = 2.263044 g / cm^3
# Si number density = 22.682065 Si / 1000 Ang^3
#
#
#
# Elastic Constant Matrix: (Units=GPa)
#
#
# Indices 1 2 3 4 5 6 
#
# 1 73.2667 13.8500 -4.5396 0.0000 0.0000 0.0000
# 2 13.8500 288.7958 59.9839 0.0000 0.0000 0.0000
# 3 -4.5396 59.9839 169.5021 0.0000 0.0000 0.0000
# 4 0.0000 0.0000 0.0000 53.1993 0.0000 0.0000
# 5 0.0000 0.0000 0.0000 0.0000 36.6866 0.0000
# 6 0.0000 0.0000 0.0000 0.0000 0.0000 -21.9594
#
#
#
# Elastic Compliance Matrix: (Units=1/GPa)
#
#
# Indices 1 2 3 4 5 6 
#
# 1 0.013840 -0.000800 0.000654 0.000000 0.000000 0.000000
# 2 -0.000800 0.003784 -0.001360 0.000000 0.000000 0.000000
# 3 0.000654 -0.001360 0.006399 0.000000 0.000000 0.000000
# 4 0.000000 0.000000 0.000000 0.018797 0.000000 0.000000
# 5 0.000000 0.000000 0.000000 0.000000 0.027258 0.000000
# 6 0.000000 0.000000 0.000000 0.000000 0.000000 -0.045538
#
#
# Mechanical properties :
#
#
# Convention : Reuss Voigt Hill
#
# Bulk Modulus (GPa) = 47.59642 74.46146 61.02894
# Shear Modulus (GPa) = 144.69693 44.40331 94.55012
#
# Velocity S-wave (km/s) = 7.99575 4.42932 6.46339
# Velocity P-wave (km/s) = 10.30885 7.68493 9.09205
#
# Compressibility (1/GPa) = 0.02100998
#
# Stress axis : x y z
#
# Youngs Moduli (GPa) = 72.25229 264.30237 156.28568
#
# Poissons Ratio (x) = 0.21131 -0.10215
# Poissons Ratio (y) = 0.05777 0.21260
# Poissons Ratio (z) = -0.04722 0.35954
#
# Static dielectric constant tensor:
#      x y z
#    x 1.815790 0.000000 0.000000 
#    y 0.000000 1.617100 0.000000 
#    z 0.000000 0.000000 1.750320 
# 
# From -- ./inp_files/15417.got.cif
#   From: 2010.05.17/outbox.cif.g08.bks.cpg/sg39_8_cif.got.tgz:15417.got - 2010.06.03 18:22:40.
