data_PCOD9359415
_publ_section_title
;
Structure prediction by ZEFSAII (Michael W. Deem and Ramdas Pophale) SiO2 
 PCOD9359415
Probable space group: A M M 2
;
_chemical_formula_sum "Si O2"
_cell_formula_units_Z 40
_cell_length_a 8.659326
_cell_length_b 11.937719
_cell_length_c 20.500585
_cell_angle_alpha 90.000000
_cell_angle_beta 90.000000
_cell_angle_gamma 90.000000
_cell_volume 2119.198784
_symmetry_space_group_name_H-M "A M M 2"
_symmetry_group_IT_number 38
_symmetry_cell_setting 'orthorhombic'
loop_
_space_group_symop_operation_xyz
x,y,z
-x,-y,z
-x,y,z
x,-y,z
x,1/2+y,1/2+z
-x,1/2-y,1/2+z
-x,1/2+y,1/2+z
x,1/2-y,1/2+z
loop_
_atom_site_type_symbol
_atom_site_label
_atom_site_fract_x
_atom_site_fract_y
_atom_site_fract_z
Si Si1 0.180886 0.500000 0.167560
Si Si2 0.685147 0.758400 0.651084
Si Si3 0.182305 0.500000 0.323865
Si Si4 0.684845 0.216543 0.894994
Si Si5 0.184833 0.869762 0.027209
Si Si6 0.688144 0.872458 0.280408
O O1 0.255982 0.614994 0.143124
O O2 0.197978 0.500000 0.246109
O O3 0.000000 0.500000 0.151693
O O4 0.500000 0.758444 0.650770
O O5 0.746058 0.680336 0.593240
O O6 0.738509 0.706453 0.720517
O O7 0.262847 0.391852 0.354169
O O8 0.000000 0.500000 0.340884
O O9 0.500000 0.218183 0.901521
O O10 0.734139 0.321104 0.850083
O O11 0.758523 0.202762 0.965831
O O12 0.000000 0.867059 0.030291
O O13 0.232871 0.000000 0.017952
O O14 0.500000 0.872383 0.279253
O O15 0.740231 0.000000 0.271320
#
# Coordination Sequence:
#
# PCOD9359415 Si02
#       6
#     4   8   4   8   8   8
#     4  11  23  39  61  89 125 160 195 246 309 371
#     4  11  22  39  64  91 119 156 205 254 299 357
#     4  11  21  35  59  89 123 154 189 244 305 363
#     4  11  21  36  62  90 118 154 201 251 297 356
#     4  11  24  41  60  86 123 162 200 248 306 366
#     4   9  19  36  59  89 121 151 192 248 301 351
#
# _framework density 18.875057000000002
#
# number of rings (size 3 to 8) (size 9 to 14) (size 15 to 20)
#    0.000    1.400    3.000    3.000    0.000    2.800 
#    1.800    0.000    0.000    5.400    0.000    0.000 
#    0.000    0.000    0.000    0.000    0.000    0.000 
#
# Total GULP energy -111744.454327 kJ/mol
# GULP energy per Si atom -5587.222716 kJ/mol
# Density = 1.883210 g / cm^3
# Si number density = 18.875057 Si / 1000 Ang^3
#
#
#
# Elastic Constant Matrix: (Units=GPa)
#
#
# Indices 1 2 3 4 5 6 
#
# 1 52.2045 19.4371 33.1737 0.0000 0.0000 0.0000
# 2 19.4371 108.9851 43.7664 0.0000 0.0000 0.0000
# 3 33.1737 43.7664 112.1557 0.0000 0.0000 0.0000
# 4 0.0000 0.0000 0.0000 44.9771 0.0000 0.0000
# 5 0.0000 0.0000 0.0000 0.0000 29.3349 0.0000
# 6 0.0000 0.0000 0.0000 0.0000 0.0000 20.6224
#
#
#
# Elastic Compliance Matrix: (Units=1/GPa)
#
#
# Indices 1 2 3 4 5 6 
#
# 1 0.023847 -0.001684 -0.006396 0.000000 0.000000 0.000000
# 2 -0.001684 0.011000 -0.003794 0.000000 0.000000 0.000000
# 3 -0.006396 -0.003794 0.012289 0.000000 0.000000 0.000000
# 4 0.000000 0.000000 0.000000 0.022234 0.000000 0.000000
# 5 0.000000 0.000000 0.000000 0.000000 0.034089 0.000000
# 6 0.000000 0.000000 0.000000 0.000000 0.000000 0.048491
#
#
# Mechanical properties :
#
#
# Convention : Reuss Voigt Hill
#
# Bulk Modulus (GPa) = 42.76105 51.78886 47.27496
# Shear Modulus (GPa) = 27.24885 30.78475 29.01680
#
# Velocity S-wave (km/s) = 3.80365 4.04291 3.92511
# Velocity P-wave (km/s) = 6.48030 7.02074 6.75593
#
# Compressibility (1/GPa) = 0.02338577
#
# Stress axis : x y z
#
# Youngs Moduli (GPa) = 41.93373 90.91202 81.37581
#
# Poissons Ratio (x) = 0.15314 0.52050
# Poissons Ratio (y) = 0.07064 0.30875
# Poissons Ratio (z) = 0.26822 0.34493
#
# Static dielectric constant tensor:
#      x y z
#    x 1.638500 0.000000 0.000000 
#    y 0.000000 1.632780 0.000000 
#    z 0.000000 0.000000 1.638720 
# 
# From -- ./inp_files/19520.got.cif
#   From: 2010.05.17/outbox.cif.g08.bks.cpg/sg38_10_cif.got.tgz:19520.got - 2010.06.03 18:07:57.
