data_PCOD9359693
_publ_section_title
;
Structure prediction by ZEFSAII (Michael W. Deem and Ramdas Pophale) SiO2 
 PCOD9359693
Probable space group: A B M 2
;
_chemical_formula_sum "Si O2"
_cell_formula_units_Z 60
_cell_length_a 22.780045
_cell_length_b 27.792065
_cell_length_c 5.249812
_cell_angle_alpha 90.000000
_cell_angle_beta 90.000000
_cell_angle_gamma 90.000000
_cell_volume 3323.679556
_symmetry_space_group_name_H-M "A B M 2"
_symmetry_group_IT_number 39
_symmetry_cell_setting 'orthorhombic'
loop_
_space_group_symop_operation_xyz
x,y,z
-x,-y,z
-x,1/2+y,z
x,1/2-y,z
x,1/2+y,1/2+z
-x,1/2-y,1/2+z
-x,y,1/2+z
x,-y,1/2+z
loop_
_atom_site_type_symbol
_atom_site_label
_atom_site_fract_x
_atom_site_fract_y
_atom_site_fract_z
Si Si1 0.378078 0.886309 0.771690
Si Si2 0.248472 0.806527 0.309705
Si Si3 0.162354 0.032847 0.302933
Si Si4 0.759600 0.628886 0.313336
Si Si5 0.567409 0.518203 0.463234
Si Si6 0.383167 0.831853 0.271325
Si Si7 0.530609 0.250000 0.303722
Si Si8 0.025537 0.554237 0.741128
O O1 0.307859 0.890874 0.818751
O O2 0.420499 0.929803 0.848883
O O3 0.384336 0.874993 0.474341
O O4 0.393933 0.845604 0.978814
O O5 0.230041 0.750000 0.310867
O O6 0.233207 0.836541 0.565869
O O7 0.319434 0.807814 0.294074
O O8 0.229342 0.837877 0.062835
O O9 0.200104 0.081604 0.303612
O O10 0.093945 0.048640 0.296275
O O11 0.172943 0.000239 0.553559
O O12 0.500000 0.500000 0.497362
O O13 0.594547 0.515144 0.743138
O O14 0.432235 0.796464 0.369260
O O15 0.477903 0.250000 0.501182
O O16 0.000000 0.500000 0.710944
O O17 0.009601 0.577855 0.472872
#
# Coordination Sequence:
#
# PCOD9359693 Si02
#       8
#     8   8   8   8   8   8   4   8
#     4  10  21  39  58  76 107 137 177 224 262 328
#     4  10  19  39  63  77 109 144 186 237 280 342
#     4  12  21  33  52  80 126 161 182 241 278 326
#     4  10  23  34  54  91 109 144 195 224 289 345
#     4  10  21  38  54  73  94 128 181 220 247 294
#     4  10  21  39  59  81 103 137 164 209 282 339
#     4  12  24  40  52  88 114 126 164 208 274 364
#     4  10  16  30  49  74 105 158 202 223 264 331
#
# _framework density 18.05228
#
# number of rings (size 3 to 8) (size 9 to 14) (size 15 to 20)
#    0.000    1.600    3.333    2.800    0.000    1.067 
#   14.400    0.000    0.000    0.000    0.000    0.000 
#    0.000   10.667    0.000    0.000    0.000    0.000 
#
# Total GULP energy -167079.367322 kJ/mol
# GULP energy per Si atom -5569.312244 kJ/mol
# Density = 1.801119 g / cm^3
# Si number density = 18.052280 Si / 1000 Ang^3
#
#
#
# Elastic Constant Matrix: (Units=GPa)
#
#
# Indices 1 2 3 4 5 6 
#
# 1 46.8837 46.3994 6.3961 0.0000 0.0000 0.0000
# 2 46.3994 100.0379 33.3353 0.0000 0.0000 0.0000
# 3 6.3961 33.3353 129.6480 0.0000 0.0000 0.0000
# 4 0.0000 0.0000 0.0000 32.0668 0.0000 0.0000
# 5 0.0000 0.0000 0.0000 0.0000 16.5910 0.0000
# 6 0.0000 0.0000 0.0000 0.0000 0.0000 20.7106
#
#
#
# Elastic Compliance Matrix: (Units=1/GPa)
#
#
# Indices 1 2 3 4 5 6 
#
# 1 0.040536 -0.019834 0.003100 0.000000 0.000000 0.000000
# 2 -0.019834 0.020638 -0.004328 0.000000 0.000000 0.000000
# 3 0.003100 -0.004328 0.008673 0.000000 0.000000 0.000000
# 4 0.000000 0.000000 0.000000 0.031185 0.000000 0.000000
# 5 0.000000 0.000000 0.000000 0.000000 0.060274 0.000000
# 6 0.000000 0.000000 0.000000 0.000000 0.000000 0.048284
#
#
# Mechanical properties :
#
#
# Convention : Reuss Voigt Hill
#
# Bulk Modulus (GPa) = 36.07188 49.87013 42.97100
# Shear Modulus (GPa) = 19.16040 26.56962 22.86501
#
# Velocity S-wave (km/s) = 3.26142 3.84059 3.56279
# Velocity P-wave (km/s) = 5.84874 6.88129 6.38592
#
# Compressibility (1/GPa) = 0.02772243
#
# Stress axis : x y z
#
# Youngs Moduli (GPa) = 24.66951 48.45457 115.29953
#
# Poissons Ratio (x) = 0.96106 -0.35743
# Poissons Ratio (y) = 0.48930 0.49901
# Poissons Ratio (z) = -0.07648 0.20971
#
# Static dielectric constant tensor:
#      x y z
#    x 1.559430 0.000000 0.000000 
#    y 0.000000 1.630870 0.000000 
#    z 0.000000 0.000000 1.716010 
# 
# From -- ./inp_files/1130.got.cif
#   From: 2010.05.17/outbox.cif.g08.bks.cpg/sg39_1_cif.got.tgz:1130.got - 2010.06.03 18:22:40.
