data_PCOD9359479
_publ_section_title
;
Structure prediction by ZEFSAII (Michael W. Deem and Ramdas Pophale) SiO2 
 PCOD9359479
Probable space group: A M M 2
;
_chemical_formula_sum "Si O2"
_cell_formula_units_Z 48
_cell_length_a 7.665475
_cell_length_b 19.685521
_cell_length_c 15.774798
_cell_angle_alpha 90.000000
_cell_angle_beta 90.000000
_cell_angle_gamma 90.000000
_cell_volume 2380.399178
_symmetry_space_group_name_H-M "A M M 2"
_symmetry_group_IT_number 38
_symmetry_cell_setting 'orthorhombic'
loop_
_space_group_symop_operation_xyz
x,y,z
-x,-y,z
-x,y,z
x,-y,z
x,1/2+y,1/2+z
-x,1/2-y,1/2+z
-x,1/2+y,1/2+z
x,1/2-y,1/2+z
loop_
_atom_site_type_symbol
_atom_site_label
_atom_site_fract_x
_atom_site_fract_y
_atom_site_fract_z
Si Si1 0.793577 0.076255 0.261450
Si Si2 0.291156 0.826863 0.105826
Si Si3 0.713402 0.828479 0.914399
Si Si4 0.286238 0.922115 0.760208
Si Si5 0.713404 0.827167 0.607133
Si Si6 0.291336 0.825444 0.415799
O O1 0.748457 0.118831 0.177612
O O2 0.746796 0.120024 0.344086
O O3 0.000000 0.070007 0.262129
O O4 0.717311 0.000000 0.261861
O O5 0.500000 0.822411 0.100570
O O6 0.230804 0.750236 0.127348
O O7 0.229787 0.844170 0.010653
O O8 0.500000 0.829290 0.913269
O O9 0.770975 0.881570 0.843885
O O10 0.769434 0.751093 0.894139
O O11 0.500000 0.922142 0.760173
O O12 0.228930 0.880421 0.677443
O O13 0.229512 0.000000 0.759508
O O14 0.500000 0.827964 0.608331
O O15 0.770392 0.842859 0.510889
O O16 0.500000 0.820604 0.421517
#
# Coordination Sequence:
#
# PCOD9359479 Si02
#       6
#     8   8   8   8   8   8
#     4  11  24  37  47  67 102 137 168 208 254 293
#     4   9  17  32  54  74  93 123 164 206 244 287
#     4   8  15  28  48  75 100 121 154 201 244 282
#     4   9  15  22  36  64 102 131 144 172 234 299
#     4   8  15  28  48  75 100 121 154 201 244 282
#     4   9  17  32  54  74  93 123 164 206 244 287
#
# _framework density 20.164684999999999
#
# number of rings (size 3 to 8) (size 9 to 14) (size 15 to 20)
#    0.000    3.000    0.000    3.500    0.000    5.333 
#    0.000    6.667    0.000    0.000    0.000    0.000 
#    0.000    6.667    0.000    0.000    0.000    0.000 
#
# Total GULP energy -133880.265810 kJ/mol
# GULP energy per Si atom -5578.344409 kJ/mol
# Density = 2.011879 g / cm^3
# Si number density = 20.164685 Si / 1000 Ang^3
#
#
#
# Elastic Constant Matrix: (Units=GPa)
#
#
# Indices 1 2 3 4 5 6 
#
# 1 30.3075 1.3815 0.5946 0.0000 0.0000 0.0000
# 2 1.3815 160.2406 121.4495 0.0000 0.0000 0.0000
# 3 0.5946 121.4495 149.1665 0.0000 0.0000 0.0000
# 4 0.0000 0.0000 0.0000 -6.6206 0.0000 0.0000
# 5 0.0000 0.0000 0.0000 0.0000 240.8535 0.0000
# 6 0.0000 0.0000 0.0000 0.0000 0.0000 36.7061
#
#
#
# Elastic Compliance Matrix: (Units=1/GPa)
#
#
# Indices 1 2 3 4 5 6 
#
# 1 0.033012 -0.000483 0.000261 0.000000 0.000000 0.000000
# 2 -0.000483 0.016305 -0.013273 0.000000 0.000000 0.000000
# 3 0.000261 -0.013273 0.017510 0.000000 0.000000 0.000000
# 4 0.000000 0.000000 0.000000 -0.151043 0.000000 0.000000
# 5 0.000000 0.000000 0.000000 0.000000 0.004152 0.000000
# 6 0.000000 0.000000 0.000000 0.000000 0.000000 0.027243
#
#
# Mechanical properties :
#
#
# Convention : Reuss Voigt Hill
#
# Bulk Modulus (GPa) = 25.10199 65.17398 45.13799
# Shear Modulus (GPa) = -398.32390 68.60706 -164.85842
#
# Velocity S-wave (km/s) = -14.06998 5.83928 -9.05171
# Velocity P-wave (km/s) = 15.85802 8.82349 9.31726
#
# Compressibility (1/GPa) = 0.03983748
#
# Stress axis : x y z
#
# Youngs Moduli (GPa) = 30.29204 61.33132 57.11072
#
# Poissons Ratio (x) = 0.02961 -0.01493
# Poissons Ratio (y) = 0.01462 0.75805
# Poissons Ratio (z) = -0.00792 0.81407
#
# Static dielectric constant tensor:
#      x y z
#    x 1.736530 0.000000 0.000000 
#    y 0.000000 1.705140 0.000000 
#    z 0.000000 0.000000 2.112680 
# 
# From -- ./inp_files/12033.got.cif
#   From: 2010.05.17/outbox.cif.g08.bks.cpg/sg38_7_cif.got.tgz:12033.got - 2010.06.03 18:07:57.
