data_PCOD9359332
_publ_section_title
;
Structure prediction by ZEFSAII (Michael W. Deem and Ramdas Pophale) SiO2 
 PCOD9359332
Probable space group: A M M 2
;
_chemical_formula_sum "Si O2"
_cell_formula_units_Z 44
_cell_length_a 14.746381
_cell_length_b 17.587999
_cell_length_c 7.542551
_cell_angle_alpha 90.000000
_cell_angle_beta 90.000000
_cell_angle_gamma 90.000000
_cell_volume 1956.231006
_symmetry_space_group_name_H-M "A M M 2"
_symmetry_group_IT_number 38
_symmetry_cell_setting 'orthorhombic'
loop_
_space_group_symop_operation_xyz
x,y,z
-x,-y,z
-x,y,z
x,-y,z
x,1/2+y,1/2+z
-x,1/2-y,1/2+z
-x,1/2+y,1/2+z
x,1/2-y,1/2+z
loop_
_atom_site_type_symbol
_atom_site_label
_atom_site_fract_x
_atom_site_fract_y
_atom_site_fract_z
Si Si1 0.675912 0.000000 0.647711
Si Si2 0.827358 0.334244 0.393123
Si Si3 0.602572 0.344027 0.009626
Si Si4 0.807756 0.500000 0.448596
Si Si5 0.706855 0.220859 0.192366
Si Si6 0.000000 0.731048 0.587595
Si Si7 0.844407 0.000000 0.372786
Si Si8 0.000000 0.877082 0.428091
O O1 0.622032 0.076923 0.606937
O O2 0.710529 0.000000 0.850296
O O3 0.761128 0.000000 0.509693
O O4 0.850716 0.422410 0.371735
O O5 0.785103 0.282975 0.238047
O O6 0.745493 0.330833 0.536779
O O7 0.911707 0.293034 0.479302
O O8 0.500000 0.343517 0.942619
O O9 0.621754 0.272240 0.136436
O O10 0.677101 0.330221 0.856580
O O11 0.815954 0.500000 0.663182
O O12 0.000000 0.681106 0.763665
O O13 0.000000 0.822594 0.599441
O O14 0.910416 0.928157 0.409268
#
# Coordination Sequence:
#
# PCOD9359332 Si02
#       8
#     4   8   8   4   8   4   4   4
#     4  12  26  43  73  99 135 180 226 278 347 419
#     4  11  23  40  64  99 135 175 229 270 341 397
#     4  11  23  43  68  98 131 171 225 286 345 412
#     4  12  23  44  68  97 131 184 227 270 341 412
#     4  10  23  41  67  96 133 177 218 280 346 410
#     4  12  24  38  68 100 132 174 230 288 318 398
#     4  11  26  49  65  98 142 188 222 281 340 417
#     4  11  26  44  66  97 140 182 232 281 342 390
#
# _framework density 22.492232000000001
#
# number of rings (size 3 to 8) (size 9 to 14) (size 15 to 20)
#    0.000    0.909    3.636    3.000    5.091    1.818 
#    0.000    1.818    0.000    1.091    0.000    0.000 
#    0.000    0.000    0.000    0.000    0.000    0.000 
#
# Total GULP energy -123051.249163 kJ/mol
# GULP energy per Si atom -5593.238598 kJ/mol
# Density = 2.244104 g / cm^3
# Si number density = 22.492232 Si / 1000 Ang^3
#
#
#
# Elastic Constant Matrix: (Units=GPa)
#
#
# Indices 1 2 3 4 5 6 
#
# 1 85.8101 30.2679 11.5132 0.0000 0.0000 0.0000
# 2 30.2679 141.9601 19.4273 0.0000 0.0000 0.0000
# 3 11.5132 19.4273 65.0273 0.0000 0.0000 0.0000
# 4 0.0000 0.0000 0.0000 28.5201 0.0000 0.0000
# 5 0.0000 0.0000 0.0000 0.0000 23.1334 0.0000
# 6 0.0000 0.0000 0.0000 0.0000 0.0000 48.1448
#
#
#
# Elastic Compliance Matrix: (Units=1/GPa)
#
#
# Indices 1 2 3 4 5 6 
#
# 1 0.012741 -0.002511 -0.001506 0.000000 0.000000 0.000000
# 2 -0.002511 0.007839 -0.001898 0.000000 0.000000 0.000000
# 3 -0.001506 -0.001898 0.016212 0.000000 0.000000 0.000000
# 4 0.000000 0.000000 0.000000 0.035063 0.000000 0.000000
# 5 0.000000 0.000000 0.000000 0.000000 0.043228 0.000000
# 6 0.000000 0.000000 0.000000 0.000000 0.000000 0.020771
#
#
# Mechanical properties :
#
#
# Convention : Reuss Voigt Hill
#
# Bulk Modulus (GPa) = 40.05713 46.13491 43.09602
# Shear Modulus (GPa) = 32.05079 35.39894 33.72486
#
# Velocity S-wave (km/s) = 3.77897 3.97146 3.87641
# Velocity P-wave (km/s) = 6.07362 6.44872 6.26398
#
# Compressibility (1/GPa) = 0.02496435
#
# Stress axis : x y z
#
# Youngs Moduli (GPa) = 78.48538 127.56426 61.68404
#
# Poissons Ratio (x) = 0.32025 0.09288
# Poissons Ratio (y) = 0.19704 0.11705
# Poissons Ratio (z) = 0.11818 0.24205
#
# Static dielectric constant tensor:
#      x y z
#    x 1.794540 0.000000 0.000000 
#    y 0.000000 1.844140 0.000000 
#    z 0.000000 0.000000 1.881660 
# 
# From -- ./inp_files/5435.got.cif
#   From: 2010.05.17/outbox.cif.g08.bks.cpg/sg38_3_cif.got.tgz:5435.got - 2010.06.03 18:07:57.
