data_PCOD9359026
_publ_section_title
;
Structure prediction by ZEFSAII (Michael W. Deem and Ramdas Pophale) SiO2 
 PCOD9359026
Probable space group: A M M 2
;
_chemical_formula_sum "Si O2"
_cell_formula_units_Z 64
_cell_length_a 8.662115
_cell_length_b 14.302898
_cell_length_c 24.880970
_cell_angle_alpha 90.000000
_cell_angle_beta 90.000000
_cell_angle_gamma 90.000000
_cell_volume 3082.586658
_symmetry_space_group_name_H-M "A M M 2"
_symmetry_group_IT_number 38
_symmetry_cell_setting 'orthorhombic'
loop_
_space_group_symop_operation_xyz
x,y,z
-x,-y,z
-x,y,z
x,-y,z
x,1/2+y,1/2+z
-x,1/2-y,1/2+z
-x,1/2+y,1/2+z
x,1/2-y,1/2+z
loop_
_atom_site_type_symbol
_atom_site_label
_atom_site_fract_x
_atom_site_fract_y
_atom_site_fract_z
Si Si1 0.179088 0.885861 0.413250
Si Si2 0.684018 0.286320 0.580107
Si Si3 0.316845 0.891449 0.744695
Si Si4 0.175836 0.613813 0.358961
Si Si5 0.816250 0.782849 0.192162
Si Si6 0.684249 0.111529 0.971706
Si Si7 0.188546 0.391089 0.797739
Si Si8 0.187205 0.608330 0.031445
O O1 0.245544 0.854818 0.355945
O O2 0.246574 0.863403 0.471511
O O3 0.000000 0.856167 0.414863
O O4 0.177742 0.000000 0.411285
O O5 0.500000 0.290911 0.580970
O O6 0.747993 0.320932 0.636808
O O7 0.739379 0.341320 0.526911
O O8 0.741146 0.180342 0.572599
O O9 0.500000 0.884037 0.737978
O O10 0.271775 0.863047 0.805738
O O11 0.232756 0.823614 0.703386
O O12 0.271262 0.000000 0.737987
O O13 0.177823 0.500000 0.361902
O O14 0.237487 0.646830 0.416709
O O15 0.000000 0.644861 0.350624
O O16 0.759124 0.837436 0.245041
O O17 0.000000 0.789855 0.189792
O O18 0.500000 0.125813 0.966732
O O19 0.710908 0.000000 0.975546
O O20 0.229407 0.500000 0.793035
O O21 0.000000 0.386176 0.799604
O O22 0.226498 0.500000 0.040969
O O23 0.000000 0.614835 0.031732
#
# Coordination Sequence:
#
# PCOD9359026 Si02
#       8
#     8   8   8   8   8   8   8   8
#     4   7  11  24  49  79 107 132 160 198 250 313
#     4  11  24  39  54  75 105 144 189 232 274 322
#     4  10  21  38  59  81 110 148 183 220 271 328
#     4   9  17  31  55  87 116 140 174 222 273 326
#     4  11  23  37  55  80 108 141 185 233 273 315
#     4   9  19  37  58  79 108 147 186 224 271 327
#     4   8  15  30  53  82 113 140 167 206 261 321
#     4   9  18  34  57  83 109 138 172 214 267 325
#
# _framework density 20.761783999999999
#
# number of rings (size 3 to 8) (size 9 to 14) (size 15 to 20)
#    0.000    2.750    0.000    3.000    0.000    5.500 
#    0.000    1.250    0.000    1.875    0.000    3.500 
#    0.000    0.000    0.000    0.000    0.000    0.000 
#
# Total GULP energy -178610.615610 kJ/mol
# GULP energy per Si atom -5581.581738 kJ/mol
# Density = 2.071453 g / cm^3
# Si number density = 20.761784 Si / 1000 Ang^3
#
#
#
# Elastic Constant Matrix: (Units=GPa)
#
#
# Indices 1 2 3 4 5 6 
#
# 1 18.1796 5.1533 10.7348 0.0000 0.0000 0.0000
# 2 5.1533 32.4218 11.0687 0.0000 0.0000 0.0000
# 3 10.7348 11.0687 96.5249 0.0000 0.0000 0.0000
# 4 0.0000 0.0000 0.0000 27.2886 0.0000 0.0000
# 5 0.0000 0.0000 0.0000 0.0000 32.5946 0.0000
# 6 0.0000 0.0000 0.0000 0.0000 0.0000 11.1515
#
#
#
# Elastic Compliance Matrix: (Units=1/GPa)
#
#
# Indices 1 2 3 4 5 6 
#
# 1 0.060636 -0.007634 -0.005868 0.000000 0.000000 0.000000
# 2 -0.007634 0.033061 -0.002942 0.000000 0.000000 0.000000
# 3 -0.005868 -0.002942 0.011350 0.000000 0.000000 0.000000
# 4 0.000000 0.000000 0.000000 0.036645 0.000000 0.000000
# 5 0.000000 0.000000 0.000000 0.000000 0.030680 0.000000
# 6 0.000000 0.000000 0.000000 0.000000 0.000000 0.089674
#
#
# Mechanical properties :
#
#
# Convention : Reuss Voigt Hill
#
# Bulk Modulus (GPa) = 13.85849 22.33775 18.09812
# Shear Modulus (GPa) = 15.67456 22.21824 18.94640
#
# Velocity S-wave (km/s) = 2.75066 3.27486 3.02414
# Velocity P-wave (km/s) = 4.09605 5.00820 4.57492
#
# Compressibility (1/GPa) = 0.07215792
#
# Stress axis : x y z
#
# Youngs Moduli (GPa) = 16.49194 30.24679 88.10571
#
# Poissons Ratio (x) = 0.23092 0.51701
# Poissons Ratio (y) = 0.12591 0.25922
# Poissons Ratio (z) = 0.09677 0.08899
#
# Static dielectric constant tensor:
#      x y z
#    x 1.698960 0.000000 0.000000 
#    y 0.000000 1.773980 0.000000 
#    z 0.000000 0.000000 1.755540 
# 
# From -- ./inp_files/22164.got.cif
#   From: 2010.05.17/outbox.cif.g08.bks.cpg/sg38_12_cif.got.tgz:22164.got - 2010.06.03 18:07:57.
