data_PCOD9359467
_publ_section_title
;
Structure prediction by ZEFSAII (Michael W. Deem and Ramdas Pophale) SiO2 
 PCOD9359467
Probable space group: A M M 2
;
_chemical_formula_sum "Si O2"
_cell_formula_units_Z 40
_cell_length_a 7.373498
_cell_length_b 9.415751
_cell_length_c 30.618369
_cell_angle_alpha 90.000000
_cell_angle_beta 90.000000
_cell_angle_gamma 90.000000
_cell_volume 2125.742153
_symmetry_space_group_name_H-M "A M M 2"
_symmetry_group_IT_number 38
_symmetry_cell_setting 'orthorhombic'
loop_
_space_group_symop_operation_xyz
x,y,z
-x,-y,z
-x,y,z
x,-y,z
x,1/2+y,1/2+z
-x,1/2-y,1/2+z
-x,1/2+y,1/2+z
x,1/2-y,1/2+z
loop_
_atom_site_type_symbol
_atom_site_label
_atom_site_fract_x
_atom_site_fract_y
_atom_site_fract_z
Si Si1 0.278750 0.162691 0.251140
Si Si2 0.000000 0.328544 0.509629
Si Si3 0.714236 0.331061 0.337623
Si Si4 0.283570 0.168821 0.568163
Si Si5 0.279302 0.837316 0.667339
Si Si6 0.000000 0.171937 0.908990
O O1 0.500000 0.164900 0.250538
O O2 0.225264 0.249128 0.294217
O O3 0.218113 0.237735 0.206554
O O4 0.221024 0.000000 0.253337
O O5 0.827341 0.262797 0.534431
O O6 0.000000 0.281603 0.458970
O O7 0.000000 0.500000 0.511883
O O8 0.500000 0.307376 0.343898
O O9 0.741825 0.500000 0.330976
O O10 0.826581 0.285700 0.380079
O O11 0.500000 0.189344 0.564107
O O12 0.228170 0.204571 0.618126
O O13 0.247587 0.000000 0.562197
O O14 0.500000 0.837424 0.667629
O O15 0.222532 0.000000 0.674965
O O16 0.000000 0.000000 0.910603
#
# Coordination Sequence:
#
# PCOD9359467 Si02
#       6
#     8   4   8   8   8   4
#     4   9  16  26  44  74 109 137 163 203 255 307
#     4  11  23  37  56  83 112 139 174 229 288 333
#     4   9  17  32  54  74  96 132 174 211 248 299
#     4   9  19  37  59  81 108 145 187 226 264 316
#     4   8  14  27  49  75 102 136 177 213 247 298
#     4   9  20  37  54  75 100 129 172 219 262 313
#
# _framework density 18.816958
#
# number of rings (size 3 to 8) (size 9 to 14) (size 15 to 20)
#    0.000    3.000    0.000    2.100    0.000    4.400 
#    0.000    7.500    0.000    4.800    0.000    0.000 
#    0.000    0.000    0.000    0.000    0.000    0.000 
#
# Total GULP energy -111595.080141 kJ/mol
# GULP energy per Si atom -5579.754007 kJ/mol
# Density = 1.877413 g / cm^3
# Si number density = 18.816958 Si / 1000 Ang^3
#
#
#
# Elastic Constant Matrix: (Units=GPa)
#
#
# Indices 1 2 3 4 5 6 
#
# 1 83.0591 43.6788 64.0140 0.0000 0.0000 0.0000
# 2 43.6788 79.0556 98.2606 0.0000 0.0000 0.0000
# 3 64.0140 98.2606 212.5960 0.0000 0.0000 0.0000
# 4 0.0000 0.0000 0.0000 30.7999 0.0000 0.0000
# 5 0.0000 0.0000 0.0000 0.0000 36.1144 0.0000
# 6 0.0000 0.0000 0.0000 0.0000 0.0000 13.8145
#
#
#
# Elastic Compliance Matrix: (Units=1/GPa)
#
#
# Indices 1 2 3 4 5 6 
#
# 1 0.017277 -0.007237 -0.001857 0.000000 0.000000 0.000000
# 2 -0.007237 0.032758 -0.012961 0.000000 0.000000 0.000000
# 3 -0.001857 -0.012961 0.011254 0.000000 0.000000 0.000000
# 4 0.000000 0.000000 0.000000 0.032468 0.000000 0.000000
# 5 0.000000 0.000000 0.000000 0.000000 0.027690 0.000000
# 6 0.000000 0.000000 0.000000 0.000000 0.000000 0.072388
#
#
# Mechanical properties :
#
#
# Convention : Reuss Voigt Hill
#
# Bulk Modulus (GPa) = 58.21766 87.40193 72.80979
# Shear Modulus (GPa) = 20.51948 27.39625 23.95786
#
# Velocity S-wave (km/s) = 3.30582 3.81981 3.57207
# Velocity P-wave (km/s) = 6.75110 8.12428 7.46931
#
# Compressibility (1/GPa) = 0.01717692
#
# Stress axis : x y z
#
# Youngs Moduli (GPa) = 57.88096 30.52679 88.86020
#
# Poissons Ratio (x) = 0.22093 0.16502
# Poissons Ratio (y) = 0.41890 1.15175
# Poissons Ratio (z) = 0.10749 0.39567
#
# Static dielectric constant tensor:
#      x y z
#    x 1.701020 0.000000 0.000000 
#    y 0.000000 1.623090 0.000000 
#    z 0.000000 0.000000 1.622540 
# 
# From -- ./inp_files/23213.got.cif
#   From: 2010.05.17/outbox.cif.g08.bks.cpg/sg38_12_cif.got.tgz:23213.got - 2010.06.03 18:07:57.
