data_PCOD9359894
_publ_section_title
;
Structure prediction by ZEFSAII (Michael W. Deem and Ramdas Pophale) SiO2 
 PCOD9359894
Probable space group: A B M 2
;
_chemical_formula_sum "Si O2"
_cell_formula_units_Z 48
_cell_length_a 7.072382
_cell_length_b 10.475616
_cell_length_c 28.560126
_cell_angle_alpha 90.000000
_cell_angle_beta 90.000000
_cell_angle_gamma 90.000000
_cell_volume 2115.949993
_symmetry_space_group_name_H-M "A B M 2"
_symmetry_group_IT_number 39
_symmetry_cell_setting 'orthorhombic'
loop_
_space_group_symop_operation_xyz
x,y,z
-x,-y,z
-x,1/2+y,z
x,1/2-y,z
x,1/2+y,1/2+z
-x,1/2-y,1/2+z
-x,y,1/2+z
x,-y,1/2+z
loop_
_atom_site_type_symbol
_atom_site_label
_atom_site_fract_x
_atom_site_fract_y
_atom_site_fract_z
Si Si1 0.828976 0.102126 0.505250
Si Si2 0.172626 0.750000 0.343074
Si Si3 0.243823 0.750000 0.233273
Si Si4 0.324047 0.250000 0.261319
Si Si5 0.164787 0.104379 0.107433
Si Si6 0.274447 0.250000 0.367767
Si Si7 0.283596 0.520738 0.706270
Si Si8 0.229410 0.481688 0.906787
O O1 0.895571 0.250000 0.500039
O O2 0.734689 0.093059 0.556644
O O3 0.716742 0.068948 0.458188
O O4 0.000000 0.000000 0.506973
O O5 0.185472 0.750000 0.287444
O O6 0.260767 0.876095 0.366801
O O7 0.951785 0.750000 0.357533
O O8 0.473808 0.750000 0.235233
O O9 0.187057 0.617771 0.208482
O O10 0.361535 0.250000 0.316132
O O11 0.214424 0.124508 0.243856
O O12 0.091931 0.250000 0.109589
O O13 0.280478 0.078068 0.154334
O O14 0.000000 0.000000 0.108149
O O15 0.314837 0.380921 0.394800
O O16 0.500000 0.500000 0.720263
O O17 0.000000 0.500000 0.908126
#
# Coordination Sequence:
#
# PCOD9359894 Si02
#       8
#     8   4   4   4   8   4   8   8
#     4   9  17  30  50  76 107 139 169 208 261 318
#     4  10  18  32  49  76 100 132 171 218 257 306
#     4  10  22  34  55  76 102 136 187 220 263 322
#     4  10  20  38  53  74 102 144 179 220 265 320
#     4  10  21  36  56  84 112 139 176 226 275 317
#     4  10  20  30  51  74 106 134 171 212 265 304
#     4  10  21  38  57  76 104 146 185 219 267 327
#     4   9  17  29  47  75 104 135 168 207 255 314
#
# _framework density 22.684844999999999
#
# number of rings (size 3 to 8) (size 9 to 14) (size 15 to 20)
#    0.000    2.333    1.667    1.000    4.667    1.333 
#    0.000    0.000    0.000    2.000    0.000    0.000 
#    0.000    0.000    0.000    0.000    0.000    0.000 
#
# Total GULP energy -133955.444975 kJ/mol
# GULP energy per Si atom -5581.476874 kJ/mol
# Density = 2.263321 g / cm^3
# Si number density = 22.684845 Si / 1000 Ang^3
#
#
#
# Elastic Constant Matrix: (Units=GPa)
#
#
# Indices 1 2 3 4 5 6 
#
# 1 42.7727 0.5394 -24.4694 0.0000 0.0000 0.0000
# 2 0.5394 209.8614 85.8689 0.0000 0.0000 0.0000
# 3 -24.4694 85.8689 143.9377 0.0000 0.0000 0.0000
# 4 0.0000 0.0000 0.0000 34.9648 0.0000 0.0000
# 5 0.0000 0.0000 0.0000 0.0000 14.5523 0.0000
# 6 0.0000 0.0000 0.0000 0.0000 0.0000 -3.1157
#
#
#
# Elastic Compliance Matrix: (Units=1/GPa)
#
#
# Indices 1 2 3 4 5 6 
#
# 1 0.026904 -0.002567 0.006105 0.000000 0.000000 0.000000
# 2 -0.002567 0.006549 -0.004343 0.000000 0.000000 0.000000
# 3 0.006105 -0.004343 0.010576 0.000000 0.000000 0.000000
# 4 0.000000 0.000000 0.000000 0.028600 0.000000 0.000000
# 5 0.000000 0.000000 0.000000 0.000000 0.068718 0.000000
# 6 0.000000 0.000000 0.000000 0.000000 0.000000 -0.320958
#
#
# Mechanical properties :
#
#
# Convention : Reuss Voigt Hill
#
# Bulk Modulus (GPa) = 23.57418 57.82774 40.70096
# Shear Modulus (GPa) = -30.51388 31.58915 0.53764
#
# Velocity S-wave (km/s) = -3.67157 3.73570 0.48736
# Velocity P-wave (km/s) = 2.74942 6.64488 4.27756
#
# Compressibility (1/GPa) = 0.04241930
#
# Stress axis : x y z
#
# Youngs Moduli (GPa) = 37.16851 152.70059 94.55024
#
# Poissons Ratio (x) = 0.39202 -0.57726
# Poissons Ratio (y) = 0.09542 0.41065
# Poissons Ratio (z) = -0.22693 0.66321
#
# Static dielectric constant tensor:
#      x y z
#    x 1.862540 0.000000 0.000000 
#    y 0.000000 1.903120 0.000000 
#    z 0.000000 0.000000 1.825070 
# 
# From -- ./inp_files/15605.got.cif
#   From: 2010.05.17/outbox.cif.g08.bks.cpg/sg39_8_cif.got.tgz:15605.got - 2010.06.03 18:22:40.
