data_PCOD9359657
_publ_section_title
;
Structure prediction by ZEFSAII (Michael W. Deem and Ramdas Pophale) SiO2 
 PCOD9359657
Probable space group: A B M 2
;
_chemical_formula_sum "Si O2"
_cell_formula_units_Z 64
_cell_length_a 23.000746
_cell_length_b 25.210641
_cell_length_c 5.441755
_cell_angle_alpha 90.000000
_cell_angle_beta 90.000000
_cell_angle_gamma 90.000000
_cell_volume 3155.475373
_symmetry_space_group_name_H-M "A B M 2"
_symmetry_group_IT_number 39
_symmetry_cell_setting 'orthorhombic'
loop_
_space_group_symop_operation_xyz
x,y,z
-x,-y,z
-x,1/2+y,z
x,1/2-y,z
x,1/2+y,1/2+z
-x,1/2-y,1/2+z
-x,y,1/2+z
x,-y,1/2+z
loop_
_atom_site_type_symbol
_atom_site_label
_atom_site_fract_x
_atom_site_fract_y
_atom_site_fract_z
Si Si1 0.208605 0.652344 0.200490
Si Si2 0.066408 0.479546 0.374850
Si Si3 0.921348 0.309307 0.214965
Si Si4 0.917359 0.640415 0.213462
Si Si5 0.216726 0.966342 0.169665
Si Si6 0.523400 0.561947 0.600841
Si Si7 0.648872 0.468706 0.217670
Si Si8 0.787224 0.313267 0.699978
O O1 0.149229 0.687203 0.205191
O O2 0.187981 0.591394 0.191406
O O3 0.241507 0.666577 0.450004
O O4 0.241391 0.668635 0.953353
O O5 0.092632 0.488124 0.645193
O O6 0.070304 0.419341 0.290489
O O7 0.000000 0.500000 0.402907
O O8 0.938721 0.250000 0.279685
O O9 0.938736 0.347783 0.438186
O O10 0.940105 0.324251 0.940051
O O11 0.848977 0.655149 0.202916
O O12 0.285364 0.949585 0.179945
O O13 0.207404 0.003813 0.408863
O O14 0.500000 0.500000 0.584792
O O15 0.509677 0.585142 0.335092
O O16 0.591641 0.564553 0.658834
O O17 0.644260 0.486574 0.502009
O O18 0.796314 0.250000 0.695705
#
# Coordination Sequence:
#
# PCOD9359657 Si02
#       8
#     8   8   8   8   8   8   8   8
#     4  10  18  32  48  67  95 127 158 193 233 279
#     4  10  21  37  54  75 102 136 167 190 219 268
#     4  10  19  33  53  79 101 120 152 199 251 287
#     4  10  18  32  53  79 101 125 155 192 235 276
#     4  10  21  32  42  57  89 133 170 190 213 270
#     4  10  14  20  34  52  70  89 136 200 237 258
#     4  10  16  25  36  51  73 108 149 194 221 265
#     4  10  19  33  53  76  96 116 150 198 250 287
#
# _framework density 20.282205000000001
#
# number of rings (size 3 to 8) (size 9 to 14) (size 15 to 20)
#    0.000    2.000    2.500    5.250    0.000    0.000 
#    0.000   15.000    0.000    0.000    0.000   59.500 
#    0.000    0.000    0.000    0.000    0.000   21.250 
#
# Total GULP energy -178530.961198 kJ/mol
# GULP energy per Si atom -5579.092537 kJ/mol
# Density = 2.023604 g / cm^3
# Si number density = 20.282205 Si / 1000 Ang^3
#
#
#
# Elastic Constant Matrix: (Units=GPa)
#
#
# Indices 1 2 3 4 5 6 
#
# 1 39.3249 -0.2094 -0.7362 0.0000 0.0000 0.0000
# 2 -0.2094 115.4845 28.7701 0.0000 0.0000 0.0000
# 3 -0.7362 28.7701 165.7423 0.0000 0.0000 0.0000
# 4 0.0000 0.0000 0.0000 31.9411 0.0000 0.0000
# 5 0.0000 0.0000 0.0000 0.0000 27.4180 0.0000
# 6 0.0000 0.0000 0.0000 0.0000 0.0000 2.0194
#
#
#
# Elastic Compliance Matrix: (Units=1/GPa)
#
#
# Indices 1 2 3 4 5 6 
#
# 1 0.025431 0.000019 0.000110 0.000000 0.000000 0.000000
# 2 0.000019 0.009051 -0.001571 0.000000 0.000000 0.000000
# 3 0.000110 -0.001571 0.006307 0.000000 0.000000 0.000000
# 4 0.000000 0.000000 0.000000 0.031308 0.000000 0.000000
# 5 0.000000 0.000000 0.000000 0.000000 0.036472 0.000000
# 6 0.000000 0.000000 0.000000 0.000000 0.000000 0.495197
#
#
# Mechanical properties :
#
#
# Convention : Reuss Voigt Hill
#
# Bulk Modulus (GPa) = 26.38268 41.80008 34.09138
# Shear Modulus (GPa) = 8.07383 31.79085 19.93234
#
# Velocity S-wave (km/s) = 1.99734 3.96337 3.13829
# Velocity P-wave (km/s) = 4.28430 6.44968 5.47511
#
# Compressibility (1/GPa) = 0.03790366
#
# Stress axis : x y z
#
# Youngs Moduli (GPa) = 39.32153 110.49033 158.56309
#
# Poissons Ratio (x) = -0.00208 -0.01739
# Poissons Ratio (y) = -0.00074 0.24909
# Poissons Ratio (z) = -0.00431 0.17357
#
# Static dielectric constant tensor:
#      x y z
#    x 1.836010 0.000000 0.000000 
#    y 0.000000 1.698580 0.000000 
#    z 0.000000 0.000000 1.862100 
# 
# From -- ./inp_files/1311.got.cif
#   From: 2010.05.17/outbox.cif.g08.bks.cpg/sg39_1_cif.got.tgz:1311.got - 2010.06.03 18:22:40.
