data_PCOD9359957
_publ_section_title
;
Structure prediction by ZEFSAII (Michael W. Deem and Ramdas Pophale) SiO2 
 PCOD9359957
Probable space group: A B M 2
;
_chemical_formula_sum "Si O2"
_cell_formula_units_Z 64
_cell_length_a 27.601379
_cell_length_b 8.988226
_cell_length_c 14.584129
_cell_angle_alpha 90.000000
_cell_angle_beta 90.000000
_cell_angle_gamma 90.000000
_cell_volume 3618.139117
_symmetry_space_group_name_H-M "A B M 2"
_symmetry_group_IT_number 39
_symmetry_cell_setting 'orthorhombic'
loop_
_space_group_symop_operation_xyz
x,y,z
-x,-y,z
-x,1/2+y,z
x,1/2-y,z
x,1/2+y,1/2+z
-x,1/2-y,1/2+z
-x,y,1/2+z
x,-y,1/2+z
loop_
_atom_site_type_symbol
_atom_site_label
_atom_site_fract_x
_atom_site_fract_y
_atom_site_fract_z
Si Si1 0.051740 0.573262 0.061230
Si Si2 0.373776 0.071245 0.474353
Si Si3 0.365952 0.428239 0.687140
Si Si4 0.447531 0.072826 0.834891
Si Si5 0.193523 0.572121 0.278605
Si Si6 0.707193 0.072508 0.827470
Si Si7 0.115360 0.922553 0.423142
Si Si8 0.145426 0.422330 0.119703
O O1 0.050006 0.750000 0.068717
O O2 0.093230 0.504257 0.127200
O O3 0.000000 0.500000 0.078232
O O4 0.071498 0.522274 0.960622
O O5 0.380793 0.250000 0.469466
O O6 0.370221 0.029173 0.580834
O O7 0.324961 0.036076 0.417220
O O8 0.417369 0.992648 0.420398
O O9 0.356929 0.250000 0.691781
O O10 0.414955 0.458432 0.744599
O O11 0.323515 0.512354 0.740996
O O12 0.451874 0.250000 0.844229
O O13 0.500000 0.000000 0.828507
O O14 0.196766 0.750000 0.277459
O O15 0.240725 0.503603 0.324846
O O16 0.145040 0.529869 0.334967
O O17 0.185438 0.506784 0.177607
O O18 0.712285 0.250000 0.822177
O O19 0.099572 0.750000 0.414091
O O20 0.152566 0.926580 0.509777
O O21 0.142272 0.250000 0.147224
#
# Coordination Sequence:
#
# PCOD9359957 Si02
#       8
#     8   8   8   8   8   8   8   8
#     4  10  18  33  57  81 108 144 179 218 269 321
#     4   9  19  37  57  78 106 140 182 226 268 319
#     4   9  19  37  57  78 106 141 181 225 268 320
#     4  10  20  34  54  80 111 144 178 221 271 319
#     4  11  21  36  56  79 108 143 181 224 274 325
#     4  10  21  35  53  78 107 140 177 223 272 322
#     4   8  19  36  53  76 108 140 174 220 266 316
#     4   9  19  36  54  78 108 138 175 221 268 318
#
# _framework density 17.688651
#
# number of rings (size 3 to 8) (size 9 to 14) (size 15 to 20)
#    0.750    1.750    0.000    2.250    0.000    4.000 
#    0.000    4.375    0.000    3.000    0.000    0.000 
#    0.000    0.000    0.000    0.000    0.000    0.000 
#
# Total GULP energy -178255.486288 kJ/mol
# GULP energy per Si atom -5570.483947 kJ/mol
# Density = 1.764839 g / cm^3
# Si number density = 17.688651 Si / 1000 Ang^3
#
#
#
# Elastic Constant Matrix: (Units=GPa)
#
#
# Indices 1 2 3 4 5 6 
#
# 1 61.9045 31.4467 12.0055 0.0000 0.0000 0.0000
# 2 31.4467 62.2464 22.8486 0.0000 0.0000 0.0000
# 3 12.0055 22.8486 82.2178 0.0000 0.0000 0.0000
# 4 0.0000 0.0000 0.0000 22.9581 0.0000 0.0000
# 5 0.0000 0.0000 0.0000 0.0000 9.8899 0.0000
# 6 0.0000 0.0000 0.0000 0.0000 0.0000 33.6323
#
#
#
# Elastic Compliance Matrix: (Units=1/GPa)
#
#
# Indices 1 2 3 4 5 6 
#
# 1 0.021732 -0.010929 -0.000136 0.000000 0.000000 0.000000
# 2 -0.010929 0.023386 -0.004903 0.000000 0.000000 0.000000
# 3 -0.000136 -0.004903 0.013545 0.000000 0.000000 0.000000
# 4 0.000000 0.000000 0.000000 0.043558 0.000000 0.000000
# 5 0.000000 0.000000 0.000000 0.000000 0.101114 0.000000
# 6 0.000000 0.000000 0.000000 0.000000 0.000000 0.029733
#
#
# Mechanical properties :
#
#
# Convention : Reuss Voigt Hill
#
# Bulk Modulus (GPa) = 37.41548 37.66338 37.53943
# Shear Modulus (GPa) = 18.25390 22.63391 20.44390
#
# Velocity S-wave (km/s) = 3.21589 3.58099 3.40334
# Velocity P-wave (km/s) = 5.91502 6.19973 6.05905
#
# Compressibility (1/GPa) = 0.02672691
#
# Stress axis : x y z
#
# Youngs Moduli (GPa) = 46.01487 42.76007 73.82617
#
# Poissons Ratio (x) = 0.46733 0.01005
# Poissons Ratio (y) = 0.50290 0.36199
# Poissons Ratio (z) = 0.00626 0.20966
#
# Static dielectric constant tensor:
#      x y z
#    x 1.583070 0.000000 0.000000 
#    y 0.000000 1.589740 0.000000 
#    z 0.000000 0.000000 1.604530 
# 
# From -- ./inp_files/10725.got.cif
#   From: 2010.05.17/outbox.cif.g08.bks.cpg/sg39_6_cif.got.tgz:10725.got - 2010.06.03 18:22:40.
