data_PCOD9359437
_publ_section_title
;
Structure prediction by ZEFSAII (Michael W. Deem and Ramdas Pophale) SiO2 
 PCOD9359437
Probable space group: A M M 2
;
_chemical_formula_sum "Si O2"
_cell_formula_units_Z 64
_cell_length_a 7.817396
_cell_length_b 21.136837
_cell_length_c 16.245994
_cell_angle_alpha 90.000000
_cell_angle_beta 90.000000
_cell_angle_gamma 90.000000
_cell_volume 2684.407225
_symmetry_space_group_name_H-M "A M M 2"
_symmetry_group_IT_number 38
_symmetry_cell_setting 'orthorhombic'
loop_
_space_group_symop_operation_xyz
x,y,z
-x,-y,z
-x,y,z
x,-y,z
x,1/2+y,1/2+z
-x,1/2-y,1/2+z
-x,1/2+y,1/2+z
x,1/2-y,1/2+z
loop_
_atom_site_type_symbol
_atom_site_label
_atom_site_fract_x
_atom_site_fract_y
_atom_site_fract_z
Si Si1 0.806464 0.609075 0.900920
Si Si2 0.289346 0.427903 0.432294
Si Si3 0.703592 0.928060 0.576859
Si Si4 0.195756 0.255090 0.348284
Si Si5 0.790286 0.068557 0.227392
Si Si6 0.301612 0.577354 0.251231
Si Si7 0.304607 0.189266 0.016599
Si Si8 0.200940 0.709614 0.683900
O O1 0.809840 0.680565 0.869011
O O2 0.732512 0.571322 0.823307
O O3 0.000000 0.586094 0.912067
O O4 0.727279 0.606480 0.990886
O O5 0.500000 0.426151 0.431444
O O6 0.238447 0.500000 0.445657
O O7 0.228264 0.406876 0.340908
O O8 0.228085 0.380560 0.502520
O O9 0.500000 0.931809 0.590533
O O10 0.775151 0.901740 0.663647
O O11 0.768155 0.000000 0.565634
O O12 0.295495 0.283549 0.424863
O O13 0.271557 0.255252 0.255699
O O14 0.000000 0.279042 0.350951
O O15 0.734192 0.136480 0.190283
O O16 0.000000 0.069596 0.226490
O O17 0.736985 0.000000 0.191863
O O18 0.500000 0.597353 0.255182
O O19 0.299950 0.500000 0.248416
O O20 0.500000 0.184566 0.042017
O O21 0.219485 0.228696 0.089147
O O22 0.000000 0.707242 0.703137
#
# Coordination Sequence:
#
# PCOD9359437 Si02
#       8
#     8   8   8   8   8   8   8   8
#     4   9  17  30  49  71  97 134 180 225 267 315
#     4   8  15  30  51  75 106 141 172 206 259 327
#     4   9  16  25  41  69 103 137 174 216 265 318
#     4   9  20  40  59  74 102 146 189 227 270 323
#     4   8  14  27  50  78 104 135 178 220 260 313
#     4   7  11  23  42  62  91 133 171 200 238 300
#     4  11  22  35  57  87 112 138 177 228 278 324
#     4   9  19  37  59  79 106 147 186 221 267 325
#
# _framework density 23.841391000000002
#
# number of rings (size 3 to 8) (size 9 to 14) (size 15 to 20)
#    0.000    3.250    0.000    3.750    0.000    2.250 
#    2.250    1.875    0.000    2.625    0.000    3.500 
#    0.000    0.000    0.000    0.000    0.000    0.000 
#
# Total GULP energy -178323.550434 kJ/mol
# GULP energy per Si atom -5572.610951 kJ/mol
# Density = 2.378713 g / cm^3
# Si number density = 23.841391 Si / 1000 Ang^3
#
#
#
# Elastic Constant Matrix: (Units=GPa)
#
#
# Indices 1 2 3 4 5 6 
#
# 1 31.0367 4.5947 8.1172 0.0000 0.0000 0.0000
# 2 4.5947 27.5043 12.8493 0.0000 0.0000 0.0000
# 3 8.1172 12.8493 153.2488 0.0000 0.0000 0.0000
# 4 0.0000 0.0000 0.0000 24.4309 0.0000 0.0000
# 5 0.0000 0.0000 0.0000 0.0000 15.6284 0.0000
# 6 0.0000 0.0000 0.0000 0.0000 0.0000 11.5713
#
#
#
# Elastic Compliance Matrix: (Units=1/GPa)
#
#
# Indices 1 2 3 4 5 6 
#
# 1 0.033303 -0.004933 -0.001350 0.000000 0.000000 0.000000
# 2 -0.004933 0.038571 -0.002973 0.000000 0.000000 0.000000
# 3 -0.001350 -0.002973 0.006846 0.000000 0.000000 0.000000
# 4 0.000000 0.000000 0.000000 0.040932 0.000000 0.000000
# 5 0.000000 0.000000 0.000000 0.000000 0.063986 0.000000
# 6 0.000000 0.000000 0.000000 0.000000 0.000000 0.086420
#
#
# Mechanical properties :
#
#
# Convention : Reuss Voigt Hill
#
# Bulk Modulus (GPa) = 16.60890 29.21246 22.91068
# Shear Modulus (GPa) = 16.20014 22.74137 19.47076
#
# Velocity S-wave (km/s) = 2.60954 3.09181 2.86086
# Velocity P-wave (km/s) = 4.00764 5.00252 4.53246
#
# Compressibility (1/GPa) = 0.06020870
#
# Stress axis : x y z
#
# Youngs Moduli (GPa) = 30.02707 25.92637 146.06821
#
# Poissons Ratio (x) = 0.12788 0.19725
# Poissons Ratio (y) = 0.14811 0.43422
# Poissons Ratio (z) = 0.04055 0.07707
#
# Static dielectric constant tensor:
#      x y z
#    x 1.871290 0.000000 0.000000 
#    y 0.000000 1.967960 0.000000 
#    z 0.000000 0.000000 1.978300 
# 
# From -- ./inp_files/12802.got.cif
#   From: 2010.05.17/outbox.cif.g08.bks.cpg/sg38_7_cif.got.tgz:12802.got - 2010.06.03 18:07:57.
