data_PCOD9359393
_publ_section_title
;
Structure prediction by ZEFSAII (Michael W. Deem and Ramdas Pophale) SiO2 
 PCOD9359393
Probable space group: A M M 2
;
_chemical_formula_sum "Si O2"
_cell_formula_units_Z 48
_cell_length_a 7.921615
_cell_length_b 14.329038
_cell_length_c 24.599764
_cell_angle_alpha 90.000000
_cell_angle_beta 90.000000
_cell_angle_gamma 90.000000
_cell_volume 2792.297622
_symmetry_space_group_name_H-M "A M M 2"
_symmetry_group_IT_number 38
_symmetry_cell_setting 'orthorhombic'
loop_
_space_group_symop_operation_xyz
x,y,z
-x,-y,z
-x,y,z
x,-y,z
x,1/2+y,1/2+z
-x,1/2-y,1/2+z
-x,1/2+y,1/2+z
x,1/2-y,1/2+z
loop_
_atom_site_type_symbol
_atom_site_label
_atom_site_fract_x
_atom_site_fract_y
_atom_site_fract_z
Si Si1 0.703736 0.104901 0.705590
Si Si2 0.703894 0.107317 0.368061
Si Si3 0.698865 0.896089 0.154207
Si Si4 0.294015 0.107727 0.490466
Si Si5 0.706889 0.287661 0.097141
Si Si6 0.803708 0.291115 0.760189
O O1 0.500000 0.102801 0.705482
O O2 0.756312 0.142729 0.646096
O O3 0.756903 0.184002 0.748205
O O4 0.765399 0.000000 0.715663
O O5 0.500000 0.107634 0.367814
O O6 0.759621 0.132948 0.429226
O O7 0.763558 0.174242 0.320397
O O8 0.757996 0.000000 0.357551
O O9 0.500000 0.902940 0.142103
O O10 0.767431 0.815146 0.114680
O O11 0.712749 0.855280 0.215172
O O12 0.772528 0.000000 0.150204
O O13 0.500000 0.109265 0.490723
O O14 0.236144 0.173992 0.539088
O O15 0.245068 0.000000 0.500727
O O16 0.500000 0.286303 0.096756
O O17 0.000000 0.303033 0.749475
#
# Coordination Sequence:
#
# PCOD9359393 Si02
#       6
#     8   8   8   8   8   8
#     4   9  17  30  49  70  91 116 144 175 214 261
#     4   9  17  29  45  64  87 117 151 185 221 261
#     4   9  17  29  45  65  90 119 149 182 220 261
#     4   8  13  22  40  66  90 111 139 178 222 264
#     4   8  13  23  42  68  92 112 138 175 219 263
#     4  11  21  30  43  64  90 119 149 183 222 261
#
# _framework density 17.190145000000001
#
# number of rings (size 3 to 8) (size 9 to 14) (size 15 to 20)
#    0.000    3.000    0.000    4.500    0.000    5.000 
#    0.000    0.000    0.000    5.000    0.000    9.333 
#    0.000    0.000    0.000    0.000    0.000    0.000 
#
# Total GULP energy -133733.162699 kJ/mol
# GULP energy per Si atom -5572.215112 kJ/mol
# Density = 1.715102 g / cm^3
# Si number density = 17.190145 Si / 1000 Ang^3
#
#
#
# Elastic Constant Matrix: (Units=GPa)
#
#
# Indices 1 2 3 4 5 6 
#
# 1 15.9526 4.7166 1.0627 0.0000 0.0000 0.0000
# 2 4.7166 148.8358 94.6566 0.0000 0.0000 0.0000
# 3 1.0627 94.6566 138.2222 0.0000 0.0000 0.0000
# 4 0.0000 0.0000 0.0000 21.9010 0.0000 0.0000
# 5 0.0000 0.0000 0.0000 0.0000 -18.2564 0.0000
# 6 0.0000 0.0000 0.0000 0.0000 0.0000 -5.3185
#
#
#
# Elastic Compliance Matrix: (Units=1/GPa)
#
#
# Indices 1 2 3 4 5 6 
#
# 1 0.063472 -0.003014 0.001576 0.000000 0.000000 0.000000
# 2 -0.003014 0.012046 -0.008226 0.000000 0.000000 0.000000
# 3 0.001576 -0.008226 0.012856 0.000000 0.000000 0.000000
# 4 0.000000 0.000000 0.000000 0.045660 0.000000 0.000000
# 5 0.000000 0.000000 0.000000 0.000000 -0.054775 0.000000
# 6 0.000000 0.000000 0.000000 0.000000 0.000000 -0.188022
#
#
# Mechanical properties :
#
#
# Convention : Reuss Voigt Hill
#
# Bulk Modulus (GPa) = 14.48310 55.98691 35.23501
# Shear Modulus (GPa) = -75.27780 13.17021 -31.05380
#
# Velocity S-wave (km/s) = -6.62468 2.77094 -4.25489
# Velocity P-wave (km/s) = 7.07613 6.54808 1.89660
#
# Compressibility (1/GPa) = 0.06904597
#
# Stress axis : x y z
#
# Youngs Moduli (GPa) = 15.75502 83.01577 77.78516
#
# Poissons Ratio (x) = 0.25017 -0.12257
# Poissons Ratio (y) = 0.04748 0.63986
# Poissons Ratio (z) = -0.02483 0.68289
#
# Static dielectric constant tensor:
#      x y z
#    x 1.606310 0.000000 0.000000 
#    y 0.000000 1.593090 0.000000 
#    z 0.000000 0.000000 1.569300 
# 
# From -- ./inp_files/19630.got.cif
#   From: 2010.05.17/outbox.cif.g08.bks.cpg/sg38_10_cif.got.tgz:19630.got - 2010.06.03 18:07:57.
