data_PCOD9359212
_publ_section_title
;
Structure prediction by ZEFSAII (Michael W. Deem and Ramdas Pophale) SiO2 
 PCOD9359212
Probable space group: A M M 2
;
_chemical_formula_sum "Si O2"
_cell_formula_units_Z 64
_cell_length_a 14.781914
_cell_length_b 9.501943
_cell_length_c 24.900981
_cell_angle_alpha 90.000000
_cell_angle_beta 90.000000
_cell_angle_gamma 90.000000
_cell_volume 3497.514704
_symmetry_space_group_name_H-M "A M M 2"
_symmetry_group_IT_number 38
_symmetry_cell_setting 'orthorhombic'
loop_
_space_group_symop_operation_xyz
x,y,z
-x,-y,z
-x,y,z
x,-y,z
x,1/2+y,1/2+z
-x,1/2-y,1/2+z
-x,1/2+y,1/2+z
x,1/2-y,1/2+z
loop_
_atom_site_type_symbol
_atom_site_label
_atom_site_fract_x
_atom_site_fract_y
_atom_site_fract_z
Si Si1 0.394212 0.832511 0.795870
Si Si2 0.390035 0.161791 0.191951
Si Si3 0.889849 0.160845 0.188346
Si Si4 0.892667 0.835371 0.792457
Si Si5 0.743205 0.832331 0.495688
Si Si6 0.893971 0.334489 0.083819
Si Si7 0.751730 0.667881 0.384797
Si Si8 0.608286 0.667500 0.570889
O O1 0.500000 0.797978 0.804305
O O2 0.361331 0.755865 0.741928
O O3 0.334646 0.796851 0.847561
O O4 0.386847 0.000000 0.787726
O O5 0.500000 0.164224 0.191526
O O6 0.363465 0.207004 0.131912
O O7 0.362594 0.000000 0.199880
O O8 0.862392 0.240830 0.242429
O O9 0.863196 0.242844 0.134604
O O10 0.000000 0.161555 0.188590
O O11 0.859152 0.000000 0.187529
O O12 0.837546 0.804941 0.846337
O O13 0.000000 0.815443 0.800488
O O14 0.877433 0.000000 0.779055
O O15 0.832194 0.808298 0.532248
O O16 0.753192 0.758075 0.438432
O O17 0.661639 0.759426 0.528121
O O18 0.729871 0.000000 0.490470
O O19 0.886948 0.500000 0.097779
O O20 0.000000 0.304454 0.073202
O O21 0.749045 0.500000 0.396944
O O22 0.500000 0.686212 0.566161
O O23 0.626380 0.500000 0.564217
#
# Coordination Sequence:
#
# PCOD9359212 Si02
#       8
#     8   8   8   8   8   8   8   8
#     4   9  18  33  53  76 102 133 167 205 252 304
#     4   8  15  30  53  80 106 132 165 204 250 306
#     4   9  17  30  52  83 111 134 168 215 265 317
#     4   9  18  34  55  77 104 139 174 212 264 321
#     4  11  24  38  54  79 106 136 182 232 271 310
#     4   9  19  37  57  76 105 144 178 213 266 328
#     4  10  22  38  53  72 101 138 181 220 256 312
#     4   9  19  37  59  81 109 145 177 209 260 323
#
# _framework density 18.298708000000001
#
# number of rings (size 3 to 8) (size 9 to 14) (size 15 to 20)
#    0.000    2.750    0.000    1.500    0.000    6.250 
#    0.000    6.250    0.000    0.000    0.000    0.000 
#    0.000    0.000    0.000    0.000    0.000    0.000 
#
# Total GULP energy -178583.082291 kJ/mol
# GULP energy per Si atom -5580.721322 kJ/mol
# Density = 1.825706 g / cm^3
# Si number density = 18.298708 Si / 1000 Ang^3
#
#
#
# Elastic Constant Matrix: (Units=GPa)
#
#
# Indices 1 2 3 4 5 6 
#
# 1 81.7055 56.8630 67.8421 0.0000 0.0000 0.0000
# 2 56.8630 93.3824 116.0903 0.0000 0.0000 0.0000
# 3 67.8421 116.0903 196.3350 0.0000 0.0000 0.0000
# 4 0.0000 0.0000 0.0000 154.2176 0.0000 0.0000
# 5 0.0000 0.0000 0.0000 0.0000 27.1046 0.0000
# 6 0.0000 0.0000 0.0000 0.0000 0.0000 15.1516
#
#
#
# Elastic Compliance Matrix: (Units=1/GPa)
#
#
# Indices 1 2 3 4 5 6 
#
# 1 0.021311 -0.014428 0.001167 0.000000 0.000000 0.000000
# 2 -0.014428 0.050188 -0.024690 0.000000 0.000000 0.000000
# 3 0.001167 -0.024690 0.019289 0.000000 0.000000 0.000000
# 4 0.000000 0.000000 0.000000 0.006484 0.000000 0.000000
# 5 0.000000 0.000000 0.000000 0.000000 0.036894 0.000000
# 6 0.000000 0.000000 0.000000 0.000000 0.000000 0.066000
#
#
# Mechanical properties :
#
#
# Convention : Reuss Voigt Hill
#
# Bulk Modulus (GPa) = 67.17461 94.77929 80.97695
# Shear Modulus (GPa) = 17.79165 48.00326 32.89746
#
# Velocity S-wave (km/s) = 3.12154 5.12739 4.24465
# Velocity P-wave (km/s) = 7.05562 9.32532 8.26871
#
# Compressibility (1/GPa) = 0.01488658
#
# Stress axis : x y z
#
# Youngs Moduli (GPa) = 46.92416 19.92495 51.84260
#
# Poissons Ratio (x) = 0.28747 -0.06050
# Poissons Ratio (y) = 0.67700 1.28001
# Poissons Ratio (z) = -0.05476 0.49195
#
# Static dielectric constant tensor:
#      x y z
#    x 1.661820 0.000000 0.000000 
#    y 0.000000 1.601850 0.000000 
#    z 0.000000 0.000000 1.588480 
# 
# From -- ./inp_files/22940.got.cif
#   From: 2010.05.17/outbox.cif.g08.bks.cpg/sg38_12_cif.got.tgz:22940.got - 2010.06.03 18:07:57.
