data_PCOD9359484
_publ_section_title
;
Structure prediction by ZEFSAII (Michael W. Deem and Ramdas Pophale) SiO2 
 PCOD9359484
Probable space group: A M M 2
;
_chemical_formula_sum "Si O2"
_cell_formula_units_Z 48
_cell_length_a 8.807113
_cell_length_b 13.902997
_cell_length_c 18.896442
_cell_angle_alpha 90.000000
_cell_angle_beta 90.000000
_cell_angle_gamma 90.000000
_cell_volume 2313.779860
_symmetry_space_group_name_H-M "A M M 2"
_symmetry_group_IT_number 38
_symmetry_cell_setting 'orthorhombic'
loop_
_space_group_symop_operation_xyz
x,y,z
-x,-y,z
-x,y,z
x,-y,z
x,1/2+y,1/2+z
-x,1/2-y,1/2+z
-x,1/2+y,1/2+z
x,1/2-y,1/2+z
loop_
_atom_site_type_symbol
_atom_site_label
_atom_site_fract_x
_atom_site_fract_y
_atom_site_fract_z
Si Si1 0.167341 0.390733 0.407950
Si Si2 0.675374 0.747873 0.503538
Si Si3 0.818066 0.112078 0.397892
Si Si4 0.818351 0.108075 0.118020
Si Si5 0.679938 0.193241 0.253561
Si Si6 0.825256 0.392439 0.237981
O O1 0.175028 0.500000 0.433106
O O2 0.300732 0.329057 0.440191
O O3 0.170495 0.394416 0.323556
O O4 0.000000 0.351500 0.429478
O O5 0.500000 0.766121 0.518467
O O6 0.755854 0.841270 0.470443
O O7 0.753480 0.692401 0.568441
O O8 0.753004 0.169310 0.329865
O O9 0.000000 0.119067 0.396237
O O10 0.774725 0.000000 0.392317
O O11 0.750984 0.121979 0.196027
O O12 0.000000 0.115112 0.120077
O O13 0.777808 0.000000 0.093154
O O14 0.500000 0.183604 0.258612
O O15 0.723419 0.299699 0.224542
O O16 0.776871 0.500000 0.214453
O O17 0.000000 0.376929 0.213935
#
# Coordination Sequence:
#
# PCOD9359484 Si02
#       6
#     8   8   8   8   8   8
#     4   9  17  31  54  83 117 158 201 244 292 354
#     4  12  24  38  60  93 128 160 199 259 323 373
#     4  11  24  43  67  92 122 167 219 263 309 376
#     4  11  25  45  68  92 124 171 218 258 309 380
#     4  12  24  39  63  97 134 167 206 265 326 377
#     4   9  18  34  58  87 121 163 209 253 299 360
#
# _framework density 20.745274999999999
#
# number of rings (size 3 to 8) (size 9 to 14) (size 15 to 20)
#    0.000    1.333    1.667    6.000    0.000    7.333 
#    0.000    2.500    0.000    5.000    0.000    0.000 
#    0.000    0.000    0.000    0.000    0.000    0.000 
#
# Total GULP energy -134029.454184 kJ/mol
# GULP energy per Si atom -5584.560591 kJ/mol
# Density = 2.069806 g / cm^3
# Si number density = 20.745275 Si / 1000 Ang^3
#
#
#
# Elastic Constant Matrix: (Units=GPa)
#
#
# Indices 1 2 3 4 5 6 
#
# 1 98.3434 37.2384 30.5918 0.0000 0.0000 0.0000
# 2 37.2384 123.1255 26.9801 0.0000 0.0000 0.0000
# 3 30.5918 26.9801 70.4625 0.0000 0.0000 0.0000
# 4 0.0000 0.0000 0.0000 24.2897 0.0000 0.0000
# 5 0.0000 0.0000 0.0000 0.0000 46.8825 0.0000
# 6 0.0000 0.0000 0.0000 0.0000 0.0000 -40.1831
#
#
#
# Elastic Compliance Matrix: (Units=1/GPa)
#
#
# Indices 1 2 3 4 5 6 
#
# 1 0.012613 -0.002854 -0.004383 0.000000 0.000000 0.000000
# 2 -0.002854 0.009512 -0.002403 0.000000 0.000000 0.000000
# 3 -0.004383 -0.002403 0.017015 0.000000 0.000000 0.000000
# 4 0.000000 0.000000 0.000000 0.041170 0.000000 0.000000
# 5 0.000000 0.000000 0.000000 0.000000 0.021330 0.000000
# 6 0.000000 0.000000 0.000000 0.000000 0.000000 -0.024886
#
#
# Mechanical properties :
#
#
# Convention : Reuss Voigt Hill
#
# Bulk Modulus (GPa) = 50.35474 53.50577 51.93025
# Shear Modulus (GPa) = 48.70816 19.33924 34.02370
#
# Velocity S-wave (km/s) = 4.85079 3.05655 4.05417
# Velocity P-wave (km/s) = 7.46318 6.18906 6.85578
#
# Compressibility (1/GPa) = 0.01985910
#
# Stress axis : x y z
#
# Youngs Moduli (GPa) = 79.28566 105.13551 58.77207
#
# Poissons Ratio (x) = 0.30007 0.25760
# Poissons Ratio (y) = 0.22629 0.14122
# Poissons Ratio (z) = 0.34751 0.25262
#
# Static dielectric constant tensor:
#      x y z
#    x 1.675910 0.000000 0.000000 
#    y 0.000000 1.787710 0.000000 
#    z 0.000000 0.000000 1.758220 
# 
# From -- ./inp_files/16639.got.cif
#   From: 2010.05.17/outbox.cif.g08.bks.cpg/sg38_9_cif.got.tgz:16639.got - 2010.06.03 18:07:57.
