data_PCOD9359487
_publ_section_title
;
Structure prediction by ZEFSAII (Michael W. Deem and Ramdas Pophale) SiO2 
 PCOD9359487
Probable space group: A M M 2
;
_chemical_formula_sum "Si O2"
_cell_formula_units_Z 56
_cell_length_a 19.688687
_cell_length_b 15.713508
_cell_length_c 9.042331
_cell_angle_alpha 90.000000
_cell_angle_beta 90.000000
_cell_angle_gamma 90.000000
_cell_volume 2797.501361
_symmetry_space_group_name_H-M "A M M 2"
_symmetry_group_IT_number 38
_symmetry_cell_setting 'orthorhombic'
loop_
_space_group_symop_operation_xyz
x,y,z
-x,-y,z
-x,y,z
x,-y,z
x,1/2+y,1/2+z
-x,1/2-y,1/2+z
-x,1/2+y,1/2+z
x,1/2-y,1/2+z
loop_
_atom_site_type_symbol
_atom_site_label
_atom_site_fract_x
_atom_site_fract_y
_atom_site_fract_z
Si Si1 0.766807 0.752849 0.421360
Si Si2 0.421186 0.902587 0.196881
Si Si3 0.862070 0.096990 0.307224
Si Si4 0.671408 0.253870 0.171425
Si Si5 0.000000 0.656611 0.953007
Si Si6 0.000000 0.155694 0.808319
Si Si7 0.421269 0.596899 0.054863
Si Si8 0.137175 0.903550 0.954969
O O1 0.808788 0.834413 0.368008
O O2 0.694299 0.747897 0.340797
O O3 0.744140 0.758874 0.590811
O O4 0.811029 0.668384 0.401498
O O5 0.500000 0.885569 0.156036
O O6 0.370005 0.832068 0.136961
O O7 0.417454 0.898205 0.376096
O O8 0.404767 0.000000 0.154063
O O9 0.932589 0.110862 0.393078
O O10 0.837921 0.000000 0.328135
O O11 0.873807 0.109650 0.131407
O O12 0.626283 0.334248 0.129860
O O13 0.000000 0.750610 0.881339
O O14 0.000000 0.661356 0.130726
O O15 0.066929 0.109258 0.868584
O O16 0.500000 0.611859 0.095125
O O17 0.403275 0.500000 0.096172
O O18 0.162138 0.000000 0.934113
#
# Coordination Sequence:
#
# PCOD9359487 Si02
#       8
#     8   8   8   8   4   4   8   8
#     4  12  26  41  62  93 128 173 210 260 310 377
#     4   9  19  38  65  93 122 163 213 259 309 376
#     4  11  25  46  69  94 127 170 217 263 320 382
#     4  12  23  40  63  92 129 165 213 255 318 371
#     4  12  25  42  71 100 128 164 213 269 322 373
#     4  12  25  42  71 100 130 164 211 269 322 375
#     4   9  19  38  64  93 124 162 209 260 313 374
#     4  11  25  46  68  94 129 169 213 265 324 378
#
# _framework density 20.017862999999998
#
# number of rings (size 3 to 8) (size 9 to 14) (size 15 to 20)
#    0.000    1.143    4.286    3.000    2.000    4.571 
#    0.000    0.000    0.000    1.714    0.000    0.000 
#    0.000    0.000    0.000    0.000    0.000    0.000 
#
# Total GULP energy -156463.787900 kJ/mol
# GULP energy per Si atom -5587.992425 kJ/mol
# Density = 1.997230 g / cm^3
# Si number density = 20.017863 Si / 1000 Ang^3
#
#
#
# Elastic Constant Matrix: (Units=GPa)
#
#
# Indices 1 2 3 4 5 6 
#
# 1 97.9728 84.4020 28.8655 0.0000 0.0000 0.0000
# 2 84.4020 162.9045 46.2000 0.0000 0.0000 0.0000
# 3 28.8655 46.2000 60.9804 0.0000 0.0000 0.0000
# 4 0.0000 0.0000 0.0000 30.2363 0.0000 0.0000
# 5 0.0000 0.0000 0.0000 0.0000 25.7459 0.0000
# 6 0.0000 0.0000 0.0000 0.0000 0.0000 -61.9069
#
#
#
# Elastic Compliance Matrix: (Units=1/GPa)
#
#
# Indices 1 2 3 4 5 6 
#
# 1 0.018609 -0.009098 -0.001916 0.000000 0.000000 0.000000
# 2 -0.009098 0.012267 -0.004987 0.000000 0.000000 0.000000
# 3 -0.001916 -0.004987 0.021084 0.000000 0.000000 0.000000
# 4 0.000000 0.000000 0.000000 0.033073 0.000000 0.000000
# 5 0.000000 0.000000 0.000000 0.000000 0.038841 0.000000
# 6 0.000000 0.000000 0.000000 0.000000 0.000000 -0.016153
#
#
# Mechanical properties :
#
#
# Convention : Reuss Voigt Hill
#
# Bulk Modulus (GPa) = 50.10526 71.19918 60.65222
# Shear Modulus (GPa) = 34.15881 9.64106 21.89994
#
# Velocity S-wave (km/s) = 4.13536 2.19697 3.31119
# Velocity P-wave (km/s) = 6.91999 6.48696 6.70697
#
# Compressibility (1/GPa) = 0.01995799
#
# Stress axis : x y z
#
# Youngs Moduli (GPa) = 53.73610 81.52109 47.43013
#
# Poissons Ratio (x) = 0.74171 0.09087
# Poissons Ratio (y) = 0.48891 0.23652
# Poissons Ratio (z) = 0.10295 0.40653
#
# Static dielectric constant tensor:
#      x y z
#    x 1.683890 0.000000 0.000000 
#    y 0.000000 1.689540 0.000000 
#    z 0.000000 0.000000 1.678970 
# 
# From -- ./inp_files/6761.got.cif
#   From: 2010.05.17/outbox.cif.g08.bks.cpg/sg38_4_cif.got.tgz:6761.got - 2010.06.03 18:07:57.
