data_PCOD9359851
_publ_section_title
;
Structure prediction by ZEFSAII (Michael W. Deem and Ramdas Pophale) SiO2 
 PCOD9359851
Probable space group: A B M 2
;
_chemical_formula_sum "Si O2"
_cell_formula_units_Z 44
_cell_length_a 14.584239
_cell_length_b 14.821208
_cell_length_c 8.766265
_cell_angle_alpha 90.000000
_cell_angle_beta 90.000000
_cell_angle_gamma 90.000000
_cell_volume 1894.881126
_symmetry_space_group_name_H-M "A B M 2"
_symmetry_group_IT_number 39
_symmetry_cell_setting 'orthorhombic'
loop_
_space_group_symop_operation_xyz
x,y,z
-x,-y,z
-x,1/2+y,z
x,1/2-y,z
x,1/2+y,1/2+z
-x,1/2-y,1/2+z
-x,y,1/2+z
x,-y,1/2+z
loop_
_atom_site_type_symbol
_atom_site_label
_atom_site_fract_x
_atom_site_fract_y
_atom_site_fract_z
Si Si1 0.500000 0.000000 0.735361
Si Si2 0.025101 0.607753 0.025946
Si Si3 0.862145 0.120292 0.322246
Si Si4 0.299017 0.653055 0.525142
Si Si5 0.628293 0.454793 0.988798
Si Si6 0.193117 0.589230 0.825879
O O1 0.565906 0.059202 0.841379
O O2 0.433152 0.063391 0.635608
O O3 0.076204 0.642421 0.175980
O O4 0.000000 0.500000 0.044067
O O5 0.099576 0.627277 0.893801
O O6 0.928500 0.641634 0.965098
O O7 0.765331 0.157874 0.375387
O O8 0.836110 0.014693 0.297510
O O9 0.345171 0.750000 0.545927
O O10 0.357960 0.563253 0.503273
O O11 0.236433 0.632209 0.675162
O O12 0.727460 0.412765 0.956362
#
# Coordination Sequence:
#
# PCOD9359851 Si02
#       6
#     4   8   8   8   8   8
#     4  10  20  36  66  94 112 140 202 244 292 340
#     4  10  18  30  56  87 112 145 205 256 283 324
#     4  10  19  33  56  83 113 155 202 246 285 337
#     4  11  23  39  57  86 125 160 190 239 296 352
#     4  10  20  37  63  91 114 151 191 243 286 357
#     4  10  19  34  58  84 114 153 196 238 289 346
#
# _framework density 23.220455000000001
#
# number of rings (size 3 to 8) (size 9 to 14) (size 15 to 20)
#    0.000    1.818    1.818    6.000    2.545    0.000 
#    0.000    5.455    0.000    0.000    0.000    0.000 
#    0.000    0.000    0.000    0.000    0.000    0.000 
#
# Total GULP energy -122682.551265 kJ/mol
# GULP energy per Si atom -5576.479603 kJ/mol
# Density = 2.316760 g / cm^3
# Si number density = 23.220455 Si / 1000 Ang^3
#
#
#
# Elastic Constant Matrix: (Units=GPa)
#
#
# Indices 1 2 3 4 5 6 
#
# 1 92.4750 -0.8665 5.4820 0.0000 0.0000 0.0000
# 2 -0.8665 64.9658 -1.7697 0.0000 0.0000 0.0000
# 3 5.4820 -1.7697 83.2420 0.0000 0.0000 0.0000
# 4 0.0000 0.0000 0.0000 -5.6147 0.0000 0.0000
# 5 0.0000 0.0000 0.0000 0.0000 53.9234 0.0000
# 6 0.0000 0.0000 0.0000 0.0000 0.0000 -17.7567
#
#
#
# Elastic Compliance Matrix: (Units=1/GPa)
#
#
# Indices 1 2 3 4 5 6 
#
# 1 0.010857 0.000125 -0.000712 0.000000 0.000000 0.000000
# 2 0.000125 0.015403 0.000319 0.000000 0.000000 0.000000
# 3 -0.000712 0.000319 0.012067 0.000000 0.000000 0.000000
# 4 0.000000 0.000000 0.000000 -0.178105 0.000000 0.000000
# 5 0.000000 0.000000 0.000000 0.000000 0.018545 0.000000
# 6 0.000000 0.000000 0.000000 0.000000 0.000000 -0.056317
#
#
# Mechanical properties :
#
#
# Convention : Reuss Voigt Hill
#
# Bulk Modulus (GPa) = 26.46088 27.37492 26.91790
# Shear Modulus (GPa) = -30.41044 21.96621 -4.22212
#
# Velocity S-wave (km/s) = -3.62282 3.07902 -1.34990
# Velocity P-wave (km/s) = 2.46567 4.94523 3.03115
#
# Compressibility (1/GPa) = 0.03779163
#
# Stress axis : x y z
#
# Youngs Moduli (GPa) = 92.10530 64.92204 82.87161
#
# Poissons Ratio (x) = -0.00814 0.05903
# Poissons Ratio (y) = -0.01155 -0.02645
# Poissons Ratio (z) = 0.06561 -0.02072
#
# Static dielectric constant tensor:
#      x y z
#    x 1.846590 0.000000 0.000000 
#    y 0.000000 2.104790 0.000000 
#    z 0.000000 0.000000 1.944340 
# 
# From -- ./inp_files/3184.got.cif
#   From: 2010.05.17/outbox.cif.g08.bks.cpg/sg39_2_cif.got.tgz:3184.got - 2010.06.03 18:22:40.
