data_PCOD9359082
_publ_section_title
;
Structure prediction by ZEFSAII (Michael W. Deem and Ramdas Pophale) SiO2 
 PCOD9359082
Probable space group: A M M 2
;
_chemical_formula_sum "Si O2"
_cell_formula_units_Z 64
_cell_length_a 16.124117
_cell_length_b 16.568254
_cell_length_c 11.554082
_cell_angle_alpha 90.000000
_cell_angle_beta 90.000000
_cell_angle_gamma 90.000000
_cell_volume 3086.655282
_symmetry_space_group_name_H-M "A M M 2"
_symmetry_group_IT_number 38
_symmetry_cell_setting 'orthorhombic'
loop_
_space_group_symop_operation_xyz
x,y,z
-x,-y,z
-x,y,z
x,-y,z
x,1/2+y,1/2+z
-x,1/2-y,1/2+z
-x,1/2+y,1/2+z
x,1/2-y,1/2+z
loop_
_atom_site_type_symbol
_atom_site_label
_atom_site_fract_x
_atom_site_fract_y
_atom_site_fract_z
Si Si1 0.911237 0.097091 0.043190
Si Si2 0.410808 0.802369 0.147074
Si Si3 0.594614 0.595769 0.251342
Si Si4 0.748623 0.406044 0.670733
Si Si5 0.906513 0.693198 0.306304
Si Si6 0.630279 0.230634 0.902716
Si Si7 0.224056 0.902911 0.648556
Si Si8 0.795537 0.673158 0.900709
O O1 0.830710 0.127257 0.109066
O O2 0.000000 0.117917 0.099258
O O3 0.906761 0.000000 0.036946
O O4 0.910588 0.134940 0.917217
O O5 0.500000 0.843667 0.145385
O O6 0.332074 0.858813 0.133264
O O7 0.401761 0.766331 0.278096
O O8 0.407406 0.748684 0.028623
O O9 0.500000 0.619005 0.211690
O O10 0.593885 0.500000 0.260811
O O11 0.611830 0.637439 0.374832
O O12 0.678346 0.615088 0.177117
O O13 0.740317 0.500000 0.646372
O O14 0.763418 0.389406 0.805307
O O15 0.836555 0.652060 0.226516
O O16 0.876018 0.779923 0.354118
O O17 0.000000 0.696990 0.255785
O O18 0.725227 0.257520 0.909725
O O19 0.201289 0.874263 0.520091
O O20 0.211844 0.000000 0.664699
#
# Coordination Sequence:
#
# PCOD9359082 Si02
#       8
#     8   8   8   8   8   8   8   8
#     4   9  19  38  63  89 119 157 203 257 317 380
#     4  11  23  38  61  91 126 169 212 267 328 389
#     4  10  21  38  63  96 133 175 224 278 335 398
#     4  10  23  41  62  89 124 165 210 256 314 389
#     4  11  24  41  67  98 129 164 214 276 334 393
#     4  11  22  40  63  90 128 171 220 273 332 399
#     4  11  24  44  70  97 135 181 225 276 338 409
#     4  11  24  41  65  93 131 170 216 268 331 398
#
# _framework density 20.734417000000001
#
# number of rings (size 3 to 8) (size 9 to 14) (size 15 to 20)
#    0.000    1.500    1.250    3.375    3.500    2.500 
#    0.000    3.125    0.000    5.250    0.000    0.000 
#    0.000    0.000    0.000    0.000    0.000    0.000 
#
# Total GULP energy -178384.735124 kJ/mol
# GULP energy per Si atom -5574.522973 kJ/mol
# Density = 2.068722 g / cm^3
# Si number density = 20.734417 Si / 1000 Ang^3
#
#
#
# Elastic Constant Matrix: (Units=GPa)
#
#
# Indices 1 2 3 4 5 6 
#
# 1 133.4352 38.5305 29.6673 0.0000 0.0000 0.0000
# 2 38.5305 38.7459 20.5291 0.0000 0.0000 0.0000
# 3 29.6673 20.5291 108.1387 0.0000 0.0000 0.0000
# 4 0.0000 0.0000 0.0000 26.5963 0.0000 0.0000
# 5 0.0000 0.0000 0.0000 0.0000 7.6492 0.0000
# 6 0.0000 0.0000 0.0000 0.0000 0.0000 32.3346
#
#
#
# Elastic Compliance Matrix: (Units=1/GPa)
#
#
# Indices 1 2 3 4 5 6 
#
# 1 0.010611 -0.010018 -0.001009 0.000000 0.000000 0.000000
# 2 -0.010018 0.038152 -0.004495 0.000000 0.000000 0.000000
# 3 -0.001009 -0.004495 0.010378 0.000000 0.000000 0.000000
# 4 0.000000 0.000000 0.000000 0.037599 0.000000 0.000000
# 5 0.000000 0.000000 0.000000 0.000000 0.130732 0.000000
# 6 0.000000 0.000000 0.000000 0.000000 0.000000 0.030927
#
#
# Mechanical properties :
#
#
# Convention : Reuss Voigt Hill
#
# Bulk Modulus (GPa) = 35.58942 50.86372 43.22657
# Shear Modulus (GPa) = 16.73314 26.08889 21.41102
#
# Velocity S-wave (km/s) = 2.84390 3.55102 3.21694
# Velocity P-wave (km/s) = 5.29012 6.43407 5.88993
#
# Compressibility (1/GPa) = 0.02809824
#
# Stress axis : x y z
#
# Youngs Moduli (GPa) = 94.23869 26.21061 96.36163
#
# Poissons Ratio (x) = 0.26257 0.09727
# Poissons Ratio (y) = 0.94404 0.43311
# Poissons Ratio (z) = 0.09513 0.11781
#
# Static dielectric constant tensor:
#      x y z
#    x 1.767540 0.000000 0.000000 
#    y 0.000000 1.771100 0.000000 
#    z 0.000000 0.000000 1.748110 
# 
# From -- ./inp_files/10246.got.cif
#   From: 2010.05.17/outbox.cif.g08.bks.cpg/sg38_6_cif.got.tgz:10246.got - 2010.06.03 18:07:57.
