data_PCOD9359255
_publ_section_title
;
Structure prediction by ZEFSAII (Michael W. Deem and Ramdas Pophale) SiO2 
 PCOD9359255
Probable space group: A M M 2
;
_chemical_formula_sum "Si O2"
_cell_formula_units_Z 40
_cell_length_a 9.034379
_cell_length_b 7.571317
_cell_length_c 30.541119
_cell_angle_alpha 90.000000
_cell_angle_beta 90.000000
_cell_angle_gamma 90.000000
_cell_volume 2089.078121
_symmetry_space_group_name_H-M "A M M 2"
_symmetry_group_IT_number 38
_symmetry_cell_setting 'orthorhombic'
loop_
_space_group_symop_operation_xyz
x,y,z
-x,-y,z
-x,y,z
x,-y,z
x,1/2+y,1/2+z
-x,1/2-y,1/2+z
-x,1/2+y,1/2+z
x,1/2-y,1/2+z
loop_
_atom_site_type_symbol
_atom_site_label
_atom_site_fract_x
_atom_site_fract_y
_atom_site_fract_z
Si Si1 0.168996 0.210826 0.305520
Si Si2 0.321204 0.000000 0.560327
Si Si3 0.675719 0.788716 0.216221
Si Si4 0.322632 0.795090 0.990534
Si Si5 0.168427 0.788503 0.901846
Si Si6 0.177012 0.000000 0.655388
O O1 0.265006 0.268035 0.264153
O O2 0.231590 0.249301 0.353763
O O3 0.000000 0.282137 0.303197
O O4 0.159500 0.000000 0.302295
O O5 0.281841 0.829756 0.530855
O O6 0.500000 0.000000 0.567067
O O7 0.239198 0.000000 0.606264
O O8 0.500000 0.759616 0.213106
O O9 0.760013 0.671342 0.180725
O O10 0.702524 0.000000 0.210846
O O11 0.500000 0.790183 0.986444
O O12 0.278615 0.000000 0.997584
O O13 0.254879 0.728338 0.944748
O O14 0.000000 0.719274 0.902419
O O15 0.162903 0.000000 0.905020
O O16 0.000000 0.000000 0.656250
#
# Coordination Sequence:
#
# PCOD9359255 Si02
#       6
#     8   4   8   8   8   4
#     4   9  18  32  51  79 114 153 194 237 289 346
#     4  10  22  40  60  84 112 146 194 246 297 354
#     4  10  22  41  63  88 120 157 199 248 299 355
#     4   9  19  36  56  79 110 147 187 235 290 343
#     4   9  18  31  49  77 112 150 191 232 281 341
#     4  12  26  42  64  92 120 154 198 250 307 368
#
# _framework density 19.147202
#
# number of rings (size 3 to 8) (size 9 to 14) (size 15 to 20)
#    0.000    2.400    0.000    1.500    2.800    3.600 
#    0.000    2.000    0.000    0.000    0.000    0.000 
#    0.000    0.000    0.000    0.000    0.000    0.000 
#
# Total GULP energy -111603.417771 kJ/mol
# GULP energy per Si atom -5580.170889 kJ/mol
# Density = 1.910362 g / cm^3
# Si number density = 19.147202 Si / 1000 Ang^3
#
#
#
# Elastic Constant Matrix: (Units=GPa)
#
#
# Indices 1 2 3 4 5 6 
#
# 1 75.7634 48.2523 86.6556 0.0000 0.0000 0.0000
# 2 48.2523 84.2117 72.6200 0.0000 0.0000 0.0000
# 3 86.6556 72.6200 216.4935 0.0000 0.0000 0.0000
# 4 0.0000 0.0000 0.0000 32.6748 0.0000 0.0000
# 5 0.0000 0.0000 0.0000 0.0000 39.8847 0.0000
# 6 0.0000 0.0000 0.0000 0.0000 0.0000 20.5873
#
#
#
# Elastic Compliance Matrix: (Units=1/GPa)
#
#
# Indices 1 2 3 4 5 6 
#
# 1 0.028630 -0.009177 -0.008381 0.000000 0.000000 0.000000
# 2 -0.009177 0.019649 -0.002918 0.000000 0.000000 0.000000
# 3 -0.008381 -0.002918 0.008953 0.000000 0.000000 0.000000
# 4 0.000000 0.000000 0.000000 0.030605 0.000000 0.000000
# 5 0.000000 0.000000 0.000000 0.000000 0.025072 0.000000
# 6 0.000000 0.000000 0.000000 0.000000 0.000000 0.048574
#
#
# Mechanical properties :
#
#
# Convention : Reuss Voigt Hill
#
# Bulk Modulus (GPa) = 61.42677 87.94714 74.68696
# Shear Modulus (GPa) = 24.05449 29.89207 26.97328
#
# Velocity S-wave (km/s) = 3.54827 3.95545 3.75738
# Velocity P-wave (km/s) = 6.99556 8.17879 7.61021
#
# Compressibility (1/GPa) = 0.01627955
#
# Stress axis : x y z
#
# Youngs Moduli (GPa) = 34.92842 50.89226 111.69865
#
# Poissons Ratio (x) = 0.46704 0.93619
# Poissons Ratio (y) = 0.32054 0.32592
# Poissons Ratio (z) = 0.29275 0.14850
#
# Static dielectric constant tensor:
#      x y z
#    x 1.656860 0.000000 0.000000 
#    y 0.000000 1.689360 0.000000 
#    z 0.000000 0.000000 1.645280 
# 
# From -- ./inp_files/23244.got.cif
#   From: 2010.05.17/outbox.cif.g08.bks.cpg/sg38_12_cif.got.tgz:23244.got - 2010.06.03 18:07:57.
