data_PCOD9359556
_publ_section_title
;
Structure prediction by ZEFSAII (Michael W. Deem and Ramdas Pophale) SiO2 
 PCOD9359556
Probable space group: A M M 2
;
_chemical_formula_sum "Si O2"
_cell_formula_units_Z 28
_cell_length_a 15.000000
_cell_length_b 9.000000
_cell_length_c 21.000000
_cell_angle_alpha 90.000000
_cell_angle_beta 90.000000
_cell_angle_gamma 90.000000
_cell_volume 2835.000000
_symmetry_space_group_name_H-M "A M M 2"
_symmetry_group_IT_number 38
_symmetry_cell_setting 'orthorhombic'
loop_
_space_group_symop_operation_xyz
x,y,z
-x,-y,z
-x,y,z
x,-y,z
x,1/2+y,1/2+z
-x,1/2-y,1/2+z
-x,1/2+y,1/2+z
x,1/2-y,1/2+z
loop_
_atom_site_type_symbol
_atom_site_label
_atom_site_fract_x
_atom_site_fract_y
_atom_site_fract_z
Si Si1 0.156531 0.829824 0.887540
Si Si2 0.400172 0.678501 0.707663
Si Si3 0.100079 0.328954 0.764326
Si Si4 0.218444 0.320752 0.646043
Si Si5 0.790758 0.178147 0.515156
Si Si6 0.594652 0.321367 0.973771
Si Si7 0.362082 0.328511 0.343269
O O1 0.102250 0.757666 0.830347
O O2 0.257063 0.825944 0.859293
O O3 0.131324 0.000000 0.899167
O O4 0.157577 0.741063 0.953794
O O5 0.500000 0.717080 0.686192
O O6 0.395232 0.500000 0.716361
O O7 0.321580 0.719819 0.659245
O O8 0.382354 0.753984 0.775842
O O9 0.125781 0.500000 0.778229
O O10 0.165927 0.273123 0.709642
O O11 0.000000 0.327096 0.738347
O O12 0.211159 0.500000 0.640444
O O13 0.181602 0.245281 0.582657
O O14 0.686981 0.227452 0.505594
O O15 0.795272 0.000000 0.515606
O O16 0.500000 0.274073 0.003566
O O17 0.597058 0.500000 0.972396
O O18 0.596456 0.260975 0.901869
O O19 0.391126 0.500000 0.343107
#
# Coordination Sequence:
#
# PCOD9359556 Si02
#       7
#     8   8   8   8   8   8   8
#     4  10  20  36  59  86 115 147 186 232 286 342
#     4  10  20  33  51  76 109 153 197 233 279 339
#     4  10  21  39  65  92 115 145 186 232 286 345
#     4  10  21  38  57  81 117 154 189 235 287 340
#     4  10  21  36  57  81 111 153 196 237 286 339
#     4   9  18  32  49  71 103 145 192 238 285 337
#     4  10  19  30  48  77 110 143 184 236 286 331
#
# _framework density 9.8765429999999999
#
# number of rings (size 3 to 8) (size 9 to 14) (size 15 to 20)
#    0.000    2.143    1.429    1.714    0.000    6.000 
#    0.000    0.714    0.000    2.571    0.000    0.000 
#    0.000    0.000    0.000    0.000    0.000    0.000 
#
# Total GULP energy -156220.307475 kJ/mol
# GULP energy per Si atom -5579.296696 kJ/mol
# Density = 0.985406 g / cm^3
# Si number density = 9.876543 Si / 1000 Ang^3
#
#
#
# Elastic Constant Matrix: (Units=GPa)
#
#
# Indices 1 2 3 4 5 6 
#
# 1 50.2100 17.7128 29.9349 0.0000 0.0000 0.0000
# 2 17.7128 32.9261 37.9972 0.0000 0.0000 0.0000
# 3 29.9349 37.9972 129.9198 0.0000 0.0000 0.0000
# 4 0.0000 0.0000 0.0000 29.6424 0.0000 0.0000
# 5 0.0000 0.0000 0.0000 0.0000 1.0786 0.0000
# 6 0.0000 0.0000 0.0000 0.0000 0.0000 10.7466
#
#
#
# Elastic Compliance Matrix: (Units=1/GPa)
#
#
# Indices 1 2 3 4 5 6 
#
# 1 0.025231 -0.010361 -0.002783 0.000000 0.000000 0.000000
# 2 -0.010361 0.050099 -0.012265 0.000000 0.000000 0.000000
# 3 -0.002783 -0.012265 0.011925 0.000000 0.000000 0.000000
# 4 0.000000 0.000000 0.000000 0.033735 0.000000 0.000000
# 5 0.000000 0.000000 0.000000 0.000000 0.927167 0.000000
# 6 0.000000 0.000000 0.000000 0.000000 0.000000 0.093053
#
#
# Mechanical properties :
#
#
# Convention : Reuss Voigt Hill
#
# Bulk Modulus (GPa) = 27.44509 42.70509 35.07509
# Shear Modulus (GPa) = 4.15222 16.78756 10.46989
#
# Velocity S-wave (km/s) = 1.45142 2.91842 2.30475
# Velocity P-wave (km/s) = 4.09061 5.74653 4.98777
#
# Compressibility (1/GPa) = 0.03643639
#
# Stress axis : x y z
#
# Youngs Moduli (GPa) = 39.63397 19.96052 83.85469
#
# Poissons Ratio (x) = 0.20682 0.23338
# Poissons Ratio (y) = 0.41066 1.02847
# Poissons Ratio (z) = 0.11031 0.24481
#
# Static dielectric constant tensor:
#      x y z
#    x 1.753590 0.000000 0.000000 
#    y 0.000000 1.669300 0.000000 
#    z 0.000000 0.000000 1.640330 
# 
# From -- ./inp_files/21027.got.cif
#   From: 2010.05.17/outbox.ucp.g08.bks.cvg/sg38_11_cif.got.tgz:21027.got - 2010.06.11 10:39:43.
