data_PCOD9360142
_publ_section_title
;
Structure prediction by ZEFSAII (Michael W. Deem and Ramdas Pophale) SiO2 
 PCOD9360142
Probable space group: A B M 2
;
_chemical_formula_sum "Si O2"
_cell_formula_units_Z 64
_cell_length_a 20.227435
_cell_length_b 8.913056
_cell_length_c 20.759193
_cell_angle_alpha 90.000000
_cell_angle_beta 90.000000
_cell_angle_gamma 90.000000
_cell_volume 3742.638803
_symmetry_space_group_name_H-M "A B M 2"
_symmetry_group_IT_number 39
_symmetry_cell_setting 'orthorhombic'
loop_
_space_group_symop_operation_xyz
x,y,z
-x,-y,z
-x,1/2+y,z
x,1/2-y,z
x,1/2+y,1/2+z
-x,1/2-y,1/2+z
-x,y,1/2+z
x,-y,1/2+z
loop_
_atom_site_type_symbol
_atom_site_label
_atom_site_fract_x
_atom_site_fract_y
_atom_site_fract_z
Si Si1 0.071855 0.430794 0.382600
Si Si2 0.345197 0.571046 0.161481
Si Si3 0.819130 0.931212 0.487630
Si Si4 0.837177 0.070505 0.765095
Si Si5 0.809299 0.429095 0.133116
Si Si6 0.428150 0.070419 0.049605
Si Si7 0.679891 0.569344 0.944324
Si Si8 0.696318 0.069524 0.299973
O O1 0.067147 0.250000 0.384109
O O2 0.122712 0.476516 0.439084
O O3 0.105279 0.474344 0.314543
O O4 0.000000 0.500000 0.390581
O O5 0.356288 0.750000 0.155191
O O6 0.269573 0.540479 0.139030
O O7 0.395315 0.484150 0.116162
O O8 0.346399 0.529236 0.237037
O O9 0.813460 0.750000 0.485552
O O10 0.831913 0.974211 0.561863
O O11 0.749465 0.999062 0.465461
O O12 0.832946 0.250000 0.764440
O O13 0.844229 0.009655 0.692742
O O14 0.768033 0.005075 0.791669
O O15 0.817440 0.250000 0.140520
O O16 0.432775 0.250000 0.048933
O O17 0.500000 0.000000 0.041418
O O18 0.378163 0.022076 0.992552
O O19 0.685512 0.750000 0.948375
O O20 0.667492 0.529969 0.869581
O O21 0.705502 0.250000 0.297183
#
# Coordination Sequence:
#
# PCOD9360142 Si02
#       8
#     8   8   8   8   8   8   8   8
#     4  10  22  37  54  78 108 146 185 225 273 327
#     4   9  17  32  54  78 105 140 175 214 265 321
#     4  10  19  35  56  80 109 142 182 224 271 324
#     4  10  19  32  52  79 108 136 176 226 266 314
#     4   9  18  32  54  80 108 140 172 216 272 323
#     4  11  23  37  54  78 109 145 183 223 271 326
#     4  10  20  34  55  83 110 140 180 226 270 319
#     4   9  18  33  54  80 109 139 173 216 271 322
#
# _framework density 17.100234
#
# number of rings (size 3 to 8) (size 9 to 14) (size 15 to 20)
#    0.000    2.250    2.500    1.500    0.000    4.500 
#    0.000    1.250    0.000    4.500    0.000    0.000 
#    0.000    0.000    0.000    0.000    0.000    0.000 
#
# Total GULP energy -178501.862205 kJ/mol
# GULP energy per Si atom -5578.183194 kJ/mol
# Density = 1.706131 g / cm^3
# Si number density = 17.100234 Si / 1000 Ang^3
#
#
#
# Elastic Constant Matrix: (Units=GPa)
#
#
# Indices 1 2 3 4 5 6 
#
# 1 124.0797 38.8896 91.3104 0.0000 0.0000 0.0000
# 2 38.8896 21.1886 42.9133 0.0000 0.0000 0.0000
# 3 91.3104 42.9133 179.0888 0.0000 0.0000 0.0000
# 4 0.0000 0.0000 0.0000 25.2199 0.0000 0.0000
# 5 0.0000 0.0000 0.0000 0.0000 23.9721 0.0000
# 6 0.0000 0.0000 0.0000 0.0000 0.0000 27.1174
#
#
#
# Elastic Compliance Matrix: (Units=1/GPa)
#
#
# Indices 1 2 3 4 5 6 
#
# 1 0.019610 -0.030586 -0.002669 0.000000 0.000000 0.000000
# 2 -0.030586 0.139401 -0.017808 0.000000 0.000000 0.000000
# 3 -0.002669 -0.017808 0.011212 0.000000 0.000000 0.000000
# 4 0.000000 0.000000 0.000000 0.039651 0.000000 0.000000
# 5 0.000000 0.000000 0.000000 0.000000 0.041715 0.000000
# 6 0.000000 0.000000 0.000000 0.000000 0.000000 0.036877
#
#
# Mechanical properties :
#
#
# Convention : Reuss Voigt Hill
#
# Bulk Modulus (GPa) = 14.68543 74.50930 44.59736
# Shear Modulus (GPa) = 12.09797 25.34480 18.72138
#
# Velocity S-wave (km/s) = 2.66272 3.85402 3.31237
# Velocity P-wave (km/s) = 4.24970 7.96689 6.38480
#
# Compressibility (1/GPa) = 0.06809471
#
# Stress axis : x y z
#
# Youngs Moduli (GPa) = 50.99377 7.17357 89.18928
#
# Poissons Ratio (x) = 0.21941 0.23808
# Poissons Ratio (y) = 1.55971 1.58832
# Poissons Ratio (z) = 0.13612 0.12775
#
# Static dielectric constant tensor:
#      x y z
#    x 1.536660 0.000000 0.000000 
#    y 0.000000 1.573920 0.000000 
#    z 0.000000 0.000000 1.606060 
# 
# From -- ./inp_files/15041.got.cif
#   From: 2010.05.17/outbox.cif.g08.bks.cpg/sg39_8_cif.got.tgz:15041.got - 2010.06.03 18:22:40.
