data_PCOD9360565
_publ_section_title
;
Structure prediction by ZEFSAII (Michael W. Deem and Ramdas Pophale) SiO2 
 PCOD9360565
Probable space group: A B M 2
;
_chemical_formula_sum "Si O2"
_cell_formula_units_Z 64
_cell_length_a 21.611285
_cell_length_b 9.107428
_cell_length_c 14.666135
_cell_angle_alpha 90.000000
_cell_angle_beta 90.000000
_cell_angle_gamma 90.000000
_cell_volume 2886.635947
_symmetry_space_group_name_H-M "A B M 2"
_symmetry_group_IT_number 39
_symmetry_cell_setting 'orthorhombic'
loop_
_space_group_symop_operation_xyz
x,y,z
-x,-y,z
-x,1/2+y,z
x,1/2-y,z
x,1/2+y,1/2+z
-x,1/2-y,1/2+z
-x,y,1/2+z
x,-y,1/2+z
loop_
_atom_site_type_symbol
_atom_site_label
_atom_site_fract_x
_atom_site_fract_y
_atom_site_fract_z
Si Si1 0.436969 0.081885 0.731180
Si Si2 0.314941 0.913789 0.726268
Si Si3 0.938781 0.916981 0.489828
Si Si4 0.193268 0.072775 0.463407
Si Si5 0.437330 0.418290 0.507753
Si Si6 0.811773 0.424656 0.267662
Si Si7 0.062965 0.579987 0.766133
Si Si8 0.683708 0.914296 0.011960
O O1 0.436875 0.250000 0.762320
O O2 0.436313 0.084565 0.619433
O O3 0.500000 0.000000 0.757720
O O4 0.375062 0.998252 0.762330
O O5 0.307040 0.750000 0.766862
O O6 0.327239 0.896498 0.619259
O O7 0.251771 0.005280 0.732208
O O8 0.945873 0.750000 0.518549
O O9 0.869753 0.965399 0.517552
O O10 0.937251 0.921812 0.378067
O O11 0.000000 0.000000 0.519496
O O12 0.191966 0.250000 0.447352
O O13 0.189381 0.976633 0.372376
O O14 0.257679 0.021295 0.504509
O O15 0.500000 0.500000 0.481006
O O16 0.435929 0.250000 0.476762
O O17 0.377586 0.507952 0.475366
O O18 0.812617 0.250000 0.256155
O O19 0.875740 0.496257 0.233154
O O20 0.064235 0.750000 0.738657
O O21 0.000000 0.500000 0.737871
O O22 0.694874 0.750000 0.973309
#
# Coordination Sequence:
#
# PCOD9360565 Si02
#       8
#     8   8   8   8   8   8   8   8
#     4   9  16  27  45  70  97 126 162 203 246 290
#     4  10  20  34  51  73 102 133 166 207 252 296
#     4   8  15  26  43  67  93 122 156 196 239 283
#     4  10  20  34  51  73 102 133 165 204 250 297
#     4   9  16  27  45  69  97 127 161 203 246 288
#     4  11  21  33  51  75 102 133 169 207 249 297
#     4   9  16  28  46  70  98 127 162 204 249 292
#     4  10  20  33  51  75 101 131 167 206 249 297
#
# _framework density 22.171137999999999
#
# number of rings (size 3 to 8) (size 9 to 14) (size 15 to 20)
#    0.000    2.500    0.000    4.125    0.000    8.000 
#    0.000    0.000    0.000    1.500    0.000    7.000 
#    0.000    0.000    0.000    0.000    0.000    0.000 
#
# Total GULP energy -178671.981749 kJ/mol
# GULP energy per Si atom -5583.499430 kJ/mol
# Density = 2.212068 g / cm^3
# Si number density = 22.171138 Si / 1000 Ang^3
#
#
#
# Elastic Constant Matrix: (Units=GPa)
#
#
# Indices 1 2 3 4 5 6 
#
# 1 252.6304 131.1424 6.7995 0.0000 0.0000 0.0000
# 2 131.1424 205.0415 8.6950 0.0000 0.0000 0.0000
# 3 6.7995 8.6950 41.1145 0.0000 0.0000 0.0000
# 4 0.0000 0.0000 0.0000 12.0927 0.0000 0.0000
# 5 0.0000 0.0000 0.0000 0.0000 10.0623 0.0000
# 6 0.0000 0.0000 0.0000 0.0000 0.0000 40.2150
#
#
#
# Elastic Compliance Matrix: (Units=1/GPa)
#
#
# Indices 1 2 3 4 5 6 
#
# 1 0.005927 -0.003783 -0.000180 0.000000 0.000000 0.000000
# 2 -0.003783 0.007336 -0.000926 0.000000 0.000000 0.000000
# 3 -0.000180 -0.000926 0.024548 0.000000 0.000000 0.000000
# 4 0.000000 0.000000 0.000000 0.082695 0.000000 0.000000
# 5 0.000000 0.000000 0.000000 0.000000 0.099381 0.000000
# 6 0.000000 0.000000 0.000000 0.000000 0.000000 0.024866
#
#
# Mechanical properties :
#
#
# Convention : Reuss Voigt Hill
#
# Bulk Modulus (GPa) = 35.67262 88.00668 61.83965
# Shear Modulus (GPa) = 18.94835 35.95064 27.44949
#
# Velocity S-wave (km/s) = 2.92659 4.03116 3.52244
# Velocity P-wave (km/s) = 5.24829 7.83884 6.67053
#
# Compressibility (1/GPa) = 0.02803270
#
# Stress axis : x y z
#
# Youngs Moduli (GPa) = 168.71552 136.31266 40.73672
#
# Poissons Ratio (x) = 0.51571 0.00734
# Poissons Ratio (y) = 0.63830 0.03771
# Poissons Ratio (z) = 0.03039 0.12619
#
# Static dielectric constant tensor:
#      x y z
#    x 1.809830 0.000000 0.000000 
#    y 0.000000 1.773070 0.000000 
#    z 0.000000 0.000000 1.907790 
# 
# From -- ./inp_files/13171.got.cif
#   From: 2010.05.17/outbox.cif.g08.bks.cpg/sg39_7_cif.got.tgz:13171.got - 2010.06.03 18:22:40.
