data_PCOD9360152
_publ_section_title
;
Structure prediction by ZEFSAII (Michael W. Deem and Ramdas Pophale) SiO2 
 PCOD9360152
Probable space group: A B M 2
;
_chemical_formula_sum "Si O2"
_cell_formula_units_Z 64
_cell_length_a 19.738952
_cell_length_b 8.995996
_cell_length_c 20.871319
_cell_angle_alpha 90.000000
_cell_angle_beta 90.000000
_cell_angle_gamma 90.000000
_cell_volume 3706.152115
_symmetry_space_group_name_H-M "A B M 2"
_symmetry_group_IT_number 39
_symmetry_cell_setting 'orthorhombic'
loop_
_space_group_symop_operation_xyz
x,y,z
-x,-y,z
-x,1/2+y,z
x,1/2-y,z
x,1/2+y,1/2+z
-x,1/2-y,1/2+z
-x,y,1/2+z
x,-y,1/2+z
loop_
_atom_site_type_symbol
_atom_site_label
_atom_site_fract_x
_atom_site_fract_y
_atom_site_fract_z
Si Si1 0.295465 0.927267 0.785580
Si Si2 0.929154 0.427997 0.359934
Si Si3 0.217326 0.070757 0.904109
Si Si4 0.428277 0.927395 0.232276
Si Si5 0.571910 0.927195 0.580490
Si Si6 0.291933 0.571198 0.536478
Si Si7 0.204246 0.572524 0.660385
Si Si8 0.071049 0.072626 0.709219
O O1 0.302834 0.750000 0.791567
O O2 0.249392 0.958070 0.723123
O O3 0.258545 0.994629 0.847051
O O4 0.367600 0.002433 0.772464
O O5 0.935894 0.250000 0.363836
O O6 0.861759 0.473149 0.398183
O O7 0.918087 0.466524 0.284667
O O8 0.000000 0.500000 0.380604
O O9 0.219884 0.250000 0.895705
O O10 0.251880 0.034520 0.971653
O O11 0.430577 0.750000 0.240000
O O12 0.416889 0.959693 0.156422
O O13 0.500000 0.000000 0.249631
O O14 0.568339 0.750000 0.572843
O O15 0.500000 0.000000 0.562631
O O16 0.635271 0.994150 0.542548
O O17 0.301478 0.750000 0.538980
O O18 0.246316 0.528219 0.597660
O O19 0.192341 0.750000 0.657341
O O20 0.133498 0.489751 0.669089
O O21 0.067320 0.250000 0.704687
O O22 0.000000 0.000000 0.689808
#
# Coordination Sequence:
#
# PCOD9360152 Si02
#       8
#     8   8   8   8   8   8   8   8
#     4  11  21  34  56  83 112 143 181 229 274 325
#     4   9  18  32  52  78 105 137 180 224 271 325
#     4  10  21  38  57  80 112 150 187 227 277 331
#     4  10  20  34  55  83 114 146 182 229 279 330
#     4  10  20  34  56  83 112 144 184 229 274 330
#     4  10  21  38  58  80 113 151 186 227 275 330
#     4  10  20  34  54  81 110 143 182 223 272 327
#     4  10  19  32  53  80 110 142 181 230 278 328
#
# _framework density 17.268583
#
# number of rings (size 3 to 8) (size 9 to 14) (size 15 to 20)
#    0.000    2.000    2.500    1.500    0.000    3.500 
#    0.000    1.250    0.000    4.500    0.000    0.000 
#    0.000    0.000    0.000    0.000    0.000    0.000 
#
# Total GULP energy -178639.074806 kJ/mol
# GULP energy per Si atom -5582.471088 kJ/mol
# Density = 1.722928 g / cm^3
# Si number density = 17.268583 Si / 1000 Ang^3
#
#
#
# Elastic Constant Matrix: (Units=GPa)
#
#
# Indices 1 2 3 4 5 6 
#
# 1 193.5092 66.4692 77.6519 0.0000 0.0000 0.0000
# 2 66.4692 36.1759 46.7305 0.0000 0.0000 0.0000
# 3 77.6519 46.7305 100.1336 0.0000 0.0000 0.0000
# 4 0.0000 0.0000 0.0000 20.2670 0.0000 0.0000
# 5 0.0000 0.0000 0.0000 0.0000 26.9350 0.0000
# 6 0.0000 0.0000 0.0000 0.0000 0.0000 37.8050
#
#
#
# Elastic Compliance Matrix: (Units=1/GPa)
#
#
# Indices 1 2 3 4 5 6 
#
# 1 0.014350 -0.030194 0.002963 0.000000 0.000000 0.000000
# 2 -0.030194 0.133131 -0.038715 0.000000 0.000000 0.000000
# 3 0.002963 -0.038715 0.025757 0.000000 0.000000 0.000000
# 4 0.000000 0.000000 0.000000 0.049341 0.000000 0.000000
# 5 0.000000 0.000000 0.000000 0.000000 0.037126 0.000000
# 6 0.000000 0.000000 0.000000 0.000000 0.000000 0.026452
#
#
# Mechanical properties :
#
#
# Convention : Reuss Voigt Hill
#
# Bulk Modulus (GPa) = 24.18639 79.05800 51.62220
# Shear Modulus (GPa) = 11.57856 26.26587 18.92221
#
# Velocity S-wave (km/s) = 2.59221 3.90426 3.31382
# Velocity P-wave (km/s) = 4.79539 8.13665 6.67836
#
# Compressibility (1/GPa) = 0.04134556
#
# Stress axis : x y z
#
# Youngs Moduli (GPa) = 69.68445 7.51138 38.82483
#
# Poissons Ratio (x) = 0.22680 -0.11502
# Poissons Ratio (y) = 2.10407 1.50310
# Poissons Ratio (z) = -0.20645 0.29080
#
# Static dielectric constant tensor:
#      x y z
#    x 1.567680 0.000000 0.000000 
#    y 0.000000 1.574470 0.000000 
#    z 0.000000 0.000000 1.568460 
# 
# From -- ./inp_files/13217.got.cif
#   From: 2010.05.17/outbox.cif.g08.bks.cpg/sg39_7_cif.got.tgz:13217.got - 2010.06.03 18:22:40.
