data_PCOD9360408
_publ_section_title
;
Structure prediction by ZEFSAII (Michael W. Deem and Ramdas Pophale) SiO2 
 PCOD9360408
Probable space group: A B M 2
;
_chemical_formula_sum "Si O2"
_cell_formula_units_Z 64
_cell_length_a 24.535133
_cell_length_b 8.484015
_cell_length_c 15.862191
_cell_angle_alpha 90.000000
_cell_angle_beta 90.000000
_cell_angle_gamma 90.000000
_cell_volume 3301.817152
_symmetry_space_group_name_H-M "A B M 2"
_symmetry_group_IT_number 39
_symmetry_cell_setting 'orthorhombic'
loop_
_space_group_symop_operation_xyz
x,y,z
-x,-y,z
-x,1/2+y,z
x,1/2-y,z
x,1/2+y,1/2+z
-x,1/2-y,1/2+z
-x,y,1/2+z
x,-y,1/2+z
loop_
_atom_site_type_symbol
_atom_site_label
_atom_site_fract_x
_atom_site_fract_y
_atom_site_fract_z
Si Si1 0.245435 0.062997 0.979880
Si Si2 0.866384 0.938085 0.722454
Si Si3 0.561381 0.438772 0.630301
Si Si4 0.757687 0.437995 0.792838
Si Si5 0.365449 0.941183 0.785402
Si Si6 0.635098 0.562021 0.479280
Si Si7 0.061378 0.440219 0.881412
Si Si8 0.871110 0.559342 0.045410
O O1 0.251916 0.250000 0.991575
O O2 0.234120 0.025487 0.881729
O O3 0.191649 0.010273 0.029301
O O4 0.302492 0.981467 0.001367
O O5 0.860687 0.750000 0.726889
O O6 0.903996 0.991792 0.800071
O O7 0.806962 0.015322 0.733012
O O8 0.890490 0.988911 0.633206
O O9 0.500000 0.500000 0.627856
O O10 0.560719 0.250000 0.633318
O O11 0.592865 0.497945 0.714393
O O12 0.594592 0.490113 0.547528
O O13 0.758026 0.250000 0.807671
O O14 0.697040 0.481046 0.761783
O O15 0.368604 0.750000 0.786868
O O16 0.374758 0.993883 0.882296
O O17 0.629282 0.750000 0.479898
O O18 0.060946 0.250000 0.881095
O O19 0.000000 0.500000 0.878808
O O20 0.092534 0.491248 0.966172
O O21 0.871932 0.750000 0.049149
#
# Coordination Sequence:
#
# PCOD9360408 Si02
#       8
#     8   8   8   8   8   8   8   8
#     4  10  19  36  60  87 124 162 196 246 305 362
#     4  11  23  39  59  90 124 157 200 250 302 361
#     4  11  23  41  61  85 117 159 202 248 299 357
#     4  10  19  35  60  89 121 159 200 246 303 364
#     4   8  19  38  59  83 117 155 194 241 296 351
#     4  10  21  39  60  89 121 156 200 248 297 361
#     4  10  23  44  64  85 120 161 203 251 301 357
#     4  10  22  40  60  86 122 160 199 245 303 359
#
# _framework density 19.383265999999999
#
# number of rings (size 3 to 8) (size 9 to 14) (size 15 to 20)
#    0.000    2.000    1.250    2.625    1.750    3.500 
#    0.000   10.625    0.000    0.000    0.000    0.000 
#    0.000    0.000    0.000    0.000    0.000    0.000 
#
# Total GULP energy -178718.816618 kJ/mol
# GULP energy per Si atom -5584.963019 kJ/mol
# Density = 1.933915 g / cm^3
# Si number density = 19.383266 Si / 1000 Ang^3
#
#
#
# Elastic Constant Matrix: (Units=GPa)
#
#
# Indices 1 2 3 4 5 6 
#
# 1 126.3675 22.3619 85.6187 0.0000 0.0000 0.0000
# 2 22.3619 24.1979 23.2268 0.0000 0.0000 0.0000
# 3 85.6187 23.2268 138.4213 0.0000 0.0000 0.0000
# 4 0.0000 0.0000 0.0000 27.7630 0.0000 0.0000
# 5 0.0000 0.0000 0.0000 0.0000 -1.8806 0.0000
# 6 0.0000 0.0000 0.0000 0.0000 0.0000 32.7562
#
#
#
# Elastic Compliance Matrix: (Units=1/GPa)
#
#
# Indices 1 2 3 4 5 6 
#
# 1 0.014233 -0.005606 -0.007863 0.000000 0.000000 0.000000
# 2 -0.005606 0.051468 -0.005169 0.000000 0.000000 0.000000
# 3 -0.007863 -0.005169 0.012955 0.000000 0.000000 0.000000
# 4 0.000000 0.000000 0.000000 0.036019 0.000000 0.000000
# 5 0.000000 0.000000 0.000000 0.000000 -0.531733 0.000000
# 6 0.000000 0.000000 0.000000 0.000000 0.000000 0.030529
#
#
# Mechanical properties :
#
#
# Convention : Reuss Voigt Hill
#
# Bulk Modulus (GPa) = 24.16582 61.26683 42.71633
# Shear Modulus (GPa) = -14.90485 22.24634 3.67075
#
# Velocity S-wave (km/s) = -2.77601 3.39146 1.37764
# Velocity P-wave (km/s) = 1.48978 6.85658 4.96146
#
# Compressibility (1/GPa) = 0.04138076
#
# Stress axis : x y z
#
# Youngs Moduli (GPa) = 70.26022 19.42973 77.18930
#
# Poissons Ratio (x) = 0.10891 0.60693
# Poissons Ratio (y) = 0.39385 0.39898
# Poissons Ratio (z) = 0.55245 0.10043
#
# Static dielectric constant tensor:
#      x y z
#    x 1.651150 0.000000 0.000000 
#    y 0.000000 1.665820 0.000000 
#    z 0.000000 0.000000 1.689440 
# 
# From -- ./inp_files/10579.got.cif
#   From: 2010.05.17/outbox.cif.g08.bks.cpg/sg39_6_cif.got.tgz:10579.got - 2010.06.03 18:22:40.
