data_PCOD9360078
_publ_section_title
;
Structure prediction by ZEFSAII (Michael W. Deem and Ramdas Pophale) SiO2 
 PCOD9360078
Probable space group: A B M 2
;
_chemical_formula_sum "Si O2"
_cell_formula_units_Z 48
_cell_length_a 16.525720
_cell_length_b 9.051465
_cell_length_c 18.827236
_cell_angle_alpha 90.000000
_cell_angle_beta 90.000000
_cell_angle_gamma 90.000000
_cell_volume 2816.215167
_symmetry_space_group_name_H-M "A B M 2"
_symmetry_group_IT_number 39
_symmetry_cell_setting 'orthorhombic'
loop_
_space_group_symop_operation_xyz
x,y,z
-x,-y,z
-x,1/2+y,z
x,1/2-y,z
x,1/2+y,1/2+z
-x,1/2-y,1/2+z
-x,y,1/2+z
x,-y,1/2+z
loop_
_atom_site_type_symbol
_atom_site_label
_atom_site_fract_x
_atom_site_fract_y
_atom_site_fract_z
Si Si1 0.267061 0.072145 0.478680
Si Si2 0.916842 0.574755 0.232353
Si Si3 0.584484 0.926461 0.060860
Si Si4 0.163494 0.418472 0.606425
Si Si5 0.751667 0.426705 0.812845
Si Si6 0.664208 0.580622 0.689573
O O1 0.279491 0.250000 0.487525
O O2 0.188807 0.034915 0.527171
O O3 0.254994 0.040471 0.396008
O O4 0.343743 0.986978 0.510722
O O5 0.925320 0.750000 0.233365
O O6 0.894150 0.520128 0.153067
O O7 0.840357 0.533966 0.282004
O O8 0.000000 0.500000 0.255266
O O9 0.580592 0.750000 0.058966
O O10 0.500000 0.000000 0.039336
O O11 0.606136 0.983758 0.140172
O O12 0.132676 0.250000 0.606034
O O13 0.249834 0.418164 0.647631
O O14 0.741816 0.250000 0.802775
O O15 0.685347 0.510524 0.765390
O O16 0.636012 0.750000 0.694528
#
# Coordination Sequence:
#
# PCOD9360078 Si02
#       6
#     8   8   8   8   8   8
#     4   9  18  34  54  76 104 135 166 204 253 305
#     4  10  19  31  49  72  98 130 168 211 255 298
#     4  11  21  34  53  76 102 132 169 211 254 299
#     4   8  15  29  49  70  94 126 161 198 241 292
#     4   9  18  33  53  76 103 135 169 205 249 304
#     4   9  17  31  51  74  99 128 164 203 244 292
#
# _framework density 17.044150999999999
#
# number of rings (size 3 to 8) (size 9 to 14) (size 15 to 20)
#    0.000    2.667    0.000    3.500    0.000    5.333 
#    0.000    1.667    0.000    6.000    0.000    0.000 
#    0.000    0.000    0.000    0.000    0.000    0.000 
#
# Total GULP energy -133765.285786 kJ/mol
# GULP energy per Si atom -5573.553574 kJ/mol
# Density = 1.700536 g / cm^3
# Si number density = 17.044151 Si / 1000 Ang^3
#
#
#
# Elastic Constant Matrix: (Units=GPa)
#
#
# Indices 1 2 3 4 5 6 
#
# 1 67.1379 47.2706 31.1531 0.0000 0.0000 0.0000
# 2 47.2706 83.8484 50.5276 0.0000 0.0000 0.0000
# 3 31.1531 50.5276 127.6338 0.0000 0.0000 0.0000
# 4 0.0000 0.0000 0.0000 25.0126 0.0000 0.0000
# 5 0.0000 0.0000 0.0000 0.0000 14.3832 0.0000
# 6 0.0000 0.0000 0.0000 0.0000 0.0000 25.7068
#
#
#
# Elastic Compliance Matrix: (Units=1/GPa)
#
#
# Indices 1 2 3 4 5 6 
#
# 1 0.024743 -0.013540 -0.000679 0.000000 0.000000 0.000000
# 2 -0.013540 0.023072 -0.005829 0.000000 0.000000 0.000000
# 3 -0.000679 -0.005829 0.010308 0.000000 0.000000 0.000000
# 4 0.000000 0.000000 0.000000 0.039980 0.000000 0.000000
# 5 0.000000 0.000000 0.000000 0.000000 0.069525 0.000000
# 6 0.000000 0.000000 0.000000 0.000000 0.000000 0.038900
#
#
# Mechanical properties :
#
#
# Convention : Reuss Voigt Hill
#
# Bulk Modulus (GPa) = 55.47113 59.61364 57.54238
# Shear Modulus (GPa) = 19.79147 22.99845 21.39496
#
# Velocity S-wave (km/s) = 3.41132 3.67733 3.54682
# Velocity P-wave (km/s) = 6.93775 7.28576 7.11388
#
# Compressibility (1/GPa) = 0.01802740
#
# Stress axis : x y z
#
# Youngs Moduli (GPa) = 40.41538 43.34232 97.00971
#
# Poissons Ratio (x) = 0.58685 0.06588
# Poissons Ratio (y) = 0.54722 0.56546
# Poissons Ratio (z) = 0.02745 0.25264
#
# Static dielectric constant tensor:
#      x y z
#    x 1.576270 0.000000 0.000000 
#    y 0.000000 1.572900 0.000000 
#    z 0.000000 0.000000 1.581870 
# 
# From -- ./inp_files/12628.got.cif
#   From: 2010.05.17/outbox.cif.g08.bks.cpg/sg39_7_cif.got.tgz:12628.got - 2010.06.03 18:22:40.
