data_PCOD9360545
_publ_section_title
;
Structure prediction by ZEFSAII (Michael W. Deem and Ramdas Pophale) SiO2 
 PCOD9360545
Probable space group: A B M 2
;
_chemical_formula_sum "Si O2"
_cell_formula_units_Z 60
_cell_length_a 15.893684
_cell_length_b 8.193657
_cell_length_c 23.122838
_cell_angle_alpha 90.000000
_cell_angle_beta 90.000000
_cell_angle_gamma 90.000000
_cell_volume 3011.226962
_symmetry_space_group_name_H-M "A B M 2"
_symmetry_group_IT_number 39
_symmetry_cell_setting 'orthorhombic'
loop_
_space_group_symop_operation_xyz
x,y,z
-x,-y,z
-x,1/2+y,z
x,1/2-y,z
x,1/2+y,1/2+z
-x,1/2-y,1/2+z
-x,y,1/2+z
x,-y,1/2+z
loop_
_atom_site_type_symbol
_atom_site_label
_atom_site_fract_x
_atom_site_fract_y
_atom_site_fract_z
Si Si1 0.268509 0.936011 0.413310
Si Si2 0.126709 0.574544 0.979578
Si Si3 0.234750 0.448641 0.190996
Si Si4 0.157691 0.556716 0.813045
Si Si5 0.000000 0.000000 0.880689
Si Si6 0.087486 0.554679 0.603981
Si Si7 0.404199 0.052719 0.132761
Si Si8 0.594984 0.946979 0.001241
O O1 0.285182 0.750000 0.394919
O O2 0.346233 0.005739 0.449314
O O3 0.192221 0.939321 0.459401
O O4 0.232033 0.036315 0.359833
O O5 0.170536 0.750000 0.982880
O O6 0.057354 0.588673 0.929180
O O7 0.091116 0.529878 0.041600
O O8 0.237591 0.250000 0.192951
O O9 0.194750 0.499682 0.251952
O O10 0.168873 0.493271 0.140895
O O11 0.329046 0.504308 0.174789
O O12 0.133311 0.750000 0.809738
O O13 0.076542 0.457072 0.836800
O O14 0.087535 0.750000 0.597100
O O15 0.000000 0.500000 0.632876
O O16 0.403806 0.250000 0.133011
O O17 0.383211 0.998792 0.066718
O O18 0.500000 0.000000 0.146221
O O19 0.601877 0.750000 0.001181
O O20 0.500000 0.000000 0.991169
#
# Coordination Sequence:
#
# PCOD9360545 Si02
#       8
#     8   8   8   8   4   8   8   8
#     4  10  20  35  55  81 111 143 184 232 283 328
#     4  11  22  36  56  80 110 144 184 227 280 338
#     4   9  20  39  59  80 111 153 191 231 280 339
#     4  10  22  39  58  78 106 149 197 230 275 335
#     4  10  20  32  54  76 108 132 188 234 274 316
#     4  11  22  36  57  82 114 149 186 230 281 334
#     4   9  17  34  59  84 110 141 181 227 284 340
#     4   9  18  32  54  84 114 144 177 224 281 342
#
# _framework density 19.925432000000001
#
# number of rings (size 3 to 8) (size 9 to 14) (size 15 to 20)
#    0.000    2.133    0.667    3.200    0.933    8.000 
#    0.000    6.667    0.000    3.200    0.000    0.000 
#    0.000    0.000    0.000    0.000    0.000    0.000 
#
# Total GULP energy -167062.718648 kJ/mol
# GULP energy per Si atom -5568.757288 kJ/mol
# Density = 1.988008 g / cm^3
# Si number density = 19.925432 Si / 1000 Ang^3
#
#
#
# Elastic Constant Matrix: (Units=GPa)
#
#
# Indices 1 2 3 4 5 6 
#
# 1 120.1138 7.5583 83.4748 0.0000 0.0000 0.0000
# 2 7.5583 29.3546 10.5239 0.0000 0.0000 0.0000
# 3 83.4748 10.5239 124.2646 0.0000 0.0000 0.0000
# 4 0.0000 0.0000 0.0000 71.2183 0.0000 0.0000
# 5 0.0000 0.0000 0.0000 0.0000 34.9438 0.0000
# 6 0.0000 0.0000 0.0000 0.0000 0.0000 25.7500
#
#
#
# Elastic Compliance Matrix: (Units=1/GPa)
#
#
# Indices 1 2 3 4 5 6 
#
# 1 0.015617 -0.000268 -0.010468 0.000000 0.000000 0.000000
# 2 -0.000268 0.035137 -0.002796 0.000000 0.000000 0.000000
# 3 -0.010468 -0.002796 0.015316 0.000000 0.000000 0.000000
# 4 0.000000 0.000000 0.000000 0.014041 0.000000 0.000000
# 5 0.000000 0.000000 0.000000 0.000000 0.028617 0.000000
# 6 0.000000 0.000000 0.000000 0.000000 0.000000 0.038835
#
#
# Mechanical properties :
#
#
# Convention : Reuss Voigt Hill
#
# Bulk Modulus (GPa) = 25.63654 52.98302 39.30978
# Shear Modulus (GPa) = 26.64801 37.86081 32.25441
#
# Velocity S-wave (km/s) = 3.66100 4.36377 4.02774
# Velocity P-wave (km/s) = 5.54659 7.21376 6.43440
#
# Compressibility (1/GPa) = 0.03900683
#
# Stress axis : x y z
#
# Youngs Moduli (GPa) = 64.03111 28.45964 65.29043
#
# Poissons Ratio (x) = 0.00763 0.68348
# Poissons Ratio (y) = 0.01718 0.18252
# Poissons Ratio (z) = 0.67030 0.07956
#
# Static dielectric constant tensor:
#      x y z
#    x 1.710090 0.000000 0.000000 
#    y 0.000000 1.689770 0.000000 
#    z 0.000000 0.000000 1.696520 
# 
# From -- ./inp_files/16109.got.cif
#   From: 2010.05.17/outbox.cif.g08.bks.cpg/sg39_9_cif.got.tgz:16109.got - 2010.06.03 18:22:40.
