data_PCOD9360963
_publ_section_title
;
Structure prediction by ZEFSAII (Michael W. Deem and Ramdas Pophale) SiO2 
 PCOD9360963
Probable space group: A B M 2
;
_chemical_formula_sum "Si O2"
_cell_formula_units_Z 56
_cell_length_a 20.448090
_cell_length_b 9.310792
_cell_length_c 14.114801
_cell_angle_alpha 90.000000
_cell_angle_beta 90.000000
_cell_angle_gamma 90.000000
_cell_volume 2687.287502
_symmetry_space_group_name_H-M "A B M 2"
_symmetry_group_IT_number 39
_symmetry_cell_setting 'orthorhombic'
loop_
_space_group_symop_operation_xyz
x,y,z
-x,-y,z
-x,1/2+y,z
x,1/2-y,z
x,1/2+y,1/2+z
-x,1/2-y,1/2+z
-x,y,1/2+z
x,-y,1/2+z
loop_
_atom_site_type_symbol
_atom_site_label
_atom_site_fract_x
_atom_site_fract_y
_atom_site_fract_z
Si Si1 0.180128 0.413607 0.250000
Si Si2 0.172804 0.082147 0.476526
Si Si3 0.564477 0.087219 0.751345
Si Si4 0.695003 0.085492 0.480539
Si Si5 0.692599 0.411989 0.249782
Si Si6 0.931042 0.078982 0.600739
Si Si7 0.434942 0.585741 0.982479
O O1 0.200961 0.250000 0.228374
O O2 0.169808 0.423267 0.362468
O O3 0.238528 0.519017 0.222195
O O4 0.113449 0.441127 0.194265
O O5 0.172823 0.250000 0.505004
O O6 0.239855 0.002407 0.505043
O O7 0.112238 0.995944 0.519624
O O8 0.562307 0.250000 0.716484
O O9 0.564846 0.091610 0.866889
O O10 0.500000 0.000000 0.724165
O O11 0.630748 0.007819 0.722781
O O12 0.696716 0.250000 0.514801
O O13 0.692992 0.091469 0.365186
O O14 0.630031 0.000701 0.509565
O O15 0.685721 0.250000 0.214854
O O16 0.938906 0.250000 0.584629
O O17 0.000000 0.000000 0.608881
O O18 0.500000 0.500000 0.009840
O O19 0.434803 0.750000 0.016596
#
# Coordination Sequence:
#
# PCOD9360963 Si02
#       7
#     8   8   8   8   8   8   8
#     4   9  20  38  59  83 114 150 187 228 277 330
#     4  10  20  37  60  86 115 149 188 231 278 330
#     4   9  15  22  34  56  92 135 179 227 278 327
#     4   9  16  27  44  69 101 139 182 228 276 329
#     4   9  16  26  44  70 100 136 181 228 275 327
#     4  11  24  42  62  87 117 148 183 225 274 332
#     4   9  15  22  34  57  92 135 180 229 280 329
#
# _framework density 20.838856
#
# number of rings (size 3 to 8) (size 9 to 14) (size 15 to 20)
#    0.000    2.571    0.000    2.571    0.000    9.143 
#    0.000    1.429    0.000    0.000    0.000    1.000 
#    0.000    6.857    0.000    0.857    0.000    0.286 
#
# Total GULP energy -156573.041220 kJ/mol
# GULP energy per Si atom -5591.894329 kJ/mol
# Density = 2.079143 g / cm^3
# Si number density = 20.838856 Si / 1000 Ang^3
#
#
#
# Elastic Constant Matrix: (Units=GPa)
#
#
# Indices 1 2 3 4 5 6 
#
# 1 207.9683 148.0711 26.5126 0.0000 0.0000 0.0000
# 2 148.0711 230.4301 36.2759 0.0000 0.0000 0.0000
# 3 26.5126 36.2759 65.8541 0.0000 0.0000 0.0000
# 4 0.0000 0.0000 0.0000 6.0204 0.0000 0.0000
# 5 0.0000 0.0000 0.0000 0.0000 39.0998 0.0000
# 6 0.0000 0.0000 0.0000 0.0000 0.0000 44.3211
#
#
#
# Elastic Compliance Matrix: (Units=1/GPa)
#
#
# Indices 1 2 3 4 5 6 
#
# 1 0.008877 -0.005630 -0.000473 0.000000 0.000000 0.000000
# 2 -0.005630 0.008322 -0.002318 0.000000 0.000000 0.000000
# 3 -0.000473 -0.002318 0.016652 0.000000 0.000000 0.000000
# 4 0.000000 0.000000 0.000000 0.166102 0.000000 0.000000
# 5 0.000000 0.000000 0.000000 0.000000 0.025576 0.000000
# 6 0.000000 0.000000 0.000000 0.000000 0.000000 0.022563
#
#
# Mechanical properties :
#
#
# Convention : Reuss Voigt Hill
#
# Bulk Modulus (GPa) = 58.78592 102.88574 80.83583
# Shear Modulus (GPa) = 18.47728 37.44778 27.96253
#
# Velocity S-wave (km/s) = 2.98094 4.24372 3.66710
# Velocity P-wave (km/s) = 6.33396 8.57272 7.53693
#
# Compressibility (1/GPa) = 0.01701088
#
# Stress axis : x y z
#
# Youngs Moduli (GPa) = 112.64930 120.15930 60.05241
#
# Poissons Ratio (x) = 0.67648 0.02838
# Poissons Ratio (y) = 0.63420 0.13919
# Poissons Ratio (z) = 0.05324 0.27850
#
# Static dielectric constant tensor:
#      x y z
#    x 1.678080 0.000000 0.000000 
#    y 0.000000 1.714130 0.000000 
#    z 0.000000 0.000000 1.821600 
# 
# From -- ./inp_files/10372.got.cif
#   From: 2010.05.17/outbox.cif.g08.bks.cpg/sg39_6_cif.got.tgz:10372.got - 2010.06.03 18:22:40.
