data_PCOD9360457
_publ_section_title
;
Structure prediction by ZEFSAII (Michael W. Deem and Ramdas Pophale) SiO2 
 PCOD9360457
Probable space group: A B M 2
;
_chemical_formula_sum "Si O2"
_cell_formula_units_Z 64
_cell_length_a 24.326034
_cell_length_b 8.602650
_cell_length_c 15.831725
_cell_angle_alpha 90.000000
_cell_angle_beta 90.000000
_cell_angle_gamma 90.000000
_cell_volume 3313.079070
_symmetry_space_group_name_H-M "A B M 2"
_symmetry_group_IT_number 39
_symmetry_cell_setting 'orthorhombic'
loop_
_space_group_symop_operation_xyz
x,y,z
-x,-y,z
-x,1/2+y,z
x,1/2-y,z
x,1/2+y,1/2+z
-x,1/2-y,1/2+z
-x,y,1/2+z
x,-y,1/2+z
loop_
_atom_site_type_symbol
_atom_site_label
_atom_site_fract_x
_atom_site_fract_y
_atom_site_fract_z
Si Si1 0.257897 0.936018 0.067810
Si Si2 0.938636 0.936068 0.470185
Si Si3 0.438742 0.062364 0.965329
Si Si4 0.246456 0.434118 0.367125
Si Si5 0.638498 0.564263 0.809888
Si Si6 0.137231 0.939426 0.125619
Si Si7 0.129621 0.564789 0.314560
Si Si8 0.372663 0.564788 0.631056
O O1 0.264233 0.750000 0.081440
O O2 0.200176 0.987087 0.108435
O O3 0.310443 0.021025 0.105606
O O4 0.254088 0.962935 0.967284
O O5 0.940054 0.750000 0.472962
O O6 0.901918 0.991817 0.549646
O O7 0.908807 0.987506 0.384374
O O8 0.000000 0.000000 0.474720
O O9 0.439862 0.250000 0.964828
O O10 0.400052 0.012724 0.887473
O O11 0.500000 0.000000 0.956557
O O12 0.411280 0.012457 0.053720
O O13 0.238253 0.250000 0.355466
O O14 0.301517 0.489270 0.321006
O O15 0.192650 0.522365 0.335204
O O16 0.644360 0.750000 0.813640
O O17 0.614352 0.514762 0.719924
O O18 0.137616 0.750000 0.124012
O O19 0.118228 0.987883 0.218583
O O20 0.122557 0.750000 0.318916
O O21 0.377366 0.750000 0.639911
#
# Coordination Sequence:
#
# PCOD9360457 Si02
#       8
#     8   8   8   8   8   8   8   8
#     4  10  19  36  62  90 122 162 196 239 304 362
#     4  11  23  43  63  85 118 157 204 254 302 359
#     4  10  24  43  63  86 119 158 205 255 304 359
#     4  11  21  36  62  94 125 161 200 246 300 359
#     4  11  23  41  62  90 124 161 201 248 303 362
#     4   9  20  39  61  86 120 156 195 241 294 355
#     4  11  22  38  63  93 123 160 199 244 301 361
#     4  11  23  40  61  92 124 156 200 250 300 362
#
# _framework density 19.317377
#
# number of rings (size 3 to 8) (size 9 to 14) (size 15 to 20)
#    0.000    1.500    2.500    2.625    0.000    4.500 
#    0.000    6.875    0.000    0.000    0.000    0.000 
#    0.000    0.000    0.000    0.000    0.000    0.000 
#
# Total GULP energy -178898.508195 kJ/mol
# GULP energy per Si atom -5590.578381 kJ/mol
# Density = 1.927341 g / cm^3
# Si number density = 19.317377 Si / 1000 Ang^3
#
#
#
# Elastic Constant Matrix: (Units=GPa)
#
#
# Indices 1 2 3 4 5 6 
#
# 1 82.4198 -1.9948 8.9677 0.0000 0.0000 0.0000
# 2 -1.9948 22.6516 13.2540 0.0000 0.0000 0.0000
# 3 8.9677 13.2540 87.5861 0.0000 0.0000 0.0000
# 4 0.0000 0.0000 0.0000 26.5260 0.0000 0.0000
# 5 0.0000 0.0000 0.0000 0.0000 1.5961 0.0000
# 6 0.0000 0.0000 0.0000 0.0000 0.0000 32.4642
#
#
#
# Elastic Compliance Matrix: (Units=1/GPa)
#
#
# Indices 1 2 3 4 5 6 
#
# 1 0.012352 0.002005 -0.001568 0.000000 0.000000 0.000000
# 2 0.002005 0.048761 -0.007584 0.000000 0.000000 0.000000
# 3 -0.001568 -0.007584 0.012726 0.000000 0.000000 0.000000
# 4 0.000000 0.000000 0.000000 0.037699 0.000000 0.000000
# 5 0.000000 0.000000 0.000000 0.000000 0.626527 0.000000
# 6 0.000000 0.000000 0.000000 0.000000 0.000000 0.030803
#
#
# Mechanical properties :
#
#
# Convention : Reuss Voigt Hill
#
# Bulk Modulus (GPa) = 16.79397 25.90123 21.34760
# Shear Modulus (GPa) = 6.22657 23.61264 14.91961
#
# Velocity S-wave (km/s) = 1.79730 3.50001 2.78212
# Velocity P-wave (km/s) = 3.60827 5.45626 4.62550
#
# Compressibility (1/GPa) = 0.05954517
#
# Stress axis : x y z
#
# Youngs Moduli (GPa) = 80.95746 20.50809 78.58194
#
# Poissons Ratio (x) = -0.04113 0.12323
# Poissons Ratio (y) = -0.16235 0.59597
# Poissons Ratio (z) = 0.12695 0.15554
#
# Static dielectric constant tensor:
#      x y z
#    x 1.630310 0.000000 0.000000 
#    y 0.000000 1.658070 0.000000 
#    z 0.000000 0.000000 1.682700 
# 
# From -- ./inp_files/10605.got.cif
#   From: 2010.05.17/outbox.cif.g08.bks.cpg/sg39_6_cif.got.tgz:10605.got - 2010.06.03 18:22:40.
