data_PCOD9360922
_publ_section_title
;
Structure prediction by ZEFSAII (Michael W. Deem and Ramdas Pophale) SiO2 
 PCOD9360922
Probable space group: A B M 2
;
_chemical_formula_sum "Si O2"
_cell_formula_units_Z 56
_cell_length_a 5.125065
_cell_length_b 25.412164
_cell_length_c 20.184391
_cell_angle_alpha 90.000000
_cell_angle_beta 90.000000
_cell_angle_gamma 90.000000
_cell_volume 2628.794744
_symmetry_space_group_name_H-M "A B M 2"
_symmetry_group_IT_number 39
_symmetry_cell_setting 'orthorhombic'
loop_
_space_group_symop_operation_xyz
x,y,z
-x,-y,z
-x,1/2+y,z
x,1/2-y,z
x,1/2+y,1/2+z
-x,1/2-y,1/2+z
-x,y,1/2+z
x,-y,1/2+z
loop_
_atom_site_type_symbol
_atom_site_label
_atom_site_fract_x
_atom_site_fract_y
_atom_site_fract_z
Si Si1 0.863547 0.363088 0.359410
Si Si2 0.149169 0.690409 0.236961
Si Si3 0.640440 0.363827 0.684804
Si Si4 0.274863 0.189563 0.049830
Si Si5 0.769694 0.654670 0.472634
Si Si6 0.447424 0.941430 0.919519
Si Si7 0.153198 0.946919 0.778418
O O1 0.759570 0.316525 0.313645
O O2 0.680878 0.399431 0.405537
O O3 0.112055 0.340236 0.398585
O O4 0.943620 0.404403 0.302759
O O5 0.182869 0.750000 0.215412
O O6 0.345954 0.654133 0.196365
O O7 0.849638 0.673776 0.223030
O O8 0.689651 0.352849 0.607913
O O9 0.691112 0.420812 0.717822
O O10 0.286046 0.250000 0.074140
O O11 0.502945 0.181748 0.995381
O O12 0.995873 0.177639 0.018059
O O13 0.728659 0.591325 0.471081
O O14 0.321268 0.951150 0.846445
O O15 0.500000 0.000000 0.944586
O O16 0.000000 0.000000 0.763032
#
# Coordination Sequence:
#
# PCOD9360922 Si02
#       7
#     8   8   8   8   8   8   8
#     4  10  21  39  62 101 133 161 213 269 331 403
#     4  11  22  38  62  94 131 167 209 274 339 383
#     4  11  24  42  64  94 129 170 228 271 311 399
#     4  12  25  45  67  88 128 187 234 270 321 382
#     4  11  25  43  63  97 129 167 230 275 317 392
#     4  11  20  40  70  98 133 168 210 263 346 406
#     4  10  20  36  66 102 133 167 208 268 340 397
#
# _framework density 21.302536
#
# number of rings (size 3 to 8) (size 9 to 14) (size 15 to 20)
#    0.000    1.143    4.286    2.571    0.000    1.143 
#    0.000    1.429    0.000    0.000    0.000    0.000 
#    0.000    0.000    0.000    0.000    0.000    0.000 
#
# Total GULP energy -156022.754136 kJ/mol
# GULP energy per Si atom -5572.241219 kJ/mol
# Density = 2.125405 g / cm^3
# Si number density = 21.302536 Si / 1000 Ang^3
#
#
#
# Elastic Constant Matrix: (Units=GPa)
#
#
# Indices 1 2 3 4 5 6 
#
# 1 70.7540 7.5121 -4.8954 0.0000 0.0000 0.0000
# 2 7.5121 64.1065 20.3705 0.0000 0.0000 0.0000
# 3 -4.8954 20.3705 30.3102 0.0000 0.0000 0.0000
# 4 0.0000 0.0000 0.0000 14.9064 0.0000 0.0000
# 5 0.0000 0.0000 0.0000 0.0000 7.5582 0.0000
# 6 0.0000 0.0000 0.0000 0.0000 0.0000 27.0505
#
#
#
# Elastic Compliance Matrix: (Units=1/GPa)
#
#
# Indices 1 2 3 4 5 6 
#
# 1 0.014782 -0.003167 0.004516 0.000000 0.000000 0.000000
# 2 -0.003167 0.020513 -0.014298 0.000000 0.000000 0.000000
# 3 0.004516 -0.014298 0.043331 0.000000 0.000000 0.000000
# 4 0.000000 0.000000 0.000000 0.067085 0.000000 0.000000
# 5 0.000000 0.000000 0.000000 0.000000 0.132307 0.000000
# 6 0.000000 0.000000 0.000000 0.000000 0.000000 0.036968
#
#
# Mechanical properties :
#
#
# Convention : Reuss Voigt Hill
#
# Bulk Modulus (GPa) = 18.96517 23.46055 21.21286
# Shear Modulus (GPa) = 13.94849 19.38190 16.66520
#
# Velocity S-wave (km/s) = 2.56164 3.01963 2.80002
# Velocity P-wave (km/s) = 4.20374 4.81606 4.52028
#
# Compressibility (1/GPa) = 0.05272824
#
# Stress axis : x y z
#
# Youngs Moduli (GPa) = 67.64892 48.74839 23.07827
#
# Poissons Ratio (x) = 0.15440 -0.10422
# Poissons Ratio (y) = 0.21426 0.32997
# Poissons Ratio (z) = -0.30551 0.69700
#
# Static dielectric constant tensor:
#      x y z
#    x 1.830050 0.000000 0.000000 
#    y 0.000000 1.818910 0.000000 
#    z 0.000000 0.000000 1.793900 
# 
# From -- ./inp_files/13595.got.cif
#   From: 2010.05.17/outbox.cif.g08.bks.cpg/sg39_7_cif.got.tgz:13595.got - 2010.06.03 18:22:40.
