data_PCOD9360353
_publ_section_title
;
Structure prediction by ZEFSAII (Michael W. Deem and Ramdas Pophale) SiO2 
 PCOD9360353
Probable space group: A B M 2
;
_chemical_formula_sum "Si O2"
_cell_formula_units_Z 64
_cell_length_a 12.854667
_cell_length_b 17.919644
_cell_length_c 15.779323
_cell_angle_alpha 90.000000
_cell_angle_beta 90.000000
_cell_angle_gamma 90.000000
_cell_volume 3634.783722
_symmetry_space_group_name_H-M "A B M 2"
_symmetry_group_IT_number 39
_symmetry_cell_setting 'orthorhombic'
loop_
_space_group_symop_operation_xyz
x,y,z
-x,-y,z
-x,1/2+y,z
x,1/2-y,z
x,1/2+y,1/2+z
-x,1/2-y,1/2+z
-x,y,1/2+z
x,-y,1/2+z
loop_
_atom_site_type_symbol
_atom_site_label
_atom_site_fract_x
_atom_site_fract_y
_atom_site_fract_z
Si Si1 0.737598 0.665016 0.206770
Si Si2 0.967280 0.663075 0.125060
Si Si3 0.064626 0.576814 0.455084
Si Si4 0.072590 0.427990 0.767878
Si Si5 0.597187 0.554306 0.608764
Si Si6 0.565630 0.665064 0.057910
Si Si7 0.298045 0.002882 0.278171
Si Si8 0.691461 0.461633 0.466628
O O1 0.737591 0.750000 0.243694
O O2 0.849953 0.653719 0.162320
O O3 0.646594 0.663327 0.136457
O O4 0.717568 0.591582 0.263093
O O5 0.988282 0.750000 0.119430
O O6 0.046384 0.624987 0.190203
O O7 0.971346 0.627075 0.032590
O O8 0.049343 0.607938 0.359896
O O9 0.187645 0.561704 0.465983
O O10 0.000000 0.500000 0.458363
O O11 0.188018 0.460582 0.770631
O O12 0.000000 0.500000 0.758130
O O13 0.500000 0.500000 0.594585
O O14 0.546072 0.634263 0.589613
O O15 0.635445 0.534730 0.702920
O O16 0.677982 0.525474 0.538256
O O17 0.558850 0.750000 0.027153
O O18 0.618664 0.608472 0.991353
O O19 0.338106 0.989757 0.373131
#
# Coordination Sequence:
#
# PCOD9360353 Si02
#       8
#     8   8   8   8   8   8   8   8
#     4  10  19  34  59  86 110 144 191 238 288 336
#     4  11  21  34  56  82 113 152 188 232 288 339
#     4  10  21  35  57  84 113 148 190 237 279 337
#     4  10  21  35  55  86 115 148 192 234 280 340
#     4  10  20  36  56  83 112 145 189 239 288 337
#     4  10  20  39  59  83 115 148 192 244 290 336
#     4  11  20  37  61  85 117 150 194 238 284 348
#     4  10  21  36  60  90 110 152 196 234 285 351
#
# _framework density 17.607648999999999
#
# number of rings (size 3 to 8) (size 9 to 14) (size 15 to 20)
#    0.000    1.750    5.000    0.375    1.750    2.000 
#    0.000    3.750    0.000    0.000    0.000    0.000 
#    0.000    0.000    0.000    0.000    0.000    0.000 
#
# Total GULP energy -178355.816440 kJ/mol
# GULP energy per Si atom -5573.619264 kJ/mol
# Density = 1.756757 g / cm^3
# Si number density = 17.607649 Si / 1000 Ang^3
#
#
#
# Elastic Constant Matrix: (Units=GPa)
#
#
# Indices 1 2 3 4 5 6 
#
# 1 21.1672 18.2596 10.9229 0.0000 0.0000 0.0000
# 2 18.2596 117.6585 67.5983 0.0000 0.0000 0.0000
# 3 10.9229 67.5983 122.0875 0.0000 0.0000 0.0000
# 4 0.0000 0.0000 0.0000 -1.4138 0.0000 0.0000
# 5 0.0000 0.0000 0.0000 0.0000 39.6368 0.0000
# 6 0.0000 0.0000 0.0000 0.0000 0.0000 21.6644
#
#
#
# Elastic Compliance Matrix: (Units=1/GPa)
#
#
# Indices 1 2 3 4 5 6 
#
# 1 0.054552 -0.008303 -0.000283 0.000000 0.000000 0.000000
# 2 -0.008303 0.013728 -0.006858 0.000000 0.000000 0.000000
# 3 -0.000283 -0.006858 0.012013 0.000000 0.000000 0.000000
# 4 0.000000 0.000000 0.000000 -0.707296 0.000000 0.000000
# 5 0.000000 0.000000 0.000000 0.000000 0.025229 0.000000
# 6 0.000000 0.000000 0.000000 0.000000 0.000000 0.046159
#
#
# Mechanical properties :
#
#
# Convention : Reuss Voigt Hill
#
# Bulk Modulus (GPa) = 20.24131 50.49723 35.36927
# Shear Modulus (GPa) = -9.83754 22.91961 6.54104
#
# Velocity S-wave (km/s) = -2.36626 3.61180 1.92949
# Velocity P-wave (km/s) = 2.01373 6.79227 5.00949
#
# Compressibility (1/GPa) = 0.04940392
#
# Stress axis : x y z
#
# Youngs Moduli (GPa) = 18.33122 72.84399 83.24005
#
# Poissons Ratio (x) = 0.60484 0.02358
# Poissons Ratio (y) = 0.15221 0.57087
# Poissons Ratio (z) = 0.00519 0.49957
#
# Static dielectric constant tensor:
#      x y z
#    x 1.610280 0.000000 0.000000 
#    y 0.000000 1.605260 0.000000 
#    z 0.000000 0.000000 1.610410 
# 
# From -- ./inp_files/9447.got.cif
#   From: 2010.05.17/outbox.cif.g08.bks.cpg/sg39_5_cif.got.tgz:9447.got - 2010.06.03 18:22:40.
