data_PCOD9360599
_publ_section_title
;
Structure prediction by ZEFSAII (Michael W. Deem and Ramdas Pophale) SiO2 
 PCOD9360599
Probable space group: A B M 2
;
_chemical_formula_sum "Si O2"
_cell_formula_units_Z 64
_cell_length_a 5.438421
_cell_length_b 18.653815
_cell_length_c 29.352489
_cell_angle_alpha 90.000000
_cell_angle_beta 90.000000
_cell_angle_gamma 90.000000
_cell_volume 2977.730735
_symmetry_space_group_name_H-M "A B M 2"
_symmetry_group_IT_number 39
_symmetry_cell_setting 'orthorhombic'
loop_
_space_group_symop_operation_xyz
x,y,z
-x,-y,z
-x,1/2+y,z
x,1/2-y,z
x,1/2+y,1/2+z
-x,1/2-y,1/2+z
-x,y,1/2+z
x,-y,1/2+z
loop_
_atom_site_type_symbol
_atom_site_label
_atom_site_fract_x
_atom_site_fract_y
_atom_site_fract_z
Si Si1 0.097583 0.921034 0.275850
Si Si2 0.852997 0.930305 0.944566
Si Si3 0.605280 0.665166 0.300694
Si Si4 0.756371 0.171664 0.988101
Si Si5 0.410699 0.426121 0.039224
Si Si6 0.554198 0.827267 0.896374
Si Si7 0.243642 0.575446 0.171154
Si Si8 0.245612 0.588307 0.633731
O O1 0.342437 0.878061 0.294914
O O2 0.195215 0.935270 0.224494
O O3 0.848395 0.872064 0.279203
O O4 0.000000 0.000000 0.293378
O O5 0.715756 0.897807 0.901520
O O6 0.022208 0.868198 0.964447
O O7 0.701369 0.947734 0.990401
O O8 0.000000 0.000000 0.931336
O O9 0.581552 0.750000 0.287206
O O10 0.638483 0.665020 0.355809
O O11 0.827658 0.250000 0.003541
O O12 0.562068 0.176410 0.946647
O O13 0.632231 0.126407 0.027713
O O14 0.500000 0.500000 0.059983
O O15 0.243489 0.396990 0.079588
O O16 0.683315 0.750000 0.888510
O O17 0.499955 0.612168 0.157222
O O18 0.242477 0.496685 0.147494
O O19 0.006467 0.617922 0.153615
#
# Coordination Sequence:
#
# PCOD9360599 Si02
#       8
#     8   8   8   8   8   8   8   8
#     4  12  24  43  70 106 136 168 228 293 346 404
#     4  11  22  34  62  92 128 165 214 282 326 378
#     4  11  26  46  71  98 136 183 227 278 348 430
#     4  10  22  40  61  85 127 174 212 262 328 394
#     4  11  21  35  58  95 125 161 216 273 313 378
#     4   9  22  43  61  85 122 175 224 257 324 413
#     4  10  20  35  61  97 128 166 210 273 331 397
#     4  10  20  33  62  94 130 166 217 262 329 396
#
# _framework density 21.492875000000002
#
# number of rings (size 3 to 8) (size 9 to 14) (size 15 to 20)
#    0.000    1.500    3.750    1.875    7.000    1.000 
#    2.250    0.000    0.000    4.500    0.000    0.000 
#    0.000    0.000    0.000    0.000    0.000    0.000 
#
# Total GULP energy -178160.621619 kJ/mol
# GULP energy per Si atom -5567.519426 kJ/mol
# Density = 2.144396 g / cm^3
# Si number density = 21.492875 Si / 1000 Ang^3
#
#
#
# Elastic Constant Matrix: (Units=GPa)
#
#
# Indices 1 2 3 4 5 6 
#
# 1 126.6309 38.7336 9.2582 0.0000 0.0000 0.0000
# 2 38.7336 88.7527 14.2155 0.0000 0.0000 0.0000
# 3 9.2582 14.2155 74.8644 0.0000 0.0000 0.0000
# 4 0.0000 0.0000 0.0000 265.9922 0.0000 0.0000
# 5 0.0000 0.0000 0.0000 0.0000 25.8290 0.0000
# 6 0.0000 0.0000 0.0000 0.0000 0.0000 35.6489
#
#
#
# Elastic Compliance Matrix: (Units=1/GPa)
#
#
# Indices 1 2 3 4 5 6 
#
# 1 0.009124 -0.003921 -0.000384 0.000000 0.000000 0.000000
# 2 -0.003921 0.013305 -0.002042 0.000000 0.000000 0.000000
# 3 -0.000384 -0.002042 0.013793 0.000000 0.000000 0.000000
# 4 0.000000 0.000000 0.000000 0.003760 0.000000 0.000000
# 5 0.000000 0.000000 0.000000 0.000000 0.038716 0.000000
# 6 0.000000 0.000000 0.000000 0.000000 0.000000 0.028051
#
#
# Mechanical properties :
#
#
# Convention : Reuss Voigt Hill
#
# Bulk Modulus (GPa) = 42.49886 46.07360 44.28623
# Shear Modulus (GPa) = 39.28202 80.69672 59.98937
#
# Velocity S-wave (km/s) = 4.27977 6.13411 5.28884
# Velocity P-wave (km/s) = 6.65119 8.46481 7.61220
#
# Compressibility (1/GPa) = 0.02353005
#
# Stress axis : x y z
#
# Youngs Moduli (GPa) = 109.59820 75.15820 72.50247
#
# Poissons Ratio (x) = 0.29466 0.02783
# Poissons Ratio (y) = 0.42968 0.14802
# Poissons Ratio (z) = 0.04208 0.15344
#
# Static dielectric constant tensor:
#      x y z
#    x 2.362590 0.000000 0.000000 
#    y 0.000000 1.802820 0.000000 
#    z 0.000000 0.000000 1.767300 
# 
# From -- ./inp_files/17377.got.cif
#   From: 2010.05.17/outbox.cif.g08.bks.cpg/sg39_9_cif.got.tgz:17377.got - 2010.06.03 18:22:40.
