data_PCOD9360946
_publ_section_title
;
Structure prediction by ZEFSAII (Michael W. Deem and Ramdas Pophale) SiO2 
 PCOD9360946
Probable space group: A B M 2
;
_chemical_formula_sum "Si O2"
_cell_formula_units_Z 64
_cell_length_a 19.817053
_cell_length_b 8.617076
_cell_length_c 20.843633
_cell_angle_alpha 90.000000
_cell_angle_beta 90.000000
_cell_angle_gamma 90.000000
_cell_volume 3559.364069
_symmetry_space_group_name_H-M "A B M 2"
_symmetry_group_IT_number 39
_symmetry_cell_setting 'orthorhombic'
loop_
_space_group_symop_operation_xyz
x,y,z
-x,-y,z
-x,1/2+y,z
x,1/2-y,z
x,1/2+y,1/2+z
-x,1/2-y,1/2+z
-x,y,1/2+z
x,-y,1/2+z
loop_
_atom_site_type_symbol
_atom_site_label
_atom_site_fract_x
_atom_site_fract_y
_atom_site_fract_z
Si Si1 0.283767 0.436170 0.510590
Si Si2 0.715226 0.937344 0.264752
Si Si3 0.571572 0.436145 0.811904
Si Si4 0.793482 0.434431 0.387391
Si Si5 0.572403 0.562951 0.461069
Si Si6 0.926408 0.435702 0.831375
Si Si7 0.207376 0.564511 0.633984
Si Si8 0.073163 0.935244 0.187710
O O1 0.282793 0.250000 0.515748
O O2 0.243603 0.486642 0.447065
O O3 0.361813 0.486530 0.500752
O O4 0.247498 0.509203 0.571764
O O5 0.720370 0.750000 0.273643
O O6 0.636681 0.981524 0.270861
O O7 0.749190 0.976390 0.197302
O O8 0.754115 0.018056 0.322823
O O9 0.500000 0.500000 0.789203
O O10 0.568142 0.250000 0.812293
O O11 0.581463 0.486609 0.886341
O O12 0.793742 0.250000 0.395271
O O13 0.868891 0.497646 0.377174
O O14 0.500000 0.500000 0.483181
O O15 0.570226 0.750000 0.461632
O O16 0.925758 0.250000 0.831609
O O17 0.912956 0.493705 0.758492
O O18 0.000000 0.500000 0.848749
O O19 0.198840 0.750000 0.632671
O O20 0.134204 0.486639 0.642230
O O21 0.069941 0.750000 0.193199
O O22 0.000000 0.000000 0.167448
#
# Coordination Sequence:
#
# PCOD9360946 Si02
#       8
#     8   8   8   8   8   8   8   8
#     4  11  23  41  60  83 119 159 197 244 298 352
#     4  10  20  37  59  82 116 153 190 238 295 345
#     4   9  17  32  53  82 113 148 189 238 293 347
#     4  12  23  36  59  89 117 149 195 241 290 350
#     4   9  18  33  56  82 111 148 192 239 292 350
#     4  11  21  36  58  87 121 155 193 242 295 344
#     4  11  23  39  60  87 119 158 199 243 295 350
#     4  11  21  36  59  88 118 154 197 241 290 346
#
# _framework density 17.980740000000001
#
# number of rings (size 3 to 8) (size 9 to 14) (size 15 to 20)
#    0.000    1.500    2.500    4.875    0.000    2.000 
#    0.000    1.250    0.000    3.000    0.000    0.000 
#    0.000    0.000    0.000    0.000    0.000    0.000 
#
# Total GULP energy -178760.395296 kJ/mol
# GULP energy per Si atom -5586.262353 kJ/mol
# Density = 1.793981 g / cm^3
# Si number density = 17.980740 Si / 1000 Ang^3
#
#
#
# Elastic Constant Matrix: (Units=GPa)
#
#
# Indices 1 2 3 4 5 6 
#
# 1 150.8064 19.5859 45.1540 0.0000 0.0000 0.0000
# 2 19.5859 47.2394 14.3666 0.0000 0.0000 0.0000
# 3 45.1540 14.3666 71.1116 0.0000 0.0000 0.0000
# 4 0.0000 0.0000 0.0000 23.9257 0.0000 0.0000
# 5 0.0000 0.0000 0.0000 0.0000 28.0575 0.0000
# 6 0.0000 0.0000 0.0000 0.0000 0.0000 32.8199
#
#
#
# Elastic Compliance Matrix: (Units=1/GPa)
#
#
# Indices 1 2 3 4 5 6 
#
# 1 0.008357 -0.001972 -0.004908 0.000000 0.000000 0.000000
# 2 -0.001972 0.023020 -0.003398 0.000000 0.000000 0.000000
# 3 -0.004908 -0.003398 0.017865 0.000000 0.000000 0.000000
# 4 0.000000 0.000000 0.000000 0.041796 0.000000 0.000000
# 5 0.000000 0.000000 0.000000 0.000000 0.035641 0.000000
# 6 0.000000 0.000000 0.000000 0.000000 0.000000 0.030469
#
#
# Mechanical properties :
#
#
# Convention : Reuss Voigt Hill
#
# Bulk Modulus (GPa) = 34.86125 47.48561 41.17343
# Shear Modulus (GPa) = 26.69986 29.63068 28.16527
#
# Velocity S-wave (km/s) = 3.85764 4.06385 3.96209
# Velocity P-wave (km/s) = 6.26674 6.96321 6.62414
#
# Compressibility (1/GPa) = 0.02868515
#
# Stress axis : x y z
#
# Youngs Moduli (GPa) = 119.66546 43.44048 55.97444
#
# Poissons Ratio (x) = 0.08567 0.27471
# Poissons Ratio (y) = 0.23600 0.19022
# Poissons Ratio (z) = 0.58729 0.14763
#
# Static dielectric constant tensor:
#      x y z
#    x 1.630360 0.000000 0.000000 
#    y 0.000000 1.605040 0.000000 
#    z 0.000000 0.000000 1.583770 
# 
# From -- ./inp_files/13178.got.cif
#   From: 2010.05.17/outbox.cif.g08.bks.cpg/sg39_7_cif.got.tgz:13178.got - 2010.06.03 18:22:40.
