data_PCOD9360669
_publ_section_title
;
Structure prediction by ZEFSAII (Michael W. Deem and Ramdas Pophale) SiO2 
 PCOD9360669
Probable space group: A B M 2
;
_chemical_formula_sum "Si O2"
_cell_formula_units_Z 64
_cell_length_a 16.797461
_cell_length_b 23.526168
_cell_length_c 8.302383
_cell_angle_alpha 90.000000
_cell_angle_beta 90.000000
_cell_angle_gamma 90.000000
_cell_volume 3280.934796
_symmetry_space_group_name_H-M "A B M 2"
_symmetry_group_IT_number 39
_symmetry_cell_setting 'orthorhombic'
loop_
_space_group_symop_operation_xyz
x,y,z
-x,-y,z
-x,1/2+y,z
x,1/2-y,z
x,1/2+y,1/2+z
-x,1/2-y,1/2+z
-x,y,1/2+z
x,-y,1/2+z
loop_
_atom_site_type_symbol
_atom_site_label
_atom_site_fract_x
_atom_site_fract_y
_atom_site_fract_z
Si Si1 0.898644 0.630813 0.526110
Si Si2 0.735716 0.185156 0.943719
Si Si3 0.046969 0.183174 0.198975
Si Si4 0.785724 0.686296 0.065670
Si Si5 0.738451 0.931077 0.943124
Si Si6 0.347622 0.576167 0.959626
Si Si7 0.408690 0.485678 0.773425
Si Si8 0.190694 0.971141 0.107867
O O1 0.812526 0.661478 0.539964
O O2 0.927254 0.644009 0.346616
O O3 0.887744 0.563549 0.559771
O O4 0.963146 0.661386 0.636381
O O5 0.720238 0.250000 0.987186
O O6 0.759273 0.183112 0.753946
O O7 0.661128 0.143332 0.967761
O O8 0.044363 0.250000 0.247873
O O9 0.118341 0.178929 0.068645
O O10 0.767393 0.750000 0.007653
O O11 0.744189 0.635660 0.971142
O O12 0.647766 0.951419 0.901163
O O13 0.786140 0.950476 0.784362
O O14 0.789460 0.962557 0.084204
O O15 0.398070 0.547926 0.105668
O O16 0.258619 0.554029 0.990490
O O17 0.372102 0.549205 0.789544
O O18 0.500000 0.500000 0.809878
#
# Coordination Sequence:
#
# PCOD9360669 Si02
#       8
#     8   8   8   8   8   8   8   8
#     4  10  20  35  54  81 113 147 200 247 302 345
#     4   9  18  35  58  82 111 153 196 238 287 344
#     4  10  20  34  55  79 111 155 197 250 301 350
#     4   9  20  36  58  84 113 153 202 249 291 347
#     4  10  21  37  61  86 115 153 193 240 292 355
#     4   9  19  33  56  84 110 146 183 227 279 338
#     4  10  20  35  56  90 117 142 181 232 291 340
#     4   9  21  35  56  82 110 151 189 238 292 342
#
# _framework density 19.506633999999998
#
# number of rings (size 3 to 8) (size 9 to 14) (size 15 to 20)
#    0.000    2.500    0.000    2.250   12.250    0.000 
#    0.000    6.875    0.000    1.500    0.000    0.000 
#    0.000    0.000    0.000    0.000    0.000    0.000 
#
# Total GULP energy -178187.154481 kJ/mol
# GULP energy per Si atom -5568.348578 kJ/mol
# Density = 1.946224 g / cm^3
# Si number density = 19.506634 Si / 1000 Ang^3
#
#
#
# Elastic Constant Matrix: (Units=GPa)
#
#
# Indices 1 2 3 4 5 6 
#
# 1 80.6991 56.5263 25.9996 0.0000 0.0000 0.0000
# 2 56.5263 141.4869 34.0696 0.0000 0.0000 0.0000
# 3 25.9996 34.0696 53.2784 0.0000 0.0000 0.0000
# 4 0.0000 0.0000 0.0000 21.7518 0.0000 0.0000
# 5 0.0000 0.0000 0.0000 0.0000 15.6505 0.0000
# 6 0.0000 0.0000 0.0000 0.0000 0.0000 21.6842
#
#
#
# Elastic Compliance Matrix: (Units=1/GPa)
#
#
# Indices 1 2 3 4 5 6 
#
# 1 0.018278 -0.006093 -0.005023 0.000000 0.000000 0.000000
# 2 -0.006093 0.010385 -0.003668 0.000000 0.000000 0.000000
# 3 -0.005023 -0.003668 0.023566 0.000000 0.000000 0.000000
# 4 0.000000 0.000000 0.000000 0.045973 0.000000 0.000000
# 5 0.000000 0.000000 0.000000 0.000000 0.063896 0.000000
# 6 0.000000 0.000000 0.000000 0.000000 0.000000 0.046116
#
#
# Mechanical properties :
#
#
# Convention : Reuss Voigt Hill
#
# Bulk Modulus (GPa) = 44.12790 56.51727 50.32259
# Shear Modulus (GPa) = 20.38024 22.40857 21.39441
#
# Velocity S-wave (km/s) = 3.23582 3.39302 3.31535
# Velocity P-wave (km/s) = 6.05242 6.66231 6.36468
#
# Compressibility (1/GPa) = 0.02266140
#
# Stress axis : x y z
#
# Youngs Moduli (GPa) = 54.71123 96.29208 42.43377
#
# Poissons Ratio (x) = 0.58667 0.21316
# Poissons Ratio (y) = 0.33334 0.15563
# Poissons Ratio (z) = 0.27484 0.35317
#
# Static dielectric constant tensor:
#      x y z
#    x 1.704830 0.000000 0.000000 
#    y 0.000000 1.772070 0.000000 
#    z 0.000000 0.000000 1.755690 
# 
# From -- ./inp_files/3879.got.cif
#   From: 2010.05.17/outbox.cif.g08.bks.cpg/sg39_2_cif.got.tgz:3879.got - 2010.06.03 18:22:40.
