data_PCOD9360292
_publ_section_title
;
Structure prediction by ZEFSAII (Michael W. Deem and Ramdas Pophale) SiO2 
 PCOD9360292
Probable space group: A B M 2
;
_chemical_formula_sum "Si O2"
_cell_formula_units_Z 56
_cell_length_a 14.871492
_cell_length_b 8.656654
_cell_length_c 26.027527
_cell_angle_alpha 90.000000
_cell_angle_beta 90.000000
_cell_angle_gamma 90.000000
_cell_volume 3350.715132
_symmetry_space_group_name_H-M "A B M 2"
_symmetry_group_IT_number 39
_symmetry_cell_setting 'orthorhombic'
loop_
_space_group_symop_operation_xyz
x,y,z
-x,-y,z
-x,1/2+y,z
x,1/2-y,z
x,1/2+y,1/2+z
-x,1/2-y,1/2+z
-x,y,1/2+z
x,-y,1/2+z
loop_
_atom_site_type_symbol
_atom_site_label
_atom_site_fract_x
_atom_site_fract_y
_atom_site_fract_z
Si Si1 0.713227 0.062808 0.665260
Si Si2 0.286772 0.562808 0.462777
Si Si3 0.399450 0.063898 0.064019
Si Si4 0.095483 0.063998 0.123837
Si Si5 0.095483 0.436002 0.004200
Si Si6 0.401528 0.065663 0.757474
Si Si7 0.598472 0.065663 0.870563
O O1 0.710036 0.250000 0.669082
O O2 0.654963 0.017525 0.615107
O O3 0.816385 0.016139 0.655137
O O4 0.669479 0.989935 0.715450
O O5 0.289964 0.750000 0.458955
O O6 0.345038 0.517525 0.512930
O O7 0.183615 0.516139 0.472900
O O8 0.330521 0.489936 0.412587
O O9 0.403097 0.250000 0.064019
O O10 0.500000 0.000000 0.064019
O O11 0.092294 0.250000 0.124361
O O12 0.106828 0.015927 0.064019
O O13 0.000000 0.000000 0.142285
O O14 0.092294 0.250000 0.003676
O O15 0.000000 0.500000 0.985752
O O16 0.406178 0.250000 0.759619
O O17 0.500000 0.000000 0.743063
O O18 0.380553 1.000000 0.814019
O O19 0.593822 0.250000 0.868418
O O20 0.500000 0.000000 0.884974
#
# Coordination Sequence:
#
# PCOD9360292 Si02
#       7
#     8   8   8   8   8   8   8
#     4  10  19  34  53  75 106 141 174 213 260 309
#     4  10  19  34  53  75 106 141 174 213 260 309
#     4  10  20  32  47  70 104 140 171 204 253 308
#     4   9  17  31  51  75 105 140 175 213 257 306
#     4   9  17  31  51  75 105 140 175 213 257 306
#     4  11  22  37  56  78 103 136 177 219 261 308
#     4  11  22  37  56  78 103 136 177 219 261 308
#
# _framework density 16.712848999999999
#
# number of rings (size 3 to 8) (size 9 to 14) (size 15 to 20)
#    0.000    2.000    1.429    4.286    0.000    4.571 
#    0.000    0.000    0.000    0.857    0.000    6.000 
#    0.000    0.000    0.000    0.000    0.000    0.000 
#
# Total GULP energy -156303.589085 kJ/mol
# GULP energy per Si atom -5582.271039 kJ/mol
# Density = 1.667481 g / cm^3
# Si number density = 16.712849 Si / 1000 Ang^3
#
#
#
# Elastic Constant Matrix: (Units=GPa)
#
#
# Indices 1 2 3 4 5 6 
#
# 1 185.6056 52.0271 96.3542 0.0000 0.0000 0.0000
# 2 52.0271 58.2349 39.8471 0.0000 0.0000 0.0000
# 3 96.3542 39.8471 91.9674 0.0000 0.0000 0.0000
# 4 0.0000 0.0000 0.0000 22.9373 0.0000 0.0000
# 5 0.0000 0.0000 0.0000 0.0000 21.2636 0.0000
# 6 0.0000 0.0000 0.0000 0.0000 0.0000 29.4282
#
#
#
# Elastic Compliance Matrix: (Units=1/GPa)
#
#
# Indices 1 2 3 4 5 6 
#
# 1 0.012184 -0.003057 -0.011440 0.000000 0.000000 0.000000
# 2 -0.003057 0.025175 -0.007705 0.000000 0.000000 0.000000
# 3 -0.011440 -0.007705 0.026198 0.000000 0.000000 0.000000
# 4 0.000000 0.000000 0.000000 0.043597 0.000000 0.000000
# 5 0.000000 0.000000 0.000000 0.000000 0.047029 0.000000
# 6 0.000000 0.000000 0.000000 0.000000 0.000000 0.033981
#
#
# Mechanical properties :
#
#
# Convention : Reuss Voigt Hill
#
# Bulk Modulus (GPa) = 52.21374 79.14053 65.67713
# Shear Modulus (GPa) = 20.92469 24.56446 22.74457
#
# Velocity S-wave (km/s) = 3.54222 3.83795 3.69304
# Velocity P-wave (km/s) = 6.93103 8.19120 7.58732
#
# Compressibility (1/GPa) = 0.01915205
#
# Stress axis : x y z
#
# Youngs Moduli (GPa) = 82.07630 39.72201 38.17090
#
# Poissons Ratio (x) = 0.12143 0.43669
# Poissons Ratio (y) = 0.25090 0.29411
# Poissons Ratio (z) = 0.93899 0.30606
#
# Static dielectric constant tensor:
#      x y z
#    x 1.553860 0.000000 0.000000 
#    y 0.000000 1.569030 0.000000 
#    z 0.000000 0.000000 1.542430 
# 
# From -- ./inp_files/14775.got.cif
#   From: 2010.05.17/outbox.cif.g08.bks.cpg/sg39_8_cif.got.tgz:14775.got - 2010.06.03 18:22:40.
