data_PCOD9360362
_publ_section_title
;
Structure prediction by ZEFSAII (Michael W. Deem and Ramdas Pophale) SiO2 
 PCOD9360362
Probable space group: A B M 2
;
_chemical_formula_sum "Si O2"
_cell_formula_units_Z 64
_cell_length_a 22.240989
_cell_length_b 15.881827
_cell_length_c 9.067084
_cell_angle_alpha 90.000000
_cell_angle_beta 90.000000
_cell_angle_gamma 90.000000
_cell_volume 3202.743773
_symmetry_space_group_name_H-M "A B M 2"
_symmetry_group_IT_number 39
_symmetry_cell_setting 'orthorhombic'
loop_
_space_group_symop_operation_xyz
x,y,z
-x,-y,z
-x,1/2+y,z
x,1/2-y,z
x,1/2+y,1/2+z
-x,1/2-y,1/2+z
-x,y,1/2+z
x,-y,1/2+z
loop_
_atom_site_type_symbol
_atom_site_label
_atom_site_fract_x
_atom_site_fract_y
_atom_site_fract_z
Si Si1 0.558786 0.906298 0.486830
Si Si2 0.936104 0.653426 0.081267
Si Si3 0.852651 0.004832 0.698144
Si Si4 0.438321 0.091140 0.841056
Si Si5 0.306256 0.656651 0.335254
Si Si6 0.689897 0.842122 0.480051
Si Si7 0.768765 0.000268 0.947759
Si Si8 0.066694 0.846189 0.227371
O O1 0.553193 0.914698 0.664104
O O2 0.497685 0.870518 0.416491
O O3 0.619005 0.854853 0.453602
O O4 0.567218 0.998245 0.412751
O O5 0.916990 0.750000 0.113552
O O6 0.891751 0.584113 0.147994
O O7 0.002069 0.641939 0.151312
O O8 0.939698 0.645012 0.904264
O O9 0.788443 0.003417 0.617032
O O10 0.888107 0.917982 0.674061
O O11 0.832900 0.008954 0.867549
O O12 0.376247 0.139162 0.870349
O O13 0.288490 0.750000 0.385109
O O14 0.301842 0.654293 0.157443
O O15 0.265237 0.584388 0.403172
O O16 0.709423 0.750000 0.427688
O O17 0.727133 0.919669 0.416730
O O18 0.087041 0.750000 0.196651
#
# Coordination Sequence:
#
# PCOD9360362 Si02
#       8
#     8   8   8   8   8   8   8   8
#     4  10  19  34  60  87 118 153 197 251 312 370
#     4  10  23  43  66  96 131 161 201 251 304 359
#     4  12  25  40  67  93 123 169 205 253 300 360
#     4  10  19  34  60  88 117 154 197 251 311 371
#     4  10  22  41  64  86 120 165 205 251 313 373
#     4  10  22  41  63  87 121 162 204 256 313 367
#     4  12  24  42  63  89 124 162 214 254 297 357
#     4  10  23  43  67  96 129 164 201 249 304 361
#
# _framework density 19.982866000000001
#
# number of rings (size 3 to 8) (size 9 to 14) (size 15 to 20)
#    0.000    1.500    3.750    1.875    1.750    3.500 
#    2.250    0.000    0.000    0.000    0.000    0.000 
#    0.000    0.000    0.000    0.000    0.000    0.000 
#
# Total GULP energy -178714.946656 kJ/mol
# GULP energy per Si atom -5584.842083 kJ/mol
# Density = 1.993738 g / cm^3
# Si number density = 19.982866 Si / 1000 Ang^3
#
#
#
# Elastic Constant Matrix: (Units=GPa)
#
#
# Indices 1 2 3 4 5 6 
#
# 1 90.0783 83.4895 28.1541 0.0000 0.0000 0.0000
# 2 83.4895 165.9948 37.3908 0.0000 0.0000 0.0000
# 3 28.1541 37.3908 46.9327 0.0000 0.0000 0.0000
# 4 0.0000 0.0000 0.0000 24.9783 0.0000 0.0000
# 5 0.0000 0.0000 0.0000 0.0000 36.4691 0.0000
# 6 0.0000 0.0000 0.0000 0.0000 0.0000 -20.8463
#
#
#
# Elastic Compliance Matrix: (Units=1/GPa)
#
#
# Indices 1 2 3 4 5 6 
#
# 1 0.021826 -0.009784 -0.005298 0.000000 0.000000 0.000000
# 2 -0.009784 0.011728 -0.003474 0.000000 0.000000 0.000000
# 3 -0.005298 -0.003474 0.027253 0.000000 0.000000 0.000000
# 4 0.000000 0.000000 0.000000 0.040035 0.000000 0.000000
# 5 0.000000 0.000000 0.000000 0.000000 0.027420 0.000000
# 6 0.000000 0.000000 0.000000 0.000000 0.000000 -0.047970
#
#
# Mechanical properties :
#
#
# Convention : Reuss Voigt Hill
#
# Bulk Modulus (GPa) = 42.20439 66.78604 54.49522
# Shear Modulus (GPa) = 39.90329 18.38497 29.14413
#
# Velocity S-wave (km/s) = 4.47349 3.03650 3.82312
# Velocity P-wave (km/s) = 6.91729 6.76668 6.84240
#
# Compressibility (1/GPa) = 0.02369422
#
# Stress axis : x y z
#
# Youngs Moduli (GPa) = 45.81707 85.26605 36.69318
#
# Poissons Ratio (x) = 0.83427 0.19440
# Poissons Ratio (y) = 0.44829 0.12748
# Poissons Ratio (z) = 0.24274 0.29623
#
# Static dielectric constant tensor:
#      x y z
#    x 1.689840 0.000000 0.000000 
#    y 0.000000 1.697320 0.000000 
#    z 0.000000 0.000000 1.678540 
# 
# From -- ./inp_files/4083.got.cif
#   From: 2010.05.17/outbox.cif.g08.bks.cpg/sg39_3_cif.got.tgz:4083.got - 2010.06.03 18:22:40.
