data_PCOD9360059
_publ_section_title
;
Structure prediction by ZEFSAII (Michael W. Deem and Ramdas Pophale) SiO2 
 PCOD9360059
Probable space group: A B M 2
;
_chemical_formula_sum "Si O2"
_cell_formula_units_Z 64
_cell_length_a 14.611904
_cell_length_b 8.668022
_cell_length_c 32.128019
_cell_angle_alpha 90.000000
_cell_angle_beta 90.000000
_cell_angle_gamma 90.000000
_cell_volume 4069.216184
_symmetry_space_group_name_H-M "A B M 2"
_symmetry_group_IT_number 39
_symmetry_cell_setting 'orthorhombic'
loop_
_space_group_symop_operation_xyz
x,y,z
-x,-y,z
-x,1/2+y,z
x,1/2-y,z
x,1/2+y,1/2+z
-x,1/2-y,1/2+z
-x,y,1/2+z
x,-y,1/2+z
loop_
_atom_site_type_symbol
_atom_site_label
_atom_site_fract_x
_atom_site_fract_y
_atom_site_fract_z
Si Si1 0.903243 0.434731 0.019200
Si Si2 0.901974 0.565737 0.112506
Si Si3 0.396655 0.434899 0.816581
Si Si4 0.283245 0.935731 0.144176
Si Si5 0.292868 0.935772 0.986597
Si Si6 0.397212 0.564164 0.224817
Si Si7 0.396879 0.934748 0.902585
Si Si8 0.602453 0.434238 0.566404
O O1 0.909950 0.250000 0.023369
O O2 0.888101 0.505171 0.065193
O O3 0.000000 0.500000 0.003570
O O4 0.814515 0.472230 0.991712
O O5 0.903626 0.750000 0.112093
O O6 0.817989 0.503464 0.139399
O O7 0.000000 0.500000 0.126338
O O8 0.500000 0.500000 0.815984
O O9 0.398441 0.250000 0.819899
O O10 0.359766 0.478238 0.770833
O O11 0.356431 0.503657 0.858962
O O12 0.279396 0.750000 0.142583
O O13 0.333354 0.984372 0.186737
O O14 0.342070 0.995955 0.105184
O O15 0.302560 0.750000 0.991441
O O16 0.336362 0.979070 0.942388
O O17 0.347474 0.015395 0.024015
O O18 0.500000 0.500000 0.219927
O O19 0.403785 0.750000 0.223828
O O20 0.402885 0.750000 0.900576
O O21 0.500000 0.000000 0.907583
O O22 0.500000 0.500000 0.566515
O O23 0.600686 0.250000 0.569679
#
# Coordination Sequence:
#
# PCOD9360059 Si02
#       8
#     8   8   8   8   8   8   8   8
#     4  10  19  33  52  71  95 125 159 204 248 288
#     4  11  21  34  52  74  96 126 163 204 248 293
#     4   9  16  29  47  69  94 124 159 199 242 284
#     4  11  21  35  51  71  99 130 164 204 244 289
#     4  10  21  35  50  69  97 130 164 201 243 288
#     4   9  19  32  49  71  98 130 164 200 242 288
#     4  10  19  31  47  70  96 128 163 199 242 287
#     4  12  24  35  48  67  96 133 170 201 237 286
#
# _framework density 15.727843999999999
#
# number of rings (size 3 to 8) (size 9 to 14) (size 15 to 20)
#    0.000    1.750    1.250    6.000    0.000    5.000 
#    0.000    0.000    0.000    0.000    0.000    0.875 
#    0.000    4.000    0.000    0.000    0.000    0.000 
#
# Total GULP energy -178570.567490 kJ/mol
# GULP energy per Si atom -5580.330234 kJ/mol
# Density = 1.569205 g / cm^3
# Si number density = 15.727844 Si / 1000 Ang^3
#
#
#
# Elastic Constant Matrix: (Units=GPa)
#
#
# Indices 1 2 3 4 5 6 
#
# 1 120.6149 44.2346 75.4982 0.0000 0.0000 0.0000
# 2 44.2346 69.7430 49.8074 0.0000 0.0000 0.0000
# 3 75.4982 49.8074 149.0405 0.0000 0.0000 0.0000
# 4 0.0000 0.0000 0.0000 12.8369 0.0000 0.0000
# 5 0.0000 0.0000 0.0000 0.0000 6.7063 0.0000
# 6 0.0000 0.0000 0.0000 0.0000 0.0000 24.3922
#
#
#
# Elastic Compliance Matrix: (Units=1/GPa)
#
#
# Indices 1 2 3 4 5 6 
#
# 1 0.013233 -0.004736 -0.005121 0.000000 0.000000 0.000000
# 2 -0.004736 0.020528 -0.004461 0.000000 0.000000 0.000000
# 3 -0.005121 -0.004461 0.010794 0.000000 0.000000 0.000000
# 4 0.000000 0.000000 0.000000 0.077900 0.000000 0.000000
# 5 0.000000 0.000000 0.000000 0.000000 0.149114 0.000000
# 6 0.000000 0.000000 0.000000 0.000000 0.000000 0.040997
#
#
# Mechanical properties :
#
#
# Convention : Reuss Voigt Hill
#
# Bulk Modulus (GPa) = 62.81468 75.38652 69.10060
# Shear Modulus (GPa) = 14.42965 20.11096 17.27030
#
# Velocity S-wave (km/s) = 3.03224 3.57975 3.31731
# Velocity P-wave (km/s) = 7.23081 8.06983 7.66181
#
# Compressibility (1/GPa) = 0.01591985
#
# Stress axis : x y z
#
# Youngs Moduli (GPa) = 75.56870 48.71349 92.64147
#
# Poissons Ratio (x) = 0.23072 0.47438
# Poissons Ratio (y) = 0.35791 0.41328
# Poissons Ratio (z) = 0.38695 0.21732
#
# Static dielectric constant tensor:
#      x y z
#    x 1.504780 0.000000 0.000000 
#    y 0.000000 1.531370 0.000000 
#    z 0.000000 0.000000 1.537690 
# 
# From -- ./inp_files/17976.got.cif
#   From: 2010.05.17/outbox.cif.g08.bks.cpg/sg39_9_cif.got.tgz:17976.got - 2010.06.03 18:22:40.
