data_PCOD9360983
_publ_section_title
;
Structure prediction by ZEFSAII (Michael W. Deem and Ramdas Pophale) SiO2 
 PCOD9360983
Probable space group: A B M 2
;
_chemical_formula_sum "Si O2"
_cell_formula_units_Z 48
_cell_length_a 9.971535
_cell_length_b 18.579935
_cell_length_c 13.630659
_cell_angle_alpha 90.000000
_cell_angle_beta 90.000000
_cell_angle_gamma 90.000000
_cell_volume 2525.358629
_symmetry_space_group_name_H-M "A B M 2"
_symmetry_group_IT_number 39
_symmetry_cell_setting 'orthorhombic'
loop_
_space_group_symop_operation_xyz
x,y,z
-x,-y,z
-x,1/2+y,z
x,1/2-y,z
x,1/2+y,1/2+z
-x,1/2-y,1/2+z
-x,y,1/2+z
x,-y,1/2+z
loop_
_atom_site_type_symbol
_atom_site_label
_atom_site_fract_x
_atom_site_fract_y
_atom_site_fract_z
Si Si1 0.275211 0.167654 0.067590
Si Si2 0.137235 0.540080 0.649478
Si Si3 0.645670 0.036116 0.025169
Si Si4 0.732976 0.834872 0.839203
Si Si5 0.853376 0.489133 0.362081
Si Si6 0.437787 0.333971 0.643925
O O1 0.237867 0.250000 0.082549
O O2 0.153675 0.116198 0.096499
O O3 0.403589 0.150436 0.135185
O O4 0.315509 0.159617 0.952758
O O5 0.267681 0.498025 0.612543
O O6 0.144075 0.538912 0.766148
O O7 0.000000 0.500000 0.624614
O O8 0.628813 0.117988 0.059302
O O9 0.500000 0.000000 0.017257
O O10 0.734061 0.016367 0.931011
O O11 0.779881 0.750000 0.828513
O O12 0.830882 0.904747 0.833063
O O13 0.624928 0.846440 0.751998
O O14 0.000000 0.500000 0.408615
O O15 0.420565 0.250000 0.621897
#
# Coordination Sequence:
#
# PCOD9360983 Si02
#       6
#     8   8   8   8   8   8
#     4  10  21  39  62  91 124 166 207 254 318 373
#     4  11  23  40  61  90 126 162 207 259 308 374
#     4  12  22  38  63  94 122 161 210 257 310 371
#     4  10  20  37  61  89 122 165 210 258 313 373
#     4  11  24  41  62  89 127 166 209 257 311 378
#     4  10  21  38  59  92 129 161 206 261 313 367
#
# _framework density 19.007201999999999
#
# number of rings (size 3 to 8) (size 9 to 14) (size 15 to 20)
#    0.000    1.333    5.000    0.500    0.000    3.333 
#    0.000    7.500    0.000    0.000    0.000    0.000 
#    0.000    0.000    0.000    0.000    0.000    0.000 
#
# Total GULP energy -133707.419706 kJ/mol
# GULP energy per Si atom -5571.142488 kJ/mol
# Density = 1.896394 g / cm^3
# Si number density = 19.007202 Si / 1000 Ang^3
#
#
#
# Elastic Constant Matrix: (Units=GPa)
#
#
# Indices 1 2 3 4 5 6 
#
# 1 134.0075 59.9114 51.5236 0.0000 0.0000 0.0000
# 2 59.9114 127.4523 42.9685 0.0000 0.0000 0.0000
# 3 51.5236 42.9685 103.0670 0.0000 0.0000 0.0000
# 4 0.0000 0.0000 0.0000 29.7008 0.0000 0.0000
# 5 0.0000 0.0000 0.0000 0.0000 27.3027 0.0000
# 6 0.0000 0.0000 0.0000 0.0000 0.0000 28.6445
#
#
#
# Elastic Compliance Matrix: (Units=1/GPa)
#
#
# Indices 1 2 3 4 5 6 
#
# 1 0.010552 -0.003702 -0.003732 0.000000 0.000000 0.000000
# 2 -0.003702 0.010428 -0.002497 0.000000 0.000000 0.000000
# 3 -0.003732 -0.002497 0.012609 0.000000 0.000000 0.000000
# 4 0.000000 0.000000 0.000000 0.033669 0.000000 0.000000
# 5 0.000000 0.000000 0.000000 0.000000 0.036626 0.000000
# 6 0.000000 0.000000 0.000000 0.000000 0.000000 0.034911
#
#
# Mechanical properties :
#
#
# Convention : Reuss Voigt Hill
#
# Bulk Modulus (GPa) = 72.84415 74.81488 73.82952
# Shear Modulus (GPa) = 30.63116 31.13780 30.88448
#
# Velocity S-wave (km/s) = 4.01877 4.05187 4.03536
# Velocity P-wave (km/s) = 7.74221 7.83180 7.78713
#
# Compressibility (1/GPa) = 0.01372794
#
# Stress axis : x y z
#
# Youngs Moduli (GPa) = 94.76709 95.89489 79.30994
#
# Poissons Ratio (x) = 0.35502 0.29596
# Poissons Ratio (y) = 0.35085 0.19801
# Poissons Ratio (z) = 0.35364 0.23942
#
# Static dielectric constant tensor:
#      x y z
#    x 1.657400 0.000000 0.000000 
#    y 0.000000 1.723640 0.000000 
#    z 0.000000 0.000000 1.675350 
# 
# From -- ./inp_files/8337.got.cif
#   From: 2010.05.17/outbox.cif.g08.bks.cpg/sg39_5_cif.got.tgz:8337.got - 2010.06.03 18:22:40.
