data_PCOD9360863
_publ_section_title
;
Structure prediction by ZEFSAII (Michael W. Deem and Ramdas Pophale) SiO2 
 PCOD9360863
Probable space group: A B M 2
;
_chemical_formula_sum "Si O2"
_cell_formula_units_Z 32
_cell_length_a 5.072142
_cell_length_b 16.535907
_cell_length_c 19.647821
_cell_angle_alpha 90.000000
_cell_angle_beta 90.000000
_cell_angle_gamma 90.000000
_cell_volume 1647.911246
_symmetry_space_group_name_H-M "A B M 2"
_symmetry_group_IT_number 39
_symmetry_cell_setting 'orthorhombic'
loop_
_space_group_symop_operation_xyz
x,y,z
-x,-y,z
-x,1/2+y,z
x,1/2-y,z
x,1/2+y,1/2+z
-x,1/2-y,1/2+z
-x,y,1/2+z
x,-y,1/2+z
loop_
_atom_site_type_symbol
_atom_site_label
_atom_site_fract_x
_atom_site_fract_y
_atom_site_fract_z
Si Si1 0.749068 0.059009 0.907710
Si Si2 0.609632 0.656385 0.539595
Si Si3 0.249679 0.558785 0.757908
Si Si4 0.897270 0.592793 0.113307
O O1 0.741732 0.098860 0.832351
O O2 0.500000 0.000000 0.909850
O O3 0.719844 0.121318 0.968857
O O4 0.000000 0.000000 0.915733
O O5 0.537527 0.750000 0.533748
O O6 0.350976 0.607769 0.564088
O O7 0.849706 0.644724 0.592411
O O8 0.500000 0.500000 0.748304
O O9 0.205523 0.609737 0.689788
O O10 0.000000 0.500000 0.762051
O O11 0.000000 0.500000 0.109502
#
# Coordination Sequence:
#
# PCOD9360863 Si02
#       4
#     8   8   8   8
#     4  10  20  36  59  82 107 144 188 230 275 328
#     4  12  24  37  54  85 120 149 182 228 278 330
#     4   9  18  33  57  86 107 133 185 241 275 316
#     4  11  21  38  62  83 108 148 191 231 274 328
#
# _framework density 19.418520000000001
#
# number of rings (size 3 to 8) (size 9 to 14) (size 15 to 20)
#    0.000    1.500    0.000    8.250    0.000    0.000 
#    0.000    2.500    0.000    0.000    0.000    0.000 
#    0.000    0.000    0.000    0.000    0.000    0.000 
#
# Total GULP energy -89317.567065 kJ/mol
# GULP energy per Si atom -5582.347942 kJ/mol
# Density = 1.937432 g / cm^3
# Si number density = 19.418520 Si / 1000 Ang^3
#
#
#
# Elastic Constant Matrix: (Units=GPa)
#
#
# Indices 1 2 3 4 5 6 
#
# 1 145.0566 19.3268 36.6554 0.0000 0.0000 0.0000
# 2 19.3268 59.1410 52.4093 0.0000 0.0000 0.0000
# 3 36.6554 52.4093 153.7066 0.0000 0.0000 0.0000
# 4 0.0000 0.0000 0.0000 -4.2518 0.0000 0.0000
# 5 0.0000 0.0000 0.0000 0.0000 25.4161 0.0000
# 6 0.0000 0.0000 0.0000 0.0000 0.0000 17.4270
#
#
#
# Elastic Compliance Matrix: (Units=1/GPa)
#
#
# Indices 1 2 3 4 5 6 
#
# 1 0.007397 -0.001224 -0.001347 0.000000 0.000000 0.000000
# 2 -0.001224 0.024433 -0.008039 0.000000 0.000000 0.000000
# 3 -0.001347 -0.008039 0.009568 0.000000 0.000000 0.000000
# 4 0.000000 0.000000 0.000000 -0.235195 0.000000 0.000000
# 5 0.000000 0.000000 0.000000 0.000000 0.039345 0.000000
# 6 0.000000 0.000000 0.000000 0.000000 0.000000 0.057382
#
#
# Mechanical properties :
#
#
# Convention : Reuss Voigt Hill
#
# Bulk Modulus (GPa) = 49.55694 63.85414 56.70554
# Shear Modulus (GPa) = -72.33338 24.35244 -23.99047
#
# Velocity S-wave (km/s) = -6.10987 3.54515 -3.51870
# Velocity P-wave (km/s) = 4.91917 7.05067 3.57167
#
# Compressibility (1/GPa) = 0.02017881
#
# Stress axis : x y z
#
# Youngs Moduli (GPa) = 135.18536 40.92899 104.51407
#
# Poissons Ratio (x) = 0.05009 0.14076
# Poissons Ratio (y) = 0.16545 0.84018
# Poissons Ratio (z) = 0.18206 0.32902
#
# Static dielectric constant tensor:
#      x y z
#    x 1.651990 0.000000 0.000000 
#    y 0.000000 1.636330 0.000000 
#    z 0.000000 0.000000 1.778460 
# 
# From -- ./inp_files/10814.got.cif
#   From: 2010.05.17/outbox.cif.g08.bks.cpg/sg39_6_cif.got.tgz:10814.got - 2010.06.03 18:22:40.
