data_PCOD9360896
_publ_section_title
;
Structure prediction by ZEFSAII (Michael W. Deem and Ramdas Pophale) SiO2 
 PCOD9360896
Probable space group: A B M 2
;
_chemical_formula_sum "Si O2"
_cell_formula_units_Z 56
_cell_length_a 15.000939
_cell_length_b 19.147877
_cell_length_c 8.889327
_cell_angle_alpha 90.000000
_cell_angle_beta 90.000000
_cell_angle_gamma 90.000000
_cell_volume 2553.335929
_symmetry_space_group_name_H-M "A B M 2"
_symmetry_group_IT_number 39
_symmetry_cell_setting 'orthorhombic'
loop_
_space_group_symop_operation_xyz
x,y,z
-x,-y,z
-x,1/2+y,z
x,1/2-y,z
x,1/2+y,1/2+z
-x,1/2-y,1/2+z
-x,y,1/2+z
x,-y,1/2+z
loop_
_atom_site_type_symbol
_atom_site_label
_atom_site_fract_x
_atom_site_fract_y
_atom_site_fract_z
Si Si1 0.114107 0.250000 0.854450
Si Si2 0.759148 0.905121 0.382779
Si Si3 0.590132 0.830889 0.364263
Si Si4 0.121876 0.407228 0.912284
Si Si5 0.530072 0.079448 0.150179
Si Si6 0.057302 0.896069 0.729619
Si Si7 0.281239 0.963780 0.215517
Si Si8 0.990096 0.750000 0.600769
O O1 0.148149 0.324354 0.909630
O O2 0.107617 0.250000 0.673734
O O3 0.013070 0.250000 0.925856
O O4 0.697450 0.837227 0.369759
O O5 0.863056 0.894200 0.349359
O O6 0.744220 0.940114 0.546654
O O7 0.719069 0.954237 0.250396
O O8 0.563099 0.750000 0.365105
O O9 0.543924 0.874157 0.231153
O O10 0.558194 0.875418 0.507303
O O11 0.205322 0.441087 0.831984
O O12 0.034142 0.419328 0.808796
O O13 0.095131 0.433246 0.078839
O O14 0.621032 0.067949 0.246484
O O15 0.500000 0.000000 0.112461
O O16 0.033702 0.820354 0.662537
#
# Coordination Sequence:
#
# PCOD9360896 Si02
#       8
#     4   8   8   8   8   8   8   4
#     4   8  16  32  52  82 117 164 213 268 321 388
#     4  11  24  41  63  94 129 172 220 271 337 401
#     4  11  25  44  70 105 138 171 224 286 344 404
#     4  10  20  38  59  91 130 171 228 275 335 401
#     4  11  23  45  74  99 135 182 224 274 344 420
#     4  10  20  36  61  88 129 176 216 278 335 399
#     4  11  24  41  64  94 127 169 225 271 327 408
#     4   8  16  30  54  80 115 164 217 254 327 398
#
# _framework density 21.932093999999999
#
# number of rings (size 3 to 8) (size 9 to 14) (size 15 to 20)
#    0.000    1.714    1.429    2.571    3.000    2.857 
#    6.429    2.857    0.000    0.000    0.000    0.000 
#    0.000    0.000    0.000    0.000    0.000    0.000 
#
# Total GULP energy -156167.084915 kJ/mol
# GULP energy per Si atom -5577.395890 kJ/mol
# Density = 2.188218 g / cm^3
# Si number density = 21.932094 Si / 1000 Ang^3
#
#
#
# Elastic Constant Matrix: (Units=GPa)
#
#
# Indices 1 2 3 4 5 6 
#
# 1 75.5416 22.9856 5.7305 0.0000 0.0000 0.0000
# 2 22.9856 109.2873 12.2175 0.0000 0.0000 0.0000
# 3 5.7305 12.2175 55.3005 0.0000 0.0000 0.0000
# 4 0.0000 0.0000 0.0000 22.8961 0.0000 0.0000
# 5 0.0000 0.0000 0.0000 0.0000 23.2864 0.0000
# 6 0.0000 0.0000 0.0000 0.0000 0.0000 -29.0895
#
#
#
# Elastic Compliance Matrix: (Units=1/GPa)
#
#
# Indices 1 2 3 4 5 6 
#
# 1 0.014180 -0.002889 -0.000831 0.000000 0.000000 0.000000
# 2 -0.002889 0.009971 -0.001903 0.000000 0.000000 0.000000
# 3 -0.000831 -0.001903 0.018590 0.000000 0.000000 0.000000
# 4 0.000000 0.000000 0.000000 0.043676 0.000000 0.000000
# 5 0.000000 0.000000 0.000000 0.000000 0.042944 0.000000
# 6 0.000000 0.000000 0.000000 0.000000 0.000000 -0.034377
#
#
# Mechanical properties :
#
#
# Convention : Reuss Voigt Hill
#
# Bulk Modulus (GPa) = 31.75355 35.77739 33.76547
# Shear Modulus (GPa) = 42.83462 16.69832 29.76647
#
# Velocity S-wave (km/s) = 4.42413 2.76228 3.68803
# Velocity P-wave (km/s) = 6.37235 5.14993 5.79347
#
# Compressibility (1/GPa) = 0.03149254
#
# Stress axis : x y z
#
# Youngs Moduli (GPa) = 70.52195 100.29388 53.79339
#
# Poissons Ratio (x) = 0.28980 0.04470
# Poissons Ratio (y) = 0.20377 0.10239
# Poissons Ratio (z) = 0.05861 0.19090
#
# Static dielectric constant tensor:
#      x y z
#    x 1.833180 0.000000 0.000000 
#    y 0.000000 1.617960 0.000000 
#    z 0.000000 0.000000 1.863850 
# 
# From -- ./inp_files/3444.got.cif
#   From: 2010.05.17/outbox.cif.g08.bks.cpg/sg39_2_cif.got.tgz:3444.got - 2010.06.03 18:22:40.
