data_PCOD9360288
_publ_section_title
;
Structure prediction by ZEFSAII (Michael W. Deem and Ramdas Pophale) SiO2 
 PCOD9360288
Probable space group: A B M 2
;
_chemical_formula_sum "Si O2"
_cell_formula_units_Z 48
_cell_length_a 14.483072
_cell_length_b 14.771430
_cell_length_c 8.052639
_cell_angle_alpha 90.000000
_cell_angle_beta 90.000000
_cell_angle_gamma 90.000000
_cell_volume 1722.746834
_symmetry_space_group_name_H-M "A B M 2"
_symmetry_group_IT_number 39
_symmetry_cell_setting 'orthorhombic'
loop_
_space_group_symop_operation_xyz
x,y,z
-x,-y,z
-x,1/2+y,z
x,1/2-y,z
x,1/2+y,1/2+z
-x,1/2-y,1/2+z
-x,y,1/2+z
x,-y,1/2+z
loop_
_atom_site_type_symbol
_atom_site_label
_atom_site_fract_x
_atom_site_fract_y
_atom_site_fract_z
Si Si1 0.147543 0.649899 0.676530
Si Si2 0.025809 0.402544 0.480085
Si Si3 0.813665 0.144262 0.202637
Si Si4 0.524634 0.139043 0.082572
Si Si5 0.354447 0.639878 0.400816
Si Si6 0.313013 0.643170 0.869736
O O1 0.181049 0.750000 0.642594
O O2 0.082788 0.648981 0.840767
O O3 0.241964 0.600815 0.734897
O O4 0.073616 0.631957 0.534899
O O5 0.095110 0.406320 0.638582
O O6 0.000000 0.500000 0.415486
O O7 0.839155 0.250000 0.228295
O O8 0.746085 0.142944 0.041933
O O9 0.749544 0.109789 0.354984
O O10 0.525169 0.250000 0.078488
O O11 0.417759 0.112759 0.057228
O O12 0.589171 0.105648 0.930243
O O13 0.579565 0.113874 0.247047
O O14 0.348593 0.750000 0.399434
O O15 0.330181 0.750000 0.830638
#
# Coordination Sequence:
#
# PCOD9360288 Si02
#       6
#     8   8   8   8   8   8
#     4  10  19  34  53  72  96 132 169 204 248 302
#     4  11  21  33  50  74 101 129 166 212 253 293
#     4   8  14  27  44  63  90 130 166 192 235 301
#     4   8  12  20  34  57  85 113 146 190 235 277
#     4   8  13  21  37  59  87 120 153 188 233 283
#     4   7  12  23  41  61  85 118 156 192 236 290
#
# _framework density 27.862479
#
# number of rings (size 3 to 8) (size 9 to 14) (size 15 to 20)
#    0.000    3.333    0.000    5.000    0.000    0.000 
#    0.000    1.667    0.000    6.000    0.000    1.167 
#    0.000    8.000    0.000    0.667    0.000    0.000 
#
# Total GULP energy -134119.935540 kJ/mol
# GULP energy per Si atom -5588.330647 kJ/mol
# Density = 2.779906 g / cm^3
# Si number density = 27.862479 Si / 1000 Ang^3
#
#
#
# Elastic Constant Matrix: (Units=GPa)
#
#
# Indices 1 2 3 4 5 6 
#
# 1 224.9809 9.3344 44.7976 0.0000 0.0000 0.0000
# 2 9.3344 48.9127 5.1611 0.0000 0.0000 0.0000
# 3 44.7976 5.1611 102.0041 0.0000 0.0000 0.0000
# 4 0.0000 0.0000 0.0000 63.5340 0.0000 0.0000
# 5 0.0000 0.0000 0.0000 0.0000 69.6767 0.0000
# 6 0.0000 0.0000 0.0000 0.0000 0.0000-1073.3707
#
#
#
# Elastic Compliance Matrix: (Units=1/GPa)
#
#
# Indices 1 2 3 4 5 6 
#
# 1 0.004895 -0.000711 -0.002114 0.000000 0.000000 0.000000
# 2 -0.000711 0.020658 -0.000733 0.000000 0.000000 0.000000
# 3 -0.002114 -0.000733 0.010769 0.000000 0.000000 0.000000
# 4 0.000000 0.000000 0.000000 0.015740 0.000000 0.000000
# 5 0.000000 0.000000 0.000000 0.000000 0.014352 0.000000
# 6 0.000000 0.000000 0.000000 0.000000 0.000000 -0.000932
#
#
# Mechanical properties :
#
#
# Convention : Reuss Voigt Hill
#
# Bulk Modulus (GPa) = 34.23956 54.94268 44.59112
# Shear Modulus (GPa) = 60.72899 -166.92503 -53.09802
#
# Velocity S-wave (km/s) = 4.67368 -7.74857 -4.37019
# Velocity P-wave (km/s) = 6.43738 7.76478 3.07018
#
# Compressibility (1/GPa) = 0.02920598
#
# Stress axis : x y z
#
# Youngs Moduli (GPa) = 204.28013 48.40824 92.85939
#
# Poissons Ratio (x) = 0.03443 0.19629
# Poissons Ratio (y) = 0.14527 0.06806
# Poissons Ratio (z) = 0.43182 0.03548
#
# Static dielectric constant tensor:
#      x y z
#    x 2.131590 0.000000 0.000000 
#    y 0.000000 1.448000 0.000000 
#    z 0.000000 0.000000 2.321970 
# 
# From -- ./inp_files/3771.got.cif
#   From: 2010.05.17/outbox.cif.g08.bks.cpg/sg39_2_cif.got.tgz:3771.got - 2010.06.03 18:22:40.
