data_PCOD9360714
_publ_section_title
;
Structure prediction by ZEFSAII (Michael W. Deem and Ramdas Pophale) SiO2 
 PCOD9360714
Probable space group: A B M 2
;
_chemical_formula_sum "Si O2"
_cell_formula_units_Z 64
_cell_length_a 14.371144
_cell_length_b 8.555015
_cell_length_c 26.764196
_cell_angle_alpha 90.000000
_cell_angle_beta 90.000000
_cell_angle_gamma 90.000000
_cell_volume 3290.533511
_symmetry_space_group_name_H-M "A B M 2"
_symmetry_group_IT_number 39
_symmetry_cell_setting 'orthorhombic'
loop_
_space_group_symop_operation_xyz
x,y,z
-x,-y,z
-x,1/2+y,z
x,1/2-y,z
x,1/2+y,1/2+z
-x,1/2-y,1/2+z
-x,y,1/2+z
x,-y,1/2+z
loop_
_atom_site_type_symbol
_atom_site_label
_atom_site_fract_x
_atom_site_fract_y
_atom_site_fract_z
Si Si1 0.783832 0.561234 0.974330
Si Si2 0.105015 0.061017 0.073028
Si Si3 0.394146 0.937710 0.820972
Si Si4 0.604670 0.064724 0.215721
Si Si5 0.105716 0.438310 0.765629
Si Si6 0.218552 0.562899 0.671055
Si Si7 0.604530 0.936928 0.431982
Si Si8 0.105094 0.438822 0.876516
O O1 0.781767 0.750000 0.973982
O O2 0.678813 0.500231 0.971175
O O3 0.836412 0.506475 0.924063
O O4 0.840873 0.510439 0.023012
O O5 0.101884 0.250000 0.072991
O O6 0.162427 0.010938 0.121970
O O7 0.000000 0.000000 0.074005
O O8 0.392101 0.750000 0.816834
O O9 0.359965 0.984712 0.876051
O O10 0.500000 0.000000 0.821387
O O11 0.356164 0.009817 0.769962
O O12 0.600544 0.250000 0.215526
O O13 0.500000 0.000000 0.209710
O O14 0.677302 0.003209 0.175121
O O15 0.106599 0.250000 0.762857
O O16 0.163324 0.506518 0.719935
O O17 0.140239 0.486274 0.821251
O O18 0.000000 0.500000 0.761833
O O19 0.223023 0.750000 0.671067
O O20 0.601121 0.750000 0.432993
O O21 0.500000 0.000000 0.438745
O O22 0.103531 0.250000 0.877388
O O23 0.000000 0.500000 0.881140
#
# Coordination Sequence:
#
# PCOD9360714 Si02
#       8
#     8   8   8   8   8   8   8   8
#     4  10  21  38  59  85 116 152 194 243 293 346
#     4  10  23  42  65  89 116 151 196 246 298 349
#     4   9  17  31  51  79 114 153 194 234 281 336
#     4  11  22  37  58  85 118 156 197 242 292 350
#     4  10  20  35  54  83 116 152 190 234 292 356
#     4  11  23  39  59  85 116 153 197 247 295 350
#     4  10  21  36  56  85 118 157 198 240 288 344
#     4   9  19  34  54  81 114 148 184 230 287 347
#
# _framework density 19.449733999999999
#
# number of rings (size 3 to 8) (size 9 to 14) (size 15 to 20)
#    0.000    2.000    0.000    4.125    1.750    5.000 
#    0.000    0.625    0.000    0.000    0.000    0.000 
#    0.000    0.000    0.000    0.000    0.000    0.000 
#
# Total GULP energy -178693.585547 kJ/mol
# GULP energy per Si atom -5584.174548 kJ/mol
# Density = 1.940547 g / cm^3
# Si number density = 19.449734 Si / 1000 Ang^3
#
#
#
# Elastic Constant Matrix: (Units=GPa)
#
#
# Indices 1 2 3 4 5 6 
#
# 1 139.3308 28.8537 97.7742 0.0000 0.0000 0.0000
# 2 28.8537 51.0312 39.1443 0.0000 0.0000 0.0000
# 3 97.7742 39.1443 147.1465 0.0000 0.0000 0.0000
# 4 0.0000 0.0000 0.0000 18.9102 0.0000 0.0000
# 5 0.0000 0.0000 0.0000 0.0000 38.4361 0.0000
# 6 0.0000 0.0000 0.0000 0.0000 0.0000 30.2780
#
#
#
# Elastic Compliance Matrix: (Units=1/GPa)
#
#
# Indices 1 2 3 4 5 6 
#
# 1 0.013484 -0.000944 -0.008708 0.000000 0.000000 0.000000
# 2 -0.000944 0.024686 -0.005940 0.000000 0.000000 0.000000
# 3 -0.008708 -0.005940 0.014162 0.000000 0.000000 0.000000
# 4 0.000000 0.000000 0.000000 0.052882 0.000000 0.000000
# 5 0.000000 0.000000 0.000000 0.000000 0.026017 0.000000
# 6 0.000000 0.000000 0.000000 0.000000 0.000000 0.033027
#
#
# Mechanical properties :
#
#
# Convention : Reuss Voigt Hill
#
# Bulk Modulus (GPa) = 47.28624 74.33920 60.81272
# Shear Modulus (GPa) = 24.69243 28.97396 26.83320
#
# Velocity S-wave (km/s) = 3.56694 3.86383 3.71835
# Velocity P-wave (km/s) = 6.42876 7.62953 7.05474
#
# Compressibility (1/GPa) = 0.02114780
#
# Stress axis : x y z
#
# Youngs Moduli (GPa) = 74.16391 40.50919 70.60910
#
# Poissons Ratio (x) = 0.03824 0.61489
# Poissons Ratio (y) = 0.07001 0.41940
# Poissons Ratio (z) = 0.64585 0.24061
#
# Static dielectric constant tensor:
#      x y z
#    x 1.657420 0.000000 0.000000 
#    y 0.000000 1.654180 0.000000 
#    z 0.000000 0.000000 1.699570 
# 
# From -- ./inp_files/16218.got.cif
#   From: 2010.05.17/outbox.cif.g08.bks.cpg/sg39_9_cif.got.tgz:16218.got - 2010.06.03 18:22:40.
