data_PCOD9360572
_publ_section_title
;
Structure prediction by ZEFSAII (Michael W. Deem and Ramdas Pophale) SiO2 
 PCOD9360572
Probable space group: A B M 2
;
_chemical_formula_sum "Si O2"
_cell_formula_units_Z 64
_cell_length_a 21.578505
_cell_length_b 8.761684
_cell_length_c 18.881940
_cell_angle_alpha 90.000000
_cell_angle_beta 90.000000
_cell_angle_gamma 90.000000
_cell_volume 3569.895897
_symmetry_space_group_name_H-M "A B M 2"
_symmetry_group_IT_number 39
_symmetry_cell_setting 'orthorhombic'
loop_
_space_group_symop_operation_xyz
x,y,z
-x,-y,z
-x,1/2+y,z
x,1/2-y,z
x,1/2+y,1/2+z
-x,1/2-y,1/2+z
-x,y,1/2+z
x,-y,1/2+z
loop_
_atom_site_type_symbol
_atom_site_label
_atom_site_fract_x
_atom_site_fract_y
_atom_site_fract_z
Si Si1 0.566203 0.433922 0.208840
Si Si2 0.937707 0.067408 0.706683
Si Si3 0.061981 0.932062 0.047374
Si Si4 0.566049 0.433814 0.044573
Si Si5 0.801286 0.433849 0.050361
Si Si6 0.313278 0.933133 0.296943
Si Si7 0.685122 0.065290 0.953804
Si Si8 0.200071 0.932647 0.708546
O O1 0.500000 0.500000 0.231948
O O2 0.562935 0.250000 0.210795
O O3 0.576283 0.479828 0.126656
O O4 0.624039 0.483252 0.256326
O O5 0.943275 0.250000 0.702830
O O6 0.869558 0.029228 0.736202
O O7 0.936290 0.999246 0.627105
O O8 0.000000 0.000000 0.741284
O O9 0.055604 0.750000 0.050727
O O10 0.130492 0.969401 0.018696
O O11 0.000000 0.000000 0.012572
O O12 0.500000 0.500000 0.021447
O O13 0.562978 0.250000 0.043017
O O14 0.623301 0.482010 0.996043
O O15 0.798594 0.250000 0.060314
O O16 0.795080 0.509096 0.127584
O O17 0.745436 0.479167 0.999338
O O18 0.312216 0.750000 0.296949
O O19 0.313345 0.995426 0.376253
O O20 0.253749 0.993717 0.254851
O O21 0.685080 0.250000 0.948693
O O22 0.205886 0.750000 0.709233
#
# Coordination Sequence:
#
# PCOD9360572 Si02
#       8
#     8   8   8   8   8   8   8   8
#     4   9  19  36  57  80 104 132 168 209 254 304
#     4   9  16  26  43  70 101 130 163 206 254 303
#     4   9  15  24  42  69  99 129 161 202 253 303
#     4   9  18  34  56  78 101 130 163 204 252 302
#     4   9  18  33  53  75 101 135 172 212 258 306
#     4  11  23  37  53  75 105 139 176 216 257 304
#     4  10  21  37  54  73 102 138 174 212 256 303
#     4  10  20  33  52  78 105 135 173 215 258 307
#
# _framework density 17.927693000000001
#
# number of rings (size 3 to 8) (size 9 to 14) (size 15 to 20)
#    0.000    2.500    0.000    3.000    0.000    6.500 
#    0.000    5.000    0.000    0.750    0.000    1.750 
#    0.000    0.000    0.000    0.000    0.000    0.000 
#
# Total GULP energy -178407.328239 kJ/mol
# GULP energy per Si atom -5575.229007 kJ/mol
# Density = 1.788689 g / cm^3
# Si number density = 17.927693 Si / 1000 Ang^3
#
#
#
# Elastic Constant Matrix: (Units=GPa)
#
#
# Indices 1 2 3 4 5 6 
#
# 1 226.6111 55.7713 93.6116 0.0000 0.0000 0.0000
# 2 55.7713 34.8946 28.3199 0.0000 0.0000 0.0000
# 3 93.6116 28.3199 76.9803 0.0000 0.0000 0.0000
# 4 0.0000 0.0000 0.0000 21.3617 0.0000 0.0000
# 5 0.0000 0.0000 0.0000 0.0000 -4.4625 0.0000
# 6 0.0000 0.0000 0.0000 0.0000 0.0000 31.3882
#
#
#
# Elastic Compliance Matrix: (Units=1/GPa)
#
#
# Indices 1 2 3 4 5 6 
#
# 1 0.010618 -0.009254 -0.009507 0.000000 0.000000 0.000000
# 2 -0.009254 0.048922 -0.006744 0.000000 0.000000 0.000000
# 3 -0.009507 -0.006744 0.027033 0.000000 0.000000 0.000000
# 4 0.000000 0.000000 0.000000 0.046813 0.000000 0.000000
# 5 0.000000 0.000000 0.000000 0.000000 -0.224089 0.000000
# 6 0.000000 0.000000 0.000000 0.000000 0.000000 0.031859
#
#
# Mechanical properties :
#
#
# Convention : Reuss Voigt Hill
#
# Bulk Modulus (GPa) = 28.12042 77.09904 52.60973
# Shear Modulus (GPa) = 1243.63188 20.37634 632.00411
#
# Velocity S-wave (km/s) = 26.36663 3.37498 18.79614
# Velocity P-wave (km/s) = 30.70263 7.63455 22.37116
#
# Compressibility (1/GPa) = 0.03556135
#
# Stress axis : x y z
#
# Youngs Moduli (GPa) = 94.18154 20.44069 36.99243
#
# Poissons Ratio (x) = 0.18916 0.35169
# Poissons Ratio (y) = 0.87158 0.24948
# Poissons Ratio (z) = 0.89540 0.13785
#
# Static dielectric constant tensor:
#      x y z
#    x 1.653590 0.000000 0.000000 
#    y 0.000000 1.605280 0.000000 
#    z 0.000000 0.000000 1.570110 
# 
# From -- ./inp_files/13111.got.cif
#   From: 2010.05.17/outbox.cif.g08.bks.cpg/sg39_7_cif.got.tgz:13111.got - 2010.06.03 18:22:40.
