data_PCOD9360351
_publ_section_title
;
Structure prediction by ZEFSAII (Michael W. Deem and Ramdas Pophale) SiO2 
 PCOD9360351
Probable space group: A B M 2
;
_chemical_formula_sum "Si O2"
_cell_formula_units_Z 48
_cell_length_a 14.429065
_cell_length_b 8.799142
_cell_length_c 20.757298
_cell_angle_alpha 90.000000
_cell_angle_beta 90.000000
_cell_angle_gamma 90.000000
_cell_volume 2635.416960
_symmetry_space_group_name_H-M "A B M 2"
_symmetry_group_IT_number 39
_symmetry_cell_setting 'orthorhombic'
loop_
_space_group_symop_operation_xyz
x,y,z
-x,-y,z
-x,1/2+y,z
x,1/2-y,z
x,1/2+y,1/2+z
-x,1/2-y,1/2+z
-x,y,1/2+z
x,-y,1/2+z
loop_
_atom_site_type_symbol
_atom_site_label
_atom_site_fract_x
_atom_site_fract_y
_atom_site_fract_z
Si Si1 0.898041 0.930904 0.871230
Si Si2 0.597859 0.932134 0.304152
Si Si3 0.793434 0.068265 0.748752
Si Si4 0.896888 0.569474 0.625985
Si Si5 0.598294 0.567302 0.947075
Si Si6 0.791630 0.569271 0.005508
O O1 0.902516 0.750000 0.859860
O O2 0.844974 0.009548 0.812535
O O3 0.844204 0.956265 0.938021
O O4 0.000000 0.000000 0.876059
O O5 0.590652 0.750000 0.310211
O O6 0.684821 0.968496 0.258748
O O7 0.500000 0.000000 0.281629
O O8 0.615361 0.001383 0.375326
O O9 0.802650 0.250000 0.744080
O O10 0.840493 0.992628 0.687225
O O11 0.904468 0.750000 0.629517
O O12 0.841907 0.519784 0.562088
O O13 0.000000 0.500000 0.625246
O O14 0.500000 0.500000 0.968890
O O15 0.593128 0.750000 0.942348
O O16 0.684549 0.527735 0.992691
O O17 0.796137 0.750000 0.019771
#
# Coordination Sequence:
#
# PCOD9360351 Si02
#       6
#     8   8   8   8   8   8
#     4  11  22  37  58  86 118 151 194 246 298 349
#     4  10  20  34  58  89 121 156 194 241 294 351
#     4  11  23  40  61  87 119 156 199 245 295 352
#     4  12  26  43  64  86 117 159 201 246 299 360
#     4  10  19  34  58  89 123 157 194 241 293 350
#     4  10  22  40  61  87 120 157 198 245 295 350
#
# _framework density 18.213436999999999
#
# number of rings (size 3 to 8) (size 9 to 14) (size 15 to 20)
#    0.000    1.333    1.667    5.500    0.000    6.000 
#    0.000    0.833    0.000    0.000    0.000    0.000 
#    0.000    0.000    0.000    0.000    0.000    0.000 
#
# Total GULP energy -134158.602631 kJ/mol
# GULP energy per Si atom -5589.941776 kJ/mol
# Density = 1.817198 g / cm^3
# Si number density = 18.213437 Si / 1000 Ang^3
#
#
#
# Elastic Constant Matrix: (Units=GPa)
#
#
# Indices 1 2 3 4 5 6 
#
# 1 194.9484 91.4338 80.6267 0.0000 0.0000 0.0000
# 2 91.4338 111.7117 73.9272 0.0000 0.0000 0.0000
# 3 80.6267 73.9272 100.5649 0.0000 0.0000 0.0000
# 4 0.0000 0.0000 0.0000 34.4965 0.0000 0.0000
# 5 0.0000 0.0000 0.0000 0.0000 24.1695 0.0000
# 6 0.0000 0.0000 0.0000 0.0000 0.0000 30.8881
#
#
#
# Elastic Compliance Matrix: (Units=1/GPa)
#
#
# Indices 1 2 3 4 5 6 
#
# 1 0.008907 -0.004994 -0.003470 0.000000 0.000000 0.000000
# 2 -0.004994 0.020232 -0.010869 0.000000 0.000000 0.000000
# 3 -0.003470 -0.010869 0.020716 0.000000 0.000000 0.000000
# 4 0.000000 0.000000 0.000000 0.028988 0.000000 0.000000
# 5 0.000000 0.000000 0.000000 0.000000 0.041374 0.000000
# 6 0.000000 0.000000 0.000000 0.000000 0.000000 0.032375
#
#
# Mechanical properties :
#
#
# Convention : Reuss Voigt Hill
#
# Bulk Modulus (GPa) = 89.37413 99.91116 94.64265
# Shear Modulus (GPa) = 25.64275 28.65999 27.15137
#
# Velocity S-wave (km/s) = 3.75627 3.97112 3.86519
# Velocity P-wave (km/s) = 8.24559 8.71787 8.48502
#
# Compressibility (1/GPa) = 0.01118892
#
# Stress axis : x y z
#
# Youngs Moduli (GPa) = 112.27385 49.42755 48.27237
#
# Poissons Ratio (x) = 0.24683 0.16750
# Poissons Ratio (y) = 0.56067 0.52467
# Poissons Ratio (z) = 0.38958 0.53723
#
# Static dielectric constant tensor:
#      x y z
#    x 1.615890 0.000000 0.000000 
#    y 0.000000 1.610580 0.000000 
#    z 0.000000 0.000000 1.588160 
# 
# From -- ./inp_files/12636.got.cif
#   From: 2010.05.17/outbox.cif.g08.bks.cpg/sg39_7_cif.got.tgz:12636.got - 2010.06.03 18:22:40.
