data_PCOD9360135
_publ_section_title
;
Structure prediction by ZEFSAII (Michael W. Deem and Ramdas Pophale) SiO2 
 PCOD9360135
Probable space group: A B M 2
;
_chemical_formula_sum "Si O2"
_cell_formula_units_Z 48
_cell_length_a 10.833896
_cell_length_b 14.776832
_cell_length_c 17.184974
_cell_angle_alpha 90.000000
_cell_angle_beta 90.000000
_cell_angle_gamma 90.000000
_cell_volume 2751.153849
_symmetry_space_group_name_H-M "A B M 2"
_symmetry_group_IT_number 39
_symmetry_cell_setting 'orthorhombic'
loop_
_space_group_symop_operation_xyz
x,y,z
-x,-y,z
-x,1/2+y,z
x,1/2-y,z
x,1/2+y,1/2+z
-x,1/2-y,1/2+z
-x,y,1/2+z
x,-y,1/2+z
loop_
_atom_site_type_symbol
_atom_site_label
_atom_site_fract_x
_atom_site_fract_y
_atom_site_fract_z
Si Si1 0.270683 0.107826 0.918480
Si Si2 0.728137 0.250000 0.056735
Si Si3 0.500000 0.891823 0.308171
Si Si4 0.728137 0.750000 0.056735
Si Si5 0.270683 0.107826 0.418480
Si Si6 0.000000 0.750000 0.060147
Si Si7 0.000000 0.606757 0.923705
Si Si8 0.499999 0.250000 0.172645
O O1 0.379209 0.131650 0.859163
O O2 0.132551 0.127370 0.885482
O O3 0.279620 1.000000 0.933488
O O4 0.282466 0.164575 0.997855
O O5 0.619840 0.250000 0.118348
O O6 0.864007 0.250000 0.096929
O O7 0.717534 0.335426 0.997855
O O8 0.620790 0.868350 0.359164
O O9 0.500000 0.836633 0.228968
O O10 0.500000 0.000000 0.295299
O O11 0.864008 0.750000 0.096929
O O12 0.619842 0.750000 0.118349
O O13 0.132551 0.127371 0.385482
O O14 1.000000 0.663453 0.002943
O O15 0.000000 0.500000 0.939526
#
# Coordination Sequence:
#
# PCOD9360135 Si02
#       8
#     8   4   8   4   8   4   8   4
#     4   9  17  32  54  75  94 120 158 201 240 280
#     4  10  19  32  52  74  96 124 159 198 238 282
#     4  10  21  35  49  69  99 130 160 196 236 280
#     4  10  19  32  52  74  96 124 159 198 238 282
#     4   9  17  32  54  75  94 120 158 201 240 280
#     4   8  16  30  46  70  98 120 150 194 240 280
#     4   8  14  26  49  77  95 111 147 200 246 278
#     4  12  24  34  46  68 102 136 162 192 232 282
#
# _framework density 17.447223999999999
#
# number of rings (size 3 to 8) (size 9 to 14) (size 15 to 20)
#    0.000    2.667    0.000    2.000    0.000    1.333 
#    0.000    1.667    0.000    0.000    0.000    0.000 
#    0.000    0.000    0.000    0.000    0.000    0.000 
#
# Total GULP energy -133623.046505 kJ/mol
# GULP energy per Si atom -5567.626938 kJ/mol
# Density = 1.740751 g / cm^3
# Si number density = 17.447224 Si / 1000 Ang^3
#
#
#
# Elastic Constant Matrix: (Units=GPa)
#
#
# Indices 1 2 3 4 5 6 
#
# 1 225.8978 43.8301 83.9335 0.0000 0.0000 0.0000
# 2 43.8301 61.1067 32.4199 0.0000 0.0000 0.0000
# 3 83.9335 32.4199 72.8167 0.0000 0.0000 0.0000
# 4 0.0000 0.0000 0.0000 35.6941 0.0000 0.0000
# 5 0.0000 0.0000 0.0000 0.0000 -4.3549 0.0000
# 6 0.0000 0.0000 0.0000 0.0000 0.0000 1.3912
#
#
#
# Elastic Compliance Matrix: (Units=1/GPa)
#
#
# Indices 1 2 3 4 5 6 
#
# 1 0.007797 -0.001079 -0.008507 0.000000 0.000000 0.000000
# 2 -0.001079 0.021575 -0.008362 0.000000 0.000000 0.000000
# 3 -0.008507 -0.008362 0.027261 0.000000 0.000000 0.000000
# 4 0.000000 0.000000 0.000000 0.028016 0.000000 0.000000
# 5 0.000000 0.000000 0.000000 0.000000 -0.229626 0.000000
# 6 0.000000 0.000000 0.000000 0.000000 0.000000 0.718797
#
#
# Mechanical properties :
#
#
# Convention : Reuss Voigt Hill
#
# Bulk Modulus (GPa) = 48.22070 75.57648 61.89859
# Shear Modulus (GPa) = 8.10860 19.85526 13.98193
#
# Velocity S-wave (km/s) = 2.15815 3.37711 2.83394
# Velocity P-wave (km/s) = 5.82307 7.65622 6.80169
#
# Compressibility (1/GPa) = 0.02073798
#
# Stress axis : x y z
#
# Youngs Moduli (GPa) = 128.25603 46.34925 36.68187
#
# Poissons Ratio (x) = 0.05002 0.31204
# Poissons Ratio (y) = 0.13843 0.30673
# Poissons Ratio (z) = 1.09104 0.38756
#
# Static dielectric constant tensor:
#      x y z
#    x 1.659210 0.000000 0.000000 
#    y 0.000000 1.609720 0.000000 
#    z 0.000000 0.000000 1.518090 
# 
# From -- ./inp_files/5239.got.cif
#   From: 2010.05.17/outbox.cif.g08.bks.cpg/sg39_3_cif.got.tgz:5239.got - 2010.06.03 18:22:40.
