data_PCOD9360838
_publ_section_title
;
Structure prediction by ZEFSAII (Michael W. Deem and Ramdas Pophale) SiO2 
 PCOD9360838
Probable space group: A B M 2
;
_chemical_formula_sum "Si O2"
_cell_formula_units_Z 64
_cell_length_a 25.189409
_cell_length_b 8.761297
_cell_length_c 14.846983
_cell_angle_alpha 90.000000
_cell_angle_beta 90.000000
_cell_angle_gamma 90.000000
_cell_volume 3276.608791
_symmetry_space_group_name_H-M "A B M 2"
_symmetry_group_IT_number 39
_symmetry_cell_setting 'orthorhombic'
loop_
_space_group_symop_operation_xyz
x,y,z
-x,-y,z
-x,1/2+y,z
x,1/2-y,z
x,1/2+y,1/2+z
-x,1/2-y,1/2+z
-x,y,1/2+z
x,-y,1/2+z
loop_
_atom_site_type_symbol
_atom_site_label
_atom_site_fract_x
_atom_site_fract_y
_atom_site_fract_z
Si Si1 0.739348 0.574493 0.521940
Si Si2 0.867994 0.564525 0.707864
Si Si3 0.643093 0.567522 0.260254
Si Si4 0.557791 0.932907 0.896950
Si Si5 0.855982 0.064457 0.000697
Si Si6 0.369516 0.432600 0.053600
Si Si7 0.246587 0.073658 0.740402
Si Si8 0.058001 0.567039 0.364246
O O1 0.731790 0.750000 0.494395
O O2 0.794914 0.515922 0.481965
O O3 0.685243 0.484869 0.507112
O O4 0.748067 0.573496 0.630836
O O5 0.864546 0.750000 0.707935
O O6 0.869124 0.518360 0.603804
O O7 0.812912 0.511916 0.754360
O O8 0.918431 0.520349 0.766726
O O9 0.638452 0.750000 0.265900
O O10 0.601090 0.489970 0.325571
O O11 0.630839 0.516016 0.157269
O O12 0.703975 0.519373 0.278541
O O13 0.555220 0.750000 0.894942
O O14 0.500000 0.000000 0.879385
O O15 0.580766 0.983803 0.994237
O O16 0.856914 0.250000 0.996248
O O17 0.899184 0.994142 0.935336
O O18 0.369494 0.250000 0.055430
O O19 0.250452 0.250000 0.770160
O O20 0.055890 0.750000 0.368496
O O21 0.000000 0.500000 0.379878
#
# Coordination Sequence:
#
# PCOD9360838 Si02
#       8
#     8   8   8   8   8   8   8   8
#     4   8  15  29  54  84 112 140 173 212 262 319
#     4   8  17  35  58  79 106 142 178 216 265 319
#     4  10  20  36  57  84 114 143 175 218 266 316
#     4  11  24  41  57  77 105 142 185 227 267 315
#     4   9  18  36  58  81 109 141 175 217 265 317
#     4   9  20  37  57  81 112 144 177 218 266 316
#     4   8  14  30  55  82 109 141 176 212 260 321
#     4  11  23  38  54  76 104 139 182 226 267 315
#
# _framework density 19.532388999999998
#
# number of rings (size 3 to 8) (size 9 to 14) (size 15 to 20)
#    0.000    2.750    0.000    2.625    0.000    4.000 
#    0.000   10.625    0.000    0.000    0.000    0.000 
#    0.000    0.000    0.000    0.000    0.000    0.000 
#
# Total GULP energy -178553.932523 kJ/mol
# GULP energy per Si atom -5579.810391 kJ/mol
# Density = 1.948793 g / cm^3
# Si number density = 19.532389 Si / 1000 Ang^3
#
#
#
# Elastic Constant Matrix: (Units=GPa)
#
#
# Indices 1 2 3 4 5 6 
#
# 1 81.1086 13.2385 4.1028 0.0000 0.0000 0.0000
# 2 13.2385 24.0592 5.6116 0.0000 0.0000 0.0000
# 3 4.1028 5.6116 40.4359 0.0000 0.0000 0.0000
# 4 0.0000 0.0000 0.0000 17.5463 0.0000 0.0000
# 5 0.0000 0.0000 0.0000 0.0000 30.1476 0.0000
# 6 0.0000 0.0000 0.0000 0.0000 0.0000 29.6128
#
#
#
# Elastic Compliance Matrix: (Units=1/GPa)
#
#
# Indices 1 2 3 4 5 6 
#
# 1 0.013551 -0.007374 -0.000352 0.000000 0.000000 0.000000
# 2 -0.007374 0.046967 -0.005770 0.000000 0.000000 0.000000
# 3 -0.000352 -0.005770 0.025567 0.000000 0.000000 0.000000
# 4 0.000000 0.000000 0.000000 0.056992 0.000000 0.000000
# 5 0.000000 0.000000 0.000000 0.000000 0.033170 0.000000
# 6 0.000000 0.000000 0.000000 0.000000 0.000000 0.033769
#
#
# Mechanical properties :
#
#
# Convention : Reuss Voigt Hill
#
# Bulk Modulus (GPa) = 16.92224 21.27885 19.10055
# Shear Modulus (GPa) = 19.47758 23.63805 21.55781
#
# Velocity S-wave (km/s) = 3.16126 3.48256 3.32580
# Velocity P-wave (km/s) = 4.69119 5.20469 4.95460
#
# Compressibility (1/GPa) = 0.05909382
#
# Stress axis : x y z
#
# Youngs Moduli (GPa) = 73.79783 21.29134 39.11304
#
# Poissons Ratio (x) = 0.15701 0.01375
# Poissons Ratio (y) = 0.54420 0.22568
# Poissons Ratio (z) = 0.02594 0.12285
#
# Static dielectric constant tensor:
#      x y z
#    x 1.670260 0.000000 0.000000 
#    y 0.000000 1.658370 0.000000 
#    z 0.000000 0.000000 1.720690 
# 
# From -- ./inp_files/10574.got.cif
#   From: 2010.05.17/outbox.cif.g08.bks.cpg/sg39_6_cif.got.tgz:10574.got - 2010.06.03 18:22:40.
