data_PCOD9361915
_publ_section_title
;
Structure prediction by ZEFSAII (Michael W. Deem and Ramdas Pophale) SiO2 
 PCOD9361915
Probable space group: A B M 2
;
_chemical_formula_sum "Si O2"
_cell_formula_units_Z 36
_cell_length_a 9.217822
_cell_length_b 19.777282
_cell_length_c 8.474403
_cell_angle_alpha 90.000000
_cell_angle_beta 90.000000
_cell_angle_gamma 90.000000
_cell_volume 1544.913032
_symmetry_space_group_name_H-M "A B M 2"
_symmetry_group_IT_number 39
_symmetry_cell_setting 'orthorhombic'
loop_
_space_group_symop_operation_xyz
x,y,z
-x,-y,z
-x,1/2+y,z
x,1/2-y,z
x,1/2+y,1/2+z
-x,1/2-y,1/2+z
-x,y,1/2+z
x,-y,1/2+z
loop_
_atom_site_type_symbol
_atom_site_label
_atom_site_fract_x
_atom_site_fract_y
_atom_site_fract_z
Si Si1 0.500000 0.000000 0.528930
Si Si2 0.207774 0.131324 0.750209
Si Si3 0.602317 0.750000 0.880108
Si Si4 0.713044 0.974123 0.280253
Si Si5 0.903386 0.364762 0.890551
Si Si6 0.291430 0.750000 0.742525
O O1 0.396461 0.044540 0.421004
O O2 0.614823 0.042644 0.629575
O O3 0.331566 0.184505 0.792277
O O4 0.145948 0.139086 0.572292
O O5 0.073199 0.146067 0.866961
O O6 0.262172 0.054468 0.772252
O O7 0.430538 0.750000 0.856848
O O8 0.653034 0.750000 0.062522
O O9 0.861407 0.937068 0.314708
O O10 0.808831 0.313406 0.787156
#
# Coordination Sequence:
#
# PCOD9361915 Si02
#       6
#     4   8   4   8   8   4
#     4  10  24  42  66 108 144 178 226 292 344 406
#     4  12  27  47  72 103 143 185 232 286 348 414
#     4  12  29  48  75 102 140 182 234 286 347 414
#     4  11  25  42  74 102 144 178 234 282 352 406
#     4  12  27  47  72 103 143 185 232 286 348 414
#     4  12  29  48  75 102 140 182 234 286 347 414
#
# _framework density 23.302282000000002
#
# number of rings (size 3 to 8) (size 9 to 14) (size 15 to 20)
#    0.000    0.444    2.222    4.667   12.444    1.778 
#    0.000    0.000    0.000    0.000    0.000    0.000 
#    0.000    0.000    0.000    0.000    0.000    0.000 
#
# Total GULP energy -100773.492604 kJ/mol
# GULP energy per Si atom -5598.527367 kJ/mol
# Density = 2.324924 g / cm^3
# Si number density = 23.302282 Si / 1000 Ang^3
#
#
#
# Elastic Constant Matrix: (Units=GPa)
#
#
# Indices 1 2 3 4 5 6 
#
# 1 100.9555 17.0920 -5.9693 0.0000 0.0000 0.0000
# 2 17.0920 113.5023 3.5755 0.0000 0.0000 0.0000
# 3 -5.9693 3.5755 118.8017 0.0000 0.0000 0.0000
# 4 0.0000 0.0000 0.0000 14.6315 0.0000 0.0000
# 5 0.0000 0.0000 0.0000 0.0000 42.1340 0.0000
# 6 0.0000 0.0000 0.0000 0.0000 0.0000 9.5906
#
#
#
# Elastic Compliance Matrix: (Units=1/GPa)
#
#
# Indices 1 2 3 4 5 6 
#
# 1 0.010201 -0.001554 0.000559 0.000000 0.000000 0.000000
# 2 -0.001554 0.009055 -0.000351 0.000000 0.000000 0.000000
# 3 0.000559 -0.000351 0.008456 0.000000 0.000000 0.000000
# 4 0.000000 0.000000 0.000000 0.068346 0.000000 0.000000
# 5 0.000000 0.000000 0.000000 0.000000 0.023734 0.000000
# 6 0.000000 0.000000 0.000000 0.000000 0.000000 0.104269
#
#
# Mechanical properties :
#
#
# Convention : Reuss Voigt Hill
#
# Bulk Modulus (GPa) = 39.96360 40.29511 40.12935
# Shear Modulus (GPa) = 21.26821 34.50863 27.88842
#
# Velocity S-wave (km/s) = 3.02439 3.85244 3.46325
# Velocity P-wave (km/s) = 5.42063 6.09247 5.76634
#
# Compressibility (1/GPa) = 0.02502277
#
# Stress axis : x y z
#
# Youngs Moduli (GPa) = 98.02485 110.43097 118.25856
#
# Poissons Ratio (x) = 0.17159 -0.06615
# Poissons Ratio (y) = 0.15231 0.04146
# Poissons Ratio (z) = -0.05483 0.03872
#
# Static dielectric constant tensor:
#      x y z
#    x 1.859590 0.000000 0.000000 
#    y 0.000000 1.953010 0.000000 
#    z 0.000000 0.000000 1.931270 
# 
# From -- ./inp_files/2051.got.cif
#   From: 2010.05.17/outbox.cif.g08.bks.cpg/sg39_2_cif.got.tgz:2051.got - 2010.06.03 18:22:40.
