data_PCOD9361867
_publ_section_title
;
Structure prediction by ZEFSAII (Michael W. Deem and Ramdas Pophale) SiO2 
 PCOD9361867
Probable space group: A B M 2
;
_chemical_formula_sum "Si O2"
_cell_formula_units_Z 40
_cell_length_a 8.095439
_cell_length_b 21.463853
_cell_length_c 10.156624
_cell_angle_alpha 90.000000
_cell_angle_beta 90.000000
_cell_angle_gamma 90.000000
_cell_volume 1764.808005
_symmetry_space_group_name_H-M "A B M 2"
_symmetry_group_IT_number 39
_symmetry_cell_setting 'orthorhombic'
loop_
_space_group_symop_operation_xyz
x,y,z
-x,-y,z
-x,1/2+y,z
x,1/2-y,z
x,1/2+y,1/2+z
-x,1/2-y,1/2+z
-x,y,1/2+z
x,-y,1/2+z
loop_
_atom_site_type_symbol
_atom_site_label
_atom_site_fract_x
_atom_site_fract_y
_atom_site_fract_z
Si Si1 0.689462 0.364962 0.997560
Si Si2 0.669772 0.135080 0.476690
Si Si3 0.999964 0.317380 0.363858
Si Si4 0.336056 0.542559 0.238556
Si Si5 0.811433 0.579079 0.240689
O O1 0.711061 0.413684 0.877289
O O2 0.853535 0.324347 0.973227
O O3 0.510856 0.333977 0.976398
O O4 0.677275 0.402691 0.131984
O O5 0.820317 0.176434 0.425577
O O6 0.664282 0.074843 0.380840
O O7 0.716406 0.111903 0.621763
O O8 0.020762 0.250000 0.298596
O O9 0.031429 0.377119 0.270197
O O10 0.500000 0.500000 0.217120
O O11 0.185982 0.494128 0.217246
#
# Coordination Sequence:
#
# PCOD9361867 Si02
#       5
#     8   8   8   8   8
#     4  10  23  43  70 106 140 187 229 288 361 422
#     4  12  23  43  73 105 137 193 231 286 374 406
#     4  10  27  49  67 100 144 187 251 296 329 418
#     4  12  21  41  72 107 150 176 222 295 359 436
#     4  10  24  42  69 104 141 186 229 288 355 425
#
# _framework density 22.665353
#
# number of rings (size 3 to 8) (size 9 to 14) (size 15 to 20)
#    1.200    0.000    4.000    1.200    2.800    2.400 
#    0.000    0.000    0.000    0.000    0.000    0.000 
#    0.000    0.000    0.000    0.000    0.000    0.000 
#
# Total GULP energy -111555.340654 kJ/mol
# GULP energy per Si atom -5577.767033 kJ/mol
# Density = 2.261377 g / cm^3
# Si number density = 22.665353 Si / 1000 Ang^3
#
#
#
# Elastic Constant Matrix: (Units=GPa)
#
#
# Indices 1 2 3 4 5 6 
#
# 1 167.0814 41.3263 3.6904 0.0000 0.0000 0.0000
# 2 41.3263 98.3126 -10.2566 0.0000 0.0000 0.0000
# 3 3.6904 -10.2566 67.5792 0.0000 0.0000 0.0000
# 4 0.0000 0.0000 0.0000 8.4936 0.0000 0.0000
# 5 0.0000 0.0000 0.0000 0.0000 -4.6800 0.0000
# 6 0.0000 0.0000 0.0000 0.0000 0.0000 -249.5133
#
#
#
# Elastic Compliance Matrix: (Units=1/GPa)
#
#
# Indices 1 2 3 4 5 6 
#
# 1 0.006723 -0.002910 -0.000809 0.000000 0.000000 0.000000
# 2 -0.002910 0.011595 0.001919 0.000000 0.000000 0.000000
# 3 -0.000809 0.001919 0.015133 0.000000 0.000000 0.000000
# 4 0.000000 0.000000 0.000000 0.117736 0.000000 0.000000
# 5 0.000000 0.000000 0.000000 0.000000 -0.213675 0.000000
# 6 0.000000 0.000000 0.000000 0.000000 0.000000 -0.004008
#
#
# Mechanical properties :
#
#
# Convention : Reuss Voigt Hill
#
# Bulk Modulus (GPa) = 33.50088 44.72149 39.11118
# Shear Modulus (GPa) = -94.43882 -29.25908 -61.84895
#
# Velocity S-wave (km/s) = -6.46197 -3.59683 -5.22945
# Velocity P-wave (km/s) = 6.39244 1.58885 4.37829
#
# Compressibility (1/GPa) = 0.02984996
#
# Stress axis : x y z
#
# Youngs Moduli (GPa) = 148.74691 86.24255 66.08152
#
# Poissons Ratio (x) = 0.25100 0.05345
# Poissons Ratio (y) = 0.43291 -0.12679
# Poissons Ratio (z) = 0.12031 -0.16548
#
# Static dielectric constant tensor:
#      x y z
#    x 1.933950 0.000000 0.000000 
#    y 0.000000 1.793570 0.000000 
#    z 0.000000 0.000000 1.792800 
# 
# From -- ./inp_files/5064.got.cif
#   From: 2010.05.17/outbox.cif.g08.bks.cpg/sg39_3_cif.got.tgz:5064.got - 2010.06.03 18:22:40.
