data_PCOD9361913
_publ_section_title
;
Structure prediction by ZEFSAII (Michael W. Deem and Ramdas Pophale) SiO2 
 PCOD9361913
Probable space group: A B M 2
;
_chemical_formula_sum "Si O2"
_cell_formula_units_Z 52
_cell_length_a 12.094922
_cell_length_b 26.967930
_cell_length_c 8.279335
_cell_angle_alpha 90.000000
_cell_angle_beta 90.000000
_cell_angle_gamma 90.000000
_cell_volume 2700.512175
_symmetry_space_group_name_H-M "A B M 2"
_symmetry_group_IT_number 39
_symmetry_cell_setting 'orthorhombic'
loop_
_space_group_symop_operation_xyz
x,y,z
-x,-y,z
-x,1/2+y,z
x,1/2-y,z
x,1/2+y,1/2+z
-x,1/2-y,1/2+z
-x,y,1/2+z
x,-y,1/2+z
loop_
_atom_site_type_symbol
_atom_site_label
_atom_site_fract_x
_atom_site_fract_y
_atom_site_fract_z
Si Si1 0.168291 0.808338 0.088090
Si Si2 0.335229 0.250000 0.946015
Si Si3 0.049535 0.692157 0.743927
Si Si4 0.374491 0.349174 0.436111
Si Si5 0.500000 0.000000 0.720067
Si Si6 0.418068 0.074715 0.965776
Si Si7 0.745337 0.652073 0.084258
Si Si8 0.544355 0.750000 0.602142
O O1 0.206655 0.750000 0.103817
O O2 0.267196 0.847101 0.055542
O O3 0.079306 0.819604 0.225507
O O4 0.094973 0.809087 0.925048
O O5 0.270089 0.300268 0.969927
O O6 0.412721 0.250000 0.105356
O O7 0.402786 0.250000 0.779027
O O8 0.063686 0.750000 0.688849
O O9 0.128733 0.655654 0.643276
O O10 0.470742 0.390524 0.453374
O O11 0.327068 0.346887 0.253188
O O12 0.428808 0.298235 0.496489
O O13 0.430494 0.961290 0.617475
O O14 0.579085 0.964280 0.821419
O O15 0.309663 0.107509 0.986000
#
# Coordination Sequence:
#
# PCOD9361913 Si02
#       8
#     8   4   8   8   4   8   8   4
#     4   9  18  33  50  75 114 154 186 221 257 310
#     4  12  24  32  47  78 121 150 185 215 265 327
#     4   9  18  33  50  75 114 154 186 221 257 310
#     4  11  21  36  56  82 112 152 185 224 268 332
#     4  10  24  42  56  80 110 134 180 242 280 350
#     4  11  22  39  60  82 108 139 182 225 296 332
#     4  11  21  36  56  82 112 152 185 224 268 332
#     4  12  24  32  47  78 121 150 185 215 265 327
#
# _framework density 19.255606
#
# number of rings (size 3 to 8) (size 9 to 14) (size 15 to 20)
#    0.000    1.538    4.615    1.385    2.154    1.231 
#    0.000    0.000    0.000    0.000    0.000    6.462 
#    0.000    0.000    0.000    0.000    0.000    0.000 
#
# Total GULP energy -144962.799626 kJ/mol
# GULP energy per Si atom -5575.492293 kJ/mol
# Density = 1.921178 g / cm^3
# Si number density = 19.255606 Si / 1000 Ang^3
#
#
#
# Elastic Constant Matrix: (Units=GPa)
#
#
# Indices 1 2 3 4 5 6 
#
# 1 87.7775 29.2128 19.4134 0.0000 0.0000 0.0000
# 2 29.2128 97.7301 26.9947 0.0000 0.0000 0.0000
# 3 19.4134 26.9947 52.6468 0.0000 0.0000 0.0000
# 4 0.0000 0.0000 0.0000 32.6612 0.0000 0.0000
# 5 0.0000 0.0000 0.0000 0.0000 149.3534 0.0000
# 6 0.0000 0.0000 0.0000 0.0000 0.0000 12.4887
#
#
#
# Elastic Compliance Matrix: (Units=1/GPa)
#
#
# Indices 1 2 3 4 5 6 
#
# 1 0.013124 -0.003013 -0.003295 0.000000 0.000000 0.000000
# 2 -0.003013 0.012612 -0.005356 0.000000 0.000000 0.000000
# 3 -0.003295 -0.005356 0.022956 0.000000 0.000000 0.000000
# 4 0.000000 0.000000 0.000000 0.030617 0.000000 0.000000
# 5 0.000000 0.000000 0.000000 0.000000 0.006696 0.000000
# 6 0.000000 0.000000 0.000000 0.000000 0.000000 0.080072
#
#
# Mechanical properties :
#
#
# Convention : Reuss Voigt Hill
#
# Bulk Modulus (GPa) = 39.42443 43.26623 41.34533
# Shear Modulus (GPa) = 25.27057 49.73622 37.50340
#
# Velocity S-wave (km/s) = 3.62660 5.08778 4.41802
# Velocity P-wave (km/s) = 6.16888 7.55197 6.89519
#
# Compressibility (1/GPa) = 0.02536498
#
# Stress axis : x y z
#
# Youngs Moduli (GPa) = 76.19761 79.28797 43.56228
#
# Poissons Ratio (x) = 0.23888 0.14352
# Poissons Ratio (y) = 0.22957 0.23332
# Poissons Ratio (z) = 0.25103 0.42466
#
# Static dielectric constant tensor:
#      x y z
#    x 1.703420 0.000000 0.000000 
#    y 0.000000 1.635260 0.000000 
#    z 0.000000 0.000000 1.768560 
# 
# From -- ./inp_files/2810.got.cif
#   From: 2010.05.17/outbox.cif.g08.bks.cpg/sg39_2_cif.got.tgz:2810.got - 2010.06.03 18:22:40.
