data_PCOD9361488
_publ_section_title
;
Structure prediction by ZEFSAII (Michael W. Deem and Ramdas Pophale) SiO2 
 PCOD9361488
Probable space group: A B M 2
;
_chemical_formula_sum "Si O2"
_cell_formula_units_Z 48
_cell_length_a 10.489120
_cell_length_b 22.166757
_cell_length_c 10.037078
_cell_angle_alpha 90.000000
_cell_angle_beta 90.000000
_cell_angle_gamma 90.000000
_cell_volume 2333.718739
_symmetry_space_group_name_H-M "A B M 2"
_symmetry_group_IT_number 39
_symmetry_cell_setting 'orthorhombic'
loop_
_space_group_symop_operation_xyz
x,y,z
-x,-y,z
-x,1/2+y,z
x,1/2-y,z
x,1/2+y,1/2+z
-x,1/2-y,1/2+z
-x,y,1/2+z
x,-y,1/2+z
loop_
_atom_site_type_symbol
_atom_site_label
_atom_site_fract_x
_atom_site_fract_y
_atom_site_fract_z
Si Si1 0.873052 0.320779 0.796310
Si Si2 0.808542 0.933058 0.969129
Si Si3 0.371501 0.678922 0.440560
Si Si4 0.152883 0.484888 0.700560
Si Si5 0.411409 0.320955 0.243710
Si Si6 0.948127 0.376399 0.065598
O O1 0.874203 0.250000 0.765091
O O2 0.729987 0.345293 0.772690
O O3 0.970481 0.350145 0.689710
O O4 0.904011 0.330327 0.952234
O O5 0.743829 0.868326 0.946749
O O6 0.788561 0.977135 0.845536
O O7 0.958637 0.919653 0.980855
O O8 0.779244 0.966569 0.106934
O O9 0.334277 0.750000 0.418724
O O10 0.471701 0.656554 0.331006
O O11 0.434657 0.675797 0.586478
O O12 0.157648 0.419551 0.628909
O O13 0.000000 0.500000 0.711753
O O14 0.404459 0.250000 0.280480
#
# Coordination Sequence:
#
# PCOD9361488 Si02
#       6
#     8   8   8   8   8   8
#     4  11  22  37  59  94 136 169 202 261 328 382
#     4  11  22  38  64  90 120 164 210 265 305 380
#     4  10  21  40  65  92 121 163 211 262 323 375
#     4  10  22  38  60  92 121 164 216 252 313 379
#     4   9  20  38  60  87 126 167 206 253 312 386
#     4  11  21  37  60  92 127 166 205 259 314 385
#
# _framework density 20.568031999999999
#
# number of rings (size 3 to 8) (size 9 to 14) (size 15 to 20)
#    0.000    1.667    3.333    2.000    2.333    2.000 
#    0.000    1.667    0.000    8.000    0.000    0.000 
#    0.000    0.000    0.000    0.000    0.000    0.000 
#
# Total GULP energy -133843.672097 kJ/mol
# GULP energy per Si atom -5576.819671 kJ/mol
# Density = 2.052122 g / cm^3
# Si number density = 20.568032 Si / 1000 Ang^3
#
#
#
# Elastic Constant Matrix: (Units=GPa)
#
#
# Indices 1 2 3 4 5 6 
#
# 1 17.8565 15.4549 16.3167 0.0000 0.0000 0.0000
# 2 15.4549 82.2846 38.1789 0.0000 0.0000 0.0000
# 3 16.3167 38.1789 102.4994 0.0000 0.0000 0.0000
# 4 0.0000 0.0000 0.0000 40.9051 0.0000 0.0000
# 5 0.0000 0.0000 0.0000 0.0000 20.7913 0.0000
# 6 0.0000 0.0000 0.0000 0.0000 0.0000 5.2334
#
#
#
# Elastic Compliance Matrix: (Units=1/GPa)
#
#
# Indices 1 2 3 4 5 6 
#
# 1 0.071596 -0.009864 -0.007723 0.000000 0.000000 0.000000
# 2 -0.009864 0.016051 -0.004408 0.000000 0.000000 0.000000
# 3 -0.007723 -0.004408 0.012628 0.000000 0.000000 0.000000
# 4 0.000000 0.000000 0.000000 0.024447 0.000000 0.000000
# 5 0.000000 0.000000 0.000000 0.000000 0.048097 0.000000
# 6 0.000000 0.000000 0.000000 0.000000 0.000000 0.191079
#
#
# Mechanical properties :
#
#
# Convention : Reuss Voigt Hill
#
# Bulk Modulus (GPa) = 17.76706 38.06018 27.91362
# Shear Modulus (GPa) = 11.71919 22.23197 16.97558
#
# Velocity S-wave (km/s) = 2.38959 3.29127 2.87599
# Velocity P-wave (km/s) = 4.03367 5.74352 4.96278
#
# Compressibility (1/GPa) = 0.05628394
#
# Stress axis : x y z
#
# Youngs Moduli (GPa) = 13.96716 62.30110 79.19116
#
# Poissons Ratio (x) = 0.61454 0.61161
# Poissons Ratio (y) = 0.13777 0.34911
# Poissons Ratio (z) = 0.10787 0.27465
#
# Static dielectric constant tensor:
#      x y z
#    x 1.742120 0.000000 0.000000 
#    y 0.000000 1.771660 0.000000 
#    z 0.000000 0.000000 1.762160 
# 
# From -- ./inp_files/2700.got.cif
#   From: 2010.05.17/outbox.cif.g08.bks.cpg/sg39_2_cif.got.tgz:2700.got - 2010.06.03 18:22:40.
