data_PCOD9361520
_publ_section_title
;
Structure prediction by ZEFSAII (Michael W. Deem and Ramdas Pophale) SiO2 
 PCOD9361520
Probable space group: A B M 2
;
_chemical_formula_sum "Si O2"
_cell_formula_units_Z 64
_cell_length_a 12.408630
_cell_length_b 19.224774
_cell_length_c 14.692870
_cell_angle_alpha 90.000000
_cell_angle_beta 90.000000
_cell_angle_gamma 90.000000
_cell_volume 3505.029795
_symmetry_space_group_name_H-M "A B M 2"
_symmetry_group_IT_number 39
_symmetry_cell_setting 'orthorhombic'
loop_
_space_group_symop_operation_xyz
x,y,z
-x,-y,z
-x,1/2+y,z
x,1/2-y,z
x,1/2+y,1/2+z
-x,1/2-y,1/2+z
-x,y,1/2+z
x,-y,1/2+z
loop_
_atom_site_type_symbol
_atom_site_label
_atom_site_fract_x
_atom_site_fract_y
_atom_site_fract_z
Si Si1 0.348282 0.104920 0.364290
Si Si2 0.964258 0.922314 0.804707
Si Si3 0.890976 0.670069 0.635056
Si Si4 0.270406 0.551596 0.367740
Si Si5 0.430440 0.827718 0.677938
Si Si6 0.323368 0.824856 0.233900
Si Si7 0.544596 0.575159 0.005087
Si Si8 0.125989 0.167077 0.426752
O O1 0.377119 0.139179 0.267632
O O2 0.453823 0.100324 0.430741
O O3 0.250865 0.146675 0.411543
O O4 0.302448 0.027476 0.344500
O O5 0.937259 0.879775 0.712887
O O6 0.857057 0.934020 0.866429
O O7 0.053121 0.878703 0.859470
O O8 0.000000 0.000000 0.780464
O O9 0.927847 0.750000 0.649271
O O10 0.762354 0.669463 0.652893
O O11 0.908874 0.650819 0.530547
O O12 0.311907 0.607976 0.295641
O O13 0.340270 0.565259 0.457029
O O14 0.386381 0.750000 0.662062
O O15 0.556301 0.821975 0.700562
O O16 0.431650 0.874230 0.588222
O O17 0.298231 0.750000 0.281148
O O18 0.500000 0.500000 0.036861
O O19 0.112312 0.250000 0.412203
#
# Coordination Sequence:
#
# PCOD9361520 Si02
#       8
#     8   8   8   8   8   8   8   8
#     4  11  22  41  63  92 127 164 202 256 311 370
#     4  11  22  42  64  91 120 161 206 262 305 361
#     4   9  20  39  64  91 118 160 207 246 303 368
#     4  10  21  41  61  86 123 162 208 251 306 364
#     4  11  23  37  60  93 126 163 203 253 312 369
#     4   9  18  34  60  89 120 161 203 247 297 364
#     4  10  23  38  61  93 124 166 203 252 310 371
#     4  11  23  42  66  92 125 163 204 255 309 368
#
# _framework density 18.259474999999998
#
# number of rings (size 3 to 8) (size 9 to 14) (size 15 to 20)
#    0.000    1.750    2.500    1.500    1.750    3.500 
#    4.500    0.000    0.000    0.000    0.000    0.000 
#    0.000    0.000    0.000    0.000    0.000    0.000 
#
# Total GULP energy -178369.705186 kJ/mol
# GULP energy per Si atom -5574.053287 kJ/mol
# Density = 1.821792 g / cm^3
# Si number density = 18.259475 Si / 1000 Ang^3
#
#
#
# Elastic Constant Matrix: (Units=GPa)
#
#
# Indices 1 2 3 4 5 6 
#
# 1 76.7507 39.6248 35.5792 0.0000 0.0000 0.0000
# 2 39.6248 123.3722 78.6913 0.0000 0.0000 0.0000
# 3 35.5792 78.6913 94.9112 0.0000 0.0000 0.0000
# 4 0.0000 0.0000 0.0000 32.8406 0.0000 0.0000
# 5 0.0000 0.0000 0.0000 0.0000 12.4447 0.0000
# 6 0.0000 0.0000 0.0000 0.0000 0.0000 43.6526
#
#
#
# Elastic Compliance Matrix: (Units=1/GPa)
#
#
# Indices 1 2 3 4 5 6 
#
# 1 0.016221 -0.002826 -0.003738 0.000000 0.000000 0.000000
# 2 -0.002826 0.017695 -0.013612 0.000000 0.000000 0.000000
# 3 -0.003738 -0.013612 0.023223 0.000000 0.000000 0.000000
# 4 0.000000 0.000000 0.000000 0.030450 0.000000 0.000000
# 5 0.000000 0.000000 0.000000 0.000000 0.080356 0.000000
# 6 0.000000 0.000000 0.000000 0.000000 0.000000 0.022908
#
#
# Mechanical properties :
#
#
# Convention : Reuss Voigt Hill
#
# Bulk Modulus (GPa) = 59.56585 66.98052 63.27318
# Shear Modulus (GPa) = 21.11480 27.19682 24.15581
#
# Velocity S-wave (km/s) = 3.40424 3.86354 3.64114
# Velocity P-wave (km/s) = 6.93862 7.52761 7.23911
#
# Compressibility (1/GPa) = 0.01678814
#
# Stress axis : x y z
#
# Youngs Moduli (GPa) = 61.64925 56.51193 43.06029
#
# Poissons Ratio (x) = 0.15968 0.16096
# Poissons Ratio (y) = 0.17420 0.58614
# Poissons Ratio (z) = 0.23044 0.76925
#
# Static dielectric constant tensor:
#      x y z
#    x 1.635370 0.000000 0.000000 
#    y 0.000000 1.668150 0.000000 
#    z 0.000000 0.000000 1.621280 
# 
# From -- ./inp_files/9423.got.cif
#   From: 2010.05.17/outbox.cif.g08.bks.cpg/sg39_5_cif.got.tgz:9423.got - 2010.06.03 18:22:40.
