data_PCOD9361486
_publ_section_title
;
Structure prediction by ZEFSAII (Michael W. Deem and Ramdas Pophale) SiO2 
 PCOD9361486
Probable space group: A B M 2
;
_chemical_formula_sum "Si O2"
_cell_formula_units_Z 40
_cell_length_a 9.194464
_cell_length_b 9.307944
_cell_length_c 22.832076
_cell_angle_alpha 90.000000
_cell_angle_beta 90.000000
_cell_angle_gamma 90.000000
_cell_volume 1954.004591
_symmetry_space_group_name_H-M "A B M 2"
_symmetry_group_IT_number 39
_symmetry_cell_setting 'orthorhombic'
loop_
_space_group_symop_operation_xyz
x,y,z
-x,-y,z
-x,1/2+y,z
x,1/2-y,z
x,1/2+y,1/2+z
-x,1/2-y,1/2+z
-x,y,1/2+z
x,-y,1/2+z
loop_
_atom_site_type_symbol
_atom_site_label
_atom_site_fract_x
_atom_site_fract_y
_atom_site_fract_z
Si Si1 0.155710 0.922503 0.712740
Si Si2 0.256792 0.907970 0.986014
Si Si3 0.500000 0.500000 0.400891
Si Si4 0.343812 0.073026 0.612703
Si Si5 0.000000 0.000000 0.899864
Si Si6 0.246559 0.403661 0.817234
O O1 0.145617 0.750000 0.705583
O O2 0.235817 0.003328 0.659741
O O3 0.240478 0.964709 0.772391
O O4 0.000000 0.000000 0.718850
O O5 0.219562 0.750000 0.005894
O O6 0.398238 0.910713 0.944775
O O7 0.124219 0.948802 0.944355
O O8 0.292540 0.980839 0.047777
O O9 0.615050 0.418578 0.359810
O O10 0.352168 0.250000 0.616709
O O11 0.500000 0.000000 0.623069
O O12 0.098894 0.093470 0.855802
O O13 0.253858 0.250000 0.785609
#
# Coordination Sequence:
#
# PCOD9361486 Si02
#       6
#     8   8   4   8   4   8
#     4  12  27  47  70  96 131 173 223 278 334 395
#     4  10  21  40  64  95 134 174 216 268 325 390
#     4  10  22  40  64  98 134 178 214 268 324 394
#     4  11  24  45  70  98 134 175 223 275 329 393
#     4  10  22  38  64  98 134 176 216 268 326 394
#     4  11  23  41  67  98 134 174 221 271 328 393
#
# _framework density 20.470780999999999
#
# number of rings (size 3 to 8) (size 9 to 14) (size 15 to 20)
#    0.000    1.200    2.000    3.600    2.800    4.000 
#    0.000    2.000    0.000    0.000    0.000    0.000 
#    0.000    0.000    0.000    0.000    0.000    0.000 
#
# Total GULP energy -111400.706453 kJ/mol
# GULP energy per Si atom -5570.035323 kJ/mol
# Density = 2.042419 g / cm^3
# Si number density = 20.470781 Si / 1000 Ang^3
#
#
#
# Elastic Constant Matrix: (Units=GPa)
#
#
# Indices 1 2 3 4 5 6 
#
# 1 104.0556 28.2126 47.0999 0.0000 0.0000 0.0000
# 2 28.2126 124.2622 37.4504 0.0000 0.0000 0.0000
# 3 47.0999 37.4504 118.3090 0.0000 0.0000 0.0000
# 4 0.0000 0.0000 0.0000 23.4920 0.0000 0.0000
# 5 0.0000 0.0000 0.0000 0.0000 26.9212 0.0000
# 6 0.0000 0.0000 0.0000 0.0000 0.0000 -3.1673
#
#
#
# Elastic Compliance Matrix: (Units=1/GPa)
#
#
# Indices 1 2 3 4 5 6 
#
# 1 0.011943 -0.001413 -0.004307 0.000000 0.000000 0.000000
# 2 -0.001413 0.009063 -0.002306 0.000000 0.000000 0.000000
# 3 -0.004307 -0.002306 0.010897 0.000000 0.000000 0.000000
# 4 0.000000 0.000000 0.000000 0.042568 0.000000 0.000000
# 5 0.000000 0.000000 0.000000 0.000000 0.037145 0.000000
# 6 0.000000 0.000000 0.000000 0.000000 0.000000 -0.315725
#
#
# Mechanical properties :
#
#
# Convention : Reuss Voigt Hill
#
# Bulk Modulus (GPa) = 63.09209 63.57250 63.33229
# Shear Modulus (GPa) = -27.35675 25.04010 -1.15832
#
# Velocity S-wave (km/s) = -3.65962 3.50124 -0.75304
# Velocity P-wave (km/s) = 3.60976 6.88967 5.49991
#
# Compressibility (1/GPa) = 0.01584985
#
# Stress axis : x y z
#
# Youngs Moduli (GPa) = 83.73026 110.33273 91.76629
#
# Poissons Ratio (x) = 0.15595 0.39526
# Poissons Ratio (y) = 0.11835 0.21164
# Poissons Ratio (z) = 0.36065 0.25446
#
# Static dielectric constant tensor:
#      x y z
#    x 1.767340 0.000000 0.000000 
#    y 0.000000 1.755280 0.000000 
#    z 0.000000 0.000000 1.785160 
# 
# From -- ./inp_files/15473.got.cif
#   From: 2010.05.17/outbox.cif.g08.bks.cpg/sg39_8_cif.got.tgz:15473.got - 2010.06.03 18:22:40.
