data_PCOD9361354
_publ_section_title
;
Structure prediction by ZEFSAII (Michael W. Deem and Ramdas Pophale) SiO2 
 PCOD9361354
Probable space group: A B M 2
;
_chemical_formula_sum "Si O2"
_cell_formula_units_Z 36
_cell_length_a 6.773932
_cell_length_b 10.703740
_cell_length_c 23.942602
_cell_angle_alpha 90.000000
_cell_angle_beta 90.000000
_cell_angle_gamma 90.000000
_cell_volume 1735.992043
_symmetry_space_group_name_H-M "A B M 2"
_symmetry_group_IT_number 39
_symmetry_cell_setting 'orthorhombic'
loop_
_space_group_symop_operation_xyz
x,y,z
-x,-y,z
-x,1/2+y,z
x,1/2-y,z
x,1/2+y,1/2+z
-x,1/2-y,1/2+z
-x,y,1/2+z
x,-y,1/2+z
loop_
_atom_site_type_symbol
_atom_site_label
_atom_site_fract_x
_atom_site_fract_y
_atom_site_fract_z
Si Si1 0.000000 0.000000 0.774821
Si Si2 0.654251 0.610495 0.067386
Si Si3 0.329833 0.393731 0.194661
Si Si4 0.353579 0.111343 0.842110
Si Si5 0.135681 0.385769 0.951459
O O1 0.856733 0.915131 0.812830
O O2 0.149176 0.922281 0.735707
O O3 0.500000 0.500000 0.059838
O O4 0.561948 0.750000 0.064775
O O5 0.739124 0.597449 0.129821
O O6 0.803036 0.604320 0.015836
O O7 0.500000 0.500000 0.201216
O O8 0.401228 0.250000 0.202444
O O9 0.425043 0.250000 0.826691
O O10 0.318412 0.109678 0.908813
O O11 0.500000 0.000000 0.826946
O O12 0.039384 0.250000 0.942598
O O13 0.000000 0.500000 0.936399
#
# Coordination Sequence:
#
# PCOD9361354 Si02
#       5
#     4   8   8   8   8
#     4  12  24  40  64  92 122 166 208 262 298 362
#     4   9  19  37  60  88 121 155 197 246 302 363
#     4  10  23  42  64  92 125 163 207 255 306 363
#     4  11  25  43  64  92 124 162 206 255 309 366
#     4  10  21  38  61  91 123 156 199 249 305 367
#
# _framework density 20.737424000000001
#
# number of rings (size 3 to 8) (size 9 to 14) (size 15 to 20)
#    0.000    1.778    1.111    2.000    1.556    7.111 
#    0.000    0.000    0.000    0.000    0.000    0.000 
#    0.000    0.000    0.000    0.000    0.000    0.000 
#
# Total GULP energy -100452.678898 kJ/mol
# GULP energy per Si atom -5580.704383 kJ/mol
# Density = 2.069022 g / cm^3
# Si number density = 20.737424 Si / 1000 Ang^3
#
#
#
# Elastic Constant Matrix: (Units=GPa)
#
#
# Indices 1 2 3 4 5 6 
#
# 1 63.4142 59.1577 28.7909 0.0000 0.0000 0.0000
# 2 59.1577 186.2872 36.0961 0.0000 0.0000 0.0000
# 3 28.7909 36.0961 120.9965 0.0000 0.0000 0.0000
# 4 0.0000 0.0000 0.0000 23.5413 0.0000 0.0000
# 5 0.0000 0.0000 0.0000 0.0000 24.2196 0.0000
# 6 0.0000 0.0000 0.0000 0.0000 0.0000 34.0492
#
#
#
# Elastic Compliance Matrix: (Units=1/GPa)
#
#
# Indices 1 2 3 4 5 6 
#
# 1 0.023813 -0.006861 -0.003620 0.000000 0.000000 0.000000
# 2 -0.006861 0.007674 -0.000657 0.000000 0.000000 0.000000
# 3 -0.003620 -0.000657 0.009322 0.000000 0.000000 0.000000
# 4 0.000000 0.000000 0.000000 0.042478 0.000000 0.000000
# 5 0.000000 0.000000 0.000000 0.000000 0.041289 0.000000
# 6 0.000000 0.000000 0.000000 0.000000 0.000000 0.029369
#
#
# Mechanical properties :
#
#
# Convention : Reuss Voigt Hill
#
# Bulk Modulus (GPa) = 53.95303 68.75414 61.35359
# Shear Modulus (GPa) = 27.41263 32.80559 30.10911
#
# Velocity S-wave (km/s) = 3.63973 3.98169 3.81454
# Velocity P-wave (km/s) = 6.61341 7.37327 7.00365
#
# Compressibility (1/GPa) = 0.01853464
#
# Stress axis : x y z
#
# Youngs Moduli (GPa) = 41.99414 130.30956 107.27419
#
# Poissons Ratio (x) = 0.89402 0.38828
# Poissons Ratio (y) = 0.28811 0.07046
# Poissons Ratio (z) = 0.15200 0.08559
#
# Static dielectric constant tensor:
#      x y z
#    x 1.699900 0.000000 0.000000 
#    y 0.000000 1.747020 0.000000 
#    z 0.000000 0.000000 1.768380 
# 
# From -- ./inp_files/15143.got.cif
#   From: 2010.05.17/outbox.cif.g08.bks.cpg/sg39_8_cif.got.tgz:15143.got - 2010.06.03 18:22:40.
