data_PCOD9361898
_publ_section_title
;
Structure prediction by ZEFSAII (Michael W. Deem and Ramdas Pophale) SiO2 
 PCOD9361898
Probable space group: A B M 2
;
_chemical_formula_sum "Si O2"
_cell_formula_units_Z 40
_cell_length_a 6.487216
_cell_length_b 19.990401
_cell_length_c 13.845796
_cell_angle_alpha 90.000000
_cell_angle_beta 90.000000
_cell_angle_gamma 90.000000
_cell_volume 1795.551198
_symmetry_space_group_name_H-M "A B M 2"
_symmetry_group_IT_number 39
_symmetry_cell_setting 'orthorhombic'
loop_
_space_group_symop_operation_xyz
x,y,z
-x,-y,z
-x,1/2+y,z
x,1/2-y,z
x,1/2+y,1/2+z
-x,1/2-y,1/2+z
-x,y,1/2+z
x,-y,1/2+z
loop_
_atom_site_type_symbol
_atom_site_label
_atom_site_fract_x
_atom_site_fract_y
_atom_site_fract_z
Si Si1 0.603573 0.435513 0.845010
Si Si2 0.127032 0.609698 0.686384
Si Si3 0.015184 0.750000 0.438756
Si Si4 0.676988 0.865443 0.003576
Si Si5 0.615362 0.750000 0.578379
Si Si6 0.000000 0.000000 0.820271
Si Si7 0.948117 0.750000 0.714593
O O1 0.500000 0.500000 0.795965
O O2 0.685015 0.386294 0.762936
O O3 0.454877 0.403421 0.922705
O O4 0.815226 0.470139 0.883397
O O5 0.215829 0.587488 0.583470
O O6 0.035755 0.682413 0.669800
O O7 0.968268 0.561393 0.743832
O O8 0.150570 0.683461 0.458399
O O9 0.807328 0.750000 0.502189
O O10 0.983205 0.750000 0.324617
O O11 0.520755 0.815139 0.057967
O O12 0.708656 0.750000 0.685960
#
# Coordination Sequence:
#
# PCOD9361898 Si02
#       7
#     8   8   4   8   4   4   4
#     4  10  24  44  71  95 138 189 237 290 354 435
#     4  10  23  47  69 102 147 180 237 294 359 436
#     4  11  25  41  67 107 139 183 243 290 358 436
#     4  11  24  44  67 108 138 181 246 295 353 436
#     4  11  24  43  66 104 144 182 229 293 368 428
#     4   8  24  46  66  98 142 186 238 284 366 430
#     4  12  23  42  75  95 139 191 216 297 358 422
#
# _framework density 22.277280999999999
#
# number of rings (size 3 to 8) (size 9 to 14) (size 15 to 20)
#    1.200    0.400    2.000    1.800    5.600    1.600 
#    3.600    0.000    0.000    0.000    0.000    0.000 
#    0.000    0.000    0.000    0.000    0.000    0.000 
#
# Total GULP energy -111438.298368 kJ/mol
# GULP energy per Si atom -5571.914918 kJ/mol
# Density = 2.222658 g / cm^3
# Si number density = 22.277281 Si / 1000 Ang^3
#
#
#
# Elastic Constant Matrix: (Units=GPa)
#
#
# Indices 1 2 3 4 5 6 
#
# 1 51.6564 8.9539 -2.4806 0.0000 0.0000 0.0000
# 2 8.9539 76.7783 3.3465 0.0000 0.0000 0.0000
# 3 -2.4806 3.3465 63.4960 0.0000 0.0000 0.0000
# 4 0.0000 0.0000 0.0000 -8.8674 0.0000 0.0000
# 5 0.0000 0.0000 0.0000 0.0000 45.3859 0.0000
# 6 0.0000 0.0000 0.0000 0.0000 0.0000 11.5402
#
#
#
# Elastic Compliance Matrix: (Units=1/GPa)
#
#
# Indices 1 2 3 4 5 6 
#
# 1 0.019809 -0.002349 0.000898 0.000000 0.000000 0.000000
# 2 -0.002349 0.013333 -0.000794 0.000000 0.000000 0.000000
# 3 0.000898 -0.000794 0.015826 0.000000 0.000000 0.000000
# 4 0.000000 0.000000 0.000000 -0.112773 0.000000 0.000000
# 5 0.000000 0.000000 0.000000 0.000000 0.022033 0.000000
# 6 0.000000 0.000000 0.000000 0.000000 0.000000 0.086654
#
#
# Mechanical properties :
#
#
# Convention : Reuss Voigt Hill
#
# Bulk Modulus (GPa) = 22.48405 23.50781 22.99593
# Shear Modulus (GPa) = 77.88213 21.75247 49.81730
#
# Velocity S-wave (km/s) = 5.91914 3.12820 4.73402
# Velocity P-wave (km/s) = 7.53855 4.86033 6.34242
#
# Compressibility (1/GPa) = 0.04447597
#
# Stress axis : x y z
#
# Youngs Moduli (GPa) = 50.48208 75.00126 63.18726
#
# Poissons Ratio (x) = 0.17620 -0.05672
# Poissons Ratio (y) = 0.11860 0.05020
# Poissons Ratio (z) = -0.04532 0.05959
#
# Static dielectric constant tensor:
#      x y z
#    x 1.930670 0.000000 0.000000 
#    y 0.000000 1.877270 0.000000 
#    z 0.000000 0.000000 1.799170 
# 
# From -- ./inp_files/7442.got.cif
#   From: 2010.05.17/outbox.cif.g08.bks.cpg/sg39_4_cif.got.tgz:7442.got - 2010.06.03 18:22:40.
