data_PCOD9361617
_publ_section_title
;
Structure prediction by ZEFSAII (Michael W. Deem and Ramdas Pophale) SiO2 
 PCOD9361617
Probable space group: A B M 2
;
_chemical_formula_sum "Si O2"
_cell_formula_units_Z 56
_cell_length_a 14.121114
_cell_length_b 20.600796
_cell_length_c 8.951889
_cell_angle_alpha 90.000000
_cell_angle_beta 90.000000
_cell_angle_gamma 90.000000
_cell_volume 2604.159912
_symmetry_space_group_name_H-M "A B M 2"
_symmetry_group_IT_number 39
_symmetry_cell_setting 'orthorhombic'
loop_
_space_group_symop_operation_xyz
x,y,z
-x,-y,z
-x,1/2+y,z
x,1/2-y,z
x,1/2+y,1/2+z
-x,1/2-y,1/2+z
-x,y,1/2+z
x,-y,1/2+z
loop_
_atom_site_type_symbol
_atom_site_label
_atom_site_fract_x
_atom_site_fract_y
_atom_site_fract_z
Si Si1 0.964791 0.823545 0.336580
Si Si2 0.137474 0.175708 0.022229
Si Si3 0.187903 0.920860 0.957486
Si Si4 0.777871 0.458665 0.620324
Si Si5 0.483847 0.638173 0.271136
Si Si6 0.643399 0.820715 0.504816
Si Si7 0.576030 0.948451 0.020094
O O1 0.943650 0.750000 0.387071
O O2 0.900494 0.874270 0.424729
O O3 0.074834 0.833796 0.374084
O O4 0.934780 0.826863 0.163569
O O5 0.178339 0.250000 0.022329
O O6 0.202148 0.112792 0.050817
O O7 0.216185 0.950665 0.796735
O O8 0.276571 0.875995 0.007417
O O9 0.160659 0.980923 0.063437
O O10 0.674120 0.479030 0.565636
O O11 0.568807 0.669491 0.367947
O O12 0.415674 0.604941 0.391801
O O13 0.420177 0.677587 0.154637
O O14 0.533070 0.585048 0.166040
O O15 0.688692 0.750000 0.487146
O O16 0.500000 0.000000 0.965054
#
# Coordination Sequence:
#
# PCOD9361617 Si02
#       7
#     8   8   8   8   8   8   8
#     4   9  19  40  66  92 120 158 205 251 315 386
#     4   9  20  41  67  92 121 160 204 257 321 380
#     4  11  24  39  61  90 126 167 205 257 317 374
#     4  11  24  40  60  93 127 162 212 260 308 378
#     4  10  22  38  58  87 115 160 212 258 314 369
#     4  11  22  41  61  87 123 162 211 263 317 375
#     4  11  22  37  61  87 124 168 208 257 311 368
#
# _framework density 21.504057
#
# number of rings (size 3 to 8) (size 9 to 14) (size 15 to 20)
#    0.000    1.714    1.429    3.000    4.000    2.286 
#    0.000    4.286    0.000    0.000    0.000    0.000 
#    0.000    0.000    0.000    0.000    0.000    0.000 
#
# Total GULP energy -156316.503298 kJ/mol
# GULP energy per Si atom -5582.732261 kJ/mol
# Density = 2.145511 g / cm^3
# Si number density = 21.504057 Si / 1000 Ang^3
#
#
#
# Elastic Constant Matrix: (Units=GPa)
#
#
# Indices 1 2 3 4 5 6 
#
# 1 18.9612 7.3620 10.0101 0.0000 0.0000 0.0000
# 2 7.3620 107.8498 31.9688 0.0000 0.0000 0.0000
# 3 10.0101 31.9688 63.9723 0.0000 0.0000 0.0000
# 4 0.0000 0.0000 0.0000 2.7441 0.0000 0.0000
# 5 0.0000 0.0000 0.0000 0.0000 17.9183 0.0000
# 6 0.0000 0.0000 0.0000 0.0000 0.0000 23.9194
#
#
#
# Elastic Compliance Matrix: (Units=1/GPa)
#
#
# Indices 1 2 3 4 5 6 
#
# 1 0.057689 -0.001482 -0.008287 0.000000 0.000000 0.000000
# 2 -0.001482 0.010923 -0.005226 0.000000 0.000000 0.000000
# 3 -0.008287 -0.005226 0.019540 0.000000 0.000000 0.000000
# 4 0.000000 0.000000 0.000000 0.364424 0.000000 0.000000
# 5 0.000000 0.000000 0.000000 0.000000 0.055809 0.000000
# 6 0.000000 0.000000 0.000000 0.000000 0.000000 0.041807
#
#
# Mechanical properties :
#
#
# Convention : Reuss Voigt Hill
#
# Bulk Modulus (GPa) = 17.19316 32.16281 24.67798
# Shear Modulus (GPa) = 8.33932 18.34583 13.34258
#
# Velocity S-wave (km/s) = 1.97141 2.92401 2.49362
# Velocity P-wave (km/s) = 3.63244 5.13701 4.44879
#
# Compressibility (1/GPa) = 0.05816267
#
# Stress axis : x y z
#
# Youngs Moduli (GPa) = 17.33422 91.55391 51.17647
#
# Poissons Ratio (x) = 0.13565 0.42408
# Poissons Ratio (y) = 0.02568 0.26747
# Poissons Ratio (z) = 0.14364 0.47850
#
# Static dielectric constant tensor:
#      x y z
#    x 1.834170 0.000000 0.000000 
#    y 0.000000 1.868910 0.000000 
#    z 0.000000 0.000000 1.772410 
# 
# From -- ./inp_files/3391.got.cif
#   From: 2010.05.17/outbox.cif.g08.bks.cpg/sg39_2_cif.got.tgz:3391.got - 2010.06.03 18:22:40.
