data_PCOD9361478
_publ_section_title
;
Structure prediction by ZEFSAII (Michael W. Deem and Ramdas Pophale) SiO2 
 PCOD9361478
Probable space group: A B M 2
;
_chemical_formula_sum "Si O2"
_cell_formula_units_Z 36
_cell_length_a 14.563905
_cell_length_b 13.438869
_cell_length_c 7.138259
_cell_angle_alpha 90.000000
_cell_angle_beta 90.000000
_cell_angle_gamma 90.000000
_cell_volume 1397.117265
_symmetry_space_group_name_H-M "A B M 2"
_symmetry_group_IT_number 39
_symmetry_cell_setting 'orthorhombic'
loop_
_space_group_symop_operation_xyz
x,y,z
-x,-y,z
-x,1/2+y,z
x,1/2-y,z
x,1/2+y,1/2+z
-x,1/2-y,1/2+z
-x,y,1/2+z
x,-y,1/2+z
loop_
_atom_site_type_symbol
_atom_site_label
_atom_site_fract_x
_atom_site_fract_y
_atom_site_fract_z
Si Si1 0.438232 0.750000 0.557801
Si Si2 0.120135 0.916628 0.290421
Si Si3 0.423524 0.419390 0.595188
Si Si4 0.685134 0.095232 0.451031
Si Si5 0.915446 0.638569 0.372823
O O1 0.515255 0.664333 0.501809
O O2 0.361122 0.836366 0.605216
O O3 0.209064 0.891968 0.410695
O O4 0.123145 0.871142 0.083212
O O5 0.025912 0.877576 0.381274
O O6 0.116812 0.037243 0.271251
O O7 0.500000 0.500000 0.663649
O O8 0.347741 0.482587 0.483599
O O9 0.368198 0.369452 0.764100
O O10 0.896652 0.750000 0.299644
#
# Coordination Sequence:
#
# PCOD9361478 Si02
#       5
#     4   8   8   8   8
#     4  10  22  38  66  96 126 176 218 270 346 396
#     4  11  24  44  70 106 139 183 232 290 334 417
#     4  10  21  40  63  93 134 175 214 278 339 392
#     4  11  23  41  68  97 133 172 230 278 324 416
#     4  11  24  44  72  99 145 187 225 286 359 404
#
# _framework density 25.767344000000001
#
# number of rings (size 3 to 8) (size 9 to 14) (size 15 to 20)
#    0.000    1.333    0.000    7.333    3.111    1.778 
#    6.000    1.111    9.778    0.000    0.000    0.000 
#    0.000    0.000    0.000    0.000    0.000    0.000 
#
# Total GULP energy -100233.243951 kJ/mol
# GULP energy per Si atom -5568.513553 kJ/mol
# Density = 2.570870 g / cm^3
# Si number density = 25.767344 Si / 1000 Ang^3
#
#
#
# Elastic Constant Matrix: (Units=GPa)
#
#
# Indices 1 2 3 4 5 6 
#
# 1 88.0015 2.7790 10.9178 0.0000 0.0000 0.0000
# 2 2.7790 189.4883 8.0460 0.0000 0.0000 0.0000
# 3 10.9178 8.0460 36.1797 0.0000 0.0000 0.0000
# 4 0.0000 0.0000 0.0000 -413.5101 0.0000 0.0000
# 5 0.0000 0.0000 0.0000 0.0000 14.5162 0.0000
# 6 0.0000 0.0000 0.0000 0.0000 0.0000 148.5126
#
#
#
# Elastic Compliance Matrix: (Units=1/GPa)
#
#
# Indices 1 2 3 4 5 6 
#
# 1 0.011806 -0.000022 -0.003558 0.000000 0.000000 0.000000
# 2 -0.000022 0.005328 -0.001178 0.000000 0.000000 0.000000
# 3 -0.003558 -0.001178 0.028975 0.000000 0.000000 0.000000
# 4 0.000000 0.000000 0.000000 -0.002418 0.000000 0.000000
# 5 0.000000 0.000000 0.000000 0.000000 0.068889 0.000000
# 6 0.000000 0.000000 0.000000 0.000000 0.000000 0.006733
#
#
# Mechanical properties :
#
#
# Convention : Reuss Voigt Hill
#
# Bulk Modulus (GPa) = 27.32767 39.68391 33.50579
# Shear Modulus (GPa) = 35.45454 -30.63449 2.41002
#
# Velocity S-wave (km/s) = 3.71340 -3.45177 0.96816
# Velocity P-wave (km/s) = 5.38650 0.67229 3.77905
#
# Compressibility (1/GPa) = 0.03659294
#
# Stress axis : x y z
#
# Youngs Moduli (GPa) = 84.70622 187.69753 34.51207
#
# Poissons Ratio (x) = 0.00414 0.12278
# Poissons Ratio (y) = 0.00187 0.04066
# Poissons Ratio (z) = 0.30135 0.22114
#
# Static dielectric constant tensor:
#      x y z
#    x 2.010500 0.000000 0.000000 
#    y 0.000000 2.150140 0.000000 
#    z 0.000000 0.000000 2.238390 
# 
# From -- ./inp_files/3038.got.cif
#   From: 2010.05.17/outbox.cif.g08.bks.cpg/sg39_2_cif.got.tgz:3038.got - 2010.06.03 18:22:40.
