data_PCOD9361350
_publ_section_title
;
Structure prediction by ZEFSAII (Michael W. Deem and Ramdas Pophale) SiO2 
 PCOD9361350
Probable space group: A B M 2
;
_chemical_formula_sum "Si O2"
_cell_formula_units_Z 64
_cell_length_a 21.012271
_cell_length_b 8.766006
_cell_length_c 18.696302
_cell_angle_alpha 90.000000
_cell_angle_beta 90.000000
_cell_angle_gamma 90.000000
_cell_volume 3443.740923
_symmetry_space_group_name_H-M "A B M 2"
_symmetry_group_IT_number 39
_symmetry_cell_setting 'orthorhombic'
loop_
_space_group_symop_operation_xyz
x,y,z
-x,-y,z
-x,1/2+y,z
x,1/2-y,z
x,1/2+y,1/2+z
-x,1/2-y,1/2+z
-x,y,1/2+z
x,-y,1/2+z
loop_
_atom_site_type_symbol
_atom_site_label
_atom_site_fract_x
_atom_site_fract_y
_atom_site_fract_z
Si Si1 0.430728 0.567766 0.848800
Si Si2 0.313974 0.567201 0.437099
Si Si3 0.932056 0.933774 0.932032
Si Si4 0.687976 0.932060 0.595531
Si Si5 0.569240 0.432240 0.680231
Si Si6 0.067889 0.566411 0.597857
Si Si7 0.809120 0.565994 0.841310
Si Si8 0.806177 0.433272 0.683173
O O1 0.500000 0.500000 0.866377
O O2 0.431168 0.750000 0.858505
O O3 0.376094 0.492940 0.896206
O O4 0.418712 0.535897 0.764527
O O5 0.316881 0.750000 0.444463
O O6 0.309049 0.493082 0.514849
O O7 0.251863 0.529036 0.389994
O O8 0.935211 0.750000 0.930662
O O9 0.873376 0.981169 0.882592
O O10 0.921323 0.980054 0.014940
O O11 0.000000 0.000000 0.909004
O O12 0.688271 0.750000 0.596468
O O13 0.624140 0.993581 0.633121
O O14 0.747958 0.995654 0.639468
O O15 0.500000 0.500000 0.662604
O O16 0.568841 0.250000 0.670595
O O17 0.064154 0.750000 0.599444
O O18 0.127190 0.519455 0.646436
O O19 0.000000 0.500000 0.621055
O O20 0.810503 0.750000 0.832337
O O21 0.804233 0.488345 0.764574
O O22 0.801508 0.250000 0.679688
#
# Coordination Sequence:
#
# PCOD9361350 Si02
#       8
#     8   8   8   8   8   8   8   8
#     4  10  21  38  61  89 119 152 190 232 280 337
#     4  11  23  40  61  84 114 151 191 238 290 341
#     4   9  18  35  57  81 111 147 188 232 281 337
#     4  12  25  40  60  86 116 151 194 240 288 343
#     4  10  21  39  63  90 121 155 192 235 284 339
#     4   9  19  36  58  83 112 149 190 234 285 340
#     4  10  22  39  59  83 114 151 190 235 287 343
#     4  11  23  39  59  84 116 152 192 238 288 342
#
# _framework density 18.584441000000002
#
# number of rings (size 3 to 8) (size 9 to 14) (size 15 to 20)
#    0.000    1.750    0.000    4.125    0.000    9.000 
#    0.000    7.500    0.000    0.000    0.000    0.000 
#    0.000    0.000    0.000    0.000    0.000    0.000 
#
# Total GULP energy -178875.445369 kJ/mol
# GULP energy per Si atom -5589.857668 kJ/mol
# Density = 1.854214 g / cm^3
# Si number density = 18.584441 Si / 1000 Ang^3
#
#
#
# Elastic Constant Matrix: (Units=GPa)
#
#
# Indices 1 2 3 4 5 6 
#
# 1 200.6711 79.4297 134.9311 0.0000 0.0000 0.0000
# 2 79.4297 71.3138 74.2343 0.0000 0.0000 0.0000
# 3 134.9311 74.2343 149.6341 0.0000 0.0000 0.0000
# 4 0.0000 0.0000 0.0000 38.1324 0.0000 0.0000
# 5 0.0000 0.0000 0.0000 0.0000 39.0190 0.0000
# 6 0.0000 0.0000 0.0000 0.0000 0.0000 36.2848
#
#
#
# Elastic Compliance Matrix: (Units=1/GPa)
#
#
# Indices 1 2 3 4 5 6 
#
# 1 0.013427 -0.004863 -0.009695 0.000000 0.000000 0.000000
# 2 -0.004863 0.030759 -0.010874 0.000000 0.000000 0.000000
# 3 -0.009695 -0.010874 0.020821 0.000000 0.000000 0.000000
# 4 0.000000 0.000000 0.000000 0.026224 0.000000 0.000000
# 5 0.000000 0.000000 0.000000 0.000000 0.025629 0.000000
# 6 0.000000 0.000000 0.000000 0.000000 0.000000 0.027560
#
#
# Mechanical properties :
#
#
# Convention : Reuss Voigt Hill
#
# Bulk Modulus (GPa) = 70.71643 110.97881 90.84762
# Shear Modulus (GPa) = 25.00018 31.55551 28.27785
#
# Velocity S-wave (km/s) = 3.67170 4.12509 3.90498
# Velocity P-wave (km/s) = 7.49061 9.08483 8.32596
#
# Compressibility (1/GPa) = 0.01414099
#
# Stress axis : x y z
#
# Youngs Moduli (GPa) = 74.47488 32.51114 48.02939
#
# Poissons Ratio (x) = 0.15810 0.46567
# Poissons Ratio (y) = 0.36217 0.52229
# Poissons Ratio (z) = 0.72207 0.35354
#
# Static dielectric constant tensor:
#      x y z
#    x 1.611200 0.000000 0.000000 
#    y 0.000000 1.623530 0.000000 
#    z 0.000000 0.000000 1.615000 
# 
# From -- ./inp_files/13090.got.cif
#   From: 2010.05.17/outbox.cif.g08.bks.cpg/sg39_7_cif.got.tgz:13090.got - 2010.06.03 18:22:40.
