data_PCOD9361456
_publ_section_title
;
Structure prediction by ZEFSAII (Michael W. Deem and Ramdas Pophale) SiO2 
 PCOD9361456
Probable space group: A B M 2
;
_chemical_formula_sum "Si O2"
_cell_formula_units_Z 64
_cell_length_a 9.062901
_cell_length_b 28.239464
_cell_length_c 12.477673
_cell_angle_alpha 90.000000
_cell_angle_beta 90.000000
_cell_angle_gamma 90.000000
_cell_volume 3193.429150
_symmetry_space_group_name_H-M "A B M 2"
_symmetry_group_IT_number 39
_symmetry_cell_setting 'orthorhombic'
loop_
_space_group_symop_operation_xyz
x,y,z
-x,-y,z
-x,1/2+y,z
x,1/2-y,z
x,1/2+y,1/2+z
-x,1/2-y,1/2+z
-x,y,1/2+z
x,-y,1/2+z
loop_
_atom_site_type_symbol
_atom_site_label
_atom_site_fract_x
_atom_site_fract_y
_atom_site_fract_z
Si Si1 0.965860 0.301703 0.352520
Si Si2 0.615796 0.359558 0.883223
Si Si3 0.182314 0.153833 0.186242
Si Si4 0.886438 0.400438 0.162578
Si Si5 0.837448 0.053424 0.380117
Si Si6 0.174415 0.446742 0.441717
Si Si7 0.718840 0.858713 0.953601
Si Si8 0.804546 0.195869 0.045329
O O1 0.900458 0.250000 0.342500
O O2 0.835910 0.338491 0.368355
O O3 0.078883 0.310119 0.254760
O O4 0.056536 0.305110 0.463781
O O5 0.676409 0.352293 0.763179
O O6 0.700014 0.408577 0.913506
O O7 0.443049 0.357886 0.904473
O O8 0.675977 0.319092 0.963711
O O9 0.062261 0.110790 0.177243
O O10 0.244190 0.165246 0.068134
O O11 0.807878 0.425922 0.262302
O O12 0.859859 0.436870 0.065763
O O13 0.823723 0.348458 0.126049
O O14 0.758247 0.086313 0.466365
O O15 0.013275 0.061714 0.390440
O O16 0.792575 0.999808 0.404007
O O17 0.789853 0.250000 0.086383
#
# Coordination Sequence:
#
# PCOD9361456 Si02
#       8
#     8   8   8   8   8   8   8   8
#     4  10  21  39  66  98 127 168 230 284 328 399
#     4  10  23  40  61  93 143 179 215 275 346 408
#     4  11  21  41  66  90 129 174 222 276 336 395
#     4  11  19  38  69  93 129 162 227 286 330 386
#     4  11  22  37  64  96 126 168 236 284 321 398
#     4  10  22  39  61  95 125 178 223 282 332 393
#     4  12  23  40  64  96 136 180 218 278 344 412
#     4   9  19  39  66  95 129 174 224 278 332 400
#
# _framework density 20.041152
#
# number of rings (size 3 to 8) (size 9 to 14) (size 15 to 20)
#    0.000    1.500    5.000    0.750    0.000    7.000 
#    0.000    0.000    0.000    6.000    0.000    0.000 
#    0.000    0.000    0.000    0.000    0.000    0.000 
#
# Total GULP energy -178190.148227 kJ/mol
# GULP energy per Si atom -5568.442132 kJ/mol
# Density = 1.999554 g / cm^3
# Si number density = 20.041152 Si / 1000 Ang^3
#
#
#
# Elastic Constant Matrix: (Units=GPa)
#
#
# Indices 1 2 3 4 5 6 
#
# 1 68.3185 37.9857 -21.3801 0.0000 0.0000 0.0000
# 2 37.9857 114.4129 49.7802 0.0000 0.0000 0.0000
# 3 -21.3801 49.7802 85.6256 0.0000 0.0000 0.0000
# 4 0.0000 0.0000 0.0000 19.1585 0.0000 0.0000
# 5 0.0000 0.0000 0.0000 0.0000 13.1969 0.0000
# 6 0.0000 0.0000 0.0000 0.0000 0.0000 3.5650
#
#
#
# Elastic Compliance Matrix: (Units=1/GPa)
#
#
# Indices 1 2 3 4 5 6 
#
# 1 0.030082 -0.017744 0.017827 0.000000 0.000000 0.000000
# 2 -0.017744 0.022166 -0.017317 0.000000 0.000000 0.000000
# 3 0.017827 -0.017317 0.026198 0.000000 0.000000 0.000000
# 4 0.000000 0.000000 0.000000 0.052196 0.000000 0.000000
# 5 0.000000 0.000000 0.000000 0.000000 0.075776 0.000000
# 6 0.000000 0.000000 0.000000 0.000000 0.000000 0.280507
#
#
# Mechanical properties :
#
#
# Convention : Reuss Voigt Hill
#
# Bulk Modulus (GPa) = 22.73885 44.56983 33.65434
# Shear Modulus (GPa) = 9.32747 20.64882 14.98815
#
# Velocity S-wave (km/s) = 2.15969 3.21334 2.73769
# Velocity P-wave (km/s) = 4.19401 6.00457 5.17903
#
# Compressibility (1/GPa) = 0.04397760
#
# Stress axis : x y z
#
# Youngs Moduli (GPa) = 33.24264 45.11464 38.17149
#
# Poissons Ratio (x) = 0.80050 -0.68048
# Poissons Ratio (y) = 0.58985 0.66101
# Poissons Ratio (z) = -0.59261 0.78125
#
# Static dielectric constant tensor:
#      x y z
#    x 1.699670 0.000000 0.000000 
#    y 0.000000 1.737420 0.000000 
#    z 0.000000 0.000000 1.768360 
# 
# From -- ./inp_files/5408.got.cif
#   From: 2010.05.17/outbox.cif.g08.bks.cpg/sg39_3_cif.got.tgz:5408.got - 2010.06.03 18:22:40.
