data_PCOD9361062
_publ_section_title
;
Structure prediction by ZEFSAII (Michael W. Deem and Ramdas Pophale) SiO2 
 PCOD9361062
Probable space group: A B M 2
;
_chemical_formula_sum "Si O2"
_cell_formula_units_Z 48
_cell_length_a 19.381102
_cell_length_b 8.597128
_cell_length_c 15.457159
_cell_angle_alpha 90.000000
_cell_angle_beta 90.000000
_cell_angle_gamma 90.000000
_cell_volume 2575.499882
_symmetry_space_group_name_H-M "A B M 2"
_symmetry_group_IT_number 39
_symmetry_cell_setting 'orthorhombic'
loop_
_space_group_symop_operation_xyz
x,y,z
-x,-y,z
-x,1/2+y,z
x,1/2-y,z
x,1/2+y,1/2+z
-x,1/2-y,1/2+z
-x,y,1/2+z
x,-y,1/2+z
loop_
_atom_site_type_symbol
_atom_site_label
_atom_site_fract_x
_atom_site_fract_y
_atom_site_fract_z
Si Si1 0.922941 0.063569 0.666080
Si Si2 0.828959 0.562188 0.817029
Si Si3 0.327023 0.063176 0.762255
Si Si4 0.179654 0.060792 0.014544
Si Si5 0.422869 0.564397 0.915280
Si Si6 0.666022 0.062867 0.571765
O O1 0.924595 0.250000 0.664561
O O2 0.875966 0.008664 0.585210
O O3 0.885182 0.008462 0.753210
O O4 0.000000 0.000000 0.660496
O O5 0.834145 0.750000 0.814360
O O6 0.752201 0.519690 0.784355
O O7 0.836096 0.510988 0.916680
O O8 0.331259 0.250000 0.761988
O O9 0.376414 0.997817 0.836421
O O10 0.345723 0.996987 0.668515
O O11 0.179498 0.250000 0.014476
O O12 0.256756 0.013601 0.042367
O O13 0.500000 0.500000 0.907726
O O14 0.423759 0.750000 0.914244
O O15 0.387956 0.504616 0.003602
O O16 0.663097 0.250000 0.569699
#
# Coordination Sequence:
#
# PCOD9361062 Si02
#       6
#     8   8   8   8   8   8
#     4  11  23  40  60  88 124 163 204 254 313 370
#     4  10  20  38  63  91 122 159 203 254 307 367
#     4  11  22  39  65  97 129 165 208 258 313 374
#     4   9  19  37  62  89 121 159 202 251 307 363
#     4  12  26  44  65  94 129 168 210 259 318 375
#     4  11  21  40  66  95 128 165 208 259 312 373
#
# _framework density 18.637159
#
# number of rings (size 3 to 8) (size 9 to 14) (size 15 to 20)
#    0.000    1.333    3.333    3.000    0.000    2.000 
#    0.000    6.667    0.000    0.000    0.000    0.000 
#    0.000    0.000    0.000    0.000    0.000    0.000 
#
# Total GULP energy -134177.455146 kJ/mol
# GULP energy per Si atom -5590.727298 kJ/mol
# Density = 1.859474 g / cm^3
# Si number density = 18.637159 Si / 1000 Ang^3
#
#
#
# Elastic Constant Matrix: (Units=GPa)
#
#
# Indices 1 2 3 4 5 6 
#
# 1 91.6676 20.7884 10.2693 0.0000 0.0000 0.0000
# 2 20.7884 54.4314 12.1148 0.0000 0.0000 0.0000
# 3 10.2693 12.1148 103.7572 0.0000 0.0000 0.0000
# 4 0.0000 0.0000 0.0000 31.8930 0.0000 0.0000
# 5 0.0000 0.0000 0.0000 0.0000 32.4719 0.0000
# 6 0.0000 0.0000 0.0000 0.0000 0.0000 26.4597
#
#
#
# Elastic Compliance Matrix: (Units=1/GPa)
#
#
# Indices 1 2 3 4 5 6 
#
# 1 0.011989 -0.004430 -0.000669 0.000000 0.000000 0.000000
# 2 -0.004430 0.020499 -0.001955 0.000000 0.000000 0.000000
# 3 -0.000669 -0.001955 0.009932 0.000000 0.000000 0.000000
# 4 0.000000 0.000000 0.000000 0.031355 0.000000 0.000000
# 5 0.000000 0.000000 0.000000 0.000000 0.030796 0.000000
# 6 0.000000 0.000000 0.000000 0.000000 0.000000 0.037793
#
#
# Mechanical properties :
#
#
# Convention : Reuss Voigt Hill
#
# Bulk Modulus (GPa) = 35.32134 37.35571 36.33853
# Shear Modulus (GPa) = 30.13703 31.94383 31.04043
#
# Velocity S-wave (km/s) = 4.02561 4.14452 4.08550
# Velocity P-wave (km/s) = 6.37186 6.55667 6.46493
#
# Compressibility (1/GPa) = 0.02831149
#
# Stress axis : x y z
#
# Youngs Moduli (GPa) = 83.41304 48.78370 100.68051
#
# Poissons Ratio (x) = 0.21610 0.06739
# Poissons Ratio (y) = 0.36949 0.19683
# Poissons Ratio (z) = 0.05583 0.09537
#
# Static dielectric constant tensor:
#      x y z
#    x 1.611400 0.000000 0.000000 
#    y 0.000000 1.632090 0.000000 
#    z 0.000000 0.000000 1.621020 
# 
# From -- ./inp_files/10036.got.cif
#   From: 2010.05.17/outbox.cif.g08.bks.cpg/sg39_6_cif.got.tgz:10036.got - 2010.06.03 18:22:40.
