data_PCOD9361692
_publ_section_title
;
Structure prediction by ZEFSAII (Michael W. Deem and Ramdas Pophale) SiO2 
 PCOD9361692
Probable space group: A B M 2
;
_chemical_formula_sum "Si O2"
_cell_formula_units_Z 64
_cell_length_a 15.805235
_cell_length_b 8.688404
_cell_length_c 24.207003
_cell_angle_alpha 90.000000
_cell_angle_beta 90.000000
_cell_angle_gamma 90.000000
_cell_volume 3324.160529
_symmetry_space_group_name_H-M "A B M 2"
_symmetry_group_IT_number 39
_symmetry_cell_setting 'orthorhombic'
loop_
_space_group_symop_operation_xyz
x,y,z
-x,-y,z
-x,1/2+y,z
x,1/2-y,z
x,1/2+y,1/2+z
-x,1/2-y,1/2+z
-x,y,1/2+z
x,-y,1/2+z
loop_
_atom_site_type_symbol
_atom_site_label
_atom_site_fract_x
_atom_site_fract_y
_atom_site_fract_z
Si Si1 0.089581 0.933357 0.434000
Si Si2 0.411674 0.434352 0.431866
Si Si3 0.346976 0.934158 0.317544
Si Si4 0.245631 0.066069 0.502582
Si Si5 0.589643 0.434594 0.701828
Si Si6 0.090679 0.935121 0.699417
Si Si7 0.843467 0.064455 0.819970
Si Si8 0.250479 0.564141 0.625123
O O1 0.086052 0.750000 0.431917
O O2 0.166272 0.987392 0.472675
O O3 0.108458 0.999104 0.372941
O O4 0.000000 0.000000 0.453553
O O5 0.500000 0.500000 0.453831
O O6 0.416158 0.250000 0.427673
O O7 0.394982 0.504840 0.371510
O O8 0.331656 0.475227 0.470040
O O9 0.345308 0.750000 0.317687
O O10 0.389720 0.995288 0.261736
O O11 0.251815 0.000414 0.320005
O O12 0.235403 0.250000 0.499043
O O13 0.251564 0.012700 0.565546
O O14 0.500000 0.500000 0.682295
O O15 0.585889 0.250000 0.706541
O O16 0.666384 0.474468 0.660762
O O17 0.087547 0.750000 0.698420
O O18 0.112840 0.981164 0.762330
O O19 0.167394 0.983306 0.659705
O O20 0.000000 0.000000 0.682850
O O21 0.840457 0.250000 0.823119
O O22 0.248257 0.750000 0.619032
#
# Coordination Sequence:
#
# PCOD9361692 Si02
#       8
#     8   8   8   8   8   8   8   8
#     4  12  25  42  66  96 129 168 211 258 315 376
#     4  11  24  42  65  92 128 165 207 258 315 378
#     4  12  23  37  63  96 128 166 208 253 314 380
#     4  11  25  44  66  92 124 165 212 267 317 370
#     4  11  23  42  65  92 128 167 208 260 316 374
#     4  10  22  40  63  92 125 164 203 249 308 366
#     4  11  21  39  64  93 131 167 204 254 314 377
#     4  10  23  44  65  87 123 168 210 260 316 370
#
# _framework density 19.252981999999999
#
# number of rings (size 3 to 8) (size 9 to 14) (size 15 to 20)
#    0.000    1.000    2.500    4.500    0.000    6.000 
#    0.000    3.750    0.000    0.000    0.000    0.000 
#    0.000    0.000    0.000    0.000    0.000    0.000 
#
# Total GULP energy -179058.449291 kJ/mol
# GULP energy per Si atom -5595.576540 kJ/mol
# Density = 1.920916 g / cm^3
# Si number density = 19.252982 Si / 1000 Ang^3
#
#
#
# Elastic Constant Matrix: (Units=GPa)
#
#
# Indices 1 2 3 4 5 6 
#
# 1 187.5919 66.7348 70.8800 0.0000 0.0000 0.0000
# 2 66.7348 89.6826 56.5566 0.0000 0.0000 0.0000
# 3 70.8800 56.5566 135.0498 0.0000 0.0000 0.0000
# 4 0.0000 0.0000 0.0000 30.0796 0.0000 0.0000
# 5 0.0000 0.0000 0.0000 0.0000 -5.4051 0.0000
# 6 0.0000 0.0000 0.0000 0.0000 0.0000 36.1360
#
#
#
# Elastic Compliance Matrix: (Units=1/GPa)
#
#
# Indices 1 2 3 4 5 6 
#
# 1 0.007717 -0.004332 -0.002236 0.000000 0.000000 0.000000
# 2 -0.004332 0.017584 -0.005090 0.000000 0.000000 0.000000
# 3 -0.002236 -0.005090 0.010710 0.000000 0.000000 0.000000
# 4 0.000000 0.000000 0.000000 0.033245 0.000000 0.000000
# 5 0.000000 0.000000 0.000000 0.000000 -0.185009 0.000000
# 6 0.000000 0.000000 0.000000 0.000000 0.000000 0.027673
#
#
# Mechanical properties :
#
#
# Convention : Reuss Voigt Hill
#
# Bulk Modulus (GPa) = 78.77595 88.96301 83.86948
# Shear Modulus (GPa) = -82.60043 26.70561 -27.94741
#
# Velocity S-wave (km/s) = -6.55712 3.72841 -3.81411
# Velocity P-wave (km/s) = 4.04013 8.05248 4.92543
#
# Compressibility (1/GPa) = 0.01269423
#
# Stress axis : x y z
#
# Youngs Moduli (GPa) = 129.59011 56.86937 93.37225
#
# Poissons Ratio (x) = 0.24637 0.20876
# Poissons Ratio (y) = 0.56141 0.47529
# Poissons Ratio (z) = 0.28974 0.28948
#
# Static dielectric constant tensor:
#      x y z
#    x 1.674740 0.000000 0.000000 
#    y 0.000000 1.645480 0.000000 
#    z 0.000000 0.000000 1.640480 
# 
# From -- ./inp_files/16139.got.cif
#   From: 2010.05.17/outbox.cif.g08.bks.cpg/sg39_9_cif.got.tgz:16139.got - 2010.06.03 18:22:40.
