data_PCOD9361731
_publ_section_title
;
Structure prediction by ZEFSAII (Michael W. Deem and Ramdas Pophale) SiO2 
 PCOD9361731
Probable space group: A B M 2
;
_chemical_formula_sum "Si O2"
_cell_formula_units_Z 32
_cell_length_a 4.969621
_cell_length_b 11.040111
_cell_length_c 23.320437
_cell_angle_alpha 90.000000
_cell_angle_beta 90.000000
_cell_angle_gamma 90.000000
_cell_volume 1279.479681
_symmetry_space_group_name_H-M "A B M 2"
_symmetry_group_IT_number 39
_symmetry_cell_setting 'orthorhombic'
loop_
_space_group_symop_operation_xyz
x,y,z
-x,-y,z
-x,1/2+y,z
x,1/2-y,z
x,1/2+y,1/2+z
-x,1/2-y,1/2+z
-x,y,1/2+z
x,-y,1/2+z
loop_
_atom_site_type_symbol
_atom_site_label
_atom_site_fract_x
_atom_site_fract_y
_atom_site_fract_z
Si Si1 0.865713 0.380644 0.615860
Si Si2 0.682094 0.882714 0.988983
Si Si3 0.303631 0.614893 0.361144
Si Si4 0.000777 0.750000 0.274181
Si Si5 0.497480 0.750000 0.189597
O O1 0.005234 0.250000 0.625401
O O2 0.848033 0.388237 0.547341
O O3 0.000000 0.500000 0.639453
O O4 0.578638 0.360398 0.647054
O O5 0.541973 0.750000 0.991435
O O6 0.500000 0.000000 0.991447
O O7 0.812249 0.888987 0.925971
O O8 0.500000 0.500000 0.352422
O O9 0.445908 0.750000 0.358064
O O10 0.067471 0.635422 0.315113
O O11 0.727034 0.750000 0.239600
O O12 0.234010 0.750000 0.226706
#
# Coordination Sequence:
#
# PCOD9361731 Si02
#       5
#     8   8   8   4   4
#     4   9  21  39  57  87 127 158 211 256 315 367
#     4   9  17  34  60  89 123 156 204 257 319 375
#     4   8  17  35  61  87 124 159 204 257 312 370
#     4  10  22  41  64  91 126 170 212 256 308 370
#     4  10  24  41  64  91 126 170 214 256 308 370
#
# _framework density 25.010168
#
# number of rings (size 3 to 8) (size 9 to 14) (size 15 to 20)
#    1.500    1.500    0.000    0.000    0.000    5.000 
#    0.000    5.000    0.000    0.000    0.000    0.000 
#    0.000    0.000    0.000    0.000    0.000    0.000 
#
# Total GULP energy -89144.602348 kJ/mol
# GULP energy per Si atom -5571.537647 kJ/mol
# Density = 2.495324 g / cm^3
# Si number density = 25.010168 Si / 1000 Ang^3
#
#
#
# Elastic Constant Matrix: (Units=GPa)
#
#
# Indices 1 2 3 4 5 6 
#
# 1 55.4026 31.8609 32.5780 0.0000 0.0000 0.0000
# 2 31.8609 200.6430 6.7048 0.0000 0.0000 0.0000
# 3 32.5780 6.7048 171.2142 0.0000 0.0000 0.0000
# 4 0.0000 0.0000 0.0000 81.8224 0.0000 0.0000
# 5 0.0000 0.0000 0.0000 0.0000 28.1103 0.0000
# 6 0.0000 0.0000 0.0000 0.0000 0.0000 18.5100
#
#
#
# Elastic Compliance Matrix: (Units=1/GPa)
#
#
# Indices 1 2 3 4 5 6 
#
# 1 0.022454 -0.003427 -0.004138 0.000000 0.000000 0.000000
# 2 -0.003427 0.005514 0.000436 0.000000 0.000000 0.000000
# 3 -0.004138 0.000436 0.006611 0.000000 0.000000 0.000000
# 4 0.000000 0.000000 0.000000 0.012222 0.000000 0.000000
# 5 0.000000 0.000000 0.000000 0.000000 0.035574 0.000000
# 6 0.000000 0.000000 0.000000 0.000000 0.000000 0.054025
#
#
# Mechanical properties :
#
#
# Convention : Reuss Voigt Hill
#
# Bulk Modulus (GPa) = 49.21265 63.28303 56.24784
# Shear Modulus (GPa) = 31.75990 49.42962 40.59476
#
# Velocity S-wave (km/s) = 3.56740 4.45047 4.03318
# Velocity P-wave (km/s) = 6.05708 7.19491 6.65038
#
# Compressibility (1/GPa) = 0.02031998
#
# Stress axis : x y z
#
# Youngs Moduli (GPa) = 44.53543 181.36866 151.26379
#
# Poissons Ratio (x) = 0.62160 0.62597
# Poissons Ratio (y) = 0.15264 -0.06598
# Poissons Ratio (z) = 0.18430 -0.07912
#
# Static dielectric constant tensor:
#      x y z
#    x 2.086700 0.000000 0.000000 
#    y 0.000000 2.044390 0.000000 
#    z 0.000000 0.000000 1.986100 
# 
# From -- ./inp_files/15126.got.cif
#   From: 2010.05.17/outbox.cif.g08.bks.cpg/sg39_8_cif.got.tgz:15126.got - 2010.06.03 18:22:40.
