data_PCOD9361900
_publ_section_title
;
Structure prediction by ZEFSAII (Michael W. Deem and Ramdas Pophale) SiO2 
 PCOD9361900
Probable space group: A B M 2
;
_chemical_formula_sum "Si O2"
_cell_formula_units_Z 24
_cell_length_a 4.830593
_cell_length_b 18.669992
_cell_length_c 9.149494
_cell_angle_alpha 90.000000
_cell_angle_beta 90.000000
_cell_angle_gamma 90.000000
_cell_volume 825.166629
_symmetry_space_group_name_H-M "A B M 2"
_symmetry_group_IT_number 39
_symmetry_cell_setting 'orthorhombic'
loop_
_space_group_symop_operation_xyz
x,y,z
-x,-y,z
-x,1/2+y,z
x,1/2-y,z
x,1/2+y,1/2+z
-x,1/2-y,1/2+z
-x,y,1/2+z
x,-y,1/2+z
loop_
_atom_site_type_symbol
_atom_site_label
_atom_site_fract_x
_atom_site_fract_y
_atom_site_fract_z
Si Si1 0.972944 0.831422 0.432760
Si Si2 0.604074 0.671548 0.177308
Si Si3 0.248030 0.049404 0.738926
O O1 0.063201 0.750000 0.386885
O O2 0.102791 0.833518 0.595120
O O3 0.114216 0.900984 0.361809
O O4 0.674868 0.832939 0.350021
O O5 0.484394 0.750000 0.142633
O O6 0.405932 0.606310 0.135267
O O7 0.500000 0.000000 0.792880
O O8 0.000000 0.000000 0.678384
#
# Coordination Sequence:
#
# PCOD9361900 Si02
#       3
#     8   8   8
#     4  10  23  47  78 113 156 208 269 329 392 471
#     4  10  23  47  81 119 158 209 269 329 398 476
#     4  12  25  48  72 114 158 207 258 328 399 473
#
# _framework density 29.085035000000001
#
# number of rings (size 3 to 8) (size 9 to 14) (size 15 to 20)
#    0.000    1.333    3.333    1.000    0.000    4.000 
#    6.000    6.667    0.000    0.000    0.000    0.000 
#    0.000    0.000    0.000    0.000    0.000    0.000 
#
# Total GULP energy -67081.516265 kJ/mol
# GULP energy per Si atom -5590.126355 kJ/mol
# Density = 2.901884 g / cm^3
# Si number density = 29.085035 Si / 1000 Ang^3
#
#
#
# Elastic Constant Matrix: (Units=GPa)
#
#
# Indices 1 2 3 4 5 6 
#
# 1 175.8917 79.8191 5.1817 0.0000 0.0000 0.0000
# 2 79.8191 229.6476 30.0944 0.0000 0.0000 0.0000
# 3 5.1817 30.0944 119.9360 0.0000 0.0000 0.0000
# 4 0.0000 0.0000 0.0000 30.3036 0.0000 0.0000
# 5 0.0000 0.0000 0.0000 0.0000 14.6621 0.0000
# 6 0.0000 0.0000 0.0000 0.0000 0.0000 78.2527
#
#
#
# Elastic Compliance Matrix: (Units=1/GPa)
#
#
# Indices 1 2 3 4 5 6 
#
# 1 0.006761 -0.002390 0.000308 0.000000 0.000000 0.000000
# 2 -0.002390 0.005348 -0.001239 0.000000 0.000000 0.000000
# 3 0.000308 -0.001239 0.008635 0.000000 0.000000 0.000000
# 4 0.000000 0.000000 0.000000 0.032999 0.000000 0.000000
# 5 0.000000 0.000000 0.000000 0.000000 0.068203 0.000000
# 6 0.000000 0.000000 0.000000 0.000000 0.000000 0.012779
#
#
# Mechanical properties :
#
#
# Convention : Reuss Voigt Hill
#
# Bulk Modulus (GPa) = 70.91427 83.96286 77.43857
# Shear Modulus (GPa) = 34.23063 52.00236 43.11649
#
# Velocity S-wave (km/s) = 3.43434 4.23299 3.85441
# Velocity P-wave (km/s) = 6.33726 7.26785 6.81845
#
# Compressibility (1/GPa) = 0.01410153
#
# Stress axis : x y z
#
# Youngs Moduli (GPa) = 147.90869 187.00051 115.80423
#
# Poissons Ratio (x) = 0.44697 -0.03563
# Poissons Ratio (y) = 0.35354 0.14343
# Poissons Ratio (z) = -0.04551 0.23161
#
# Static dielectric constant tensor:
#      x y z
#    x 2.271220 0.000000 0.000000 
#    y 0.000000 2.252570 0.000000 
#    z 0.000000 0.000000 2.460850 
# 
# From -- ./inp_files/4257.got.cif
#   From: 2010.05.17/outbox.cif.g08.bks.cpg/sg39_3_cif.got.tgz:4257.got - 2010.06.03 18:22:40.
