data_PCOD9361674
_publ_section_title
;
Structure prediction by ZEFSAII (Michael W. Deem and Ramdas Pophale) SiO2 
 PCOD9361674
Probable space group: A B M 2
;
_chemical_formula_sum "Si O2"
_cell_formula_units_Z 64
_cell_length_a 14.764459
_cell_length_b 9.059795
_cell_length_c 25.322974
_cell_angle_alpha 90.000000
_cell_angle_beta 90.000000
_cell_angle_gamma 90.000000
_cell_volume 3387.276258
_symmetry_space_group_name_H-M "A B M 2"
_symmetry_group_IT_number 39
_symmetry_cell_setting 'orthorhombic'
loop_
_space_group_symop_operation_xyz
x,y,z
-x,-y,z
-x,1/2+y,z
x,1/2-y,z
x,1/2+y,1/2+z
-x,1/2-y,1/2+z
-x,y,1/2+z
x,-y,1/2+z
loop_
_atom_site_type_symbol
_atom_site_label
_atom_site_fract_x
_atom_site_fract_y
_atom_site_fract_z
Si Si1 0.228739 0.073024 0.489940
Si Si2 0.219752 0.572074 0.790159
Si Si3 0.099233 0.572389 0.892167
Si Si4 0.154833 0.917363 0.676313
Si Si5 0.592912 0.926126 0.757442
Si Si6 0.911989 0.923155 0.578201
Si Si7 0.406260 0.073422 0.027216
Si Si8 0.366596 0.419215 0.148993
O O1 0.243982 0.250000 0.487321
O O2 0.161357 0.032041 0.442453
O O3 0.175291 0.037872 0.543785
O O4 0.323363 0.989532 0.493269
O O5 0.235879 0.750000 0.789374
O O6 0.159185 0.534480 0.840642
O O7 0.163160 0.537094 0.737084
O O8 0.316797 0.491972 0.785134
O O9 0.087579 0.750000 0.892914
O O10 0.000000 0.500000 0.892511
O O11 0.119032 0.750000 0.672667
O O12 0.258233 0.915304 0.655503
O O13 0.101548 0.023199 0.637699
O O14 0.590333 0.750000 0.762074
O O15 0.500000 0.000000 0.777805
O O16 0.600372 0.974904 0.695719
O O17 0.924283 0.750000 0.575738
O O18 0.000000 0.000000 0.554734
O O19 0.409589 0.250000 0.023786
O O20 0.391125 0.035520 0.089567
O O21 0.500000 0.000000 0.010497
O O22 0.399316 0.250000 0.158223
#
# Coordination Sequence:
#
# PCOD9361674 Si02
#       8
#     8   8   8   8   8   8   8   8
#     4  10  22  40  60  85 116 150 193 243 292 343
#     4   9  20  39  60  84 116 151 191 242 293 343
#     4  10  22  42  67  90 114 148 193 246 298 349
#     4   9  17  33  54  79 114 150 185 228 283 340
#     4  11  21  33  54  84 119 158 198 239 285 342
#     4  11  22  34  53  81 114 150 188 231 284 346
#     4  11  22  36  57  85 118 157 196 238 287 344
#     4   9  18  33  53  80 115 156 196 235 282 337
#
# _framework density 18.894237
#
# number of rings (size 3 to 8) (size 9 to 14) (size 15 to 20)
#    0.000    2.000    1.250    3.375    0.000    6.000 
#    0.000    1.875    0.000    0.000    0.000    0.000 
#    0.000    0.000    0.000    0.000    0.000    0.000 
#
# Total GULP energy -178641.559094 kJ/mol
# GULP energy per Si atom -5582.548722 kJ/mol
# Density = 1.885123 g / cm^3
# Si number density = 18.894237 Si / 1000 Ang^3
#
#
#
# Elastic Constant Matrix: (Units=GPa)
#
#
# Indices 1 2 3 4 5 6 
#
# 1 146.7649 64.7861 64.2431 0.0000 0.0000 0.0000
# 2 64.7861 57.7051 42.4571 0.0000 0.0000 0.0000
# 3 64.2431 42.4571 102.5051 0.0000 0.0000 0.0000
# 4 0.0000 0.0000 0.0000 20.7717 0.0000 0.0000
# 5 0.0000 0.0000 0.0000 0.0000 17.2641 0.0000
# 6 0.0000 0.0000 0.0000 0.0000 0.0000 35.2185
#
#
#
# Elastic Compliance Matrix: (Units=1/GPa)
#
#
# Indices 1 2 3 4 5 6 
#
# 1 0.014250 -0.013560 -0.003315 0.000000 0.000000 0.000000
# 2 -0.013560 0.037829 -0.007170 0.000000 0.000000 0.000000
# 3 -0.003315 -0.007170 0.014803 0.000000 0.000000 0.000000
# 4 0.000000 0.000000 0.000000 0.048142 0.000000 0.000000
# 5 0.000000 0.000000 0.000000 0.000000 0.057924 0.000000
# 6 0.000000 0.000000 0.000000 0.000000 0.000000 0.028394
#
#
# Mechanical properties :
#
#
# Convention : Reuss Voigt Hill
#
# Bulk Modulus (GPa) = 53.21251 72.21643 62.71447
# Shear Modulus (GPa) = 19.55443 23.68345 21.61894
#
# Velocity S-wave (km/s) = 3.22054 3.54429 3.38628
# Velocity P-wave (km/s) = 6.48488 7.41982 6.96805
#
# Compressibility (1/GPa) = 0.01879257
#
# Stress axis : x y z
#
# Youngs Moduli (GPa) = 70.17346 26.43459 67.55519
#
# Poissons Ratio (x) = 0.35846 0.22391
# Poissons Ratio (y) = 0.95158 0.48437
# Poissons Ratio (z) = 0.23259 0.18954
#
# Static dielectric constant tensor:
#      x y z
#    x 1.656940 0.000000 0.000000 
#    y 0.000000 1.638080 0.000000 
#    z 0.000000 0.000000 1.653300 
# 
# From -- ./inp_files/16199.got.cif
#   From: 2010.05.17/outbox.cif.g08.bks.cpg/sg39_9_cif.got.tgz:16199.got - 2010.06.03 18:22:40.
