data_PCOD9361194
_publ_section_title
;
Structure prediction by ZEFSAII (Michael W. Deem and Ramdas Pophale) SiO2 
 PCOD9361194
Probable space group: A B M 2
;
_chemical_formula_sum "Si O2"
_cell_formula_units_Z 40
_cell_length_a 10.022396
_cell_length_b 10.640341
_cell_length_c 19.058629
_cell_angle_alpha 90.000000
_cell_angle_beta 90.000000
_cell_angle_gamma 90.000000
_cell_volume 2032.444807
_symmetry_space_group_name_H-M "A B M 2"
_symmetry_group_IT_number 39
_symmetry_cell_setting 'orthorhombic'
loop_
_space_group_symop_operation_xyz
x,y,z
-x,-y,z
-x,1/2+y,z
x,1/2-y,z
x,1/2+y,1/2+z
-x,1/2-y,1/2+z
-x,y,1/2+z
x,-y,1/2+z
loop_
_atom_site_type_symbol
_atom_site_label
_atom_site_fract_x
_atom_site_fract_y
_atom_site_fract_z
Si Si1 0.599398 0.750000 0.833530
Si Si2 0.124594 0.250000 0.287916
Si Si3 0.850619 0.250000 0.949103
Si Si4 0.500000 0.500000 0.780770
Si Si5 0.774065 0.984139 0.195563
Si Si6 0.844951 0.750000 0.739339
Si Si7 0.839395 0.001190 0.537692
Si Si8 0.173634 0.750000 0.451230
O O1 0.514146 0.623759 0.828723
O O2 0.693049 0.750000 0.764817
O O3 0.715555 0.750000 0.890796
O O4 0.188821 0.250000 0.366031
O O5 0.160382 0.371330 0.240503
O O6 0.963853 0.250000 0.295272
O O7 0.012286 0.250000 0.943442
O O8 0.809279 0.373163 0.994201
O O9 0.629036 0.491693 0.731232
O O10 0.854666 0.115679 0.202342
O O11 0.769748 0.972000 0.112067
O O12 0.802987 0.120136 0.491045
O O13 0.000000 0.000000 0.550002
#
# Coordination Sequence:
#
# PCOD9361194 Si02
#       8
#     4   4   4   4   8   4   8   4
#     4  10  21  41  60  88 118 166 209 267 312 365
#     4  12  22  35  64 101 125 159 215 269 322 382
#     4  10  23  36  61  98 139 159 199 253 331 401
#     4  10  24  42  64  84 124 168 224 266 306 358
#     4  11  23  40  64  90 129 167 219 264 313 377
#     4  10  21  34  63  92 123 157 203 263 332 374
#     4  10  21  38  61  93 132 168 202 258 332 398
#     4  10  21  38  62  87 131 169 198 250 335 384
#
# _framework density 19.680731999999999
#
# number of rings (size 3 to 8) (size 9 to 14) (size 15 to 20)
#    0.000    1.600    1.000    3.600    5.600    3.200 
#    0.000    1.000    0.000    0.000    0.000    0.000 
#    0.000    0.000    0.000    0.000    0.000    0.000 
#
# Total GULP energy -111357.787405 kJ/mol
# GULP energy per Si atom -5567.889370 kJ/mol
# Density = 1.963594 g / cm^3
# Si number density = 19.680732 Si / 1000 Ang^3
#
#
#
# Elastic Constant Matrix: (Units=GPa)
#
#
# Indices 1 2 3 4 5 6 
#
# 1 65.9471 33.4782 13.3616 0.0000 0.0000 0.0000
# 2 33.4782 187.3598 74.1945 0.0000 0.0000 0.0000
# 3 13.3616 74.1945 98.9666 0.0000 0.0000 0.0000
# 4 0.0000 0.0000 0.0000 8.8736 0.0000 0.0000
# 5 0.0000 0.0000 0.0000 0.0000 70.3488 0.0000
# 6 0.0000 0.0000 0.0000 0.0000 0.0000 -30.2536
#
#
#
# Elastic Compliance Matrix: (Units=1/GPa)
#
#
# Indices 1 2 3 4 5 6 
#
# 1 0.016676 -0.002970 -0.000025 0.000000 0.000000 0.000000
# 2 -0.002970 0.008120 -0.005686 0.000000 0.000000 0.000000
# 3 -0.000025 -0.005686 0.014371 0.000000 0.000000 0.000000
# 4 0.000000 0.000000 0.000000 0.112693 0.000000 0.000000
# 5 0.000000 0.000000 0.000000 0.000000 0.014215 0.000000
# 6 0.000000 0.000000 0.000000 0.000000 0.000000 -0.033054
#
#
# Mechanical properties :
#
#
# Convention : Reuss Voigt Hill
#
# Bulk Modulus (GPa) = 45.86211 66.03801 55.95006
# Shear Modulus (GPa) = 31.71538 25.20970 28.46254
#
# Velocity S-wave (km/s) = 4.01870 3.58290 3.80704
# Velocity P-wave (km/s) = 6.69977 7.12346 6.91486
#
# Compressibility (1/GPa) = 0.02180449
#
# Stress axis : x y z
#
# Youngs Moduli (GPa) = 59.96489 123.15562 69.58543
#
# Poissons Ratio (x) = 0.36576 0.00174
# Poissons Ratio (y) = 0.17809 0.39569
# Poissons Ratio (z) = 0.00150 0.70031
#
# Static dielectric constant tensor:
#      x y z
#    x 1.687310 0.000000 0.000000 
#    y 0.000000 1.734650 0.000000 
#    z 0.000000 0.000000 1.699740 
# 
# From -- ./inp_files/11411.got.cif
#   From: 2010.05.17/outbox.cif.g08.bks.cpg/sg39_6_cif.got.tgz:11411.got - 2010.06.03 18:22:40.
