data_PCOD9361088
_publ_section_title
;
Structure prediction by ZEFSAII (Michael W. Deem and Ramdas Pophale) SiO2 
 PCOD9361088
Probable space group: A B M 2
;
_chemical_formula_sum "Si O2"
_cell_formula_units_Z 44
_cell_length_a 9.223543
_cell_length_b 27.074981
_cell_length_c 8.679194
_cell_angle_alpha 90.000000
_cell_angle_beta 90.000000
_cell_angle_gamma 90.000000
_cell_volume 2167.431263
_symmetry_space_group_name_H-M "A B M 2"
_symmetry_group_IT_number 39
_symmetry_cell_setting 'orthorhombic'
loop_
_space_group_symop_operation_xyz
x,y,z
-x,-y,z
-x,1/2+y,z
x,1/2-y,z
x,1/2+y,1/2+z
-x,1/2-y,1/2+z
-x,y,1/2+z
x,-y,1/2+z
loop_
_atom_site_type_symbol
_atom_site_label
_atom_site_fract_x
_atom_site_fract_y
_atom_site_fract_z
Si Si1 0.951532 0.196899 0.161500
Si Si2 0.580662 0.309094 0.712815
Si Si3 0.000000 0.000000 0.668618
Si Si4 0.156209 0.355939 0.365419
Si Si5 0.905264 0.428717 0.419381
Si Si6 0.295030 0.165898 0.877514
O O1 0.022489 0.250000 0.150462
O O2 0.837964 0.195835 0.301829
O O3 0.071199 0.157655 0.208589
O O4 0.878027 0.182453 0.002414
O O5 0.590326 0.250000 0.751805
O O6 0.680121 0.344981 0.818836
O O7 0.419229 0.328360 0.747957
O O8 0.634736 0.315266 0.536636
O O9 0.902808 0.964783 0.773841
O O10 0.098602 0.964008 0.566137
O O11 0.068601 0.404453 0.418630
O O12 0.781251 0.387357 0.405184
#
# Coordination Sequence:
#
# PCOD9361088 Si02
#       6
#     8   8   4   8   8   8
#     4  11  20  34  53  82 117 159 201 245 279 335
#     4  12  23  38  58  87 124 171 203 234 275 344
#     4  10  20  38  70  90 112 136 198 248 312 374
#     4  11  22  35  58  86 122 153 198 239 293 344
#     4  10  21  40  63  92 112 150 187 252 307 354
#     4  11  24  39  58  82 122 158 205 244 294 346
#
# _framework density 20.300528
#
# number of rings (size 3 to 8) (size 9 to 14) (size 15 to 20)
#    0.000    1.091    0.000    9.818    0.000    0.000 
#    0.000    0.000    0.000   18.545    0.000    0.000 
#    0.000    0.000    0.000    0.000    0.000    0.000 
#
# Total GULP energy -122714.623212 kJ/mol
# GULP energy per Si atom -5577.937419 kJ/mol
# Density = 2.025432 g / cm^3
# Si number density = 20.300528 Si / 1000 Ang^3
#
#
#
# Elastic Constant Matrix: (Units=GPa)
#
#
# Indices 1 2 3 4 5 6 
#
# 1 96.6269 32.0273 11.5698 0.0000 0.0000 0.0000
# 2 32.0273 114.1600 29.5930 0.0000 0.0000 0.0000
# 3 11.5698 29.5930 90.6131 0.0000 0.0000 0.0000
# 4 0.0000 0.0000 0.0000 31.2624 0.0000 0.0000
# 5 0.0000 0.0000 0.0000 0.0000 29.2335 0.0000
# 6 0.0000 0.0000 0.0000 0.0000 0.0000 -0.2362
#
#
#
# Elastic Compliance Matrix: (Units=1/GPa)
#
#
# Indices 1 2 3 4 5 6 
#
# 1 0.011427 -0.003089 -0.000450 0.000000 0.000000 0.000000
# 2 -0.003089 0.010405 -0.003004 0.000000 0.000000 0.000000
# 3 -0.000450 -0.003004 0.012074 0.000000 0.000000 0.000000
# 4 0.000000 0.000000 0.000000 0.031987 0.000000 0.000000
# 5 0.000000 0.000000 0.000000 0.000000 0.034207 0.000000
# 6 0.000000 0.000000 0.000000 0.000000 0.000000 -4.232891
#
#
# Mechanical properties :
#
#
# Convention : Reuss Voigt Hill
#
# Bulk Modulus (GPa) = 48.03007 49.75335 48.89171
# Shear Modulus (GPa) = -1.21573 27.26593 13.02510
#
# Velocity S-wave (km/s) = -0.77470 3.66883 2.53576
# Velocity P-wave (km/s) = 4.78651 6.51987 5.71924
#
# Compressibility (1/GPa) = 0.02082029
#
# Stress axis : x y z
#
# Youngs Moduli (GPa) = 87.51303 96.10862 82.82005
#
# Poissons Ratio (x) = 0.29689 0.03728
# Poissons Ratio (y) = 0.27034 0.24876
# Poissons Ratio (z) = 0.03940 0.28868
#
# Static dielectric constant tensor:
#      x y z
#    x 1.731690 0.000000 0.000000 
#    y 0.000000 1.719490 0.000000 
#    z 0.000000 0.000000 1.762410 
# 
# From -- ./inp_files/2246.got.cif
#   From: 2010.05.17/outbox.cif.g08.bks.cpg/sg39_2_cif.got.tgz:2246.got - 2010.06.03 18:22:40.
