data_PCOD9361794
_publ_section_title
;
Structure prediction by ZEFSAII (Michael W. Deem and Ramdas Pophale) SiO2 
 PCOD9361794
Probable space group: A B M 2
;
_chemical_formula_sum "Si O2"
_cell_formula_units_Z 56
_cell_length_a 5.301079
_cell_length_b 29.058238
_cell_length_c 14.773695
_cell_angle_alpha 90.000000
_cell_angle_beta 90.000000
_cell_angle_gamma 90.000000
_cell_volume 2275.740203
_symmetry_space_group_name_H-M "A B M 2"
_symmetry_group_IT_number 39
_symmetry_cell_setting 'orthorhombic'
loop_
_space_group_symop_operation_xyz
x,y,z
-x,-y,z
-x,1/2+y,z
x,1/2-y,z
x,1/2+y,1/2+z
-x,1/2-y,1/2+z
-x,y,1/2+z
x,-y,1/2+z
loop_
_atom_site_type_symbol
_atom_site_label
_atom_site_fract_x
_atom_site_fract_y
_atom_site_fract_z
Si Si1 0.477011 0.881063 0.630040
Si Si2 0.756939 0.527823 0.892974
Si Si3 0.868886 0.803767 0.204510
Si Si4 0.036458 0.300021 0.507049
Si Si5 0.525865 0.343980 0.447890
Si Si6 0.211548 0.376219 0.792251
Si Si7 0.753806 0.472753 0.612029
O O1 0.549553 0.881424 0.524049
O O2 0.712549 0.891567 0.692392
O O3 0.273653 0.920816 0.647103
O O4 0.366900 0.831642 0.661101
O O5 0.500000 0.500000 0.867214
O O6 0.811243 0.578336 0.852742
O O7 0.000000 0.500000 0.863156
O O8 0.758665 0.530061 0.002385
O O9 0.820561 0.750000 0.229786
O O10 0.004593 0.836101 0.278789
O O11 0.051818 0.802360 0.115857
O O12 0.935606 0.250000 0.482485
O O13 0.311158 0.306871 0.465820
O O14 0.817170 0.333797 0.473693
O O15 0.543708 0.354675 0.342904
O O16 0.500000 0.500000 0.637455
O O17 0.000000 0.500000 0.641910
#
# Coordination Sequence:
#
# PCOD9361794 Si02
#       7
#     8   8   8   8   8   8   8
#     4  11  25  47  71 107 147 193 245 304 366 438
#     4  10  24  46  73 106 146 188 239 302 364 431
#     4  10  25  46  70 103 146 194 247 306 363 429
#     4  10  22  44  69  96 137 187 243 300 358 424
#     4  11  24  43  70 100 140 189 238 293 367 425
#     4  12  26  45  74 107 146 194 244 305 364 442
#     4  10  23  45  76 107 143 191 240 294 366 439
#
# _framework density 24.607378000000001
#
# number of rings (size 3 to 8) (size 9 to 14) (size 15 to 20)
#    0.000    1.429    2.857    0.429    6.000    2.857 
#    0.000    0.000    0.000    0.000    0.000    0.000 
#    0.000    0.000    0.000    0.000    0.000    0.000 
#
# Total GULP energy -156393.495394 kJ/mol
# GULP energy per Si atom -5585.481978 kJ/mol
# Density = 2.455137 g / cm^3
# Si number density = 24.607378 Si / 1000 Ang^3
#
#
#
# Elastic Constant Matrix: (Units=GPa)
#
#
# Indices 1 2 3 4 5 6 
#
# 1 122.4588 49.4326 18.2412 0.0000 0.0000 0.0000
# 2 49.4326 138.2247 5.2931 0.0000 0.0000 0.0000
# 3 18.2412 5.2931 60.3194 0.0000 0.0000 0.0000
# 4 0.0000 0.0000 0.0000 49.2300 0.0000 0.0000
# 5 0.0000 0.0000 0.0000 0.0000 14.4745 0.0000
# 6 0.0000 0.0000 0.0000 0.0000 0.0000 12.8396
#
#
#
# Elastic Compliance Matrix: (Units=1/GPa)
#
#
# Indices 1 2 3 4 5 6 
#
# 1 0.009967 -0.003461 -0.002710 0.000000 0.000000 0.000000
# 2 -0.003461 0.008461 0.000304 0.000000 0.000000 0.000000
# 3 -0.002710 0.000304 0.017371 0.000000 0.000000 0.000000
# 4 0.000000 0.000000 0.000000 0.020313 0.000000 0.000000
# 5 0.000000 0.000000 0.000000 0.000000 0.069087 0.000000
# 6 0.000000 0.000000 0.000000 0.000000 0.000000 0.077884
#
#
# Mechanical properties :
#
#
# Convention : Reuss Voigt Hill
#
# Bulk Modulus (GPa) = 41.55422 51.88184 46.71803
# Shear Modulus (GPa) = 22.43783 31.84455 27.14119
#
# Velocity S-wave (km/s) = 3.02293 3.60127 3.32470
# Velocity P-wave (km/s) = 5.39516 6.19853 5.81075
#
# Compressibility (1/GPa) = 0.02406495
#
# Stress axis : x y z
#
# Youngs Moduli (GPa) = 100.33474 118.19604 57.56596
#
# Poissons Ratio (x) = 0.40902 0.15602
# Poissons Ratio (y) = 0.34721 -0.01750
# Poissons Ratio (z) = 0.27194 -0.03594
#
# Static dielectric constant tensor:
#      x y z
#    x 1.949290 0.000000 0.000000 
#    y 0.000000 2.050570 0.000000 
#    z 0.000000 0.000000 1.998430 
# 
# From -- ./inp_files/7682.got.cif
#   From: 2010.05.17/outbox.cif.g08.bks.cpg/sg39_4_cif.got.tgz:7682.got - 2010.06.03 18:22:40.
