data_PCOD9361256
_publ_section_title
;
Structure prediction by ZEFSAII (Michael W. Deem and Ramdas Pophale) SiO2 
 PCOD9361256
Probable space group: A B M 2
;
_chemical_formula_sum "Si O2"
_cell_formula_units_Z 56
_cell_length_a 9.465156
_cell_length_b 14.552161
_cell_length_c 20.788853
_cell_angle_alpha 90.000000
_cell_angle_beta 90.000000
_cell_angle_gamma 90.000000
_cell_volume 2863.424888
_symmetry_space_group_name_H-M "A B M 2"
_symmetry_group_IT_number 39
_symmetry_cell_setting 'orthorhombic'
loop_
_space_group_symop_operation_xyz
x,y,z
-x,-y,z
-x,1/2+y,z
x,1/2-y,z
x,1/2+y,1/2+z
-x,1/2-y,1/2+z
-x,y,1/2+z
x,-y,1/2+z
loop_
_atom_site_type_symbol
_atom_site_label
_atom_site_fract_x
_atom_site_fract_y
_atom_site_fract_z
Si Si1 0.583192 0.860188 0.532470
Si Si2 0.833231 0.141199 0.116467
Si Si3 0.017449 0.139102 0.993100
Si Si4 0.913338 0.593701 0.760130
Si Si5 0.343816 0.478320 0.833798
Si Si6 0.681381 0.048548 0.478841
Si Si7 0.139439 0.851409 0.859018
O O1 0.598035 0.750000 0.517360
O O2 0.668981 0.877580 0.598770
O O3 0.421905 0.893270 0.525824
O O4 0.655413 0.939263 0.488208
O O5 0.844967 0.250000 0.116375
O O6 0.889945 0.111551 0.185133
O O7 0.927792 0.110933 0.055744
O O8 0.042712 0.250000 0.996103
O O9 0.161764 0.083093 0.990630
O O10 0.935606 0.122724 0.926205
O O11 0.758504 0.584830 0.791307
O O12 0.000000 0.500000 0.764498
O O13 0.016295 0.653562 0.804976
O O14 0.500000 0.500000 0.808436
O O15 0.255322 0.572838 0.841550
O O16 0.358023 0.433682 0.904561
O O17 0.203214 0.750000 0.866505
#
# Coordination Sequence:
#
# PCOD9361256 Si02
#       7
#     8   8   8   8   8   8   8
#     4  10  22  38  58  89 126 161 202 252 312 376
#     4  10  22  40  60  89 125 161 205 255 309 370
#     4  10  21  36  62  97 124 156 206 258 311 374
#     4  10  22  40  63  88 123 166 212 256 305 379
#     4  11  22  40  58  91 125 164 208 255 312 387
#     4  11  21  38  63  90 126 162 200 260 321 366
#     4  10  21  40  65  91 123 160 207 268 318 369
#
# _framework density 19.556999000000001
#
# number of rings (size 3 to 8) (size 9 to 14) (size 15 to 20)
#    0.000    1.714    2.857    1.714    2.000    2.857 
#    2.571    1.429    0.000    1.714    0.000    0.000 
#    0.000    0.000    0.000    0.000    0.000    0.000 
#
# Total GULP energy -156055.289819 kJ/mol
# GULP energy per Si atom -5573.403208 kJ/mol
# Density = 1.951249 g / cm^3
# Si number density = 19.556999 Si / 1000 Ang^3
#
#
#
# Elastic Constant Matrix: (Units=GPa)
#
#
# Indices 1 2 3 4 5 6 
#
# 1 111.2358 43.1868 19.6611 0.0000 0.0000 0.0000
# 2 43.1868 83.3036 23.9554 0.0000 0.0000 0.0000
# 3 19.6611 23.9554 83.4395 0.0000 0.0000 0.0000
# 4 0.0000 0.0000 0.0000 -61.8802 0.0000 0.0000
# 5 0.0000 0.0000 0.0000 0.0000 28.4157 0.0000
# 6 0.0000 0.0000 0.0000 0.0000 0.0000 24.7834
#
#
#
# Elastic Compliance Matrix: (Units=1/GPa)
#
#
# Indices 1 2 3 4 5 6 
#
# 1 0.011343 -0.005572 -0.001073 0.000000 0.000000 0.000000
# 2 -0.005572 0.015822 -0.003229 0.000000 0.000000 0.000000
# 3 -0.001073 -0.003229 0.013165 0.000000 0.000000 0.000000
# 4 0.000000 0.000000 0.000000 -0.016160 0.000000 0.000000
# 5 0.000000 0.000000 0.000000 0.000000 0.035192 0.000000
# 6 0.000000 0.000000 0.000000 0.000000 0.000000 0.040350
#
#
# Mechanical properties :
#
#
# Convention : Reuss Voigt Hill
#
# Bulk Modulus (GPa) = 48.58988 50.17616 49.38302
# Shear Modulus (GPa) = 39.58229 11.00883 25.29556
#
# Velocity S-wave (km/s) = 4.50371 2.37515 3.60033
# Velocity P-wave (km/s) = 7.20720 5.76488 6.52601
#
# Compressibility (1/GPa) = 0.02058042
#
# Stress axis : x y z
#
# Youngs Moduli (GPa) = 88.16148 63.20497 75.96041
#
# Poissons Ratio (x) = 0.35217 0.08151
# Poissons Ratio (y) = 0.49122 0.24531
# Poissons Ratio (z) = 0.09460 0.20412
#
# Static dielectric constant tensor:
#      x y z
#    x 1.710920 0.000000 0.000000 
#    y 0.000000 1.759540 0.000000 
#    z 0.000000 0.000000 1.792370 
# 
# From -- ./inp_files/14065.got.cif
#   From: 2010.05.17/outbox.cif.g08.bks.cpg/sg39_8_cif.got.tgz:14065.got - 2010.06.03 18:22:40.
