data_PCOD9361849
_publ_section_title
;
Structure prediction by ZEFSAII (Michael W. Deem and Ramdas Pophale) SiO2 
 PCOD9361849
Probable space group: A B M 2
;
_chemical_formula_sum "Si O2"
_cell_formula_units_Z 36
_cell_length_a 5.427503
_cell_length_b 14.254449
_cell_length_c 18.658834
_cell_angle_alpha 90.000000
_cell_angle_beta 90.000000
_cell_angle_gamma 90.000000
_cell_volume 1443.560559
_symmetry_space_group_name_H-M "A B M 2"
_symmetry_group_IT_number 39
_symmetry_cell_setting 'orthorhombic'
loop_
_space_group_symop_operation_xyz
x,y,z
-x,-y,z
-x,1/2+y,z
x,1/2-y,z
x,1/2+y,1/2+z
-x,1/2-y,1/2+z
-x,y,1/2+z
x,-y,1/2+z
loop_
_atom_site_type_symbol
_atom_site_label
_atom_site_fract_x
_atom_site_fract_y
_atom_site_fract_z
Si Si1 0.000000 0.000000 0.062390
Si Si2 0.273094 0.359631 0.165797
Si Si3 0.202714 0.635448 0.830757
Si Si4 0.606411 0.142635 0.040258
Si Si5 0.298523 0.638087 0.407071
O O1 0.800319 0.062782 0.020714
O O2 0.111308 0.075637 0.116548
O O3 0.203223 0.250000 0.160837
O O4 0.241543 0.389537 0.247602
O O5 0.536438 0.365995 0.124403
O O6 0.200449 0.750000 0.833224
O O7 0.449699 0.604317 0.870656
O O8 0.950301 0.603412 0.869193
O O9 0.692463 0.250000 0.026029
O O10 0.361432 0.128950 0.991481
O O11 0.288688 0.750000 0.395325
#
# Coordination Sequence:
#
# PCOD9361849 Si02
#       5
#     4   8   8   8   8
#     4  12  24  40  66  98 142 182 244 298 352 426
#     4  10  23  42  68  98 135 185 238 295 363 430
#     4   9  19  37  65  99 133 175 229 288 351 422
#     4  10  23  42  68 101 142 191 240 294 362 434
#     4   9  19  37  65  98 134 177 229 286 351 422
#
# _framework density 24.938336
#
# number of rings (size 3 to 8) (size 9 to 14) (size 15 to 20)
#    0.000    2.222    0.000    1.333    6.222    0.000 
#    0.000    1.111    0.000    0.000    0.000    0.000 
#    0.000    0.000    0.000    0.000    0.000    0.000 
#
# Total GULP energy -100616.694001 kJ/mol
# GULP energy per Si atom -5589.816333 kJ/mol
# Density = 2.488157 g / cm^3
# Si number density = 24.938336 Si / 1000 Ang^3
#
#
#
# Elastic Constant Matrix: (Units=GPa)
#
#
# Indices 1 2 3 4 5 6 
#
# 1 144.6377 71.8342 102.7155 0.0000 0.0000 0.0000
# 2 71.8342 103.7334 34.0655 0.0000 0.0000 0.0000
# 3 102.7155 34.0655 186.3927 0.0000 0.0000 0.0000
# 4 0.0000 0.0000 0.0000 -8.8045 0.0000 0.0000
# 5 0.0000 0.0000 0.0000 0.0000 25.3674 0.0000
# 6 0.0000 0.0000 0.0000 0.0000 0.0000 36.9884
#
#
#
# Elastic Compliance Matrix: (Units=1/GPa)
#
#
# Indices 1 2 3 4 5 6 
#
# 1 0.016904 -0.009199 -0.007634 0.000000 0.000000 0.000000
# 2 -0.009199 0.015261 0.002280 0.000000 0.000000 0.000000
# 3 -0.007634 0.002280 0.009155 0.000000 0.000000 0.000000
# 4 0.000000 0.000000 0.000000 -0.113578 0.000000 0.000000
# 5 0.000000 0.000000 0.000000 0.000000 0.039421 0.000000
# 6 0.000000 0.000000 0.000000 0.000000 0.000000 0.027035
#
#
# Mechanical properties :
#
#
# Convention : Reuss Voigt Hill
#
# Bulk Modulus (GPa) = 81.86776 94.66601 88.26688
# Shear Modulus (GPa) = 182.64987 25.78683 104.21835
#
# Velocity S-wave (km/s) = 8.56736 3.21911 6.47156
# Velocity P-wave (km/s) = 11.43527 7.20134 9.55575
#
# Compressibility (1/GPa) = 0.01221482
#
# Stress axis : x y z
#
# Youngs Moduli (GPa) = 59.15909 65.52513 109.22801
#
# Poissons Ratio (x) = 0.60274 0.83384
# Poissons Ratio (y) = 0.54418 -0.24903
# Poissons Ratio (z) = 0.45161 -0.14939
#
# Static dielectric constant tensor:
#      x y z
#    x 2.052300 0.000000 0.000000 
#    y 0.000000 1.954160 0.000000 
#    z 0.000000 0.000000 1.967260 
# 
# From -- ./inp_files/13410.got.cif
#   From: 2010.05.17/outbox.cif.g08.bks.cpg/sg39_7_cif.got.tgz:13410.got - 2010.06.03 18:22:40.
