data_PCOD9361778
_publ_section_title
;
Structure prediction by ZEFSAII (Michael W. Deem and Ramdas Pophale) SiO2 
 PCOD9361778
Probable space group: A B M 2
;
_chemical_formula_sum "Si O2"
_cell_formula_units_Z 48
_cell_length_a 5.840499
_cell_length_b 26.114392
_cell_length_c 13.869592
_cell_angle_alpha 90.000000
_cell_angle_beta 90.000000
_cell_angle_gamma 90.000000
_cell_volume 2115.405156
_symmetry_space_group_name_H-M "A B M 2"
_symmetry_group_IT_number 39
_symmetry_cell_setting 'orthorhombic'
loop_
_space_group_symop_operation_xyz
x,y,z
-x,-y,z
-x,1/2+y,z
x,1/2-y,z
x,1/2+y,1/2+z
-x,1/2-y,1/2+z
-x,y,1/2+z
x,-y,1/2+z
loop_
_atom_site_type_symbol
_atom_site_label
_atom_site_fract_x
_atom_site_fract_y
_atom_site_fract_z
Si Si1 0.554544 0.308656 0.927950
Si Si2 0.248799 0.483236 0.863603
Si Si3 0.266749 0.127720 0.791967
Si Si4 0.249610 0.980472 0.584221
Si Si5 0.129061 0.306826 0.239997
Si Si6 0.578985 0.368270 0.608459
O O1 0.539435 0.250000 0.961116
O O2 0.338546 0.326749 0.864023
O O3 0.747346 0.310537 0.844334
O O4 0.567165 0.348469 0.016702
O O5 0.500000 0.500000 0.825589
O O6 0.244736 0.422499 0.854314
O O7 0.000000 0.500000 0.823733
O O8 0.249077 0.500742 0.974361
O O9 0.440316 0.117456 0.704944
O O10 0.041861 0.146346 0.739966
O O11 0.271906 0.918620 0.584764
O O12 0.500000 0.000000 0.622241
O O13 0.000000 0.000000 0.622212
O O14 0.028553 0.250000 0.231339
O O15 0.287132 0.318351 0.147889
#
# Coordination Sequence:
#
# PCOD9361778 Si02
#       6
#     8   8   8   8   8   8
#     4  10  22  43  69  95 134 181 231 289 355 426
#     4  10  23  43  72 100 135 183 232 286 350 418
#     4  11  24  42  67  98 137 179 230 290 351 425
#     4  10  23  43  70 102 139 182 236 292 349 420
#     4  10  24  43  67 100 137 179 233 292 356 429
#     4  11  24  42  68 100 139 181 234 291 357 426
#
# _framework density 22.69069
#
# number of rings (size 3 to 8) (size 9 to 14) (size 15 to 20)
#    0.000    1.667    1.667    1.000    7.000    5.333 
#    0.000    1.667    0.000    0.000    0.000    0.000 
#    0.000    0.000    0.000    0.000    0.000    0.000 
#
# Total GULP energy -133694.002411 kJ/mol
# GULP energy per Si atom -5570.583434 kJ/mol
# Density = 2.263904 g / cm^3
# Si number density = 22.690690 Si / 1000 Ang^3
#
#
#
# Elastic Constant Matrix: (Units=GPa)
#
#
# Indices 1 2 3 4 5 6 
#
# 1 113.3590 38.2944 4.1887 0.0000 0.0000 0.0000
# 2 38.2944 110.8805 -0.8727 0.0000 0.0000 0.0000
# 3 4.1887 -0.8727 89.7748 0.0000 0.0000 0.0000
# 4 0.0000 0.0000 0.0000 21.1645 0.0000 0.0000
# 5 0.0000 0.0000 0.0000 0.0000 -29.5517 0.0000
# 6 0.0000 0.0000 0.0000 0.0000 0.0000 31.5986
#
#
#
# Elastic Compliance Matrix: (Units=1/GPa)
#
#
# Indices 1 2 3 4 5 6 
#
# 1 0.010009 -0.003461 -0.000501 0.000000 0.000000 0.000000
# 2 -0.003461 0.010216 0.000261 0.000000 0.000000 0.000000
# 3 -0.000501 0.000261 0.011165 0.000000 0.000000 0.000000
# 4 0.000000 0.000000 0.000000 0.047249 0.000000 0.000000
# 5 0.000000 0.000000 0.000000 0.000000 -0.033839 0.000000
# 6 0.000000 0.000000 0.000000 0.000000 0.000000 0.031647
#
#
# Mechanical properties :
#
#
# Convention : Reuss Voigt Hill
#
# Bulk Modulus (GPa) = 41.68617 44.13722 42.91170
# Shear Modulus (GPa) = 54.43991 22.80254 38.62122
#
# Velocity S-wave (km/s) = 4.90349 3.17350 4.13010
# Velocity P-wave (km/s) = 7.10425 5.73777 6.45726
#
# Compressibility (1/GPa) = 0.02398877
#
# Stress axis : x y z
#
# Youngs Moduli (GPa) = 99.90883 97.88571 89.56655
#
# Poissons Ratio (x) = 0.33876 0.04484
# Poissons Ratio (y) = 0.34576 -0.02336
# Poissons Ratio (z) = 0.05002 -0.02553
#
# Static dielectric constant tensor:
#      x y z
#    x 2.038960 0.000000 0.000000 
#    y 0.000000 1.965190 0.000000 
#    z 0.000000 0.000000 1.824840 
# 
# From -- ./inp_files/7551.got.cif
#   From: 2010.05.17/outbox.cif.g08.bks.cpg/sg39_4_cif.got.tgz:7551.got - 2010.06.03 18:22:40.
