data_PCOD9362344
_publ_section_title
;
Structure prediction by ZEFSAII (Michael W. Deem and Ramdas Pophale) SiO2 
 PCOD9362344
Probable space group: A M A 2
;
_chemical_formula_sum "Si O2"
_cell_formula_units_Z 44
_cell_length_a 14.012329
_cell_length_b 8.899553
_cell_length_c 17.938262
_cell_angle_alpha 90.000000
_cell_angle_beta 90.000000
_cell_angle_gamma 90.000000
_cell_volume 2236.963420
_symmetry_space_group_name_H-M "A M A 2"
_symmetry_group_IT_number 40
_symmetry_cell_setting 'orthorhombic'
loop_
_space_group_symop_operation_xyz
x,y,z
-x,-y,z
1/2-x,y,z
1/2+x,-y,z
x,1/2+y,1/2+z
-x,1/2-y,1/2+z
1/2-x,1/2+y,1/2+z
1/2+x,1/2-y,1/2+z
loop_
_atom_site_type_symbol
_atom_site_label
_atom_site_fract_x
_atom_site_fract_y
_atom_site_fract_z
Si Si1 0.750000 0.986065 0.017200
Si Si2 0.406485 0.051212 0.399269
Si Si3 0.750000 0.429056 0.098396
Si Si4 0.750000 0.647545 0.954828
Si Si5 0.412205 0.097694 0.129089
Si Si6 0.750000 0.709690 0.207723
Si Si7 0.046551 0.651146 0.066760
Si Si8 0.250000 0.294149 0.372555
O O1 0.657031 0.991209 0.071125
O O2 0.750000 0.815940 0.983949
O O3 0.750000 0.102957 0.947397
O O4 0.439646 0.118580 0.479259
O O5 0.340164 0.182724 0.370583
O O6 0.500000 0.000000 0.356151
O O7 0.343211 0.901779 0.409965
O O8 0.750000 0.563837 0.156113
O O9 0.847159 0.334386 0.099976
O O10 0.750000 0.523828 0.021192
O O11 0.341554 0.185863 0.185589
O O12 0.470635 0.220368 0.081177
O O13 0.500000 0.000000 0.161690
O O14 0.750000 0.639239 0.290230
O O15 0.000000 0.500000 0.099903
#
# Coordination Sequence:
#
# PCOD9362344 Si02
#       8
#     4   8   4   4   8   4   8   4
#     4  11  20  37  59  93 126 148 192 264 321 342
#     4   9  18  33  58  85 109 152 203 242 286 358
#     4  10  17  34  63  88 117 155 204 242 286 364
#     4   9  16  31  58  88 111 143 188 256 294 333
#     4  11  22  36  63  91 121 150 205 264 307 347
#     4  11  23  41  56  81 127 172 190 244 315 374
#     4  10  17  32  64  92 113 146 205 256 297 345
#     4  11  24  37  58  82 125 164 196 238 318 381
#
# _framework density 19.669521
#
# number of rings (size 3 to 8) (size 9 to 14) (size 15 to 20)
#    0.000    1.818    3.636    3.818    0.000    2.182 
#    0.000    0.000   28.000    0.000    0.000    0.000 
#    0.000    0.000    0.000    0.000    0.000    0.000 
#
# Total GULP energy -122554.728911 kJ/mol
# GULP energy per Si atom -5570.669496 kJ/mol
# Density = 1.962475 g / cm^3
# Si number density = 19.669521 Si / 1000 Ang^3
#
#
#
# Elastic Constant Matrix: (Units=GPa)
#
#
# Indices 1 2 3 4 5 6 
#
# 1 159.0002 38.8119 29.7557 0.0000 0.0000 0.0000
# 2 38.8119 76.4619 6.5415 0.0000 0.0000 0.0000
# 3 29.7557 6.5415 53.9172 0.0000 0.0000 0.0000
# 4 0.0000 0.0000 0.0000 5.5009 0.0000 0.0000
# 5 0.0000 0.0000 0.0000 0.0000 16.8313 0.0000
# 6 0.0000 0.0000 0.0000 0.0000 0.0000 22.1043
#
#
#
# Elastic Compliance Matrix: (Units=1/GPa)
#
#
# Indices 1 2 3 4 5 6 
#
# 1 0.007924 -0.003686 -0.003926 0.000000 0.000000 0.000000
# 2 -0.003686 0.014930 0.000223 0.000000 0.000000 0.000000
# 3 -0.003926 0.000223 0.020686 0.000000 0.000000 0.000000
# 4 0.000000 0.000000 0.000000 0.181787 0.000000 0.000000
# 5 0.000000 0.000000 0.000000 0.000000 0.059413 0.000000
# 6 0.000000 0.000000 0.000000 0.000000 0.000000 0.045240
#
#
# Mechanical properties :
#
#
# Convention : Reuss Voigt Hill
#
# Bulk Modulus (GPa) = 34.76740 48.84417 41.80579
# Shear Modulus (GPa) = 14.11048 23.17200 18.64124
#
# Velocity S-wave (km/s) = 2.68130 3.43602 3.08185
# Velocity P-wave (km/s) = 5.22494 6.37401 5.82786
#
# Compressibility (1/GPa) = 0.02876257
#
# Stress axis : x y z
#
# Youngs Moduli (GPa) = 126.20243 66.97720 48.34084
#
# Poissons Ratio (x) = 0.24689 0.18977
# Poissons Ratio (y) = 0.46521 -0.01078
# Poissons Ratio (z) = 0.49544 -0.01493
#
# Static dielectric constant tensor:
#      x y z
#    x 1.787920 0.000000 0.000000 
#    y 0.000000 1.712950 0.000000 
#    z 0.000000 0.000000 1.679410 
# 
# From -- ./inp_files/20508.got.cif
#   From: 2010.05.17/outbox.cif.g08.bks.cpg/sg40_11_cif.got.tgz:20508.got - 2010.06.03 18:35:42.
