data_PCOD9362120
_publ_section_title
;
Structure prediction by ZEFSAII (Michael W. Deem and Ramdas Pophale) SiO2 
 PCOD9362120
Probable space group: A B M 2
;
_chemical_formula_sum "Si O2"
_cell_formula_units_Z 28
_cell_length_a 7.238819
_cell_length_b 14.434101
_cell_length_c 10.278608
_cell_angle_alpha 90.000000
_cell_angle_beta 90.000000
_cell_angle_gamma 90.000000
_cell_volume 1073.969038
_symmetry_space_group_name_H-M "A B M 2"
_symmetry_group_IT_number 39
_symmetry_cell_setting 'orthorhombic'
loop_
_space_group_symop_operation_xyz
x,y,z
-x,-y,z
-x,1/2+y,z
x,1/2-y,z
x,1/2+y,1/2+z
-x,1/2-y,1/2+z
-x,y,1/2+z
x,-y,1/2+z
loop_
_atom_site_type_symbol
_atom_site_label
_atom_site_fract_x
_atom_site_fract_y
_atom_site_fract_z
Si Si1 0.930550 0.250000 0.065611
Si Si2 0.764076 0.592780 0.982883
Si Si3 0.747518 0.750000 0.316666
Si Si4 0.181778 0.451789 0.247521
Si Si5 0.646478 0.250000 0.300111
O O1 0.822162 0.250000 0.204237
O O2 0.752949 0.250000 0.971120
O O3 0.061396 0.338922 0.025399
O O4 0.786318 0.508502 0.880189
O O5 0.645723 0.661916 0.895006
O O6 0.689757 0.553246 0.119721
O O7 0.845339 0.654685 0.282920
O O8 0.556073 0.750000 0.238690
O O9 0.000000 0.500000 0.191434
#
# Coordination Sequence:
#
# PCOD9362120 Si02
#       5
#     4   8   4   8   4
#     4  11  24  47  79 108 156 206 262 318 382 470
#     4  11  26  47  79 113 150 204 269 309 385 467
#     4  12  28  47  75 114 160 199 254 329 391 452
#     4  12  25  47  74 113 149 203 259 320 372 470
#     4  11  28  50  78 116 160 205 254 327 401 456
#
# _framework density 26.071515999999999
#
# number of rings (size 3 to 8) (size 9 to 14) (size 15 to 20)
#    0.000    0.571    2.857    4.286   12.000    1.143 
#    0.000    2.857    0.000    0.000    0.000    0.000 
#    0.000    0.000    0.000    0.000    0.000    0.000 
#
# Total GULP energy -78021.794473 kJ/mol
# GULP energy per Si atom -5572.985319 kJ/mol
# Density = 2.601218 g / cm^3
# Si number density = 26.071516 Si / 1000 Ang^3
#
#
#
# Elastic Constant Matrix: (Units=GPa)
#
#
# Indices 1 2 3 4 5 6 
#
# 1 80.7374 49.4296 9.0309 0.0000 0.0000 0.0000
# 2 49.4296 241.4680 69.1023 0.0000 0.0000 0.0000
# 3 9.0309 69.1023 202.2602 0.0000 0.0000 0.0000
# 4 0.0000 0.0000 0.0000 33.4013 0.0000 0.0000
# 5 0.0000 0.0000 0.0000 0.0000 9.9947 0.0000
# 6 0.0000 0.0000 0.0000 0.0000 0.0000 19.6164
#
#
#
# Elastic Compliance Matrix: (Units=1/GPa)
#
#
# Indices 1 2 3 4 5 6 
#
# 1 0.014189 -0.003018 0.000398 0.000000 0.000000 0.000000
# 2 -0.003018 0.005232 -0.001653 0.000000 0.000000 0.000000
# 3 0.000398 -0.001653 0.005491 0.000000 0.000000 0.000000
# 4 0.000000 0.000000 0.000000 0.029939 0.000000 0.000000
# 5 0.000000 0.000000 0.000000 0.000000 0.100053 0.000000
# 6 0.000000 0.000000 0.000000 0.000000 0.000000 0.050978
#
#
# Mechanical properties :
#
#
# Convention : Reuss Voigt Hill
#
# Bulk Modulus (GPa) = 61.10420 86.62125 73.86273
# Shear Modulus (GPa) = 22.73918 39.06266 30.90092
#
# Velocity S-wave (km/s) = 2.95648 3.87497 3.44646
# Velocity P-wave (km/s) = 5.92810 7.30186 6.65055
#
# Compressibility (1/GPa) = 0.01636549
#
# Stress axis : x y z
#
# Youngs Moduli (GPa) = 70.47558 191.12359 182.11431
#
# Poissons Ratio (x) = 0.57689 -0.07243
# Poissons Ratio (y) = 0.21273 0.30100
# Poissons Ratio (z) = -0.02803 0.31589
#
# Static dielectric constant tensor:
#      x y z
#    x 2.065590 0.000000 0.000000 
#    y 0.000000 2.026070 0.000000 
#    z 0.000000 0.000000 2.140040 
# 
# From -- ./inp_files/4774.got.cif
#   From: 2010.05.17/outbox.cif.g08.bks.cpg/sg39_3_cif.got.tgz:4774.got - 2010.06.03 18:22:40.
