data_PCOD9362687
_publ_section_title
;
Structure prediction by ZEFSAII (Michael W. Deem and Ramdas Pophale) SiO2 
 PCOD9362687
Probable space group: A M A 2
;
_chemical_formula_sum "Si O2"
_cell_formula_units_Z 60
_cell_length_a 14.976269
_cell_length_b 12.414369
_cell_length_c 14.046334
_cell_angle_alpha 90.000000
_cell_angle_beta 90.000000
_cell_angle_gamma 90.000000
_cell_volume 2611.507475
_symmetry_space_group_name_H-M "A M A 2"
_symmetry_group_IT_number 40
_symmetry_cell_setting 'orthorhombic'
loop_
_space_group_symop_operation_xyz
x,y,z
-x,-y,z
1/2-x,y,z
1/2+x,-y,z
x,1/2+y,1/2+z
-x,1/2-y,1/2+z
1/2-x,1/2+y,1/2+z
1/2+x,1/2-y,1/2+z
loop_
_atom_site_type_symbol
_atom_site_label
_atom_site_fract_x
_atom_site_fract_y
_atom_site_fract_z
Si Si1 0.850338 0.679952 0.901150
Si Si2 0.848233 0.285323 0.059300
Si Si3 0.966796 0.114632 0.565622
Si Si4 0.500000 0.000000 0.095680
Si Si5 0.347082 0.452569 0.467398
Si Si6 0.080252 0.414627 0.262001
Si Si7 0.498523 0.821543 0.255391
Si Si8 0.655251 0.926075 0.369469
O O1 0.750000 0.725165 0.909039
O O2 0.904947 0.707313 0.806088
O O3 0.842181 0.551157 0.892985
O O4 0.916545 0.691401 0.991318
O O5 0.750000 0.295494 0.109136
O O6 0.853530 0.164994 0.016887
O O7 0.844231 0.359330 0.965980
O O8 0.942662 0.325365 0.104018
O O9 0.898123 0.078035 0.649230
O O10 0.000000 0.000000 0.523907
O O11 0.484712 0.895614 0.162312
O O12 0.419329 0.021855 0.023102
O O13 0.250000 0.498095 0.485291
O O14 0.360498 0.437967 0.354241
O O15 0.000000 0.500000 0.272795
O O16 0.052215 0.290047 0.262859
O O17 0.565403 0.898019 0.315259
O O18 0.750000 0.899972 0.317441
#
# Coordination Sequence:
#
# PCOD9362687 Si02
#       8
#     8   8   8   4   8   8   8   8
#     4  11  21  36  62  99 139 167 210 282 353 407
#     4  10  19  36  66  96 129 179 227 273 336 413
#     4  11  20  36  61  94 130 170 221 281 337 394
#     4  12  26  42  70 106 140 174 226 304 350 402
#     4  11  24  45  69  93 134 187 236 282 342 417
#     4  11  25  44  69  91 132 185 234 276 332 418
#     4  12  22  41  69  98 133 179 224 279 348 409
#     4  10  18  32  61  96 126 162 213 265 326 402
#
# _framework density 22.975235999999999
#
# number of rings (size 3 to 8) (size 9 to 14) (size 15 to 20)
#    0.000    1.067    6.000    0.800    0.000    1.600 
#    0.000    3.333    0.000    0.000    0.000    0.000 
#    0.000    0.000    0.000    0.000    0.000    0.000 
#
# Total GULP energy -167218.036390 kJ/mol
# GULP energy per Si atom -5573.934546 kJ/mol
# Density = 2.292294 g / cm^3
# Si number density = 22.975236 Si / 1000 Ang^3
#
#
#
# Elastic Constant Matrix: (Units=GPa)
#
#
# Indices 1 2 3 4 5 6 
#
# 1 117.6300 -17.5529 43.0969 0.0000 0.0000 0.0000
# 2 -17.5529 51.2252 -12.4649 0.0000 0.0000 0.0000
# 3 43.0969 -12.4649 88.0397 0.0000 0.0000 0.0000
# 4 0.0000 0.0000 0.0000 9.7738 0.0000 0.0000
# 5 0.0000 0.0000 0.0000 0.0000 92.7821 0.0000
# 6 0.0000 0.0000 0.0000 0.0000 0.0000 20.7641
#
#
#
# Elastic Compliance Matrix: (Units=1/GPa)
#
#
# Indices 1 2 3 4 5 6 
#
# 1 0.010652 0.002466 -0.004865 0.000000 0.000000 0.000000
# 2 0.002466 0.020789 0.001736 0.000000 0.000000 0.000000
# 3 -0.004865 0.001736 0.013986 0.000000 0.000000 0.000000
# 4 0.000000 0.000000 0.000000 0.102314 0.000000 0.000000
# 5 0.000000 0.000000 0.000000 0.000000 0.010778 0.000000
# 6 0.000000 0.000000 0.000000 0.000000 0.000000 0.048160
#
#
# Mechanical properties :
#
#
# Convention : Reuss Voigt Hill
#
# Bulk Modulus (GPa) = 22.67513 31.45034 27.06274
# Shear Modulus (GPa) = 22.45127 40.91839 31.68483
#
# Velocity S-wave (km/s) = 3.12940 4.22474 3.71763
# Velocity P-wave (km/s) = 4.79044 6.12507 5.49840
#
# Compressibility (1/GPa) = 0.04410118
#
# Stress axis : x y z
#
# Youngs Moduli (GPa) = 93.88208 48.10198 71.50089
#
# Poissons Ratio (x) = -0.11862 0.34785
# Poissons Ratio (y) = -0.23152 -0.12414
# Poissons Ratio (z) = 0.45674 -0.08351
#
# Static dielectric constant tensor:
#      x y z
#    x 1.950400 0.000000 0.000000 
#    y 0.000000 1.862400 0.000000 
#    z 0.000000 0.000000 1.926490 
# 
# From -- ./inp_files/17228.got.cif
#   From: 2010.05.17/outbox.cif.g08.bks.cpg/sg40_9_cif.got.tgz:17228.got - 2010.06.03 18:35:42.
