data_PCOD9362577
_publ_section_title
;
Structure prediction by ZEFSAII (Michael W. Deem and Ramdas Pophale) SiO2 
 PCOD9362577
Probable space group: A M A 2
;
_chemical_formula_sum "Si O2"
_cell_formula_units_Z 56
_cell_length_a 9.091181
_cell_length_b 19.530796
_cell_length_c 18.689953
_cell_angle_alpha 90.000000
_cell_angle_beta 90.000000
_cell_angle_gamma 90.000000
_cell_volume 3318.550703
_symmetry_space_group_name_H-M "A M A 2"
_symmetry_group_IT_number 40
_symmetry_cell_setting 'orthorhombic'
loop_
_space_group_symop_operation_xyz
x,y,z
-x,-y,z
1/2-x,y,z
1/2+x,-y,z
x,1/2+y,1/2+z
-x,1/2-y,1/2+z
1/2-x,1/2+y,1/2+z
1/2+x,1/2-y,1/2+z
loop_
_atom_site_type_symbol
_atom_site_label
_atom_site_fract_x
_atom_site_fract_y
_atom_site_fract_z
Si Si1 0.427390 0.793538 0.521300
Si Si2 0.073873 0.925808 0.427140
Si Si3 0.583293 0.433635 0.566481
Si Si4 0.079993 0.568558 0.393881
Si Si5 0.573149 0.675949 0.800011
Si Si6 0.074318 0.789947 0.896625
Si Si7 0.427254 0.201663 0.147947
O O1 0.250000 0.785388 0.512225
O O2 0.465189 0.868511 0.488309
O O3 0.508061 0.738530 0.470888
O O4 0.461118 0.771373 0.603194
O O5 0.250000 0.934201 0.430423
O O6 0.038828 0.890672 0.349762
O O7 0.000000 0.000000 0.435658
O O8 0.500000 0.500000 0.593589
O O9 0.750000 0.441089 0.590120
O O10 0.579946 0.434143 0.480591
O O11 0.532850 0.361032 0.595389
O O12 0.250000 0.572850 0.370769
O O13 0.000000 0.500000 0.367693
O O14 0.987663 0.635799 0.377039
O O15 0.750000 0.683658 0.801540
O O16 0.492041 0.737304 0.840240
O O17 0.512298 0.682685 0.720050
O O18 0.250000 0.789760 0.898631
O O19 0.250000 0.202044 0.160776
#
# Coordination Sequence:
#
# PCOD9362577 Si02
#       7
#     8   8   8   8   8   8   8
#     4   9  18  35  55  76 105 140 174 218 275 320
#     4   9  19  35  56  78 105 140 177 221 271 323
#     4   9  18  30  46  69 101 137 167 202 244 294
#     4  10  18  31  49  73 103 135 168 208 254 302
#     4  10  22  37  52  74 105 141 176 219 272 322
#     4  11  20  32  52  77 101 133 176 220 261 315
#     4  10  19  34  53  75 104 140 178 217 264 319
#
# _framework density 16.874835999999998
#
# number of rings (size 3 to 8) (size 9 to 14) (size 15 to 20)
#    0.000    2.286    1.429    3.000    0.000    5.143 
#    0.000    2.857    0.000    0.857    0.000    4.000 
#    0.000    0.000    0.000    0.000    0.000    0.000 
#
# Total GULP energy -155882.479108 kJ/mol
# GULP energy per Si atom -5567.231397 kJ/mol
# Density = 1.683643 g / cm^3
# Si number density = 16.874836 Si / 1000 Ang^3
#
#
#
# Elastic Constant Matrix: (Units=GPa)
#
#
# Indices 1 2 3 4 5 6 
#
# 1 53.5035 52.5150 24.3844 0.0000 0.0000 0.0000
# 2 52.5150 141.2209 34.0877 0.0000 0.0000 0.0000
# 3 24.3844 34.0877 50.9264 0.0000 0.0000 0.0000
# 4 0.0000 0.0000 0.0000 9.5149 0.0000 0.0000
# 5 0.0000 0.0000 0.0000 0.0000 26.3757 0.0000
# 6 0.0000 0.0000 0.0000 0.0000 0.0000 31.4488
#
#
#
# Elastic Compliance Matrix: (Units=1/GPa)
#
#
# Indices 1 2 3 4 5 6 
#
# 1 0.032505 -0.009936 -0.008913 0.000000 0.000000 0.000000
# 2 -0.009936 0.011483 -0.002929 0.000000 0.000000 0.000000
# 3 -0.008913 -0.002929 0.025864 0.000000 0.000000 0.000000
# 4 0.000000 0.000000 0.000000 0.105098 0.000000 0.000000
# 5 0.000000 0.000000 0.000000 0.000000 0.037914 0.000000
# 6 0.000000 0.000000 0.000000 0.000000 0.000000 0.031798
#
#
# Mechanical properties :
#
#
# Convention : Reuss Voigt Hill
#
# Bulk Modulus (GPa) = 38.02787 51.95833 44.99310
# Shear Modulus (GPa) = 16.83601 22.44549 19.64075
#
# Velocity S-wave (km/s) = 3.16206 3.65103 3.41531
# Velocity P-wave (km/s) = 5.99297 6.97357 6.50178
#
# Compressibility (1/GPa) = 0.02629651
#
# Stress axis : x y z
#
# Youngs Moduli (GPa) = 30.76448 87.08658 38.66342
#
# Poissons Ratio (x) = 0.86529 0.34462
# Poissons Ratio (y) = 0.30568 0.11323
# Poissons Ratio (z) = 0.27421 0.25504
#
# Static dielectric constant tensor:
#      x y z
#    x 1.561870 0.000000 0.000000 
#    y 0.000000 1.795950 0.000000 
#    z 0.000000 0.000000 1.607390 
# 
# From -- ./inp_files/19517.got.cif
#   From: 2010.05.17/outbox.cif.g08.bks.cpg/sg40_10_cif.got.tgz:19517.got - 2010.06.03 18:35:42.
