data_PCOD9362667
_publ_section_title
;
Structure prediction by ZEFSAII (Michael W. Deem and Ramdas Pophale) SiO2 
 PCOD9362667
Probable space group: A M A 2
;
_chemical_formula_sum "Si O2"
_cell_formula_units_Z 48
_cell_length_a 10.193242
_cell_length_b 21.242566
_cell_length_c 10.210386
_cell_angle_alpha 90.000000
_cell_angle_beta 90.000000
_cell_angle_gamma 90.000000
_cell_volume 2210.861170
_symmetry_space_group_name_H-M "A M A 2"
_symmetry_group_IT_number 40
_symmetry_cell_setting 'orthorhombic'
loop_
_space_group_symop_operation_xyz
x,y,z
-x,-y,z
1/2-x,y,z
1/2+x,-y,z
x,1/2+y,1/2+z
-x,1/2-y,1/2+z
1/2-x,1/2+y,1/2+z
1/2+x,1/2-y,1/2+z
loop_
_atom_site_type_symbol
_atom_site_label
_atom_site_fract_x
_atom_site_fract_y
_atom_site_fract_z
Si Si1 0.092100 0.939607 0.118820
Si Si2 0.474362 0.760291 0.360252
Si Si3 0.395535 0.088499 0.638183
Si Si4 0.101920 0.401466 0.921375
Si Si5 0.613147 0.260983 0.104200
Si Si6 0.398599 0.622480 0.427535
O O1 0.250000 0.944956 0.091430
O O2 0.078728 0.925192 0.273562
O O3 0.000000 0.000000 0.091699
O O4 0.015961 0.888603 0.029680
O O5 0.413192 0.825384 0.410638
O O6 0.495461 0.763480 0.204880
O O7 0.598585 0.749816 0.451840
O O8 0.395243 0.696410 0.389204
O O9 0.250000 0.061648 0.614451
O O10 0.502318 0.071597 0.529498
O O11 0.384777 0.164037 0.618892
O O12 0.427209 0.083579 0.792845
O O13 0.250000 0.416533 0.959531
O O14 0.750000 0.232854 0.153952
O O15 0.250000 0.605401 0.472542
#
# Coordination Sequence:
#
# PCOD9362667 Si02
#       6
#     8   8   8   8   8   8
#     4  11  25  44  65  89 120 162 212 260 304 356
#     4  10  18  32  55  84 119 158 196 242 305 366
#     4   8  17  33  53  79 111 148 187 233 292 354
#     4  10  20  35  57  86 120 157 200 252 306 362
#     4   9  17  30  45  69 111 152 190 235 282 345
#     4  10  20  36  59  87 121 159 200 248 303 365
#
# _framework density 21.710996000000002
#
# number of rings (size 3 to 8) (size 9 to 14) (size 15 to 20)
#    0.000    2.333    0.000    4.000    0.000    4.000 
#    0.000   12.500    0.000    2.000    0.000    0.000 
#    0.000    0.000    0.000    0.000    0.000    0.000 
#
# Total GULP energy -133636.479332 kJ/mol
# GULP energy per Si atom -5568.186639 kJ/mol
# Density = 2.166158 g / cm^3
# Si number density = 21.710996 Si / 1000 Ang^3
#
#
#
# Elastic Constant Matrix: (Units=GPa)
#
#
# Indices 1 2 3 4 5 6 
#
# 1 137.7020 18.9158 81.6342 0.0000 0.0000 0.0000
# 2 18.9158 70.6654 8.3293 0.0000 0.0000 0.0000
# 3 81.6342 8.3293 112.1135 0.0000 0.0000 0.0000
# 4 0.0000 0.0000 0.0000 7.9791 0.0000 0.0000
# 5 0.0000 0.0000 0.0000 0.0000 33.2864 0.0000
# 6 0.0000 0.0000 0.0000 0.0000 0.0000 -10.1665
#
#
#
# Elastic Compliance Matrix: (Units=1/GPa)
#
#
# Indices 1 2 3 4 5 6 
#
# 1 0.013175 -0.002417 -0.009413 0.000000 0.000000 0.000000
# 2 -0.002417 0.014720 0.000666 0.000000 0.000000 0.000000
# 3 -0.009413 0.000666 0.015724 0.000000 0.000000 0.000000
# 4 0.000000 0.000000 0.000000 0.125328 0.000000 0.000000
# 5 0.000000 0.000000 0.000000 0.000000 0.030042 0.000000
# 6 0.000000 0.000000 0.000000 0.000000 0.000000 -0.098362
#
#
# Mechanical properties :
#
#
# Convention : Reuss Voigt Hill
#
# Bulk Modulus (GPa) = 46.96946 59.80439 53.38692
# Shear Modulus (GPa) = 38.44617 20.32656 29.38637
#
# Velocity S-wave (km/s) = 4.21267 3.06311 3.68302
# Velocity P-wave (km/s) = 6.73372 6.33369 6.53677
#
# Compressibility (1/GPa) = 0.02129043
#
# Stress axis : x y z
#
# Youngs Moduli (GPa) = 75.90328 67.93640 63.59584
#
# Poissons Ratio (x) = 0.16421 0.59865
# Poissons Ratio (y) = 0.18346 -0.04238
# Poissons Ratio (z) = 0.71451 -0.04527
#
# Static dielectric constant tensor:
#      x y z
#    x 1.792550 0.000000 0.000000 
#    y 0.000000 1.858400 0.000000 
#    z 0.000000 0.000000 1.797970 
# 
# From -- ./inp_files/10268.got.cif
#   From: 2010.05.17/outbox.cif.g08.bks.cpg/sg40_6_cif.got.tgz:10268.got - 2010.06.03 18:35:42.
