data_PCOD9362546
_publ_section_title
;
Structure prediction by ZEFSAII (Michael W. Deem and Ramdas Pophale) SiO2 
 PCOD9362546
Probable space group: A M A 2
;
_chemical_formula_sum "Si O2"
_cell_formula_units_Z 48
_cell_length_a 9.099087
_cell_length_b 13.409570
_cell_length_c 17.936781
_cell_angle_alpha 90.000000
_cell_angle_beta 90.000000
_cell_angle_gamma 90.000000
_cell_volume 2188.553537
_symmetry_space_group_name_H-M "A M A 2"
_symmetry_group_IT_number 40
_symmetry_cell_setting 'orthorhombic'
loop_
_space_group_symop_operation_xyz
x,y,z
-x,-y,z
1/2-x,y,z
1/2+x,-y,z
x,1/2+y,1/2+z
-x,1/2-y,1/2+z
1/2-x,1/2+y,1/2+z
1/2+x,1/2-y,1/2+z
loop_
_atom_site_type_symbol
_atom_site_label
_atom_site_fract_x
_atom_site_fract_y
_atom_site_fract_z
Si Si1 0.077697 0.854989 0.762000
Si Si2 0.085193 0.903823 0.388339
Si Si3 0.424003 0.596537 0.109602
Si Si4 0.574236 0.826211 0.912286
Si Si5 0.417472 0.839632 0.225860
Si Si6 0.577697 0.176181 0.060495
O O1 0.250000 0.878082 0.759112
O O2 0.986843 0.899124 0.693481
O O3 0.007299 0.876548 0.842495
O O4 0.044473 0.738095 0.746685
O O5 0.250000 0.909196 0.417632
O O6 0.032129 0.792258 0.407617
O O7 0.089912 0.908863 0.297732
O O8 0.000000 0.000000 0.414141
O O9 0.500000 0.500000 0.074391
O O10 0.250000 0.583426 0.109321
O O11 0.456013 0.705728 0.074957
O O12 0.750000 0.833380 0.903355
O O13 0.520267 0.862048 0.992741
O O14 0.250000 0.792110 0.223183
O O15 0.443069 0.874722 0.141577
O O16 0.750000 0.168408 0.040430
#
# Coordination Sequence:
#
# PCOD9362546 Si02
#       6
#     8   8   8   8   8   8
#     4  10  18  30  50  72  93 123 165 204 240 286
#     4   9  18  31  47  68  95 126 156 191 235 280
#     4  10  20  34  51  73 102 132 163 200 243 291
#     4  10  20  33  48  69  99 130 161 199 242 287
#     4   8  16  32  49  67  94 125 157 198 243 283
#     4   9  18  32  50  71  96 126 160 198 240 287
#
# _framework density 21.932293999999999
#
# number of rings (size 3 to 8) (size 9 to 14) (size 15 to 20)
#    0.000    2.667    0.000    4.500    0.000    7.333 
#    0.000    3.333    0.000    1.000    0.000    4.667 
#    0.000    0.000    0.000    0.000    0.000    0.000 
#
# Total GULP energy -133816.787231 kJ/mol
# GULP energy per Si atom -5575.699468 kJ/mol
# Density = 2.188238 g / cm^3
# Si number density = 21.932294 Si / 1000 Ang^3
#
#
#
# Elastic Constant Matrix: (Units=GPa)
#
#
# Indices 1 2 3 4 5 6 
#
# 1 50.6026 10.6900 45.9380 0.0000 0.0000 0.0000
# 2 10.6900 30.8974 -8.7388 0.0000 0.0000 0.0000
# 3 45.9380 -8.7388 165.0611 0.0000 0.0000 0.0000
# 4 0.0000 0.0000 0.0000 -8.0204 0.0000 0.0000
# 5 0.0000 0.0000 0.0000 0.0000 -75.2409 0.0000
# 6 0.0000 0.0000 0.0000 0.0000 0.0000 -13.8130
#
#
#
# Elastic Compliance Matrix: (Units=1/GPa)
#
#
# Indices 1 2 3 4 5 6 
#
# 1 0.031095 -0.013407 -0.009364 0.000000 0.000000 0.000000
# 2 -0.013407 0.038638 0.005777 0.000000 0.000000 0.000000
# 3 -0.009364 0.005777 0.008970 0.000000 0.000000 0.000000
# 4 0.000000 0.000000 0.000000 -0.124682 0.000000 0.000000
# 5 0.000000 0.000000 0.000000 0.000000 -0.013291 0.000000
# 6 0.000000 0.000000 0.000000 0.000000 0.000000 -0.072396
#
#
# Mechanical properties :
#
#
# Convention : Reuss Voigt Hill
#
# Bulk Modulus (GPa) = 22.36371 38.03771 30.20071
# Shear Modulus (GPa) = -60.40560 -6.17007 -33.28784
#
# Velocity S-wave (km/s) = -5.25373 -1.67909 -3.90006
# Velocity P-wave (km/s) = 5.15590 3.69077 2.54574
#
# Compressibility (1/GPa) = 0.04471530
#
# Stress axis : x y z
#
# Youngs Moduli (GPa) = 32.16002 25.88155 111.48037
#
# Poissons Ratio (x) = 0.34698 1.04386
# Poissons Ratio (y) = 0.43116 -0.64400
# Poissons Ratio (z) = 0.30114 -0.14951
#
# Static dielectric constant tensor:
#      x y z
#    x 1.827840 0.000000 0.000000 
#    y 0.000000 1.892360 0.000000 
#    z 0.000000 0.000000 1.835980 
# 
# From -- ./inp_files/15060.got.cif
#   From: 2010.05.17/outbox.cif.g08.bks.cpg/sg40_8_cif.got.tgz:15060.got - 2010.06.03 18:35:42.
