data_PCOD9362943
_publ_section_title
;
Structure prediction by ZEFSAII (Michael W. Deem and Ramdas Pophale) SiO2 
 PCOD9362943
Probable space group: A M A 2
;
_chemical_formula_sum "Si O2"
_cell_formula_units_Z 48
_cell_length_a 8.724934
_cell_length_b 14.141730
_cell_length_c 24.353619
_cell_angle_alpha 90.000000
_cell_angle_beta 90.000000
_cell_angle_gamma 90.000000
_cell_volume 3004.887376
_symmetry_space_group_name_H-M "A M A 2"
_symmetry_group_IT_number 40
_symmetry_cell_setting 'orthorhombic'
loop_
_space_group_symop_operation_xyz
x,y,z
-x,-y,z
1/2-x,y,z
1/2+x,-y,z
x,1/2+y,1/2+z
-x,1/2-y,1/2+z
1/2-x,1/2+y,1/2+z
1/2+x,1/2-y,1/2+z
loop_
_atom_site_type_symbol
_atom_site_label
_atom_site_fract_x
_atom_site_fract_y
_atom_site_fract_z
Si Si1 0.935386 0.222349 0.650240
Si Si2 0.065641 0.209717 0.982111
Si Si3 0.065944 0.895623 0.880075
Si Si4 0.933457 0.603200 0.043278
Si Si5 0.566978 0.103502 0.087596
Si Si6 0.565576 0.603568 0.254139
O O1 0.750000 0.233658 0.648832
O O2 0.976656 0.146475 0.602731
O O3 0.982166 0.179846 0.708791
O O4 0.011483 0.320527 0.632709
O O5 0.250000 0.202997 0.983251
O O6 0.001933 0.176559 0.923969
O O7 0.021078 0.316423 0.999353
O O8 0.998932 0.142097 0.029699
O O9 0.250000 0.897958 0.884154
O O10 0.022613 0.872988 0.816945
O O11 0.000000 0.000000 0.892193
O O12 0.750000 0.596525 0.042338
O O13 0.000000 0.500000 0.034235
O O14 0.750000 0.100439 0.085044
O O15 0.500000 0.000000 0.098313
O O16 0.500000 0.500000 0.241021
O O17 0.750000 0.597417 0.251968
#
# Coordination Sequence:
#
# PCOD9362943 Si02
#       6
#     8   8   8   8   8   8
#     4   9  18  33  49  70  99 128 156 191 233 280
#     4  10  20  34  49  69  97 128 159 197 239 282
#     4  10  19  31  48  72  98 128 161 196 237 282
#     4   9  18  30  47  69  94 122 153 189 232 277
#     4  11  21  33  50  72  96 125 158 196 239 286
#     4   9  18  31  49  72 100 129 159 195 236 279
#
# _framework density 15.973976
#
# number of rings (size 3 to 8) (size 9 to 14) (size 15 to 20)
#    0.000    2.333    0.000    4.500    0.000    4.667 
#    0.000    0.000    0.000    1.000    0.000    2.333 
#    0.000    0.000    0.000    0.000    0.000    0.000 
#
# Total GULP energy -133889.333469 kJ/mol
# GULP energy per Si atom -5578.722228 kJ/mol
# Density = 1.593762 g / cm^3
# Si number density = 15.973976 Si / 1000 Ang^3
#
#
#
# Elastic Constant Matrix: (Units=GPa)
#
#
# Indices 1 2 3 4 5 6 
#
# 1 55.2848 48.3170 39.9332 0.0000 0.0000 0.0000
# 2 48.3170 151.3757 87.4440 0.0000 0.0000 0.0000
# 3 39.9332 87.4440 108.2211 0.0000 0.0000 0.0000
# 4 0.0000 0.0000 0.0000 23.1817 0.0000 0.0000
# 5 0.0000 0.0000 0.0000 0.0000 26.2266 0.0000
# 6 0.0000 0.0000 0.0000 0.0000 0.0000 30.0610
#
#
#
# Elastic Compliance Matrix: (Units=1/GPa)
#
#
# Indices 1 2 3 4 5 6 
#
# 1 0.026768 -0.005323 -0.005577 0.000000 0.000000 0.000000
# 2 -0.005323 0.013447 -0.008901 0.000000 0.000000 0.000000
# 3 -0.005577 -0.008901 0.018490 0.000000 0.000000 0.000000
# 4 0.000000 0.000000 0.000000 0.043137 0.000000 0.000000
# 5 0.000000 0.000000 0.000000 0.000000 0.038129 0.000000
# 6 0.000000 0.000000 0.000000 0.000000 0.000000 0.033266
#
#
# Mechanical properties :
#
#
# Convention : Reuss Voigt Hill
#
# Bulk Modulus (GPa) = 52.34378 74.03000 63.18689
# Shear Modulus (GPa) = 22.80954 25.17303 23.99128
#
# Velocity S-wave (km/s) = 3.78288 3.97404 3.87964
# Velocity P-wave (km/s) = 7.20552 8.21596 7.72728
#
# Compressibility (1/GPa) = 0.01910447
#
# Stress axis : x y z
#
# Youngs Moduli (GPa) = 37.35804 74.36674 54.08225
#
# Poissons Ratio (x) = 0.39583 0.30159
# Poissons Ratio (y) = 0.19884 0.48140
# Poissons Ratio (z) = 0.20833 0.66195
#
# Static dielectric constant tensor:
#      x y z
#    x 1.534900 0.000000 0.000000 
#    y 0.000000 1.510570 0.000000 
#    z 0.000000 0.000000 1.536230 
# 
# From -- ./inp_files/22000.got.cif
#   From: 2010.05.17/outbox.cif.g08.bks.cpg/sg40_11_cif.got.tgz:22000.got - 2010.06.03 18:35:42.
