data_PCOD9362018
_publ_section_title
;
Structure prediction by ZEFSAII (Michael W. Deem and Ramdas Pophale) SiO2 
 PCOD9362018
Probable space group: A B M 2
;
_chemical_formula_sum "Si O2"
_cell_formula_units_Z 64
_cell_length_a 19.883662
_cell_length_b 16.626052
_cell_length_c 9.305320
_cell_angle_alpha 90.000000
_cell_angle_beta 90.000000
_cell_angle_gamma 90.000000
_cell_volume 3076.215947
_symmetry_space_group_name_H-M "A B M 2"
_symmetry_group_IT_number 39
_symmetry_cell_setting 'orthorhombic'
loop_
_space_group_symop_operation_xyz
x,y,z
-x,-y,z
-x,1/2+y,z
x,1/2-y,z
x,1/2+y,1/2+z
-x,1/2-y,1/2+z
-x,y,1/2+z
x,-y,1/2+z
loop_
_atom_site_type_symbol
_atom_site_label
_atom_site_fract_x
_atom_site_fract_y
_atom_site_fract_z
Si Si1 0.651681 0.132181 0.041060
Si Si2 0.587337 0.339648 0.335289
Si Si3 0.560902 0.158058 0.774045
Si Si4 0.931322 0.580092 0.159567
Si Si5 0.786644 0.443098 0.711929
Si Si6 0.057304 0.094255 0.502028
Si Si7 0.648007 0.560271 0.064651
Si Si8 0.202823 0.395340 0.541379
O O1 0.606521 0.163409 0.169451
O O2 0.648177 0.035143 0.050256
O O3 0.618850 0.158013 0.892965
O O4 0.729710 0.155877 0.058237
O O5 0.593753 0.250000 0.397470
O O6 0.509981 0.366683 0.343881
O O7 0.638790 0.399970 0.409962
O O8 0.551413 0.250000 0.721683
O O9 0.585681 0.096453 0.653785
O O10 0.932791 0.491735 0.083974
O O11 0.988661 0.627547 0.071706
O O12 0.852794 0.603569 0.154589
O O13 0.948769 0.579985 0.330230
O O14 0.716930 0.414705 0.643311
O O15 0.794575 0.535598 0.662544
O O16 0.787522 0.436468 0.883853
O O17 0.127442 0.139876 0.534174
#
# Coordination Sequence:
#
# PCOD9362018 Si02
#       8
#     8   8   8   8   8   8   8   8
#     4  11  22  37  58  85 112 143 184 229 277 324
#     4  11  25  41  57  81 112 145 180 228 281 331
#     4  11  23  41  61  79 108 147 184 224 277 335
#     4   9  15  24  38  63  98 139 178 210 258 321
#     4   9  18  30  47  72 106 142 178 223 273 320
#     4   9  15  24  38  63  98 139 178 210 258 321
#     4  11  22  37  58  85 112 143 184 229 277 324
#     4   9  18  30  47  72 106 142 178 223 273 320
#
# _framework density 20.804780999999998
#
# number of rings (size 3 to 8) (size 9 to 14) (size 15 to 20)
#    0.000    2.000    1.250    3.750    5.250    6.000 
#    0.000    0.000    0.000    0.000    0.000    0.000 
#    0.000    6.000    0.000    0.000    0.000    0.000 
#
# Total GULP energy -178441.545918 kJ/mol
# GULP energy per Si atom -5576.298310 kJ/mol
# Density = 2.075743 g / cm^3
# Si number density = 20.804781 Si / 1000 Ang^3
#
#
#
# Elastic Constant Matrix: (Units=GPa)
#
#
# Indices 1 2 3 4 5 6 
#
# 1 123.3702 27.1166 11.9183 0.0000 0.0000 0.0000
# 2 27.1166 49.8585 11.3528 0.0000 0.0000 0.0000
# 3 11.9183 11.3528 66.9668 0.0000 0.0000 0.0000
# 4 0.0000 0.0000 0.0000 5.5150 0.0000 0.0000
# 5 0.0000 0.0000 0.0000 0.0000 39.1760 0.0000
# 6 0.0000 0.0000 0.0000 0.0000 0.0000 -980.4969
#
#
#
# Elastic Compliance Matrix: (Units=1/GPa)
#
#
# Indices 1 2 3 4 5 6 
#
# 1 0.009250 -0.004843 -0.000825 0.000000 0.000000 0.000000
# 2 -0.004843 0.023398 -0.003105 0.000000 0.000000 0.000000
# 3 -0.000825 -0.003105 0.015606 0.000000 0.000000 0.000000
# 4 0.000000 0.000000 0.000000 0.181322 0.000000 0.000000
# 5 0.000000 0.000000 0.000000 0.000000 0.025526 0.000000
# 6 0.000000 0.000000 0.000000 0.000000 0.000000 -0.001020
#
#
# Mechanical properties :
#
#
# Convention : Reuss Voigt Hill
#
# Bulk Modulus (GPa) = 32.56487 37.88567 35.22527
# Shear Modulus (GPa) = 17.73911 -174.50732 -78.38411
#
# Velocity S-wave (km/s) = 2.92318 -9.16845 -6.14474
# Velocity P-wave (km/s) = 5.20383 9.68665 5.77717
#
# Compressibility (1/GPa) = 0.03070794
#
# Stress axis : x y z
#
# Youngs Moduli (GPa) = 108.10981 42.73952 64.07806
#
# Poissons Ratio (x) = 0.20698 0.05288
# Poissons Ratio (y) = 0.52356 0.19894
# Poissons Ratio (z) = 0.08922 0.13269
#
# Static dielectric constant tensor:
#      x y z
#    x 1.819920 0.000000 0.000000 
#    y 0.000000 1.723120 0.000000 
#    z 0.000000 0.000000 1.756860 
# 
# From -- ./inp_files/4031.got.cif
#   From: 2010.05.17/outbox.cif.g08.bks.cpg/sg39_3_cif.got.tgz:4031.got - 2010.06.03 18:22:40.
