data_PCOD9362260
_publ_section_title
;
Structure prediction by ZEFSAII (Michael W. Deem and Ramdas Pophale) SiO2 
 PCOD9362260
Probable space group: A M A 2
;
_chemical_formula_sum "Si O2"
_cell_formula_units_Z 32
_cell_length_a 5.585469
_cell_length_b 7.273785
_cell_length_c 32.033727
_cell_angle_alpha 90.000000
_cell_angle_beta 90.000000
_cell_angle_gamma 90.000000
_cell_volume 1301.450264
_symmetry_space_group_name_H-M "A M A 2"
_symmetry_group_IT_number 40
_symmetry_cell_setting 'orthorhombic'
loop_
_space_group_symop_operation_xyz
x,y,z
-x,-y,z
1/2-x,y,z
1/2+x,-y,z
x,1/2+y,1/2+z
-x,1/2-y,1/2+z
1/2-x,1/2+y,1/2+z
1/2+x,1/2-y,1/2+z
loop_
_atom_site_type_symbol
_atom_site_label
_atom_site_fract_x
_atom_site_fract_y
_atom_site_fract_z
Si Si1 0.750000 0.305391 0.133070
Si Si2 0.250000 0.903629 0.483200
Si Si3 0.750000 0.986012 0.967587
Si Si4 0.750000 0.226135 0.297083
Si Si5 0.250000 0.395171 0.883188
Si Si6 0.750000 0.297578 0.764208
Si Si7 0.750000 0.727593 0.166162
Si Si8 0.250000 0.892014 0.053843
O O1 0.750000 0.509161 0.153335
O O2 0.505344 0.211302 0.148105
O O3 0.750000 0.289262 0.082861
O O4 0.250000 0.693582 0.496951
O O5 0.250000 0.864777 0.432709
O O6 0.500000 0.000000 0.493454
O O7 0.500000 0.000000 0.943764
O O8 0.750000 0.139924 0.003668
O O9 0.750000 0.254616 0.346911
O O10 0.497586 0.291519 0.279330
O O11 0.750000 0.006718 0.283086
O O12 0.500000 0.500000 0.875322
O O13 0.750000 0.281711 0.714462
O O14 0.500000 0.000000 0.063274
#
# Coordination Sequence:
#
# PCOD9362260 Si02
#       8
#     4   4   4   4   4   4   4   4
#     4  10  21  40  59  81 112 151 200 245 302 371
#     4  10  21  35  63 100 131 161 207 265 321 368
#     4  10  21  40  68  91 127 168 209 256 312 391
#     4  10  17  30  48  78 120 147 206 239 286 348
#     4  10  16  30  51  83 120 158 193 256 288 353
#     4  10  18  30  48  79 109 151 197 250 292 346
#     4  10  21  37  58  81 113 151 198 253 315 357
#     4  10  21  40  65  85 114 149 204 246 298 362
#
# _framework density 24.587952999999999
#
# number of rings (size 3 to 8) (size 9 to 14) (size 15 to 20)
#    0.000    2.000    2.500    2.250    0.000    0.000 
#   13.500    0.000   66.000    0.000   19.500    0.000 
#    0.000    0.000    0.000    0.000    0.000    0.000 
#
# Total GULP energy -89184.117445 kJ/mol
# GULP energy per Si atom -5574.007340 kJ/mol
# Density = 2.453199 g / cm^3
# Si number density = 24.587953 Si / 1000 Ang^3
#
#
#
# Elastic Constant Matrix: (Units=GPa)
#
#
# Indices 1 2 3 4 5 6 
#
# 1 303.5923 26.1083 19.7822 0.0000 0.0000 0.0000
# 2 26.1083 90.2670 -19.6102 0.0000 0.0000 0.0000
# 3 19.7822 -19.6102 78.6848 0.0000 0.0000 0.0000
# 4 0.0000 0.0000 0.0000 -0.7096 0.0000 0.0000
# 5 0.0000 0.0000 0.0000 0.0000 -149.5886 0.0000
# 6 0.0000 0.0000 0.0000 0.0000 0.0000 0.1873
#
#
#
# Elastic Compliance Matrix: (Units=1/GPa)
#
#
# Indices 1 2 3 4 5 6 
#
# 1 0.003480 -0.001265 -0.001190 0.000000 0.000000 0.000000
# 2 -0.001265 0.012172 0.003352 0.000000 0.000000 0.000000
# 3 -0.001190 0.003352 0.013844 0.000000 0.000000 0.000000
# 4 0.000000 0.000000 0.000000 -1.409146 0.000000 0.000000
# 5 0.000000 0.000000 0.000000 0.000000 -0.006685 0.000000
# 6 0.000000 0.000000 0.000000 0.000000 0.000000 5.339402
#
#
# Mechanical properties :
#
#
# Convention : Reuss Voigt Hill
#
# Bulk Modulus (GPa) = 31.96051 58.34496 45.15273
# Shear Modulus (GPa) = 1.26208 -0.27127 0.49541
#
# Velocity S-wave (km/s) = 0.71722 -0.33251 0.44936
# Velocity P-wave (km/s) = 3.70304 4.86140 4.32121
#
# Compressibility (1/GPa) = 0.03128861
#
# Stress axis : x y z
#
# Youngs Moduli (GPa) = 287.33523 82.15345 72.23597
#
# Poissons Ratio (x) = 0.10394 0.08598
# Poissons Ratio (y) = 0.36354 -0.24212
# Poissons Ratio (z) = 0.34201 -0.27536
#
# Static dielectric constant tensor:
#      x y z
#    x 2.286650 0.000000 0.000000 
#    y 0.000000 2.074580 0.000000 
#    z 0.000000 0.000000 1.947990 
# 
# From -- ./inp_files/25892.got.cif
#   From: 2010.05.17/outbox.cif.g08.bks.cpg/sg40_13_cif.got.tgz:25892.got - 2010.06.03 18:35:42.
