data_PCOD9362366
_publ_section_title
;
Structure prediction by ZEFSAII (Michael W. Deem and Ramdas Pophale) SiO2 
 PCOD9362366
Probable space group: A M A 2
;
_chemical_formula_sum "Si O2"
_cell_formula_units_Z 56
_cell_length_a 16.580816
_cell_length_b 22.529305
_cell_length_c 8.435163
_cell_angle_alpha 90.000000
_cell_angle_beta 90.000000
_cell_angle_gamma 90.000000
_cell_volume 3150.991079
_symmetry_space_group_name_H-M "A M A 2"
_symmetry_group_IT_number 40
_symmetry_cell_setting 'orthorhombic'
loop_
_space_group_symop_operation_xyz
x,y,z
-x,-y,z
1/2-x,y,z
1/2+x,-y,z
x,1/2+y,1/2+z
-x,1/2-y,1/2+z
1/2-x,1/2+y,1/2+z
1/2+x,1/2-y,1/2+z
loop_
_atom_site_type_symbol
_atom_site_label
_atom_site_fract_x
_atom_site_fract_y
_atom_site_fract_z
Si Si1 0.945089 0.168524 0.035850
Si Si2 0.980330 0.065670 0.614024
Si Si3 0.156784 0.717301 0.033470
Si Si4 0.091454 0.148273 0.822348
Si Si5 0.084567 0.463231 0.432728
Si Si6 0.038557 0.635109 0.831286
Si Si7 0.341181 0.571210 0.602809
O O1 0.989851 0.172763 0.203182
O O2 0.874603 0.215604 0.022046
O O3 0.919842 0.099690 0.020070
O O4 0.012856 0.178436 0.900780
O O5 0.053692 0.094794 0.716184
O O6 0.977547 0.107111 0.460433
O O7 0.910510 0.055339 0.746134
O O8 0.000000 0.000000 0.556168
O O9 0.250000 0.712257 0.993062
O O10 0.102002 0.676737 0.920528
O O11 0.140177 0.691659 0.209373
O O12 0.142084 0.119567 0.964525
O O13 0.145998 0.507919 0.516029
O O14 0.000000 0.500000 0.444513
O O15 0.091310 0.585562 0.736025
O O16 0.250000 0.576216 0.663691
#
# Coordination Sequence:
#
# PCOD9362366 Si02
#       7
#     8   8   8   8   8   8   8
#     4  10  20  35  59  77 107 145 194 224 272 333
#     4   9  16  30  56  79 103 138 181 226 268 314
#     4  11  22  36  52  80 116 144 180 233 285 325
#     4   9  18  35  55  76 104 146 187 218 267 337
#     4  10  17  36  56  81 106 147 183 221 272 336
#     4  10  21  33  56  84 107 145 192 231 270 329
#     4  11  20  33  55  85 115 142 181 233 283 329
#
# _framework density 17.772186000000001
#
# number of rings (size 3 to 8) (size 9 to 14) (size 15 to 20)
#    0.000    2.000    5.714    1.714    2.000    0.571 
#    0.000    0.000    0.000    0.857    0.000    0.000 
#    0.000    0.000    0.000    0.000    0.000    0.000 
#
# Total GULP energy -155936.044561 kJ/mol
# GULP energy per Si atom -5569.144449 kJ/mol
# Density = 1.773174 g / cm^3
# Si number density = 17.772186 Si / 1000 Ang^3
#
#
#
# Elastic Constant Matrix: (Units=GPa)
#
#
# Indices 1 2 3 4 5 6 
#
# 1 16.5711 13.7574 3.7212 0.0000 0.0000 0.0000
# 2 13.7574 87.4906 26.6050 0.0000 0.0000 0.0000
# 3 3.7212 26.6050 66.3935 0.0000 0.0000 0.0000
# 4 0.0000 0.0000 0.0000 15.1456 0.0000 0.0000
# 5 0.0000 0.0000 0.0000 0.0000 10.7495 0.0000
# 6 0.0000 0.0000 0.0000 0.0000 0.0000 19.0018
#
#
#
# Elastic Compliance Matrix: (Units=1/GPa)
#
#
# Indices 1 2 3 4 5 6 
#
# 1 0.069424 -0.011084 0.000550 0.000000 0.000000 0.000000
# 2 -0.011084 0.014785 -0.005304 0.000000 0.000000 0.000000
# 3 0.000550 -0.005304 0.017156 0.000000 0.000000 0.000000
# 4 0.000000 0.000000 0.000000 0.066026 0.000000 0.000000
# 5 0.000000 0.000000 0.000000 0.000000 0.093027 0.000000
# 6 0.000000 0.000000 0.000000 0.000000 0.000000 0.052627
#
#
# Mechanical properties :
#
#
# Convention : Reuss Voigt Hill
#
# Bulk Modulus (GPa) = 14.34887 28.73581 21.54234
# Shear Modulus (GPa) = 13.58879 17.40416 15.49647
#
# Velocity S-wave (km/s) = 2.76816 3.13276 2.95608
# Velocity P-wave (km/s) = 4.27881 5.41199 4.87842
#
# Compressibility (1/GPa) = 0.06969190
#
# Stress axis : x y z
#
# Youngs Moduli (GPa) = 14.40415 67.63408 58.28834
#
# Poissons Ratio (x) = 0.74966 -0.03209
# Poissons Ratio (y) = 0.15966 0.30914
# Poissons Ratio (z) = -0.00793 0.35870
#
# Static dielectric constant tensor:
#      x y z
#    x 1.588300 0.000000 0.000000 
#    y 0.000000 1.614850 0.000000 
#    z 0.000000 0.000000 1.639400 
# 
# From -- ./inp_files/7741.got.cif
#   From: 2010.05.17/outbox.cif.g08.bks.cpg/sg40_4_cif.got.tgz:7741.got - 2010.06.03 18:35:42.
