data_PCOD9362728
_publ_section_title
;
Structure prediction by ZEFSAII (Michael W. Deem and Ramdas Pophale) SiO2 
 PCOD9362728
Probable space group: A M A 2
;
_chemical_formula_sum "Si O2"
_cell_formula_units_Z 32
_cell_length_a 16.061733
_cell_length_b 10.031753
_cell_length_c 7.919085
_cell_angle_alpha 90.000000
_cell_angle_beta 90.000000
_cell_angle_gamma 90.000000
_cell_volume 1275.981087
_symmetry_space_group_name_H-M "A M A 2"
_symmetry_group_IT_number 40
_symmetry_cell_setting 'orthorhombic'
loop_
_space_group_symop_operation_xyz
x,y,z
-x,-y,z
1/2-x,y,z
1/2+x,-y,z
x,1/2+y,1/2+z
-x,1/2-y,1/2+z
1/2-x,1/2+y,1/2+z
1/2+x,1/2-y,1/2+z
loop_
_atom_site_type_symbol
_atom_site_label
_atom_site_fract_x
_atom_site_fract_y
_atom_site_fract_z
Si Si1 0.995660 0.684616 0.634980
Si Si2 0.839688 0.875434 0.309582
Si Si3 0.344285 0.668076 0.205907
Si Si4 0.910051 0.606812 0.290856
O O1 0.907584 0.709500 0.728828
O O2 0.967014 0.640229 0.452126
O O3 0.071484 0.599478 0.716038
O O4 0.033271 0.837291 0.636821
O O5 0.750000 0.932543 0.252579
O O6 0.846963 0.886129 0.511772
O O7 0.837168 0.714729 0.287765
O O8 0.250000 0.704578 0.247173
O O9 0.375061 0.539202 0.305067
#
# Coordination Sequence:
#
# PCOD9362728 Si02
#       4
#     8   8   8   8
#     4   9  19  35  59  90 126 162 205 259 314 373
#     4   8  17  32  57  89 126 169 209 258 306 362
#     4  10  18  33  62  94 125 166 215 256 308 372
#     4   9  18  33  59  88 123 162 199 262 311 365
#
# _framework density 25.078744
#
# number of rings (size 3 to 8) (size 9 to 14) (size 15 to 20)
#    1.500    1.500    0.000    1.500    0.000    1.000 
#    0.000    1.250   11.000    1.500    0.000    0.000 
#    0.000    0.000    0.000    0.000    0.000    0.000 
#
# Total GULP energy -89071.788034 kJ/mol
# GULP energy per Si atom -5566.986752 kJ/mol
# Density = 2.502166 g / cm^3
# Si number density = 25.078744 Si / 1000 Ang^3
#
#
#
# Elastic Constant Matrix: (Units=GPa)
#
#
# Indices 1 2 3 4 5 6 
#
# 1 253.7579 40.2660 67.0449 0.0000 0.0000 0.0000
# 2 40.2660 69.2974 13.2418 0.0000 0.0000 0.0000
# 3 67.0449 13.2418 65.5289 0.0000 0.0000 0.0000
# 4 0.0000 0.0000 0.0000 17.0178 0.0000 0.0000
# 5 0.0000 0.0000 0.0000 0.0000 -12.1361 0.0000
# 6 0.0000 0.0000 0.0000 0.0000 0.0000 37.9198
#
#
#
# Elastic Compliance Matrix: (Units=1/GPa)
#
#
# Indices 1 2 3 4 5 6 
#
# 1 0.005732 -0.002299 -0.005400 0.000000 0.000000 0.000000
# 2 -0.002299 0.015932 -0.000867 0.000000 0.000000 0.000000
# 3 -0.005400 -0.000867 0.020961 0.000000 0.000000 0.000000
# 4 0.000000 0.000000 0.000000 0.058762 0.000000 0.000000
# 5 0.000000 0.000000 0.000000 0.000000 -0.082399 0.000000
# 6 0.000000 0.000000 0.000000 0.000000 0.000000 0.026371
#
#
# Mechanical properties :
#
#
# Convention : Reuss Voigt Hill
#
# Bulk Modulus (GPa) = 39.22787 69.96551 54.59669
# Shear Modulus (GPa) = 70.43118 26.42907 48.43013
#
# Velocity S-wave (km/s) = 5.30518 3.24982 4.39922
# Velocity P-wave (km/s) = 7.29400 6.48388 6.90084
#
# Compressibility (1/GPa) = 0.02549208
#
# Stress axis : x y z
#
# Youngs Moduli (GPa) = 174.44708 62.76631 47.70743
#
# Poissons Ratio (x) = 0.14429 0.25764
# Poissons Ratio (y) = 0.40104 0.04138
# Poissons Ratio (z) = 0.94209 0.05444
#
# Static dielectric constant tensor:
#      x y z
#    x 2.064230 0.000000 0.000000 
#    y 0.000000 2.014440 0.000000 
#    z 0.000000 0.000000 2.007950 
# 
# From -- ./inp_files/5881.got.cif
#   From: 2010.05.17/outbox.cif.g08.bks.cpg/sg40_3_cif.got.tgz:5881.got - 2010.06.03 18:35:42.
