data_PCOD9362585
_publ_section_title
;
Structure prediction by ZEFSAII (Michael W. Deem and Ramdas Pophale) SiO2 
 PCOD9362585
Probable space group: A M A 2
;
_chemical_formula_sum "Si O2"
_cell_formula_units_Z 64
_cell_length_a 15.232404
_cell_length_b 13.433539
_cell_length_c 17.073009
_cell_angle_alpha 90.000000
_cell_angle_beta 90.000000
_cell_angle_gamma 90.000000
_cell_volume 3493.566058
_symmetry_space_group_name_H-M "A M A 2"
_symmetry_group_IT_number 40
_symmetry_cell_setting 'orthorhombic'
loop_
_space_group_symop_operation_xyz
x,y,z
-x,-y,z
1/2-x,y,z
1/2+x,-y,z
x,1/2+y,1/2+z
-x,1/2-y,1/2+z
1/2-x,1/2+y,1/2+z
1/2+x,1/2-y,1/2+z
loop_
_atom_site_type_symbol
_atom_site_label
_atom_site_fract_x
_atom_site_fract_y
_atom_site_fract_z
Si Si1 0.848958 0.352482 0.051320
Si Si2 0.152459 0.917858 0.507631
Si Si3 0.420846 0.578957 0.216185
Si Si4 0.548625 0.727092 0.289850
Si Si5 0.850129 0.042169 0.858620
Si Si6 0.148727 0.741937 0.630324
Si Si7 0.504412 0.693469 0.937208
Si Si8 0.143714 0.634014 0.472437
O O1 0.750000 0.309079 0.044302
O O2 0.844595 0.465990 0.021742
O O3 0.875911 0.372749 0.141078
O O4 0.926759 0.299918 0.001933
O O5 0.250000 0.886458 0.479060
O O6 0.136091 0.847453 0.584078
O O7 0.069207 0.896447 0.455112
O O8 0.500000 0.500000 0.195311
O O9 0.461798 0.670256 0.263253
O O10 0.360383 0.520096 0.277641
O O11 0.598587 0.642825 0.340898
O O12 0.594405 0.757893 0.209423
O O13 0.534741 0.814133 0.351110
O O14 0.750000 0.067946 0.872544
O O15 0.878456 0.970809 0.930647
O O16 0.250000 0.737989 0.652806
O O17 0.133204 0.655277 0.565759
O O18 0.573536 0.786127 0.939508
O O19 0.250000 0.650387 0.456809
#
# Coordination Sequence:
#
# PCOD9362585 Si02
#       8
#     8   8   8   8   8   8   8   8
#     4  11  22  34  52  80 110 143 176 220 280 336
#     4   9  18  35  58  81 101 134 179 222 274 335
#     4  10  18  31  50  77 107 137 169 210 274 332
#     4  11  21  30  49  81 114 140 178 226 281 321
#     4  10  19  32  51  78 111 142 177 225 277 333
#     4   9  17  31  52  77 106 140 178 222 270 328
#     4  11  20  33  50  75 111 143 177 220 269 327
#     4   9  18  34  55  77 104 146 189 220 266 335
#
# _framework density 18.319391
#
# number of rings (size 3 to 8) (size 9 to 14) (size 15 to 20)
#    0.000    2.000    1.250    6.000    0.000    2.000 
#    0.000    0.000    0.000    0.000   19.500    0.000 
#    0.000    0.000    0.000    0.000    0.000    0.000 
#
# Total GULP energy -178154.343733 kJ/mol
# GULP energy per Si atom -5567.323242 kJ/mol
# Density = 1.827770 g / cm^3
# Si number density = 18.319391 Si / 1000 Ang^3
#
#
#
# Elastic Constant Matrix: (Units=GPa)
#
#
# Indices 1 2 3 4 5 6 
#
# 1 82.9024 26.1119 42.2447 0.0000 0.0000 0.0000
# 2 26.1119 21.4223 30.5577 0.0000 0.0000 0.0000
# 3 42.2447 30.5577 82.0630 0.0000 0.0000 0.0000
# 4 0.0000 0.0000 0.0000 22.9217 0.0000 0.0000
# 5 0.0000 0.0000 0.0000 0.0000 -13.4962 0.0000
# 6 0.0000 0.0000 0.0000 0.0000 0.0000 8.2961
#
#
#
# Elastic Compliance Matrix: (Units=1/GPa)
#
#
# Indices 1 2 3 4 5 6 
#
# 1 0.019831 -0.020498 -0.002576 0.000000 0.000000 0.000000
# 2 -0.020498 0.120754 -0.034413 0.000000 0.000000 0.000000
# 3 -0.002576 -0.034413 0.026326 0.000000 0.000000 0.000000
# 4 0.000000 0.000000 0.000000 0.043627 0.000000 0.000000
# 5 0.000000 0.000000 0.000000 0.000000 -0.074095 0.000000
# 6 0.000000 0.000000 0.000000 0.000000 0.000000 0.120538
#
#
# Mechanical properties :
#
#
# Convention : Reuss Voigt Hill
#
# Bulk Modulus (GPa) = 19.25401 42.69072 30.97236
# Shear Modulus (GPa) = 12.84463 9.37588 11.11025
#
# Velocity S-wave (km/s) = 2.65079 2.26476 2.46534
# Velocity P-wave (km/s) = 4.46116 5.49481 5.00474
#
# Compressibility (1/GPa) = 0.05193723
#
# Stress axis : x y z
#
# Youngs Moduli (GPa) = 50.42524 8.28132 37.98511
#
# Poissons Ratio (x) = 0.16975 0.09785
# Poissons Ratio (y) = 1.03362 1.30718
# Poissons Ratio (z) = 0.12989 0.28498
#
# Static dielectric constant tensor:
#      x y z
#    x 1.688800 0.000000 0.000000 
#    y 0.000000 1.645940 0.000000 
#    z 0.000000 0.000000 1.664720 
# 
# From -- ./inp_files/20881.got.cif
#   From: 2010.05.17/outbox.cif.g08.bks.cpg/sg40_11_cif.got.tgz:20881.got - 2010.06.03 18:35:42.
