data_PCOD9362272
_publ_section_title
;
Structure prediction by ZEFSAII (Michael W. Deem and Ramdas Pophale) SiO2 
 PCOD9362272
Probable space group: A M A 2
;
_chemical_formula_sum "Si O2"
_cell_formula_units_Z 44
_cell_length_a 16.486789
_cell_length_b 14.381200
_cell_length_c 9.767598
_cell_angle_alpha 90.000000
_cell_angle_beta 90.000000
_cell_angle_gamma 90.000000
_cell_volume 2315.895630
_symmetry_space_group_name_H-M "A M A 2"
_symmetry_group_IT_number 40
_symmetry_cell_setting 'orthorhombic'
loop_
_space_group_symop_operation_xyz
x,y,z
-x,-y,z
1/2-x,y,z
1/2+x,-y,z
x,1/2+y,1/2+z
-x,1/2-y,1/2+z
1/2-x,1/2+y,1/2+z
1/2+x,1/2-y,1/2+z
loop_
_atom_site_type_symbol
_atom_site_label
_atom_site_fract_x
_atom_site_fract_y
_atom_site_fract_z
Si Si1 0.026820 0.302946 0.863390
Si Si2 0.000000 0.000000 0.951814
Si Si3 0.107831 0.357694 0.360003
Si Si4 0.090373 0.083220 0.192102
Si Si5 0.657975 0.625989 0.667492
Si Si6 0.339076 0.772409 0.592569
O O1 0.093849 0.308597 0.743764
O O2 0.967754 0.214411 0.857744
O O3 0.964536 0.387418 0.822952
O O4 0.083797 0.300096 0.997965
O O5 0.070794 0.960492 0.860492
O O6 0.968305 0.923785 0.059413
O O7 0.151986 0.353063 0.505833
O O8 0.158419 0.336525 0.226549
O O9 0.148624 0.168155 0.152749
O O10 0.131992 0.981891 0.198294
O O11 0.750000 0.639168 0.712767
O O12 0.250000 0.778908 0.526024
#
# Coordination Sequence:
#
# PCOD9362272 Si02
#       6
#     8   4   8   8   8   8
#     4  11  19  35  58  84 113 149 191 225 280 347
#     4  10  16  38  58  82  96 144 206 226 254 330
#     4  10  20  36  59  82 109 151 191 230 273 343
#     4  10  19  37  61  81 107 148 197 227 268 341
#     4  11  21  37  62  87 113 147 194 241 278 325
#     4  11  22  35  54  87 120 141 177 242 301 327
#
# _framework density 18.999129
#
# number of rings (size 3 to 8) (size 9 to 14) (size 15 to 20)
#    0.000    1.455    5.455    2.727    0.000    0.000 
#    3.273    0.000    0.000    0.000    0.000    0.000 
#    0.000    0.000    0.000    0.000    0.000    0.000 
#
# Total GULP energy -122467.654094 kJ/mol
# GULP energy per Si atom -5566.711550 kJ/mol
# Density = 1.895589 g / cm^3
# Si number density = 18.999129 Si / 1000 Ang^3
#
#
#
# Elastic Constant Matrix: (Units=GPa)
#
#
# Indices 1 2 3 4 5 6 
#
# 1 119.8354 21.3264 34.3674 0.0000 0.0000 0.0000
# 2 21.3264 45.6913 25.3819 0.0000 0.0000 0.0000
# 3 34.3674 25.3819 73.4408 0.0000 0.0000 0.0000
# 4 0.0000 0.0000 0.0000 26.3438 0.0000 0.0000
# 5 0.0000 0.0000 0.0000 0.0000 19.2179 0.0000
# 6 0.0000 0.0000 0.0000 0.0000 0.0000 10.1426
#
#
#
# Elastic Compliance Matrix: (Units=1/GPa)
#
#
# Indices 1 2 3 4 5 6 
#
# 1 0.009868 -0.002526 -0.003745 0.000000 0.000000 0.000000
# 2 -0.002526 0.027733 -0.008403 0.000000 0.000000 0.000000
# 3 -0.003745 -0.008403 0.018273 0.000000 0.000000 0.000000
# 4 0.000000 0.000000 0.000000 0.037960 0.000000 0.000000
# 5 0.000000 0.000000 0.000000 0.000000 0.052035 0.000000
# 6 0.000000 0.000000 0.000000 0.000000 0.000000 0.098594
#
#
# Mechanical properties :
#
#
# Convention : Reuss Voigt Hill
#
# Bulk Modulus (GPa) = 37.69741 44.56876 41.13309
# Shear Modulus (GPa) = 17.68959 21.66697 19.67828
#
# Velocity S-wave (km/s) = 3.05466 3.38067 3.22179
# Velocity P-wave (km/s) = 5.68560 6.22478 5.96128
#
# Compressibility (1/GPa) = 0.02652702
#
# Stress axis : x y z
#
# Youngs Moduli (GPa) = 101.33455 36.05858 54.72532
#
# Poissons Ratio (x) = 0.09107 0.20495
# Poissons Ratio (y) = 0.25593 0.45985
# Poissons Ratio (z) = 0.37951 0.30299
#
# Static dielectric constant tensor:
#      x y z
#    x 1.730350 0.000000 0.000000 
#    y 0.000000 1.688780 0.000000 
#    z 0.000000 0.000000 1.664530 
# 
# From -- ./inp_files/7379.got.cif
#   From: 2010.05.17/outbox.cif.g08.bks.cpg/sg40_4_cif.got.tgz:7379.got - 2010.06.03 18:35:42.
