data_PCOD9362300
_publ_section_title
;
Structure prediction by ZEFSAII (Michael W. Deem and Ramdas Pophale) SiO2 
 PCOD9362300
Probable space group: A M A 2
;
_chemical_formula_sum "Si O2"
_cell_formula_units_Z 32
_cell_length_a 8.656251
_cell_length_b 9.221312
_cell_length_c 21.887933
_cell_angle_alpha 90.000000
_cell_angle_beta 90.000000
_cell_angle_gamma 90.000000
_cell_volume 1747.138396
_symmetry_space_group_name_H-M "A M A 2"
_symmetry_group_IT_number 40
_symmetry_cell_setting 'orthorhombic'
loop_
_space_group_symop_operation_xyz
x,y,z
-x,-y,z
1/2-x,y,z
1/2+x,-y,z
x,1/2+y,1/2+z
-x,1/2-y,1/2+z
1/2-x,1/2+y,1/2+z
1/2+x,1/2-y,1/2+z
loop_
_atom_site_type_symbol
_atom_site_label
_atom_site_fract_x
_atom_site_fract_y
_atom_site_fract_z
Si Si1 0.565197 0.164304 0.458040
Si Si2 0.065770 0.337093 0.208787
Si Si3 0.064503 0.336669 0.822950
Si Si4 0.434252 0.165152 0.582618
O O1 0.750000 0.158648 0.465091
O O2 0.528713 0.226091 0.390832
O O3 0.492335 0.233034 0.518883
O O4 0.500000 0.000000 0.455679
O O5 0.250000 0.341864 0.205074
O O6 0.000000 0.500000 0.213394
O O7 0.010154 0.251467 0.268051
O O8 0.999115 0.270627 0.145654
O O9 0.250000 0.339343 0.816697
O O10 0.000000 0.500000 0.820777
O O11 0.250000 0.160462 0.583954
O O12 0.500000 0.000000 0.582203
#
# Coordination Sequence:
#
# PCOD9362300 Si02
#       4
#     8   8   8   8
#     4   9  16  27  45  69  97 126 160 202 245 289
#     4  11  21  34  52  74 102 134 169 208 251 298
#     4  10  20  34  52  76 104 134 168 205 248 297
#     4  10  17  27  45  69  97 126 162 205 248 292
#
# _framework density 18.315664999999999
#
# number of rings (size 3 to 8) (size 9 to 14) (size 15 to 20)
#    0.000    2.000    0.000    9.000    0.000    3.000 
#    0.000    0.000    0.000    1.500    0.000    3.500 
#    0.000    0.000    0.000    0.000    0.000    0.000 
#
# Total GULP energy -89205.637073 kJ/mol
# GULP energy per Si atom -5575.352317 kJ/mol
# Density = 1.827398 g / cm^3
# Si number density = 18.315665 Si / 1000 Ang^3
#
#
#
# Elastic Constant Matrix: (Units=GPa)
#
#
# Indices 1 2 3 4 5 6 
#
# 1 161.2977 17.2423 97.6952 0.0000 0.0000 0.0000
# 2 17.2423 18.0831 39.7567 0.0000 0.0000 0.0000
# 3 97.6952 39.7567 232.9905 0.0000 0.0000 0.0000
# 4 0.0000 0.0000 0.0000 26.5476 0.0000 0.0000
# 5 0.0000 0.0000 0.0000 0.0000 36.6092 0.0000
# 6 0.0000 0.0000 0.0000 0.0000 0.0000 17.8790
#
#
#
# Elastic Compliance Matrix: (Units=1/GPa)
#
#
# Indices 1 2 3 4 5 6 
#
# 1 0.008312 -0.000421 -0.003414 0.000000 0.000000 0.000000
# 2 -0.000421 0.088523 -0.014929 0.000000 0.000000 0.000000
# 3 -0.003414 -0.014929 0.008271 0.000000 0.000000 0.000000
# 4 0.000000 0.000000 0.000000 0.037668 0.000000 0.000000
# 5 0.000000 0.000000 0.000000 0.000000 0.027316 0.000000
# 6 0.000000 0.000000 0.000000 0.000000 0.000000 0.055932
#
#
# Mechanical properties :
#
#
# Convention : Reuss Voigt Hill
#
# Bulk Modulus (GPa) = 14.79730 80.19551 47.49641
# Shear Modulus (GPa) = 17.47795 33.38564 25.43180
#
# Velocity S-wave (km/s) = 3.09246 4.27405 3.73034
# Velocity P-wave (km/s) = 4.56593 8.26056 6.67400
#
# Compressibility (1/GPa) = 0.06757988
#
# Stress axis : x y z
#
# Youngs Moduli (GPa) = 120.30420 11.29646 120.90738
#
# Poissons Ratio (x) = 0.00475 0.41273
# Poissons Ratio (y) = 0.05062 1.80501
# Poissons Ratio (z) = 0.41067 0.16864
#
# Static dielectric constant tensor:
#      x y z
#    x 1.606960 0.000000 0.000000 
#    y 0.000000 1.609440 0.000000 
#    z 0.000000 0.000000 1.720070 
# 
# From -- ./inp_files/18959.got.cif
#   From: 2010.05.17/outbox.cif.g08.bks.cpg/sg40_10_cif.got.tgz:18959.got - 2010.06.03 18:35:42.
