data_PCOD9362545
_publ_section_title
;
Structure prediction by ZEFSAII (Michael W. Deem and Ramdas Pophale) SiO2 
 PCOD9362545
Probable space group: A M A 2
;
_chemical_formula_sum "Si O2"
_cell_formula_units_Z 64
_cell_length_a 8.884489
_cell_length_b 34.612021
_cell_length_c 11.911906
_cell_angle_alpha 90.000000
_cell_angle_beta 90.000000
_cell_angle_gamma 90.000000
_cell_volume 3663.031642
_symmetry_space_group_name_H-M "A M A 2"
_symmetry_group_IT_number 40
_symmetry_cell_setting 'orthorhombic'
loop_
_space_group_symop_operation_xyz
x,y,z
-x,-y,z
1/2-x,y,z
1/2+x,-y,z
x,1/2+y,1/2+z
-x,1/2-y,1/2+z
1/2-x,1/2+y,1/2+z
1/2+x,1/2-y,1/2+z
loop_
_atom_site_type_symbol
_atom_site_label
_atom_site_fract_x
_atom_site_fract_y
_atom_site_fract_z
Si Si1 0.929604 0.680746 0.183160
Si Si2 0.075497 0.883704 0.074772
Si Si3 0.069170 0.626339 0.002447
Si Si4 0.070336 0.040649 0.167406
Si Si5 0.929862 0.458977 0.933946
Si Si6 0.069396 0.732391 0.635351
Si Si7 0.428974 0.178981 0.926897
Si Si8 0.924342 0.671123 0.793403
O O1 0.750000 0.676070 0.177530
O O2 0.969527 0.722638 0.131641
O O3 0.984575 0.682528 0.310823
O O4 0.008309 0.646788 0.113891
O O5 0.250000 0.885086 0.039975
O O6 0.068407 0.859324 0.190626
O O7 0.008446 0.925216 0.100860
O O8 0.975741 0.861072 0.985035
O O9 0.250000 0.626720 0.999885
O O10 0.019644 0.581397 0.989968
O O11 0.008666 0.651819 0.897958
O O12 0.250000 0.041333 0.153282
O O13 0.038279 0.045460 0.300701
O O14 0.000000 0.000000 0.133155
O O15 0.750000 0.461917 0.947182
O O16 0.000000 0.500000 0.970977
O O17 0.250000 0.728680 0.647361
O O18 0.026459 0.711195 0.519450
O O19 0.994788 0.709919 0.740056
O O20 0.250000 0.181328 0.909146
O O21 0.750000 0.677814 0.823628
#
# Coordination Sequence:
#
# PCOD9362545 Si02
#       8
#     8   8   8   8   8   8   8   8
#     4  11  24  40  57  83 112 146 190 237 282 335
#     4  10  19  33  54  80 109 145 183 227 277 332
#     4  11  22  37  56  83 116 153 190 231 284 341
#     4  10  18  30  49  79 115 148 182 225 276 335
#     4   9  19  33  53  80 114 150 187 229 280 337
#     4   9  21  39  58  80 110 145 184 230 281 332
#     4  10  21  39  59  79 107 147 188 230 279 335
#     4  10  20  33  54  82 111 144 185 227 275 331
#
# _framework density 17.471865999999999
#
# number of rings (size 3 to 8) (size 9 to 14) (size 15 to 20)
#    0.000    2.000    1.250    2.250    1.750    4.000 
#    0.000    0.000    0.000    0.750    0.000    3.500 
#    0.000    0.000    0.000    0.000    0.000    0.000 
#
# Total GULP energy -178624.019991 kJ/mol
# GULP energy per Si atom -5582.000625 kJ/mol
# Density = 1.743210 g / cm^3
# Si number density = 17.471866 Si / 1000 Ang^3
#
#
#
# Elastic Constant Matrix: (Units=GPa)
#
#
# Indices 1 2 3 4 5 6 
#
# 1 41.0159 30.8862 22.2105 0.0000 0.0000 0.0000
# 2 30.8862 126.5431 41.2074 0.0000 0.0000 0.0000
# 3 22.2105 41.2074 66.2220 0.0000 0.0000 0.0000
# 4 0.0000 0.0000 0.0000 9.2678 0.0000 0.0000
# 5 0.0000 0.0000 0.0000 0.0000 29.3605 0.0000
# 6 0.0000 0.0000 0.0000 0.0000 0.0000 29.6132
#
#
#
# Elastic Compliance Matrix: (Units=1/GPa)
#
#
# Indices 1 2 3 4 5 6 
#
# 1 0.032594 -0.005513 -0.007502 0.000000 0.000000 0.000000
# 2 -0.005513 0.010843 -0.004898 0.000000 0.000000 0.000000
# 3 -0.007502 -0.004898 0.020665 0.000000 0.000000 0.000000
# 4 0.000000 0.000000 0.000000 0.107901 0.000000 0.000000
# 5 0.000000 0.000000 0.000000 0.000000 0.034059 0.000000
# 6 0.000000 0.000000 0.000000 0.000000 0.000000 0.033769
#
#
# Mechanical properties :
#
#
# Convention : Reuss Voigt Hill
#
# Bulk Modulus (GPa) = 35.36462 46.93213 41.14838
# Shear Modulus (GPa) = 17.53885 22.94676 20.24281
#
# Velocity S-wave (km/s) = 3.17177 3.62796 3.40751
# Velocity P-wave (km/s) = 5.80503 6.66853 6.25170
#
# Compressibility (1/GPa) = 0.02827685
#
# Stress axis : x y z
#
# Youngs Moduli (GPa) = 30.68036 92.22515 48.39158
#
# Poissons Ratio (x) = 0.50840 0.36301
# Poissons Ratio (y) = 0.16913 0.23704
# Poissons Ratio (z) = 0.23015 0.45175
#
# Static dielectric constant tensor:
#      x y z
#    x 1.583170 0.000000 0.000000 
#    y 0.000000 1.629300 0.000000 
#    z 0.000000 0.000000 1.572620 
# 
# From -- ./inp_files/10624.got.cif
#   From: 2010.05.17/outbox.cif.g08.bks.cpg/sg40_6_cif.got.tgz:10624.got - 2010.06.03 18:35:42.
