data_PCOD9362882
_publ_section_title
;
Structure prediction by ZEFSAII (Michael W. Deem and Ramdas Pophale) SiO2 
 PCOD9362882
Probable space group: A M A 2
;
_chemical_formula_sum "Si O2"
_cell_formula_units_Z 56
_cell_length_a 8.974534
_cell_length_b 19.316746
_cell_length_c 17.869661
_cell_angle_alpha 90.000000
_cell_angle_beta 90.000000
_cell_angle_gamma 90.000000
_cell_volume 3097.862876
_symmetry_space_group_name_H-M "A M A 2"
_symmetry_group_IT_number 40
_symmetry_cell_setting 'orthorhombic'
loop_
_space_group_symop_operation_xyz
x,y,z
-x,-y,z
1/2-x,y,z
1/2+x,-y,z
x,1/2+y,1/2+z
-x,1/2-y,1/2+z
1/2-x,1/2+y,1/2+z
1/2+x,1/2-y,1/2+z
loop_
_atom_site_type_symbol
_atom_site_label
_atom_site_fract_x
_atom_site_fract_y
_atom_site_fract_z
Si Si1 0.918084 0.706307 0.732460
Si Si2 0.421543 0.570014 0.896948
Si Si3 0.427526 0.310736 0.985826
Si Si4 0.070295 0.424055 0.280919
Si Si5 0.068812 0.700934 0.370195
Si Si6 0.081492 0.069373 0.215928
Si Si7 0.920602 0.347592 0.141716
O O1 0.750000 0.681751 0.748503
O O2 0.978103 0.741212 0.808540
O O3 0.914310 0.771145 0.677389
O O4 0.006011 0.642325 0.698663
O O5 0.500000 0.500000 0.924033
O O6 0.250000 0.575196 0.922239
O O7 0.518465 0.633276 0.925613
O O8 0.420028 0.567974 0.806805
O O9 0.250000 0.312269 0.994212
O O10 0.466517 0.235252 0.950547
O O11 0.503973 0.335572 0.061993
O O12 0.250000 0.426169 0.281852
O O13 0.000000 0.500000 0.292434
O O14 0.008844 0.369671 0.343355
O O15 0.011032 0.394607 0.200817
O O16 0.250000 0.693137 0.363761
O O17 0.250000 0.068500 0.189477
O O18 0.000000 0.000000 0.189735
O O19 0.750000 0.373443 0.135322
#
# Coordination Sequence:
#
# PCOD9362882 Si02
#       7
#     8   8   8   8   8   8   8
#     4   9  17  33  53  73 102 137 172 217 266 314
#     4  10  20  32  47  72 105 140 175 212 255 306
#     4  11  21  35  55  80 111 147 184 225 273 328
#     4  11  22  38  61  86 113 146 189 235 284 339
#     4   9  19  35  56  81 110 143 181 227 277 327
#     4  10  19  29  47  73 101 132 169 210 253 303
#     4  10  22  38  55  79 111 145 181 224 276 331
#
# _framework density 18.076976999999999
#
# number of rings (size 3 to 8) (size 9 to 14) (size 15 to 20)
#    0.000    2.000    1.429    3.857    0.000    5.714 
#    0.000    2.857    0.000    0.857    0.000    6.000 
#    0.000    0.000    0.000    0.000    0.000    0.000 
#
# Total GULP energy -156085.864691 kJ/mol
# GULP energy per Si atom -5574.495168 kJ/mol
# Density = 1.803583 g / cm^3
# Si number density = 18.076977 Si / 1000 Ang^3
#
#
#
# Elastic Constant Matrix: (Units=GPa)
#
#
# Indices 1 2 3 4 5 6 
#
# 1 85.6796 42.5867 11.7006 0.0000 0.0000 0.0000
# 2 42.5867 120.2086 13.8260 0.0000 0.0000 0.0000
# 3 11.7006 13.8260 30.4709 0.0000 0.0000 0.0000
# 4 0.0000 0.0000 0.0000 7.9854 0.0000 0.0000
# 5 0.0000 0.0000 0.0000 0.0000 -571.1031 0.0000
# 6 0.0000 0.0000 0.0000 0.0000 0.0000 33.5655
#
#
#
# Elastic Compliance Matrix: (Units=1/GPa)
#
#
# Indices 1 2 3 4 5 6 
#
# 1 0.014495 -0.004742 -0.003414 0.000000 0.000000 0.000000
# 2 -0.004742 0.010329 -0.002865 0.000000 0.000000 0.000000
# 3 -0.003414 -0.002865 0.035429 0.000000 0.000000 0.000000
# 4 0.000000 0.000000 0.000000 0.125228 0.000000 0.000000
# 5 0.000000 0.000000 0.000000 0.000000 -0.001751 0.000000
# 6 0.000000 0.000000 0.000000 0.000000 0.000000 0.029792
#
#
# Mechanical properties :
#
#
# Convention : Reuss Voigt Hill
#
# Bulk Modulus (GPa) = 26.17197 41.39841 33.78519
# Shear Modulus (GPa) = 20.13673 -94.69404 -37.27866
#
# Velocity S-wave (km/s) = 3.34120 -7.24552 -4.54609
# Velocity P-wave (km/s) = 5.42165 6.85899 2.97081
#
# Compressibility (1/GPa) = 0.03820882
#
# Stress axis : x y z
#
# Youngs Moduli (GPa) = 68.99009 96.81879 28.22522
#
# Poissons Ratio (x) = 0.45916 0.09636
# Poissons Ratio (y) = 0.32718 0.08088
# Poissons Ratio (z) = 0.23553 0.27743
#
# Static dielectric constant tensor:
#      x y z
#    x 1.703650 0.000000 0.000000 
#    y 0.000000 1.627760 0.000000 
#    z 0.000000 0.000000 1.644340 
# 
# From -- ./inp_files/19503.got.cif
#   From: 2010.05.17/outbox.cif.g08.bks.cpg/sg40_10_cif.got.tgz:19503.got - 2010.06.03 18:35:42.
