data_PCOD9362729
_publ_section_title
;
Structure prediction by ZEFSAII (Michael W. Deem and Ramdas Pophale) SiO2 
 PCOD9362729
Probable space group: A M A 2
;
_chemical_formula_sum "Si O2"
_cell_formula_units_Z 44
_cell_length_a 23.609030
_cell_length_b 10.782468
_cell_length_c 8.321870
_cell_angle_alpha 90.000000
_cell_angle_beta 90.000000
_cell_angle_gamma 90.000000
_cell_volume 2118.445273
_symmetry_space_group_name_H-M "A M A 2"
_symmetry_group_IT_number 40
_symmetry_cell_setting 'orthorhombic'
loop_
_space_group_symop_operation_xyz
x,y,z
-x,-y,z
1/2-x,y,z
1/2+x,-y,z
x,1/2+y,1/2+z
-x,1/2-y,1/2+z
1/2-x,1/2+y,1/2+z
1/2+x,1/2-y,1/2+z
loop_
_atom_site_type_symbol
_atom_site_label
_atom_site_fract_x
_atom_site_fract_y
_atom_site_fract_z
Si Si1 0.374757 0.737795 0.399660
Si Si2 0.634471 0.300980 0.040672
Si Si3 0.250000 0.075105 0.663342
Si Si4 0.250000 0.305741 0.007473
Si Si5 0.934102 0.022983 0.385471
Si Si6 0.250000 0.543914 0.560208
Si Si7 0.628637 0.031938 0.056778
O O1 0.392125 0.718707 0.216100
O O2 0.309771 0.787233 0.415158
O O3 0.413184 0.848734 0.467625
O O4 0.378612 0.600571 0.471952
O O5 0.696238 0.352590 0.090054
O O6 0.629793 0.163420 0.962673
O O7 0.601712 0.406653 0.947646
O O8 0.250000 0.057992 0.861086
O O9 0.250000 0.936020 0.595233
O O10 0.250000 0.184972 0.123737
O O11 0.916439 0.034006 0.199019
O O12 0.000000 0.000000 0.407445
O O13 0.306297 0.476718 0.617586
#
# Coordination Sequence:
#
# PCOD9362729 Si02
#       7
#     8   8   4   4   8   4   8
#     4  10  21  42  64  90 130 166 203 262 320 379
#     4  11  22  39  66  95 125 164 208 255 317 380
#     4  12  19  34  68  96 129 160 200 254 323 394
#     4  10  18  33  63  95 126 163 190 250 328 384
#     4  11  26  43  62  92 126 170 225 264 306 364
#     4  10  21  39  63  99 131 155 202 252 323 400
#     4  10  23  41  67  95 130 162 207 263 320 382
#
# _framework density 20.769949
#
# number of rings (size 3 to 8) (size 9 to 14) (size 15 to 20)
#    0.000    1.455    5.455    0.545    0.000   10.182 
#    0.000    0.909    0.000    0.000    0.000    0.000 
#    0.000    0.000    0.000    0.000    0.000    0.000 
#
# Total GULP energy -122587.972514 kJ/mol
# GULP energy per Si atom -5572.180569 kJ/mol
# Density = 2.072268 g / cm^3
# Si number density = 20.769949 Si / 1000 Ang^3
#
#
#
# Elastic Constant Matrix: (Units=GPa)
#
#
# Indices 1 2 3 4 5 6 
#
# 1 88.3531 33.1646 7.1407 0.0000 0.0000 0.0000
# 2 33.1646 210.4903 29.8415 0.0000 0.0000 0.0000
# 3 7.1407 29.8415 23.7647 0.0000 0.0000 0.0000
# 4 0.0000 0.0000 0.0000 34.7429 0.0000 0.0000
# 5 0.0000 0.0000 0.0000 0.0000 64.0838 0.0000
# 6 0.0000 0.0000 0.0000 0.0000 0.0000 -6.6508
#
#
#
# Elastic Compliance Matrix: (Units=1/GPa)
#
#
# Indices 1 2 3 4 5 6 
#
# 1 0.012074 -0.001689 -0.001507 0.000000 0.000000 0.000000
# 2 -0.001689 0.006016 -0.007047 0.000000 0.000000 0.000000
# 3 -0.001507 -0.007047 0.051381 0.000000 0.000000 0.000000
# 4 0.000000 0.000000 0.000000 0.028783 0.000000 0.000000
# 5 0.000000 0.000000 0.000000 0.000000 0.015605 0.000000
# 6 0.000000 0.000000 0.000000 0.000000 0.000000 -0.150358
#
#
# Mechanical properties :
#
#
# Convention : Reuss Voigt Hill
#
# Bulk Modulus (GPa) = 20.41446 51.43354 35.92400
# Shear Modulus (GPa) = 15898.24271 35.26594 7966.75433
#
# Velocity S-wave (km/s) = 87.58460 4.12507 62.00031
# Velocity P-wave (km/s) = 101.18267 6.89242 71.71275
#
# Compressibility (1/GPa) = 0.04898489
#
# Stress axis : x y z
#
# Youngs Moduli (GPa) = 82.82318 166.22583 19.46245
#
# Poissons Ratio (x) = 0.28069 0.02934
# Poissons Ratio (y) = 0.13986 0.13715
# Poissons Ratio (z) = 0.12486 1.17137
#
# Static dielectric constant tensor:
#      x y z
#    x 1.727080 0.000000 0.000000 
#    y 0.000000 1.841450 0.000000 
#    z 0.000000 0.000000 1.779640 
# 
# From -- ./inp_files/8709.got.cif
#   From: 2010.05.17/outbox.cif.g08.bks.cpg/sg40_5_cif.got.tgz:8709.got - 2010.06.03 18:35:42.
