data_PCOD9362236
_publ_section_title
;
Structure prediction by ZEFSAII (Michael W. Deem and Ramdas Pophale) SiO2 
 PCOD9362236
Probable space group: A M A 2
;
_chemical_formula_sum "Si O2"
_cell_formula_units_Z 52
_cell_length_a 16.797415
_cell_length_b 15.327791
_cell_length_c 9.468294
_cell_angle_alpha 90.000000
_cell_angle_beta 90.000000
_cell_angle_gamma 90.000000
_cell_volume 2437.775774
_symmetry_space_group_name_H-M "A M A 2"
_symmetry_group_IT_number 40
_symmetry_cell_setting 'orthorhombic'
loop_
_space_group_symop_operation_xyz
x,y,z
-x,-y,z
1/2-x,y,z
1/2+x,-y,z
x,1/2+y,1/2+z
-x,1/2-y,1/2+z
1/2-x,1/2+y,1/2+z
1/2+x,1/2-y,1/2+z
loop_
_atom_site_type_symbol
_atom_site_label
_atom_site_fract_x
_atom_site_fract_y
_atom_site_fract_z
Si Si1 0.976580 0.180724 0.975860
Si Si2 0.250000 0.726010 0.308936
Si Si3 0.156222 0.448254 0.483259
Si Si4 0.585757 0.865452 0.482932
Si Si5 0.902157 0.401648 0.280654
Si Si6 0.250000 0.740911 0.976552
Si Si7 0.750000 0.775581 0.145002
Si Si8 0.898263 0.908143 0.178698
O O1 0.887198 0.143855 0.977558
O O2 0.974251 0.283718 0.994749
O O3 0.021056 0.150667 0.834837
O O4 0.027087 0.128596 0.091758
O O5 0.172163 0.664028 0.301887
O O6 0.250000 0.761526 0.477542
O O7 0.250000 0.775002 0.150219
O O8 0.250000 0.441905 0.464755
O O9 0.116974 0.512131 0.368065
O O10 0.134562 0.500039 0.624854
O O11 0.584565 0.924142 0.619490
O O12 0.672699 0.820920 0.477727
O O13 0.575593 0.914150 0.338283
O O14 0.250000 0.773059 0.802991
O O15 0.827907 0.837653 0.152831
#
# Coordination Sequence:
#
# PCOD9362236 Si02
#       8
#     8   4   8   8   8   4   4   8
#     4  11  22  34  56  87 117 138 177 240 296 328
#     4  10  14  30  55  78 107 144 196 232 260 328
#     4  11  21  38  57  80 108 149 193 230 270 343
#     4  10  21  34  58  85 113 141 183 242 276 334
#     4  10  18  36  57  82 107 150 193 218 273 351
#     4   8  20  28  48  86 108 140 192 230 276 334
#     4  10  14  30  55  78 107 144 196 232 260 328
#     4  10  18  36  57  82 107 150 193 218 273 351
#
# _framework density 21.330919999999999
#
# number of rings (size 3 to 8) (size 9 to 14) (size 15 to 20)
#    0.000    1.846    4.615    2.769    1.077    0.000 
#    0.000    3.077    0.000    0.000    0.000    0.000 
#    0.000    0.000    0.000    0.000    0.000    0.000 
#
# Total GULP energy -144822.593009 kJ/mol
# GULP energy per Si atom -5570.099731 kJ/mol
# Density = 2.128237 g / cm^3
# Si number density = 21.330920 Si / 1000 Ang^3
#
#
#
# Elastic Constant Matrix: (Units=GPa)
#
#
# Indices 1 2 3 4 5 6 
#
# 1 55.8321 5.2246 -2.4729 0.0000 0.0000 0.0000
# 2 5.2246 52.6383 13.3911 0.0000 0.0000 0.0000
# 3 -2.4729 13.3911 171.0201 0.0000 0.0000 0.0000
# 4 0.0000 0.0000 0.0000 -47.6320 0.0000 0.0000
# 5 0.0000 0.0000 0.0000 0.0000 15.0832 0.0000
# 6 0.0000 0.0000 0.0000 0.0000 0.0000 -6.9638
#
#
#
# Elastic Compliance Matrix: (Units=1/GPa)
#
#
# Indices 1 2 3 4 5 6 
#
# 1 0.018107 -0.001902 0.000411 0.000000 0.000000 0.000000
# 2 -0.001902 0.019583 -0.001561 0.000000 0.000000 0.000000
# 3 0.000411 -0.001561 0.005975 0.000000 0.000000 0.000000
# 4 0.000000 0.000000 0.000000 -0.020994 0.000000 0.000000
# 5 0.000000 0.000000 0.000000 0.000000 0.066299 0.000000
# 6 0.000000 0.000000 0.000000 0.000000 0.000000 -0.143599
#
#
# Mechanical properties :
#
#
# Convention : Reuss Voigt Hill
#
# Bulk Modulus (GPa) = 26.62256 34.64176 30.63216
# Shear Modulus (GPa) = -138.87141 9.65401 -64.60870
#
# Velocity S-wave (km/s) = -8.07742 2.12971 -5.50949
# Velocity P-wave (km/s) = 8.63047 4.72472 5.10696
#
# Compressibility (1/GPa) = 0.03756213
#
# Stress axis : x y z
#
# Youngs Moduli (GPa) = 55.22726 51.06363 167.35208
#
# Poissons Ratio (x) = 0.09711 -0.06874
# Poissons Ratio (y) = 0.10502 0.26122
# Poissons Ratio (z) = -0.02268 0.07971
#
# Static dielectric constant tensor:
#      x y z
#    x 1.823450 0.000000 0.000000 
#    y 0.000000 1.759850 0.000000 
#    z 0.000000 0.000000 1.880020 
# 
# From -- ./inp_files/7669.got.cif
#   From: 2010.05.17/outbox.cif.g08.bks.cpg/sg40_4_cif.got.tgz:7669.got - 2010.06.03 18:35:42.
