data_PCOD9362947
_publ_section_title
;
Structure prediction by ZEFSAII (Michael W. Deem and Ramdas Pophale) SiO2 
 PCOD9362947
Probable space group: A M A 2
;
_chemical_formula_sum "Si O2"
_cell_formula_units_Z 64
_cell_length_a 9.943122
_cell_length_b 23.247840
_cell_length_c 12.621321
_cell_angle_alpha 90.000000
_cell_angle_beta 90.000000
_cell_angle_gamma 90.000000
_cell_volume 2917.495457
_symmetry_space_group_name_H-M "A M A 2"
_symmetry_group_IT_number 40
_symmetry_cell_setting 'orthorhombic'
loop_
_space_group_symop_operation_xyz
x,y,z
-x,-y,z
1/2-x,y,z
1/2+x,-y,z
x,1/2+y,1/2+z
-x,1/2-y,1/2+z
1/2-x,1/2+y,1/2+z
1/2+x,1/2-y,1/2+z
loop_
_atom_site_type_symbol
_atom_site_label
_atom_site_fract_x
_atom_site_fract_y
_atom_site_fract_z
Si Si1 0.088548 0.446706 0.433430
Si Si2 0.894941 0.953817 0.544319
Si Si3 0.410433 0.556523 0.792188
Si Si4 0.409728 0.836998 0.320535
Si Si5 0.597565 0.718106 0.041287
Si Si6 0.103199 0.818718 0.995276
Si Si7 0.104629 0.597721 0.259216
Si Si8 0.014192 0.288136 0.271992
O O1 0.250000 0.456609 0.428237
O O2 0.069955 0.386505 0.496864
O O3 0.000000 0.500000 0.476846
O O4 0.017831 0.432874 0.319770
O O5 0.750000 0.982075 0.554888
O O6 0.909920 0.941051 0.421077
O O7 0.902396 0.904887 0.632023
O O8 0.000000 0.000000 0.579035
O O9 0.500000 0.500000 0.762627
O O10 0.250000 0.555003 0.760094
O O11 0.496628 0.613994 0.768222
O O12 0.250000 0.849233 0.308019
O O13 0.436650 0.827137 0.447600
O O14 0.452885 0.775240 0.274843
O O15 0.750000 0.735258 0.018339
O O16 0.584809 0.697388 0.161467
O O17 0.505222 0.774399 0.037415
O O18 0.250000 0.810254 0.044943
O O19 0.108978 0.799429 0.871972
O O20 0.250000 0.572425 0.290698
O O21 0.099397 0.664161 0.289591
#
# Coordination Sequence:
#
# PCOD9362947 Si02
#       8
#     8   8   8   8   8   8   8   8
#     4  10  20  33  50  73 102 140 181 224 273 323
#     4   9  18  30  45  69 100 135 175 215 260 314
#     4  10  20  35  54  75 102 138 177 221 271 323
#     4  10  21  36  55  83 113 143 182 226 270 323
#     4  10  21  36  57  83 112 146 183 224 272 322
#     4   9  20  36  54  79 111 143 181 226 272 325
#     4  10  19  31  48  73 105 141 179 218 262 319
#     4  10  20  35  56  81 111 146 182 222 270 323
#
# _framework density 21.936623999999998
#
# number of rings (size 3 to 8) (size 9 to 14) (size 15 to 20)
#    0.000    2.250    0.000    2.625    0.000    9.500 
#    0.000    0.000    0.000    0.750    0.000    1.750 
#    0.000    0.000    0.000    0.000    0.000    0.000 
#
# Total GULP energy -178306.489089 kJ/mol
# GULP energy per Si atom -5572.077784 kJ/mol
# Density = 2.188670 g / cm^3
# Si number density = 21.936624 Si / 1000 Ang^3
#
#
#
# Elastic Constant Matrix: (Units=GPa)
#
#
# Indices 1 2 3 4 5 6 
#
# 1 138.8406 69.6972 0.3628 0.0000 0.0000 0.0000
# 2 69.6972 127.8727 -14.4240 0.0000 0.0000 0.0000
# 3 0.3628 -14.4240 50.2531 0.0000 0.0000 0.0000
# 4 0.0000 0.0000 0.0000 6.4927 0.0000 0.0000
# 5 0.0000 0.0000 0.0000 0.0000 5.7862 0.0000
# 6 0.0000 0.0000 0.0000 0.0000 0.0000 14.5780
#
#
#
# Elastic Compliance Matrix: (Units=1/GPa)
#
#
# Indices 1 2 3 4 5 6 
#
# 1 0.010054 -0.005672 -0.001701 0.000000 0.000000 0.000000
# 2 -0.005672 0.011282 0.003279 0.000000 0.000000 0.000000
# 3 -0.001701 0.003279 0.020853 0.000000 0.000000 0.000000
# 4 0.000000 0.000000 0.000000 0.154019 0.000000 0.000000
# 5 0.000000 0.000000 0.000000 0.000000 0.172825 0.000000
# 6 0.000000 0.000000 0.000000 0.000000 0.000000 0.068596
#
#
# Mechanical properties :
#
#
# Convention : Reuss Voigt Hill
#
# Bulk Modulus (GPa) = 29.41017 47.58204 38.49610
# Shear Modulus (GPa) = 10.93734 22.79342 16.86538
#
# Velocity S-wave (km/s) = 2.23533 3.22694 2.77577
# Velocity P-wave (km/s) = 4.48311 5.96841 5.27827
#
# Compressibility (1/GPa) = 0.03400184
#
# Stress axis : x y z
#
# Youngs Moduli (GPa) = 99.46094 88.63976 47.95531
#
# Poissons Ratio (x) = 0.50275 0.08155
# Poissons Ratio (y) = 0.56413 -0.15725
# Poissons Ratio (z) = 0.16914 -0.29066
#
# Static dielectric constant tensor:
#      x y z
#    x 1.802310 0.000000 0.000000 
#    y 0.000000 1.805350 0.000000 
#    z 0.000000 0.000000 1.847600 
# 
# From -- ./inp_files/15660.got.cif
#   From: 2010.05.17/outbox.cif.g08.bks.cpg/sg40_8_cif.got.tgz:15660.got - 2010.06.03 18:35:42.
