data_PCOD9362669
_publ_section_title
;
Structure prediction by ZEFSAII (Michael W. Deem and Ramdas Pophale) SiO2 
 PCOD9362669
Probable space group: A M A 2
;
_chemical_formula_sum "Si O2"
_cell_formula_units_Z 48
_cell_length_a 18.657252
_cell_length_b 11.648078
_cell_length_c 11.395727
_cell_angle_alpha 90.000000
_cell_angle_beta 90.000000
_cell_angle_gamma 90.000000
_cell_volume 2476.532230
_symmetry_space_group_name_H-M "A M A 2"
_symmetry_group_IT_number 40
_symmetry_cell_setting 'orthorhombic'
loop_
_space_group_symop_operation_xyz
x,y,z
-x,-y,z
1/2-x,y,z
1/2+x,-y,z
x,1/2+y,1/2+z
-x,1/2-y,1/2+z
1/2-x,1/2+y,1/2+z
1/2+x,1/2-y,1/2+z
loop_
_atom_site_type_symbol
_atom_site_label
_atom_site_fract_x
_atom_site_fract_y
_atom_site_fract_z
Si Si1 0.832880 0.093818 0.146400
Si Si2 0.427767 0.557973 0.487065
Si Si3 0.550242 0.767626 0.200748
Si Si4 0.890084 0.320328 0.257177
Si Si5 0.583445 0.962009 0.346739
Si Si6 0.914892 0.029415 0.607550
O O1 0.750000 0.070299 0.125420
O O2 0.842879 0.223355 0.194116
O O3 0.878375 0.045610 0.035763
O O4 0.865293 0.021132 0.253795
O O5 0.500000 0.500000 0.434470
O O6 0.451197 0.635435 0.599022
O O7 0.390119 0.643596 0.394172
O O8 0.470544 0.726364 0.231817
O O9 0.582811 0.827220 0.316374
O O10 0.592564 0.659094 0.150316
O O11 0.877461 0.439999 0.192165
O O12 0.500000 0.000000 0.330170
O O13 0.606002 0.002458 0.474697
O O14 0.000000 0.000000 0.611862
#
# Coordination Sequence:
#
# PCOD9362669 Si02
#       6
#     8   8   8   8   8   8
#     4  11  23  40  59  85 121 165 209 252 317 386
#     4  11  21  37  62  90 125 158 211 266 309 365
#     4  10  18  32  55  87 118 150 190 253 308 350
#     4  11  21  35  58  88 120 157 199 257 314 366
#     4  10  18  36  60  83 117 149 199 256 300 360
#     4   9  20  31  52  90 116 145 190 245 309 364
#
# _framework density 19.381941000000001
#
# number of rings (size 3 to 8) (size 9 to 14) (size 15 to 20)
#    0.000    1.667    3.333    3.500    4.667    2.000 
#    0.000    0.833    0.000    4.000    0.000    0.000 
#    0.000    0.000    0.000    0.000    0.000    0.000 
#
# Total GULP energy -133800.891036 kJ/mol
# GULP energy per Si atom -5575.037127 kJ/mol
# Density = 1.933783 g / cm^3
# Si number density = 19.381941 Si / 1000 Ang^3
#
#
#
# Elastic Constant Matrix: (Units=GPa)
#
#
# Indices 1 2 3 4 5 6 
#
# 1 54.6288 10.9160 22.1994 0.0000 0.0000 0.0000
# 2 10.9160 109.0267 30.4592 0.0000 0.0000 0.0000
# 3 22.1994 30.4592 84.5366 0.0000 0.0000 0.0000
# 4 0.0000 0.0000 0.0000 21.9030 0.0000 0.0000
# 5 0.0000 0.0000 0.0000 0.0000 -7.8501 0.0000
# 6 0.0000 0.0000 0.0000 0.0000 0.0000 11.5260
#
#
#
# Elastic Compliance Matrix: (Units=1/GPa)
#
#
# Indices 1 2 3 4 5 6 
#
# 1 0.020529 -0.000611 -0.005171 0.000000 0.000000 0.000000
# 2 -0.000611 0.010217 -0.003521 0.000000 0.000000 0.000000
# 3 -0.005171 -0.003521 0.014456 0.000000 0.000000 0.000000
# 4 0.000000 0.000000 0.000000 0.045656 0.000000 0.000000
# 5 0.000000 0.000000 0.000000 0.000000 -0.127387 0.000000
# 6 0.000000 0.000000 0.000000 0.000000 0.000000 0.086760
#
#
# Mechanical properties :
#
#
# Convention : Reuss Voigt Hill
#
# Bulk Modulus (GPa) = 37.59913 41.70458 39.65186
# Shear Modulus (GPa) = 64.34951 17.42360 40.88656
#
# Velocity S-wave (km/s) = 5.76826 3.00152 4.59793
# Velocity P-wave (km/s) = 7.98780 5.79449 6.97786
#
# Compressibility (1/GPa) = 0.02659636
#
# Stress axis : x y z
#
# Youngs Moduli (GPa) = 48.71235 97.87756 69.17717
#
# Poissons Ratio (x) = 0.05978 0.35770
# Poissons Ratio (y) = 0.02975 0.24356
# Poissons Ratio (z) = 0.25188 0.34461
#
# Static dielectric constant tensor:
#      x y z
#    x 1.659220 0.000000 0.000000 
#    y 0.000000 1.746550 0.000000 
#    z 0.000000 0.000000 1.724450 
# 
# From -- ./inp_files/12898.got.cif
#   From: 2010.05.17/outbox.cif.g08.bks.cpg/sg40_7_cif.got.tgz:12898.got - 2010.06.03 18:35:42.
