data_PCOD9362459
_publ_section_title
;
Structure prediction by ZEFSAII (Michael W. Deem and Ramdas Pophale) SiO2 
 PCOD9362459
Probable space group: A M A 2
;
_chemical_formula_sum "Si O2"
_cell_formula_units_Z 52
_cell_length_a 7.484875
_cell_length_b 30.116864
_cell_length_c 9.710865
_cell_angle_alpha 90.000000
_cell_angle_beta 90.000000
_cell_angle_gamma 90.000000
_cell_volume 2189.032534
_symmetry_space_group_name_H-M "A M A 2"
_symmetry_group_IT_number 40
_symmetry_cell_setting 'orthorhombic'
loop_
_space_group_symop_operation_xyz
x,y,z
-x,-y,z
1/2-x,y,z
1/2+x,-y,z
x,1/2+y,1/2+z
-x,1/2-y,1/2+z
1/2-x,1/2+y,1/2+z
1/2+x,1/2-y,1/2+z
loop_
_atom_site_type_symbol
_atom_site_label
_atom_site_fract_x
_atom_site_fract_y
_atom_site_fract_z
Si Si1 0.465701 0.065711 0.729940
Si Si2 0.465353 0.734969 0.256644
Si Si3 0.538263 0.306207 0.971782
Si Si4 0.531317 0.907378 0.443235
Si Si5 0.953851 0.915305 0.141335
Si Si6 0.500000 0.000000 0.952113
Si Si7 0.964716 0.850585 0.910250
O O1 0.250000 0.056925 0.746853
O O2 0.523301 0.062921 0.572802
O O3 0.490828 0.115923 0.782645
O O4 0.567651 0.034541 0.835696
O O5 0.250000 0.732883 0.253407
O O6 0.530531 0.722233 0.103201
O O7 0.511219 0.781500 0.326696
O O8 0.532214 0.697153 0.363679
O O9 0.750000 0.309959 0.993099
O O10 0.471361 0.356566 0.966134
O O11 0.750000 0.908394 0.449693
O O12 0.468244 0.921631 0.292459
O O13 0.750000 0.900588 0.165235
O O14 0.942233 0.961482 0.058417
O O15 0.034944 0.876934 0.043912
O O16 0.750000 0.846669 0.927836
#
# Coordination Sequence:
#
# PCOD9362459 Si02
#       7
#     8   8   8   8   8   4   8
#     4   9  16  30  51  71  95 127 168 216 257 305
#     4  10  20  34  54  80 113 146 183 231 276 320
#     4  10  21  35  54  83 113 144 188 232 271 320
#     4   9  17  32  52  75 100 130 173 222 264 310
#     4   9  18  30  49  75 100 126 165 214 261 312
#     4  10  18  28  48  74  98 120 154 204 262 316
#     4   8  14  28  48  70  96 130 169 211 260 311
#
# _framework density 23.754787
#
# number of rings (size 3 to 8) (size 9 to 14) (size 15 to 20)
#    0.000    2.769    1.538    1.385    2.154    1.231 
#    0.000    0.000    0.000   11.077    0.000    0.000 
#    0.000    0.000    0.000    0.000    0.000    0.000 
#
# Total GULP energy -144799.774136 kJ/mol
# GULP energy per Si atom -5569.222082 kJ/mol
# Density = 2.370072 g / cm^3
# Si number density = 23.754787 Si / 1000 Ang^3
#
#
#
# Elastic Constant Matrix: (Units=GPa)
#
#
# Indices 1 2 3 4 5 6 
#
# 1 63.9460 5.4367 12.8675 0.0000 0.0000 0.0000
# 2 5.4367 62.7281 30.5617 0.0000 0.0000 0.0000
# 3 12.8675 30.5617 200.0084 0.0000 0.0000 0.0000
# 4 0.0000 0.0000 0.0000 22.0289 0.0000 0.0000
# 5 0.0000 0.0000 0.0000 0.0000 -72.5197 0.0000
# 6 0.0000 0.0000 0.0000 0.0000 0.0000 -0.1338
#
#
#
# Elastic Compliance Matrix: (Units=1/GPa)
#
#
# Indices 1 2 3 4 5 6 
#
# 1 0.015896 -0.000950 -0.000877 0.000000 0.000000 0.000000
# 2 -0.000950 0.017281 -0.002579 0.000000 0.000000 0.000000
# 3 -0.000877 -0.002579 0.005450 0.000000 0.000000 0.000000
# 4 0.000000 0.000000 0.000000 0.045395 0.000000 0.000000
# 5 0.000000 0.000000 0.000000 0.000000 -0.013789 0.000000
# 6 0.000000 0.000000 0.000000 0.000000 0.000000 -7.476198
#
#
# Mechanical properties :
#
#
# Convention : Reuss Voigt Hill
#
# Bulk Modulus (GPa) = 33.54272 47.15714 40.34993
# Shear Modulus (GPa) = -0.67685 8.39620 3.85968
#
# Velocity S-wave (km/s) = -0.53437 1.88207 1.27606
# Velocity P-wave (km/s) = 3.71084 4.96162 4.38110
#
# Compressibility (1/GPa) = 0.02981273
#
# Stress axis : x y z
#
# Youngs Moduli (GPa) = 62.91072 57.86739 183.47339
#
# Poissons Ratio (x) = 0.05498 0.16099
# Poissons Ratio (y) = 0.05978 0.47326
# Poissons Ratio (z) = 0.05520 0.14926
#
# Static dielectric constant tensor:
#      x y z
#    x 2.073280 0.000000 0.000000 
#    y 0.000000 1.880080 0.000000 
#    z 0.000000 0.000000 1.914870 
# 
# From -- ./inp_files/5545.got.cif
#   From: 2010.05.17/outbox.cif.g08.bks.cpg/sg40_3_cif.got.tgz:5545.got - 2010.06.03 18:35:42.
