data_PCOD9362313
_publ_section_title
;
Structure prediction by ZEFSAII (Michael W. Deem and Ramdas Pophale) SiO2 
 PCOD9362313
Probable space group: A M A 2
;
_chemical_formula_sum "Si O2"
_cell_formula_units_Z 56
_cell_length_a 14.152834
_cell_length_b 12.125083
_cell_length_c 14.414887
_cell_angle_alpha 90.000000
_cell_angle_beta 90.000000
_cell_angle_gamma 90.000000
_cell_volume 2473.656405
_symmetry_space_group_name_H-M "A M A 2"
_symmetry_group_IT_number 40
_symmetry_cell_setting 'orthorhombic'
loop_
_space_group_symop_operation_xyz
x,y,z
-x,-y,z
1/2-x,y,z
1/2+x,-y,z
x,1/2+y,1/2+z
-x,1/2-y,1/2+z
1/2-x,1/2+y,1/2+z
1/2+x,1/2-y,1/2+z
loop_
_atom_site_type_symbol
_atom_site_label
_atom_site_fract_x
_atom_site_fract_y
_atom_site_fract_z
Si Si1 0.134941 0.625622 0.862070
Si Si2 0.362732 0.067912 0.998495
Si Si3 0.363594 0.966311 0.200167
Si Si4 0.555860 0.250964 0.145023
Si Si5 0.634971 0.659409 0.447212
Si Si6 0.359458 0.782186 0.585219
Si Si7 0.638983 0.956345 0.564073
O O1 0.250000 0.621992 0.858667
O O2 0.102759 0.547243 0.780392
O O3 0.108663 0.754242 0.867763
O O4 0.105164 0.576917 0.961592
O O5 0.250000 0.064571 0.989941
O O6 0.382503 0.198622 0.999217
O O7 0.388827 0.022607 0.101391
O O8 0.395667 0.967360 0.933675
O O9 0.250000 0.960781 0.200556
O O10 0.400129 0.841625 0.210651
O O11 0.443485 0.252418 0.153970
O O12 0.590296 0.377720 0.140172
O O13 0.591334 0.204226 0.043823
O O14 0.750000 0.663448 0.457746
O O15 0.250000 0.759953 0.613612
O O16 0.369223 0.912143 0.569832
O O17 0.750000 0.929379 0.569765
#
# Coordination Sequence:
#
# PCOD9362313 Si02
#       7
#     8   8   8   8   8   8   8
#     4   8  14  26  47  74 103 128 155 205 270 326
#     4   8  15  28  45  68  98 129 167 210 255 310
#     4   9  16  27  48  77 104 128 160 213 273 327
#     4  10  17  28  49  71 100 131 177 222 273 317
#     4   8  14  26  46  71  98 129 164 207 259 320
#     4  10  20  31  46  67  99 140 183 226 266 314
#     4   9  17  31  51  75 102 134 174 222 276 333
#
# _framework density 22.638552000000001
#
# number of rings (size 3 to 8) (size 9 to 14) (size 15 to 20)
#    0.000    3.143    0.000    3.429    0.000    2.286 
#    0.000    0.000   12.571    1.714    0.000   10.000 
#    0.000    0.000    0.000    0.000    0.000    0.000 
#
# Total GULP energy -155979.923635 kJ/mol
# GULP energy per Si atom -5570.711558 kJ/mol
# Density = 2.258703 g / cm^3
# Si number density = 22.638552 Si / 1000 Ang^3
#
#
#
# Elastic Constant Matrix: (Units=GPa)
#
#
# Indices 1 2 3 4 5 6 
#
# 1 99.2558 49.8795 13.9142 0.0000 0.0000 0.0000
# 2 49.8795 212.1988 40.4524 0.0000 0.0000 0.0000
# 3 13.9142 40.4524 40.0600 0.0000 0.0000 0.0000
# 4 0.0000 0.0000 0.0000 38.1833 0.0000 0.0000
# 5 0.0000 0.0000 0.0000 0.0000 0.6313 0.0000
# 6 0.0000 0.0000 0.0000 0.0000 0.0000 20.9357
#
#
#
# Elastic Compliance Matrix: (Units=1/GPa)
#
#
# Indices 1 2 3 4 5 6 
#
# 1 0.011503 -0.002405 -0.001567 0.000000 0.000000 0.000000
# 2 -0.002405 0.006339 -0.005566 0.000000 0.000000 0.000000
# 3 -0.001567 -0.005566 0.031127 0.000000 0.000000 0.000000
# 4 0.000000 0.000000 0.000000 0.026189 0.000000 0.000000
# 5 0.000000 0.000000 0.000000 0.000000 1.583928 0.000000
# 6 0.000000 0.000000 0.000000 0.000000 0.000000 0.047765
#
#
# Mechanical properties :
#
#
# Convention : Reuss Voigt Hill
#
# Bulk Modulus (GPa) = 33.45149 62.22299 47.83724
# Shear Modulus (GPa) = 2.88036 28.43464 15.65750
#
# Velocity S-wave (km/s) = 1.12920 3.54789 2.63274
# Velocity P-wave (km/s) = 4.06307 6.65796 5.51530
#
# Compressibility (1/GPa) = 0.02989403
#
# Stress axis : x y z
#
# Youngs Moduli (GPa) = 86.93113 157.75472 32.12668
#
# Poissons Ratio (x) = 0.37945 0.05033
# Poissons Ratio (y) = 0.20910 0.17880
# Poissons Ratio (z) = 0.13619 0.87800
#
# Static dielectric constant tensor:
#      x y z
#    x 1.880550 0.000000 0.000000 
#    y 0.000000 1.924000 0.000000 
#    z 0.000000 0.000000 1.835260 
# 
# From -- ./inp_files/17082.got.cif
#   From: 2010.05.17/outbox.cif.g08.bks.cpg/sg40_9_cif.got.tgz:17082.got - 2010.06.03 18:35:42.
