data_PCOD9362323
_publ_section_title
;
Structure prediction by ZEFSAII (Michael W. Deem and Ramdas Pophale) SiO2 
 PCOD9362323
Probable space group: A M A 2
;
_chemical_formula_sum "Si O2"
_cell_formula_units_Z 64
_cell_length_a 24.944913
_cell_length_b 9.066789
_cell_length_c 12.384063
_cell_angle_alpha 90.000000
_cell_angle_beta 90.000000
_cell_angle_gamma 90.000000
_cell_volume 2800.906783
_symmetry_space_group_name_H-M "A M A 2"
_symmetry_group_IT_number 40
_symmetry_cell_setting 'orthorhombic'
loop_
_space_group_symop_operation_xyz
x,y,z
-x,-y,z
1/2-x,y,z
1/2+x,-y,z
x,1/2+y,1/2+z
-x,1/2-y,1/2+z
1/2-x,1/2+y,1/2+z
1/2+x,1/2-y,1/2+z
loop_
_atom_site_type_symbol
_atom_site_label
_atom_site_fract_x
_atom_site_fract_y
_atom_site_fract_z
Si Si1 0.921425 0.861658 0.338510
Si Si2 0.916991 0.534030 0.635247
Si Si3 0.035191 0.668320 0.070979
Si Si4 0.477672 0.650656 0.307884
Si Si5 0.579755 0.725602 0.005578
Si Si6 0.192038 0.327386 0.068069
Si Si7 0.808419 0.028205 0.040399
Si Si8 0.311103 0.312884 0.316861
O O1 0.932408 0.876312 0.465219
O O2 0.861884 0.795973 0.323685
O O3 0.969693 0.753800 0.299567
O O4 0.926799 0.002551 0.260947
O O5 0.956249 0.653883 0.584637
O O6 0.917980 0.374380 0.578176
O O7 0.856996 0.590667 0.610384
O O8 0.047624 0.616088 0.191551
O O9 0.972602 0.641517 0.047795
O O10 0.500000 0.500000 0.356479
O O11 0.434587 0.719429 0.387008
O O12 0.635664 0.639707 0.012251
O O13 0.250000 0.382160 0.026566
O O14 0.187428 0.371016 0.193982
O O15 0.193918 0.147992 0.058723
O O16 0.750000 0.088380 0.070778
O O17 0.817627 0.070185 0.914526
O O18 0.250000 0.250190 0.328953
#
# Coordination Sequence:
#
# PCOD9362323 Si02
#       8
#     8   8   8   8   8   8   8   8
#     4  11  21  36  58  87 115 153 196 244 304 366
#     4  11  19  34  60  84 115 149 195 245 300 354
#     4  11  22  38  55  82 118 153 198 244 293 363
#     4  11  24  39  56  77 115 155 195 244 301 362
#     4  10  19  35  58  79 106 146 188 236 298 351
#     4   9  17  30  51  82 114 144 188 245 297 352
#     4   9  17  27  48  83 118 149 186 237 298 352
#     4  10  17  29  52  86 121 148 185 245 301 351
#
# _framework density 22.849743
#
# number of rings (size 3 to 8) (size 9 to 14) (size 15 to 20)
#    0.000    1.750    5.000    1.875    1.750    0.000 
#    4.500    0.000    0.000    1.500    0.000    0.000 
#    0.000    0.000    0.000    0.000    0.000    0.000 
#
# Total GULP energy -178730.730502 kJ/mol
# GULP energy per Si atom -5585.335328 kJ/mol
# Density = 2.279774 g / cm^3
# Si number density = 22.849743 Si / 1000 Ang^3
#
#
#
# Elastic Constant Matrix: (Units=GPa)
#
#
# Indices 1 2 3 4 5 6 
#
# 1 181.8325 13.6786 53.2313 0.0000 0.0000 0.0000
# 2 13.6786 48.3952 32.9363 0.0000 0.0000 0.0000
# 3 53.2313 32.9363 163.1982 0.0000 0.0000 0.0000
# 4 0.0000 0.0000 0.0000 -29.8969 0.0000 0.0000
# 5 0.0000 0.0000 0.0000 0.0000 22.3420 0.0000
# 6 0.0000 0.0000 0.0000 0.0000 0.0000 13.0334
#
#
#
# Elastic Compliance Matrix: (Units=1/GPa)
#
#
# Indices 1 2 3 4 5 6 
#
# 1 0.006088 -0.000428 -0.001899 0.000000 0.000000 0.000000
# 2 -0.000428 0.023983 -0.004701 0.000000 0.000000 0.000000
# 3 -0.001899 -0.004701 0.007696 0.000000 0.000000 0.000000
# 4 0.000000 0.000000 0.000000 -0.033448 0.000000 0.000000
# 5 0.000000 0.000000 0.000000 0.000000 0.044759 0.000000
# 6 0.000000 0.000000 0.000000 0.000000 0.000000 0.076726
#
#
# Mechanical properties :
#
#
# Convention : Reuss Voigt Hill
#
# Bulk Modulus (GPa) = 42.17491 65.90203 54.03847
# Shear Modulus (GPa) = 33.83804 20.66768 27.25286
#
# Velocity S-wave (km/s) = 3.85241 3.01076 3.45729
# Velocity P-wave (km/s) = 6.18754 6.40237 6.29587
#
# Compressibility (1/GPa) = 0.02371078
#
# Stress axis : x y z
#
# Youngs Moduli (GPa) = 164.26333 41.69568 129.94280
#
# Poissons Ratio (x) = 0.01785 0.24680
# Poissons Ratio (y) = 0.07032 0.61081
# Poissons Ratio (z) = 0.31198 0.19600
#
# Static dielectric constant tensor:
#      x y z
#    x 1.908900 0.000000 0.000000 
#    y 0.000000 1.902180 0.000000 
#    z 0.000000 0.000000 1.848170 
# 
# From -- ./inp_files/14269.got.cif
#   From: 2010.05.17/outbox.cif.g08.bks.cpg/sg40_8_cif.got.tgz:14269.got - 2010.06.03 18:35:42.
