data_PCOD9362435
_publ_section_title
;
Structure prediction by ZEFSAII (Michael W. Deem and Ramdas Pophale) SiO2 
 PCOD9362435
Probable space group: A M A 2
;
_chemical_formula_sum "Si O2"
_cell_formula_units_Z 56
_cell_length_a 8.612636
_cell_length_b 14.035811
_cell_length_c 30.451724
_cell_angle_alpha 90.000000
_cell_angle_beta 90.000000
_cell_angle_gamma 90.000000
_cell_volume 3681.166739
_symmetry_space_group_name_H-M "A M A 2"
_symmetry_group_IT_number 40
_symmetry_cell_setting 'orthorhombic'
loop_
_space_group_symop_operation_xyz
x,y,z
-x,-y,z
1/2-x,y,z
1/2+x,-y,z
x,1/2+y,1/2+z
-x,1/2-y,1/2+z
1/2-x,1/2+y,1/2+z
1/2+x,1/2-y,1/2+z
loop_
_atom_site_type_symbol
_atom_site_label
_atom_site_fract_x
_atom_site_fract_y
_atom_site_fract_z
Si Si1 0.936228 0.603990 0.209520
Si Si2 0.936799 0.108161 0.342142
Si Si3 0.063443 0.204064 0.255677
Si Si4 0.437883 0.892151 0.534339
Si Si5 0.563028 0.107580 0.438362
Si Si6 0.437998 0.785979 0.621954
Si Si7 0.435002 0.895935 0.169279
O O1 0.750000 0.599566 0.210077
O O2 0.984041 0.688193 0.242754
O O3 0.983069 0.640839 0.160959
O O4 0.000000 0.500000 0.219096
O O5 0.750000 0.105147 0.339667
O O6 0.983860 0.147072 0.390640
O O7 0.002094 0.169642 0.302327
O O8 0.000000 0.000000 0.338250
O O9 0.250000 0.198768 0.254628
O O10 0.998787 0.137080 0.216868
O O11 0.250000 0.896716 0.535525
O O12 0.485417 0.853076 0.486051
O O13 0.488189 0.827551 0.575150
O O14 0.500000 0.000000 0.539048
O O15 0.750000 0.105613 0.438330
O O16 0.500000 0.000000 0.438435
O O17 0.250000 0.778299 0.622599
O O18 0.507306 0.684374 0.635285
O O19 0.250000 0.897930 0.170619
O O20 0.500000 0.000000 0.158760
#
# Coordination Sequence:
#
# PCOD9362435 Si02
#       7
#     8   8   8   8   8   8   8
#     4   9  18  30  44  62  86 113 141 176 212 250
#     4  10  18  28  43  64  90 119 150 182 217 259
#     4  10  20  33  46  64  89 116 147 180 218 260
#     4   9  16  27  44  65  92 122 149 180 216 255
#     4   8  15  26  40  61  88 117 147 178 215 257
#     4   9  18  31  45  65  91 118 147 177 212 254
#     4  11  21  33  48  65  87 115 146 181 219 259
#
# _framework density 15.212567999999999
#
# number of rings (size 3 to 8) (size 9 to 14) (size 15 to 20)
#    0.000    2.571    0.000    3.857    0.000    4.000 
#    0.000    0.000    0.000    0.000    0.000    1.000 
#    0.000    2.286    0.000    0.000    0.000    0.000 
#
# Total GULP energy -155984.456695 kJ/mol
# GULP energy per Si atom -5570.873453 kJ/mol
# Density = 1.517794 g / cm^3
# Si number density = 15.212568 Si / 1000 Ang^3
#
#
#
# Elastic Constant Matrix: (Units=GPa)
#
#
# Indices 1 2 3 4 5 6 
#
# 1 37.0070 25.6665 34.6022 0.0000 0.0000 0.0000
# 2 25.6665 95.2781 69.3935 0.0000 0.0000 0.0000
# 3 34.6022 69.3935 167.1310 0.0000 0.0000 0.0000
# 4 0.0000 0.0000 0.0000 22.4037 0.0000 0.0000
# 5 0.0000 0.0000 0.0000 0.0000 14.8913 0.0000
# 6 0.0000 0.0000 0.0000 0.0000 0.0000 24.0092
#
#
#
# Elastic Compliance Matrix: (Units=1/GPa)
#
#
# Indices 1 2 3 4 5 6 
#
# 1 0.035814 -0.006089 -0.004887 0.000000 0.000000 0.000000
# 2 -0.006089 0.016080 -0.005416 0.000000 0.000000 0.000000
# 3 -0.004887 -0.005416 0.009244 0.000000 0.000000 0.000000
# 4 0.000000 0.000000 0.000000 0.044636 0.000000 0.000000
# 5 0.000000 0.000000 0.000000 0.000000 0.067153 0.000000
# 6 0.000000 0.000000 0.000000 0.000000 0.000000 0.041651
#
#
# Mechanical properties :
#
#
# Convention : Reuss Voigt Hill
#
# Bulk Modulus (GPa) = 35.26673 62.08226 48.67449
# Shear Modulus (GPa) = 19.46946 23.57777 21.52362
#
# Velocity S-wave (km/s) = 3.58135 3.94113 3.76554
# Velocity P-wave (km/s) = 6.35093 7.84911 7.13943
#
# Compressibility (1/GPa) = 0.02835534
#
# Stress axis : x y z
#
# Youngs Moduli (GPa) = 27.92209 62.18727 108.17974
#
# Poissons Ratio (x) = 0.37863 0.52865
# Poissons Ratio (y) = 0.17001 0.58592
# Poissons Ratio (z) = 0.13645 0.33681
#
# Static dielectric constant tensor:
#      x y z
#    x 1.512280 0.000000 0.000000 
#    y 0.000000 1.472150 0.000000 
#    z 0.000000 0.000000 1.538250 
# 
# From -- ./inp_files/26390.got.cif
#   From: 2010.05.17/outbox.cif.g08.bks.cpg/sg40_14_cif.got.tgz:26390.got - 2010.06.03 18:35:42.
