data_PCOD9363978
_publ_section_title
;
Structure prediction by ZEFSAII (Michael W. Deem and Ramdas Pophale) SiO2 
 PCOD9363978
Probable space group: A M A 2
;
_chemical_formula_sum "Si O2"
_cell_formula_units_Z 40
_cell_length_a 19.192147
_cell_length_b 18.982714
_cell_length_c 5.127384
_cell_angle_alpha 90.000000
_cell_angle_beta 90.000000
_cell_angle_gamma 90.000000
_cell_volume 1868.003604
_symmetry_space_group_name_H-M "A M A 2"
_symmetry_group_IT_number 40
_symmetry_cell_setting 'orthorhombic'
loop_
_space_group_symop_operation_xyz
x,y,z
-x,-y,z
1/2-x,y,z
1/2+x,-y,z
x,1/2+y,1/2+z
-x,1/2-y,1/2+z
1/2-x,1/2+y,1/2+z
1/2+x,1/2-y,1/2+z
loop_
_atom_site_type_symbol
_atom_site_label
_atom_site_fract_x
_atom_site_fract_y
_atom_site_fract_z
Si Si1 0.398687 0.693286 0.963990
Si Si2 0.552195 0.692061 0.817274
Si Si3 0.602406 0.446603 0.251924
Si Si4 0.250000 0.688075 0.930773
Si Si5 0.551714 0.100813 0.828209
Si Si6 0.750000 0.901677 0.943168
O O1 0.468517 0.704099 0.800016
O O2 0.324497 0.722393 0.868742
O O3 0.412418 0.734770 0.235483
O O4 0.391929 0.609177 0.012536
O O5 0.575656 0.636050 0.596764
O O6 0.561561 0.656716 0.096743
O O7 0.587401 0.529262 0.227091
O O8 0.529961 0.418261 0.375415
O O9 0.676702 0.439562 0.391160
O O10 0.250000 0.621762 0.739629
O O11 0.250000 0.663323 0.233055
#
# Coordination Sequence:
#
# PCOD9363978 Si02
#       6
#     8   8   8   4   8   4
#     4  10  21  40  62  88 116 157 200 247 292 354
#     4  11  22  37  59  85 117 151 193 240 295 347
#     4   9  20  37  59  83 113 149 194 237 288 346
#     4  10  22  36  58  88 118 148 197 248 295 342
#     4  10  22  37  56  85 116 149 188 242 293 344
#     4  10  20  36  58  86 114 152 195 244 291 350
#
# _framework density 21.413236000000001
#
# number of rings (size 3 to 8) (size 9 to 14) (size 15 to 20)
#    0.000    2.000    0.000    3.600    0.000   14.400 
#    0.000    2.000    0.000    0.000    0.000    0.000 
#    0.000    0.000    0.000    0.000    0.000    0.000 
#
# Total GULP energy -111421.212768 kJ/mol
# GULP energy per Si atom -5571.060638 kJ/mol
# Density = 2.136450 g / cm^3
# Si number density = 21.413236 Si / 1000 Ang^3
#
#
#
# Elastic Constant Matrix: (Units=GPa)
#
#
# Indices 1 2 3 4 5 6 
#
# 1 138.2830 22.3991 7.8797 0.0000 0.0000 0.0000
# 2 22.3991 119.9830 37.0273 0.0000 0.0000 0.0000
# 3 7.8797 37.0273 66.8711 0.0000 0.0000 0.0000
# 4 0.0000 0.0000 0.0000 20.0865 0.0000 0.0000
# 5 0.0000 0.0000 0.0000 0.0000 28.5740 0.0000
# 6 0.0000 0.0000 0.0000 0.0000 0.0000 22.6700
#
#
#
# Elastic Compliance Matrix: (Units=1/GPa)
#
#
# Indices 1 2 3 4 5 6 
#
# 1 0.007458 -0.001352 -0.000130 0.000000 0.000000 0.000000
# 2 -0.001352 0.010297 -0.005542 0.000000 0.000000 0.000000
# 3 -0.000130 -0.005542 0.018038 0.000000 0.000000 0.000000
# 4 0.000000 0.000000 0.000000 0.049785 0.000000 0.000000
# 5 0.000000 0.000000 0.000000 0.000000 0.034997 0.000000
# 6 0.000000 0.000000 0.000000 0.000000 0.000000 0.044111
#
#
# Mechanical properties :
#
#
# Convention : Reuss Voigt Hill
#
# Bulk Modulus (GPa) = 45.98897 51.08325 48.53611
# Shear Modulus (GPa) = 26.88402 31.45482 29.16942
#
# Velocity S-wave (km/s) = 3.54713 3.83684 3.69482
# Velocity P-wave (km/s) = 6.18867 6.59819 6.39671
#
# Compressibility (1/GPa) = 0.02174435
#
# Stress axis : x y z
#
# Youngs Moduli (GPa) = 134.08449 97.11227 55.43736
#
# Poissons Ratio (x) = 0.13131 0.00721
# Poissons Ratio (y) = 0.18130 0.30726
# Poissons Ratio (z) = 0.01744 0.53824
#
# Static dielectric constant tensor:
#      x y z
#    x 1.820720 0.000000 0.000000 
#    y 0.000000 1.780870 0.000000 
#    z 0.000000 0.000000 1.799180 
# 
# From -- ./inp_files/1826.got.cif
#   From: 2010.05.17/outbox.cif.g08.bks.cpg/sg40_1_cif.got.tgz:1826.got - 2010.06.03 18:35:42.
