data_PCOD9363926
_publ_section_title
;
Structure prediction by ZEFSAII (Michael W. Deem and Ramdas Pophale) SiO2 
 PCOD9363926
Probable space group: A M A 2
;
_chemical_formula_sum "Si O2"
_cell_formula_units_Z 64
_cell_length_a 8.733865
_cell_length_b 23.735624
_cell_length_c 19.394729
_cell_angle_alpha 90.000000
_cell_angle_beta 90.000000
_cell_angle_gamma 90.000000
_cell_volume 4020.599775
_symmetry_space_group_name_H-M "A M A 2"
_symmetry_group_IT_number 40
_symmetry_cell_setting 'orthorhombic'
loop_
_space_group_symop_operation_xyz
x,y,z
-x,-y,z
1/2-x,y,z
1/2+x,-y,z
x,1/2+y,1/2+z
-x,1/2-y,1/2+z
1/2-x,1/2+y,1/2+z
1/2+x,1/2-y,1/2+z
loop_
_atom_site_type_symbol
_atom_site_label
_atom_site_fract_x
_atom_site_fract_y
_atom_site_fract_z
Si Si1 0.067169 0.562170 0.817570
Si Si2 0.568528 0.769675 0.816492
Si Si3 0.066595 0.382621 0.956351
Si Si4 0.933065 0.438966 0.093643
Si Si5 0.066866 0.170079 0.679375
Si Si6 0.931395 0.756487 0.459384
Si Si7 0.932232 0.157615 0.225310
Si Si8 0.932117 0.776144 0.100272
O O1 0.250000 0.560342 0.822150
O O2 0.000000 0.500000 0.808301
O O3 0.999395 0.588314 0.887949
O O4 0.014155 0.603357 0.756377
O O5 0.750000 0.772758 0.832032
O O6 0.530245 0.816395 0.758850
O O7 0.474811 0.771279 0.886574
O O8 0.541187 0.709847 0.778148
O O9 0.250000 0.382883 0.954021
O O10 0.007206 0.318552 0.959900
O O11 0.007030 0.415946 0.023119
O O12 0.750000 0.442386 0.084629
O O13 0.965164 0.392206 0.152139
O O14 0.000000 0.500000 0.110031
O O15 0.250000 0.180955 0.671143
O O16 0.979859 0.215627 0.632624
O O17 0.750000 0.762792 0.466626
O O18 0.998208 0.722594 0.524078
O O19 0.750000 0.149006 0.221468
O O20 0.996977 0.178099 0.152202
O O21 0.750000 0.780864 0.098347
#
# Coordination Sequence:
#
# PCOD9363926 Si02
#       8
#     8   8   8   8   8   8   8   8
#     4  12  24  38  55  76 104 142 183 221 261 309
#     4   9  18  33  53  75 101 133 170 212 262 313
#     4  12  23  36  51  73 104 141 182 221 258 306
#     4  11  22  36  53  74 103 141 180 219 260 306
#     4   9  19  35  53  72 101 136 173 215 262 309
#     4  12  22  33  51  77 107 140 174 212 263 317
#     4  10  20  36  55  76 105 137 173 218 264 310
#     4  11  21  33  53  77 104 136 174 215 261 314
#
# _framework density 15.918022000000001
#
# number of rings (size 3 to 8) (size 9 to 14) (size 15 to 20)
#    0.000    1.250    2.500    6.375    0.000    2.500 
#    0.000    0.000    0.000    0.000    0.000    0.875 
#    0.000    2.000    0.000    0.000    0.000    0.000 
#
# Total GULP energy -178825.839355 kJ/mol
# GULP energy per Si atom -5588.307480 kJ/mol
# Density = 1.588179 g / cm^3
# Si number density = 15.918022 Si / 1000 Ang^3
#
#
#
# Elastic Constant Matrix: (Units=GPa)
#
#
# Indices 1 2 3 4 5 6 
#
# 1 121.4483 49.6581 67.7480 0.0000 0.0000 0.0000
# 2 49.6581 91.0853 61.2060 0.0000 0.0000 0.0000
# 3 67.7480 61.2060 117.1982 0.0000 0.0000 0.0000
# 4 0.0000 0.0000 0.0000 15.3081 0.0000 0.0000
# 5 0.0000 0.0000 0.0000 0.0000 20.0498 0.0000
# 6 0.0000 0.0000 0.0000 0.0000 0.0000 199.0866
#
#
#
# Elastic Compliance Matrix: (Units=1/GPa)
#
#
# Indices 1 2 3 4 5 6 
#
# 1 0.012684 -0.003063 -0.005733 0.000000 0.000000 0.000000
# 2 -0.003063 0.017654 -0.007449 0.000000 0.000000 0.000000
# 3 -0.005733 -0.007449 0.015737 0.000000 0.000000 0.000000
# 4 0.000000 0.000000 0.000000 0.065325 0.000000 0.000000
# 5 0.000000 0.000000 0.000000 0.000000 0.049876 0.000000
# 6 0.000000 0.000000 0.000000 0.000000 0.000000 0.005023
#
#
# Mechanical properties :
#
#
# Convention : Reuss Voigt Hill
#
# Bulk Modulus (GPa) = 73.60850 76.32843 74.96847
# Shear Modulus (GPa) = 24.59217 56.96356 40.77787
#
# Velocity S-wave (km/s) = 3.93482 5.98859 5.06686
# Velocity P-wave (km/s) = 8.18452 9.79146 9.02383
#
# Compressibility (1/GPa) = 0.01358539
#
# Stress axis : x y z
#
# Youngs Moduli (GPa) = 78.83789 56.64377 63.54612
#
# Poissons Ratio (x) = 0.17351 0.36428
# Poissons Ratio (y) = 0.24149 0.47336
# Poissons Ratio (z) = 0.45195 0.42194
#
# Static dielectric constant tensor:
#      x y z
#    x 1.530640 0.000000 0.000000 
#    y 0.000000 1.511640 0.000000 
#    z 0.000000 0.000000 1.529810 
# 
# From -- ./inp_files/19619.got.cif
#   From: 2010.05.17/outbox.cif.g08.bks.cpg/sg40_10_cif.got.tgz:19619.got - 2010.06.03 18:35:42.
