data_PCOD9363080
_publ_section_title
;
Structure prediction by ZEFSAII (Michael W. Deem and Ramdas Pophale) SiO2 
 PCOD9363080
Probable space group: A M A 2
;
_chemical_formula_sum "Si O2"
_cell_formula_units_Z 56
_cell_length_a 8.034609
_cell_length_b 18.937788
_cell_length_c 17.906430
_cell_angle_alpha 90.000000
_cell_angle_beta 90.000000
_cell_angle_gamma 90.000000
_cell_volume 2724.601596
_symmetry_space_group_name_H-M "A M A 2"
_symmetry_group_IT_number 40
_symmetry_cell_setting 'orthorhombic'
loop_
_space_group_symop_operation_xyz
x,y,z
-x,-y,z
1/2-x,y,z
1/2+x,-y,z
x,1/2+y,1/2+z
-x,1/2-y,1/2+z
1/2-x,1/2+y,1/2+z
1/2+x,1/2-y,1/2+z
loop_
_atom_site_type_symbol
_atom_site_label
_atom_site_fract_x
_atom_site_fract_y
_atom_site_fract_z
Si Si1 0.049986 0.181079 0.844200
Si Si2 0.953412 0.667110 0.613433
Si Si3 0.448374 0.919234 0.970377
Si Si4 0.451059 0.830752 0.402698
Si Si5 0.549627 0.081132 0.259006
Si Si6 0.947621 0.419591 0.046252
Si Si7 0.546134 0.319192 0.172713
O O1 0.250000 0.186178 0.840627
O O2 0.989043 0.250899 0.888272
O O3 0.989544 0.180761 0.758632
O O4 0.005500 0.112537 0.891697
O O5 0.750000 0.667067 0.611912
O O6 0.013045 0.631423 0.536982
O O7 0.007534 0.619550 0.683643
O O8 0.004670 0.747233 0.630477
O O9 0.250000 0.916480 0.972662
O O10 0.500000 0.000000 0.981720
O O11 0.250000 0.829724 0.401661
O O12 0.509562 0.877566 0.332360
O O13 0.503273 0.868155 0.478665
O O14 0.750000 0.085415 0.259186
O O15 0.500000 0.000000 0.260695
O O16 0.750000 0.419421 0.050278
O O17 0.011419 0.385492 0.123547
O O18 0.000000 0.500000 0.033476
O O19 0.750000 0.319122 0.174402
#
# Coordination Sequence:
#
# PCOD9363080 Si02
#       7
#     8   8   8   8   8   8   8
#     4  10  20  38  63  87 114 149 191 235 285 342
#     4   9  17  34  58  82 110 146 189 230 277 338
#     4  11  23  38  58  85 118 153 192 237 285 337
#     4  10  20  36  59  85 115 150 188 231 283 344
#     4  10  19  32  53  81 112 148 185 223 273 333
#     4  11  23  38  58  83 115 152 194 239 286 338
#     4   9  18  36  61  85 109 148 192 233 284 342
#
# _framework density 20.553464000000002
#
# number of rings (size 3 to 8) (size 9 to 14) (size 15 to 20)
#    0.000    2.000    1.429    2.571    0.000    4.000 
#    0.000    3.571    0.000    3.429    0.000    0.000 
#    0.000    0.000    0.000    0.000    0.000    0.000 
#
# Total GULP energy -156412.292206 kJ/mol
# GULP energy per Si atom -5586.153293 kJ/mol
# Density = 2.050668 g / cm^3
# Si number density = 20.553464 Si / 1000 Ang^3
#
#
#
# Elastic Constant Matrix: (Units=GPa)
#
#
# Indices 1 2 3 4 5 6 
#
# 1 16.7420 6.1142 12.8645 0.0000 0.0000 0.0000
# 2 6.1142 45.9268 66.5164 0.0000 0.0000 0.0000
# 3 12.8645 66.5164 147.2681 0.0000 0.0000 0.0000
# 4 0.0000 0.0000 0.0000 39.1883 0.0000 0.0000
# 5 0.0000 0.0000 0.0000 0.0000 17.6267 0.0000
# 6 0.0000 0.0000 0.0000 0.0000 0.0000 9.3364
#
#
#
# Elastic Compliance Matrix: (Units=1/GPa)
#
#
# Indices 1 2 3 4 5 6 
#
# 1 0.064052 -0.001225 -0.005042 0.000000 0.000000 0.000000
# 2 -0.001225 0.062982 -0.028340 0.000000 0.000000 0.000000
# 3 -0.005042 -0.028340 0.020031 0.000000 0.000000 0.000000
# 4 0.000000 0.000000 0.000000 0.025518 0.000000 0.000000
# 5 0.000000 0.000000 0.000000 0.000000 0.056732 0.000000
# 6 0.000000 0.000000 0.000000 0.000000 0.000000 0.107108
#
#
# Mechanical properties :
#
#
# Convention : Reuss Voigt Hill
#
# Bulk Modulus (GPa) = 12.84499 42.32520 27.58510
# Shear Modulus (GPa) = 11.58517 21.52642 16.55579
#
# Velocity S-wave (km/s) = 2.37673 3.23977 2.84121
# Velocity P-wave (km/s) = 3.71415 5.88492 4.92073
#
# Compressibility (1/GPa) = 0.07785138
#
# Stress axis : x y z
#
# Youngs Moduli (GPa) = 15.61240 15.87751 49.92238
#
# Poissons Ratio (x) = 0.01944 0.25171
# Poissons Ratio (y) = 0.01912 1.41480
# Poissons Ratio (z) = 0.07872 0.44997
#
# Static dielectric constant tensor:
#      x y z
#    x 1.734930 0.000000 0.000000 
#    y 0.000000 1.715470 0.000000 
#    z 0.000000 0.000000 1.726820 
# 
# From -- ./inp_files/15312.got.cif
#   From: 2010.05.17/outbox.cif.g08.bks.cpg/sg40_8_cif.got.tgz:15312.got - 2010.06.03 18:35:42.
