data_PCOD9363127
_publ_section_title
;
Structure prediction by ZEFSAII (Michael W. Deem and Ramdas Pophale) SiO2 
 PCOD9363127
Probable space group: A M A 2
;
_chemical_formula_sum "Si O2"
_cell_formula_units_Z 64
_cell_length_a 8.650430
_cell_length_b 14.795452
_cell_length_c 28.539328
_cell_angle_alpha 90.000000
_cell_angle_beta 90.000000
_cell_angle_gamma 90.000000
_cell_volume 3652.663596
_symmetry_space_group_name_H-M "A M A 2"
_symmetry_group_IT_number 40
_symmetry_cell_setting 'orthorhombic'
loop_
_space_group_symop_operation_xyz
x,y,z
-x,-y,z
1/2-x,y,z
1/2+x,-y,z
x,1/2+y,1/2+z
-x,1/2-y,1/2+z
1/2-x,1/2+y,1/2+z
1/2+x,1/2-y,1/2+z
loop_
_atom_site_type_symbol
_atom_site_label
_atom_site_fract_x
_atom_site_fract_y
_atom_site_fract_z
Si Si1 0.936395 0.715516 0.274800
Si Si2 0.934833 0.900055 0.691610
Si Si3 0.925173 0.352356 0.904783
Si Si4 0.934221 0.214755 0.498959
Si Si5 0.437070 0.406848 0.469034
Si Si6 0.432920 0.905463 0.308762
Si Si7 0.564829 0.400034 0.082640
Si Si8 0.075367 0.855577 0.869944
O O1 0.750000 0.716668 0.277401
O O2 0.995241 0.652655 0.318370
O O3 0.992747 0.672155 0.226811
O O4 0.995960 0.816897 0.284037
O O5 0.750000 0.901034 0.696791
O O6 0.971350 0.880018 0.637133
O O7 0.000000 0.000000 0.702080
O O8 0.750000 0.388446 0.907272
O O9 0.914281 0.248460 0.887109
O O10 0.021111 0.399084 0.863752
O O11 0.001678 0.345602 0.955630
O O12 0.750000 0.219027 0.495990
O O13 0.003734 0.315401 0.493127
O O14 0.989325 0.169914 0.546993
O O15 0.500000 0.500000 0.490075
O O16 0.250000 0.405411 0.468294
O O17 0.498526 0.402233 0.414985
O O18 0.250000 0.903612 0.303944
O O19 0.500000 0.000000 0.290421
O O20 0.500000 0.500000 0.072589
O O21 0.750000 0.399728 0.077004
O O22 0.250000 0.891990 0.864791
#
# Coordination Sequence:
#
# PCOD9363127 Si02
#       8
#     8   8   8   8   8   8   8   8
#     4  10  19  34  55  79 108 142 179 219 264 313
#     4  10  21  37  57  81 107 136 172 216 267 321
#     4   9  17  32  50  71 101 136 174 215 258 302
#     4  11  21  34  54  80 107 139 179 220 266 319
#     4  10  19  33  51  74 107 145 183 221 260 305
#     4  11  21  34  52  77 109 145 184 222 262 310
#     4  10  21  38  58  80 106 135 170 216 269 322
#     4   7  14  28  46  68  97 132 168 207 248 292
#
# _framework density 17.521460999999999
#
# number of rings (size 3 to 8) (size 9 to 14) (size 15 to 20)
#    0.000    2.250    0.000    5.625    0.000    2.500 
#    0.000    5.625    0.000    0.750    0.000    0.000 
#    0.000    0.000    0.000    0.000    0.000    0.000 
#
# Total GULP energy -178448.393916 kJ/mol
# GULP energy per Si atom -5576.512310 kJ/mol
# Density = 1.748158 g / cm^3
# Si number density = 17.521461 Si / 1000 Ang^3
#
#
#
# Elastic Constant Matrix: (Units=GPa)
#
#
# Indices 1 2 3 4 5 6 
#
# 1 99.1533 42.2205 49.5001 0.0000 0.0000 0.0000
# 2 42.2205 104.6361 69.6773 0.0000 0.0000 0.0000
# 3 49.5001 69.6773 99.4479 0.0000 0.0000 0.0000
# 4 0.0000 0.0000 0.0000 23.1778 0.0000 0.0000
# 5 0.0000 0.0000 0.0000 0.0000 25.9510 0.0000
# 6 0.0000 0.0000 0.0000 0.0000 0.0000 27.1555
#
#
#
# Elastic Compliance Matrix: (Units=1/GPa)
#
#
# Indices 1 2 3 4 5 6 
#
# 1 0.013606 -0.001838 -0.005485 0.000000 0.000000 0.000000
# 2 -0.001838 0.018164 -0.011812 0.000000 0.000000 0.000000
# 3 -0.005485 -0.011812 0.021061 0.000000 0.000000 0.000000
# 4 0.000000 0.000000 0.000000 0.043145 0.000000 0.000000
# 5 0.000000 0.000000 0.000000 0.000000 0.038534 0.000000
# 6 0.000000 0.000000 0.000000 0.000000 0.000000 0.036825
#
#
# Mechanical properties :
#
#
# Convention : Reuss Voigt Hill
#
# Bulk Modulus (GPa) = 68.66761 69.55923 69.11342
# Shear Modulus (GPa) = 23.31462 24.71282 24.01372
#
# Velocity S-wave (km/s) = 3.65174 3.75965 3.70609
# Velocity P-wave (km/s) = 7.55354 7.65717 7.60553
#
# Compressibility (1/GPa) = 0.01456291
#
# Stress axis : x y z
#
# Youngs Moduli (GPa) = 73.49653 55.05460 47.48040
#
# Poissons Ratio (x) = 0.10117 0.26042
# Poissons Ratio (y) = 0.13506 0.56082
# Poissons Ratio (z) = 0.40312 0.65028
#
# Static dielectric constant tensor:
#      x y z
#    x 1.603700 0.000000 0.000000 
#    y 0.000000 1.598990 0.000000 
#    z 0.000000 0.000000 1.599370 
# 
# From -- ./inp_files/24223.got.cif
#   From: 2010.05.17/outbox.cif.g08.bks.cpg/sg40_13_cif.got.tgz:24223.got - 2010.06.03 18:35:42.
