data_PCOD9363563
_publ_section_title
;
Structure prediction by ZEFSAII (Michael W. Deem and Ramdas Pophale) SiO2 
 PCOD9363563
Probable space group: A M A 2
;
_chemical_formula_sum "Si O2"
_cell_formula_units_Z 56
_cell_length_a 16.377609
_cell_length_b 29.433205
_cell_length_c 5.254902
_cell_angle_alpha 90.000000
_cell_angle_beta 90.000000
_cell_angle_gamma 90.000000
_cell_volume 2533.101983
_symmetry_space_group_name_H-M "A M A 2"
_symmetry_group_IT_number 40
_symmetry_cell_setting 'orthorhombic'
loop_
_space_group_symop_operation_xyz
x,y,z
-x,-y,z
1/2-x,y,z
1/2+x,-y,z
x,1/2+y,1/2+z
-x,1/2-y,1/2+z
1/2-x,1/2+y,1/2+z
1/2+x,1/2-y,1/2+z
loop_
_atom_site_type_symbol
_atom_site_label
_atom_site_fract_x
_atom_site_fract_y
_atom_site_fract_z
Si Si1 0.157364 0.398429 0.440110
Si Si2 0.947369 0.246876 0.250866
Si Si3 0.932724 0.375261 0.821821
Si Si4 0.158219 0.676902 0.455695
Si Si5 0.339059 0.577344 0.197287
Si Si6 0.101379 0.349817 0.959152
Si Si7 0.000529 0.549620 0.448154
O O1 0.250000 0.415369 0.435627
O O2 0.138120 0.379081 0.723554
O O3 0.090364 0.436586 0.362074
O O4 0.146922 0.359765 0.222465
O O5 0.882589 0.287842 0.265747
O O6 0.904100 0.201170 0.353542
O O7 0.984589 0.242091 0.968890
O O8 0.900912 0.329491 0.695429
O O9 0.005984 0.363471 0.013524
O O10 0.976814 0.409144 0.630482
O O11 0.855145 0.403484 0.916703
O O12 0.250000 0.690312 0.521814
O O13 0.160276 0.625517 0.346834
O O14 0.250000 0.555852 0.230206
O O15 0.421310 0.549541 0.258844
O O16 0.000000 0.500000 0.571468
#
# Coordination Sequence:
#
# PCOD9363563 Si02
#       7
#     8   8   8   8   8   8   8
#     4  11  24  44  67  93 130 175 218 264 320 386
#     4  12  24  39  64  93 127 170 220 265 314 373
#     4  10  19  39  62  87 124 163 208 256 324 387
#     4  10  22  37  58  91 125 162 204 262 319 374
#     4  10  20  38  65  92 123 161 207 259 324 392
#     4  11  22  41  67  92 126 174 221 261 315 381
#     4  10  23  40  64  92 125 163 209 267 325 389
#
# _framework density 22.107282999999999
#
# number of rings (size 3 to 8) (size 9 to 14) (size 15 to 20)
#    0.000    1.429    2.857    2.571    2.000    2.857 
#    0.000    0.000    0.000    0.000    0.000    0.000 
#    0.000    0.000    0.000    0.000    0.000    0.000 
#
# Total GULP energy -156101.671666 kJ/mol
# GULP energy per Si atom -5575.059702 kJ/mol
# Density = 2.205697 g / cm^3
# Si number density = 22.107283 Si / 1000 Ang^3
#
#
#
# Elastic Constant Matrix: (Units=GPa)
#
#
# Indices 1 2 3 4 5 6 
#
# 1 161.4540 30.6287 17.9419 0.0000 0.0000 0.0000
# 2 30.6287 47.5655 -6.9880 0.0000 0.0000 0.0000
# 3 17.9419 -6.9880 57.9331 0.0000 0.0000 0.0000
# 4 0.0000 0.0000 0.0000 -7.6845 0.0000 0.0000
# 5 0.0000 0.0000 0.0000 0.0000 23.9974 0.0000
# 6 0.0000 0.0000 0.0000 0.0000 0.0000 3.5439
#
#
#
# Elastic Compliance Matrix: (Units=1/GPa)
#
#
# Indices 1 2 3 4 5 6 
#
# 1 0.007526 -0.005282 -0.002968 0.000000 0.000000 0.000000
# 2 -0.005282 0.025110 0.004665 0.000000 0.000000 0.000000
# 3 -0.002968 0.004665 0.018743 0.000000 0.000000 0.000000
# 4 0.000000 0.000000 0.000000 -0.130132 0.000000 0.000000
# 5 0.000000 0.000000 0.000000 0.000000 0.041671 0.000000
# 6 0.000000 0.000000 0.000000 0.000000 0.000000 0.282171
#
#
# Mechanical properties :
#
#
# Convention : Reuss Voigt Hill
#
# Bulk Modulus (GPa) = 22.62003 38.90199 30.76101
# Shear Modulus (GPa) = 18.72691 18.99604 18.86147
#
# Velocity S-wave (km/s) = 2.91364 2.93450 2.92409
# Velocity P-wave (km/s) = 4.64470 5.39600 5.03439
#
# Compressibility (1/GPa) = 0.04420860
#
# Stress axis : x y z
#
# Youngs Moduli (GPa) = 132.88119 39.82462 53.35311
#
# Poissons Ratio (x) = 0.21035 0.15834
# Poissons Ratio (y) = 0.70186 -0.24887
# Poissons Ratio (z) = 0.39436 -0.18577
#
# Static dielectric constant tensor:
#      x y z
#    x 1.851480 0.000000 0.000000 
#    y 0.000000 1.815610 0.000000 
#    z 0.000000 0.000000 1.906180 
# 
# From -- ./inp_files/1456.got.cif
#   From: 2010.05.17/outbox.cif.g08.bks.cpg/sg40_1_cif.got.tgz:1456.got - 2010.06.03 18:35:42.
