data_PCOD9363322
_publ_section_title
;
Structure prediction by ZEFSAII (Michael W. Deem and Ramdas Pophale) SiO2 
 PCOD9363322
Probable space group: A M A 2
;
_chemical_formula_sum "Si O2"
_cell_formula_units_Z 64
_cell_length_a 13.574482
_cell_length_b 12.924012
_cell_length_c 16.943819
_cell_angle_alpha 90.000000
_cell_angle_beta 90.000000
_cell_angle_gamma 90.000000
_cell_volume 2972.568847
_symmetry_space_group_name_H-M "A M A 2"
_symmetry_group_IT_number 40
_symmetry_cell_setting 'orthorhombic'
loop_
_space_group_symop_operation_xyz
x,y,z
-x,-y,z
1/2-x,y,z
1/2+x,-y,z
x,1/2+y,1/2+z
-x,1/2-y,1/2+z
1/2-x,1/2+y,1/2+z
1/2+x,1/2-y,1/2+z
loop_
_atom_site_type_symbol
_atom_site_label
_atom_site_fract_x
_atom_site_fract_y
_atom_site_fract_z
Si Si1 0.868864 0.910754 0.832820
Si Si2 0.635082 0.224706 0.590237
Si Si3 0.865187 0.620574 0.624231
Si Si4 0.130011 0.324373 0.791624
Si Si5 0.862767 0.849504 0.556712
Si Si6 0.533468 0.116292 0.452542
Si Si7 0.130856 0.467407 0.180675
Si Si8 0.371067 0.064697 0.014328
O O1 0.750000 0.914958 0.837824
O O2 0.891598 0.798402 0.796230
O O3 0.904599 0.922540 0.923234
O O4 0.896565 0.996438 0.768149
O O5 0.750000 0.238635 0.606728
O O6 0.617832 0.157657 0.511087
O O7 0.593850 0.146847 0.656446
O O8 0.595532 0.338132 0.568784
O O9 0.750000 0.591926 0.633291
O O10 0.906821 0.619470 0.712462
O O11 0.866243 0.741133 0.602078
O O12 0.899770 0.542413 0.556455
O O13 0.250000 0.334606 0.797964
O O14 0.074078 0.369483 0.866225
O O15 0.750000 0.870594 0.532587
O O16 0.934048 0.829326 0.482758
O O17 0.893502 0.943464 0.615673
O O18 0.500000 0.000000 0.464699
O O19 0.250000 0.463374 0.178301
O O20 0.250000 0.069756 0.011135
#
# Coordination Sequence:
#
# PCOD9363322 Si02
#       8
#     8   8   8   8   8   8   8   8
#     4   9  15  28  57  91 116 148 200 245 287 350
#     4  10  19  34  57  88 124 158 198 247 301 356
#     4   9  18  36  64  90 118 159 204 250 307 367
#     4  10  19  35  62  91 116 153 210 258 296 360
#     4  10  20  36  59  87 118 158 201 248 308 366
#     4  12  23  34  56  88 120 156 203 252 310 356
#     4   9  16  29  55  87 116 153 196 243 294 349
#     4   9  17  31  58  91 121 157 199 247 297 353
#
# _framework density 21.530200000000001
#
# number of rings (size 3 to 8) (size 9 to 14) (size 15 to 20)
#    0.000    2.250    3.750    0.375    0.000    0.500 
#    0.000    1.875    5.500    0.000    0.000    0.875 
#    0.000    0.000    0.000    0.000    0.000    0.000 
#
# Total GULP energy -178458.819289 kJ/mol
# GULP energy per Si atom -5576.838103 kJ/mol
# Density = 2.148120 g / cm^3
# Si number density = 21.530200 Si / 1000 Ang^3
#
#
#
# Elastic Constant Matrix: (Units=GPa)
#
#
# Indices 1 2 3 4 5 6 
#
# 1 55.7604 -2.3332 8.3469 0.0000 0.0000 0.0000
# 2 -2.3332 113.8361 52.8974 0.0000 0.0000 0.0000
# 3 8.3469 52.8974 117.2601 0.0000 0.0000 0.0000
# 4 0.0000 0.0000 0.0000 29.1647 0.0000 0.0000
# 5 0.0000 0.0000 0.0000 0.0000 -3.5109 0.0000
# 6 0.0000 0.0000 0.0000 0.0000 0.0000 17.2863
#
#
#
# Elastic Compliance Matrix: (Units=1/GPa)
#
#
# Indices 1 2 3 4 5 6 
#
# 1 0.018264 0.001238 -0.001859 0.000000 0.000000 0.000000
# 2 0.001238 0.011198 -0.005140 0.000000 0.000000 0.000000
# 3 -0.001859 -0.005140 0.010979 0.000000 0.000000 0.000000
# 4 0.000000 0.000000 0.000000 0.034288 0.000000 0.000000
# 5 0.000000 0.000000 0.000000 0.000000 -0.284825 0.000000
# 6 0.000000 0.000000 0.000000 0.000000 0.000000 0.057849
#
#
# Mechanical properties :
#
#
# Convention : Reuss Voigt Hill
#
# Bulk Modulus (GPa) = 34.57768 44.96433 39.77100
# Shear Modulus (GPa) = -38.14294 23.78438 -7.17928
#
# Velocity S-wave (km/s) = -4.21361 3.32731 -1.82805
# Velocity P-wave (km/s) = 2.75276 5.97419 3.74922
#
# Compressibility (1/GPa) = 0.02892039
#
# Stress axis : x y z
#
# Youngs Moduli (GPa) = 54.75287 89.29930 91.08321
#
# Poissons Ratio (x) = -0.11055 0.16928
# Poissons Ratio (y) = -0.06778 0.46815
# Poissons Ratio (z) = 0.10176 0.45898
#
# Static dielectric constant tensor:
#      x y z
#    x 1.893850 0.000000 0.000000 
#    y 0.000000 1.873260 0.000000 
#    z 0.000000 0.000000 1.771300 
# 
# From -- ./inp_files/20802.got.cif
#   From: 2010.05.17/outbox.cif.g08.bks.cpg/sg40_11_cif.got.tgz:20802.got - 2010.06.03 18:35:42.
