data_PCOD9363134
_publ_section_title
;
Structure prediction by ZEFSAII (Michael W. Deem and Ramdas Pophale) SiO2 
 PCOD9363134
Probable space group: A M A 2
;
_chemical_formula_sum "Si O2"
_cell_formula_units_Z 64
_cell_length_a 8.851554
_cell_length_b 23.682443
_cell_length_c 19.440555
_cell_angle_alpha 90.000000
_cell_angle_beta 90.000000
_cell_angle_gamma 90.000000
_cell_volume 4075.254007
_symmetry_space_group_name_H-M "A M A 2"
_symmetry_group_IT_number 40
_symmetry_cell_setting 'orthorhombic'
loop_
_space_group_symop_operation_xyz
x,y,z
-x,-y,z
1/2-x,y,z
1/2+x,-y,z
x,1/2+y,1/2+z
-x,1/2-y,1/2+z
1/2-x,1/2+y,1/2+z
1/2+x,1/2-y,1/2+z
loop_
_atom_site_type_symbol
_atom_site_label
_atom_site_fract_x
_atom_site_fract_y
_atom_site_fract_z
Si Si1 0.570238 0.169039 0.257930
Si Si2 0.930132 0.231693 0.121100
Si Si3 0.430697 0.623231 0.975398
Si Si4 0.069401 0.438831 0.843511
Si Si5 0.069319 0.837870 0.701282
Si Si6 0.070834 0.773179 0.838243
Si Si7 0.929681 0.248876 0.478838
Si Si8 0.069622 0.562122 0.120910
O O1 0.750000 0.178962 0.269134
O O2 0.538578 0.184150 0.178699
O O3 0.536262 0.106173 0.283092
O O4 0.480914 0.213829 0.304550
O O5 0.750000 0.237026 0.112301
O O6 0.993810 0.289729 0.153654
O O7 0.007700 0.222783 0.048050
O O8 0.250000 0.627972 0.967207
O O9 0.500246 0.587799 0.912838
O O10 0.501880 0.685522 0.976657
O O11 0.462031 0.591478 0.047137
O O12 0.250000 0.443170 0.851096
O O13 0.000000 0.500000 0.830889
O O14 0.250000 0.836371 0.691389
O O15 0.037004 0.819733 0.779843
O O16 0.002956 0.897422 0.678218
O O17 0.250000 0.771967 0.850191
O O18 0.985264 0.779589 0.909863
O O19 0.750000 0.245283 0.480478
O O20 0.250000 0.559616 0.129274
O O21 0.000000 0.500000 0.122300
#
# Coordination Sequence:
#
# PCOD9363134 Si02
#       8
#     8   8   8   8   8   8   8   8
#     4   9  19  34  51  72  99 132 170 210 254 297
#     4  10  19  33  52  73 100 132 168 210 254 304
#     4  11  22  35  50  72 101 137 177 214 248 292
#     4  11  22  35  51  73 101 138 176 213 251 296
#     4  10  20  34  52  75 101 131 169 212 254 303
#     4  10  20  33  52  75 101 132 168 208 254 304
#     4  12  22  32  50  76 105 137 169 207 254 308
#     4  11  23  36  52  72 101 139 178 216 252 298
#
# _framework density 15.704544
#
# number of rings (size 3 to 8) (size 9 to 14) (size 15 to 20)
#    0.000    1.500    2.500    3.750    0.000    5.000 
#    0.000    0.000    0.000    0.000    0.000    0.875 
#    0.000    2.000    0.000    0.000    0.000    0.000 
#
# Total GULP energy -178734.830003 kJ/mol
# GULP energy per Si atom -5585.463438 kJ/mol
# Density = 1.566880 g / cm^3
# Si number density = 15.704544 Si / 1000 Ang^3
#
#
#
# Elastic Constant Matrix: (Units=GPa)
#
#
# Indices 1 2 3 4 5 6 
#
# 1 82.6111 49.4763 68.9685 0.0000 0.0000 0.0000
# 2 49.4763 84.1665 57.5413 0.0000 0.0000 0.0000
# 3 68.9685 57.5413 128.4992 0.0000 0.0000 0.0000
# 4 0.0000 0.0000 0.0000 17.9633 0.0000 0.0000
# 5 0.0000 0.0000 0.0000 0.0000 25.7794 0.0000
# 6 0.0000 0.0000 0.0000 0.0000 0.0000 24.1615
#
#
#
# Elastic Compliance Matrix: (Units=1/GPa)
#
#
# Indices 1 2 3 4 5 6 
#
# 1 0.025205 -0.008024 -0.009935 0.000000 0.000000 0.000000
# 2 -0.008024 0.019678 -0.004505 0.000000 0.000000 0.000000
# 3 -0.009935 -0.004505 0.015132 0.000000 0.000000 0.000000
# 4 0.000000 0.000000 0.000000 0.055669 0.000000 0.000000
# 5 0.000000 0.000000 0.000000 0.000000 0.038791 0.000000
# 6 0.000000 0.000000 0.000000 0.000000 0.000000 0.041388
#
#
# Mechanical properties :
#
#
# Convention : Reuss Voigt Hill
#
# Bulk Modulus (GPa) = 66.28428 71.91653 69.10040
# Shear Modulus (GPa) = 20.34014 21.53354 20.93684
#
# Velocity S-wave (km/s) = 3.60276 3.70694 3.65522
# Velocity P-wave (km/s) = 7.72044 8.01341 7.86829
#
# Compressibility (1/GPa) = 0.01508653
#
# Stress axis : x y z
#
# Youngs Moduli (GPa) = 39.67491 50.81808 66.08688
#
# Poissons Ratio (x) = 0.40778 0.65656
# Poissons Ratio (y) = 0.31837 0.29771
# Poissons Ratio (z) = 0.39416 0.22893
#
# Static dielectric constant tensor:
#      x y z
#    x 1.522750 0.000000 0.000000 
#    y 0.000000 1.495540 0.000000 
#    z 0.000000 0.000000 1.531630 
# 
# From -- ./inp_files/19575.got.cif
#   From: 2010.05.17/outbox.cif.g08.bks.cpg/sg40_10_cif.got.tgz:19575.got - 2010.06.03 18:35:42.
