data_PCOD9363447
_publ_section_title
;
Structure prediction by ZEFSAII (Michael W. Deem and Ramdas Pophale) SiO2 
 PCOD9363447
Probable space group: A M A 2
;
_chemical_formula_sum "Si O2"
_cell_formula_units_Z 64
_cell_length_a 9.772633
_cell_length_b 19.574964
_cell_length_c 18.655194
_cell_angle_alpha 90.000000
_cell_angle_beta 90.000000
_cell_angle_gamma 90.000000
_cell_volume 3568.718822
_symmetry_space_group_name_H-M "A M A 2"
_symmetry_group_IT_number 40
_symmetry_cell_setting 'orthorhombic'
loop_
_space_group_symop_operation_xyz
x,y,z
-x,-y,z
1/2-x,y,z
1/2+x,-y,z
x,1/2+y,1/2+z
-x,1/2-y,1/2+z
1/2-x,1/2+y,1/2+z
1/2+x,1/2-y,1/2+z
loop_
_atom_site_type_symbol
_atom_site_label
_atom_site_fract_x
_atom_site_fract_y
_atom_site_fract_z
Si Si1 0.092254 0.768677 0.268820
Si Si2 0.899727 0.385610 0.315644
Si Si3 0.907738 0.319817 0.886221
Si Si4 0.085999 0.933801 0.942571
Si Si5 0.590947 0.724764 0.134917
Si Si6 0.408409 0.287788 0.509844
Si Si7 0.972275 0.418957 0.154515
Si Si8 0.399333 0.062658 0.498873
O O1 0.250000 0.786177 0.252034
O O2 0.094311 0.696086 0.310377
O O3 0.014526 0.819363 0.322010
O O4 0.999296 0.756407 0.199184
O O5 0.750000 0.406225 0.344672
O O6 0.908069 0.407657 0.232501
O O7 0.020064 0.414799 0.364919
O O8 0.750000 0.325852 0.860894
O O9 0.936975 0.379344 0.942855
O O10 0.915296 0.251210 0.933831
O O11 0.250000 0.944983 0.937588
O O12 0.064634 0.867538 0.993405
O O13 0.000000 0.000000 0.967187
O O14 0.750000 0.744785 0.136159
O O15 0.514761 0.751883 0.063556
O O16 0.583230 0.642095 0.146546
O O17 0.250000 0.279861 0.535612
O O18 0.000000 0.500000 0.153437
O O19 0.894334 0.408005 0.079555
O O20 0.250000 0.036716 0.479801
O O21 0.500000 0.000000 0.497094
#
# Coordination Sequence:
#
# PCOD9363447 Si02
#       8
#     8   8   8   8   8   8   8   8
#     4  10  21  36  57  84 114 147 185 233 281 331
#     4  10  20  33  52  78 111 150 191 228 267 322
#     4  10  19  36  59  82 111 149 190 234 280 331
#     4  11  23  38  58  81 111 148 186 230 283 338
#     4  11  23  37  58  86 114 149 192 236 279 334
#     4  10  21  39  59  81 112 150 186 230 284 335
#     4  10  21  35  50  77 113 155 191 229 270 319
#     4  10  21  36  55  79 113 151 189 234 282 331
#
# _framework density 17.933608
#
# number of rings (size 3 to 8) (size 9 to 14) (size 15 to 20)
#    0.000    1.750    2.500    1.875    0.000    7.500 
#    0.000    0.000    0.000    0.750    0.000    5.250 
#    0.000    0.000    0.000    0.000    0.000    0.000 
#
# Total GULP energy -178251.887354 kJ/mol
# GULP energy per Si atom -5570.371480 kJ/mol
# Density = 1.789279 g / cm^3
# Si number density = 17.933608 Si / 1000 Ang^3
#
#
#
# Elastic Constant Matrix: (Units=GPa)
#
#
# Indices 1 2 3 4 5 6 
#
# 1 132.5767 45.6770 58.5488 0.0000 0.0000 0.0000
# 2 45.6770 66.0202 25.5379 0.0000 0.0000 0.0000
# 3 58.5488 25.5379 67.6579 0.0000 0.0000 0.0000
# 4 0.0000 0.0000 0.0000 33.3589 0.0000 0.0000
# 5 0.0000 0.0000 0.0000 0.0000 -45.8519 0.0000
# 6 0.0000 0.0000 0.0000 0.0000 0.0000 24.2656
#
#
#
# Elastic Compliance Matrix: (Units=1/GPa)
#
#
# Indices 1 2 3 4 5 6 
#
# 1 0.013879 -0.005804 -0.009820 0.000000 0.000000 0.000000
# 2 -0.005804 0.020164 -0.002588 0.000000 0.000000 0.000000
# 3 -0.009820 -0.002588 0.024255 0.000000 0.000000 0.000000
# 4 0.000000 0.000000 0.000000 0.029977 0.000000 0.000000
# 5 0.000000 0.000000 0.000000 0.000000 -0.021809 0.000000
# 6 0.000000 0.000000 0.000000 0.000000 0.000000 0.041211
#
#
# Mechanical properties :
#
#
# Convention : Reuss Voigt Hill
#
# Bulk Modulus (GPa) = 45.71735 58.42024 52.06879
# Shear Modulus (GPa) = 33.02704 11.45392 22.24048
#
# Velocity S-wave (km/s) = 4.29608 2.52996 3.52541
# Velocity P-wave (km/s) = 7.08211 6.41723 6.75785
#
# Compressibility (1/GPa) = 0.02187353
#
# Stress axis : x y z
#
# Youngs Moduli (GPa) = 72.05097 49.59419 41.22886
#
# Poissons Ratio (x) = 0.28784 0.40486
# Poissons Ratio (y) = 0.41818 0.10671
# Poissons Ratio (z) = 0.70752 0.12837
#
# Static dielectric constant tensor:
#      x y z
#    x 1.777270 0.000000 0.000000 
#    y 0.000000 1.631900 0.000000 
#    z 0.000000 0.000000 1.608390 
# 
# From -- ./inp_files/19574.got.cif
#   From: 2010.05.17/outbox.cif.g08.bks.cpg/sg40_10_cif.got.tgz:19574.got - 2010.06.03 18:35:42.
