data_PCOD9363323
_publ_section_title
;
Structure prediction by ZEFSAII (Michael W. Deem and Ramdas Pophale) SiO2 
 PCOD9363323
Probable space group: A M A 2
;
_chemical_formula_sum "Si O2"
_cell_formula_units_Z 64
_cell_length_a 13.524819
_cell_length_b 17.959762
_cell_length_c 12.563908
_cell_angle_alpha 90.000000
_cell_angle_beta 90.000000
_cell_angle_gamma 90.000000
_cell_volume 3051.805044
_symmetry_space_group_name_H-M "A M A 2"
_symmetry_group_IT_number 40
_symmetry_cell_setting 'orthorhombic'
loop_
_space_group_symop_operation_xyz
x,y,z
-x,-y,z
1/2-x,y,z
1/2+x,-y,z
x,1/2+y,1/2+z
-x,1/2-y,1/2+z
1/2-x,1/2+y,1/2+z
1/2+x,1/2-y,1/2+z
loop_
_atom_site_type_symbol
_atom_site_label
_atom_site_fract_x
_atom_site_fract_y
_atom_site_fract_z
Si Si1 0.366362 0.808741 0.704080
Si Si2 0.134664 0.853304 0.135374
Si Si3 0.370391 0.945957 0.335550
Si Si4 0.629534 0.239647 0.937450
Si Si5 0.363697 0.706580 0.282632
Si Si6 0.491090 0.575250 0.190655
Si Si7 0.630125 0.414181 0.977986
Si Si8 0.369855 0.304329 0.976833
O O1 0.250000 0.798789 0.705120
O O2 0.400639 0.776641 0.815942
O O3 0.397748 0.893910 0.685893
O O4 0.407691 0.779144 0.592278
O O5 0.250000 0.874060 0.117847
O O6 0.094075 0.915946 0.218955
O O7 0.132750 0.776884 0.203418
O O8 0.095320 0.824321 0.020857
O O9 0.250000 0.942568 0.330092
O O10 0.399847 0.883437 0.424071
O O11 0.393406 0.028672 0.380591
O O12 0.750000 0.236637 0.942489
O O13 0.606072 0.326268 0.962273
O O14 0.250000 0.681747 0.286259
O O15 0.430118 0.640223 0.244319
O O16 0.393612 0.739815 0.395135
O O17 0.500000 0.500000 0.254685
O O18 0.431764 0.561113 0.081295
O O19 0.750000 0.419099 0.995330
O O20 0.250000 0.308994 0.982482
#
# Coordination Sequence:
#
# PCOD9363323 Si02
#       8
#     8   8   8   8   8   8   8   8
#     4  10  22  38  53  78 115 153 190 233 281 338
#     4   8  13  27  53  84 111 145 187 221 275 354
#     4   8  14  25  50  86 118 140 168 227 293 337
#     4   9  17  32  57  81 111 153 196 233 278 353
#     4   9  17  33  56  81 107 138 185 240 283 334
#     4  12  24  34  53  83 109 147 187 237 293 357
#     4  10  19  34  57  89 121 144 178 244 306 347
#     4   8  15  31  55  78 105 144 184 223 276 336
#
# _framework density 20.971195000000002
#
# number of rings (size 3 to 8) (size 9 to 14) (size 15 to 20)
#    0.000    2.750    1.250    2.625    0.000    3.000 
#    0.000    0.000    2.750    0.000    0.000    0.000 
#    0.000    0.000    0.000    0.000    0.000    0.000 
#
# Total GULP energy -178275.472660 kJ/mol
# GULP energy per Si atom -5571.108521 kJ/mol
# Density = 2.092346 g / cm^3
# Si number density = 20.971195 Si / 1000 Ang^3
#
#
#
# Elastic Constant Matrix: (Units=GPa)
#
#
# Indices 1 2 3 4 5 6 
#
# 1 40.1764 5.2147 10.1591 0.0000 0.0000 0.0000
# 2 5.2147 80.1068 42.2249 0.0000 0.0000 0.0000
# 3 10.1591 42.2249 137.6417 0.0000 0.0000 0.0000
# 4 0.0000 0.0000 0.0000 -43.5501 0.0000 0.0000
# 5 0.0000 0.0000 0.0000 0.0000 11.1201 0.0000
# 6 0.0000 0.0000 0.0000 0.0000 0.0000 22.3938
#
#
#
# Elastic Compliance Matrix: (Units=1/GPa)
#
#
# Indices 1 2 3 4 5 6 
#
# 1 0.025406 -0.000794 -0.001632 0.000000 0.000000 0.000000
# 2 -0.000794 0.014916 -0.004517 0.000000 0.000000 0.000000
# 3 -0.001632 -0.004517 0.008771 0.000000 0.000000 0.000000
# 4 0.000000 0.000000 0.000000 -0.022962 0.000000 0.000000
# 5 0.000000 0.000000 0.000000 0.000000 0.089928 0.000000
# 6 0.000000 0.000000 0.000000 0.000000 0.000000 0.044655
#
#
# Mechanical properties :
#
#
# Convention : Reuss Voigt Hill
#
# Bulk Modulus (GPa) = 28.40268 41.45804 34.93036
# Shear Modulus (GPa) = 26.83332 11.34784 19.09058
#
# Velocity S-wave (km/s) = 3.58094 2.32871 3.02043
# Velocity P-wave (km/s) = 5.53810 5.20024 5.37183
#
# Compressibility (1/GPa) = 0.03520794
#
# Stress axis : x y z
#
# Youngs Moduli (GPa) = 39.36107 67.04160 114.00621
#
# Poissons Ratio (x) = 0.05322 0.18602
# Poissons Ratio (y) = 0.03124 0.51500
# Poissons Ratio (z) = 0.06422 0.30285
#
# Static dielectric constant tensor:
#      x y z
#    x 1.845630 0.000000 0.000000 
#    y 0.000000 1.766960 0.000000 
#    z 0.000000 0.000000 1.811420 
# 
# From -- ./inp_files/12433.got.cif
#   From: 2010.05.17/outbox.cif.g08.bks.cpg/sg40_7_cif.got.tgz:12433.got - 2010.06.03 18:35:42.
