data_PCOD9363697
_publ_section_title
;
Structure prediction by ZEFSAII (Michael W. Deem and Ramdas Pophale) SiO2 
 PCOD9363697
Probable space group: A M A 2
;
_chemical_formula_sum "Si O2"
_cell_formula_units_Z 56
_cell_length_a 15.185782
_cell_length_b 14.305833
_cell_length_c 11.725138
_cell_angle_alpha 90.000000
_cell_angle_beta 90.000000
_cell_angle_gamma 90.000000
_cell_volume 2547.230668
_symmetry_space_group_name_H-M "A M A 2"
_symmetry_group_IT_number 40
_symmetry_cell_setting 'orthorhombic'
loop_
_space_group_symop_operation_xyz
x,y,z
-x,-y,z
1/2-x,y,z
1/2+x,-y,z
x,1/2+y,1/2+z
-x,1/2-y,1/2+z
1/2-x,1/2+y,1/2+z
1/2+x,1/2-y,1/2+z
loop_
_atom_site_type_symbol
_atom_site_label
_atom_site_fract_x
_atom_site_fract_y
_atom_site_fract_z
Si Si1 0.954302 0.267993 0.281340
Si Si2 0.606315 0.514471 0.140873
Si Si3 0.851463 0.385693 0.605744
Si Si4 0.353707 0.226167 0.307384
Si Si5 0.347326 0.193477 0.575501
Si Si6 0.647489 0.687035 0.977146
Si Si7 0.901908 0.965202 0.876189
O O1 0.920303 0.255726 0.152799
O O2 0.920095 0.190715 0.370841
O O3 0.903320 0.360075 0.326338
O O4 0.058519 0.287015 0.283748
O O5 0.500000 0.500000 0.144426
O O6 0.642588 0.417752 0.090062
O O7 0.641933 0.521559 0.271726
O O8 0.630214 0.600669 0.060969
O O9 0.750000 0.404686 0.619555
O O10 0.881269 0.367589 0.735587
O O11 0.864784 0.282801 0.549329
O O12 0.876800 0.459213 0.508326
O O13 0.250000 0.250027 0.276729
O O14 0.354347 0.214917 0.442659
O O15 0.250000 0.221558 0.616595
O O16 0.750000 0.685596 0.939146
O O17 0.000000 0.000000 0.880562
#
# Coordination Sequence:
#
# PCOD9363697 Si02
#       7
#     8   8   8   8   8   8   8
#     4  10  21  36  63  86 122 157 208 259 310 372
#     4  10  20  33  57  87 124 159 204 250 311 367
#     4   9  20  37  57  82 115 153 199 247 303 365
#     4  10  22  38  60  86 117 163 208 253 312 378
#     4  10  21  38  60  86 122 165 208 252 315 381
#     4  10  20  35  58  89 120 153 200 257 311 364
#     4   9  20  35  56  86 119 156 201 246 310 368
#
# _framework density 21.984660999999999
#
# number of rings (size 3 to 8) (size 9 to 14) (size 15 to 20)
#    0.000    2.286    0.000    1.714   10.000    4.000 
#    0.000    2.857    0.000    0.000    0.000    0.000 
#    0.000    0.000    0.000    0.000    0.000    0.000 
#
# Total GULP energy -155931.687397 kJ/mol
# GULP energy per Si atom -5568.988836 kJ/mol
# Density = 2.193462 g / cm^3
# Si number density = 21.984661 Si / 1000 Ang^3
#
#
#
# Elastic Constant Matrix: (Units=GPa)
#
#
# Indices 1 2 3 4 5 6 
#
# 1 103.0965 10.3470 40.3803 0.0000 0.0000 0.0000
# 2 10.3470 29.8333 18.6391 0.0000 0.0000 0.0000
# 3 40.3803 18.6391 117.1658 0.0000 0.0000 0.0000
# 4 0.0000 0.0000 0.0000 32.1704 0.0000 0.0000
# 5 0.0000 0.0000 0.0000 0.0000 538.5177 0.0000
# 6 0.0000 0.0000 0.0000 0.0000 0.0000 20.3630
#
#
#
# Elastic Compliance Matrix: (Units=1/GPa)
#
#
# Indices 1 2 3 4 5 6 
#
# 1 0.011286 -0.001648 -0.003627 0.000000 0.000000 0.000000
# 2 -0.001648 0.037459 -0.005391 0.000000 0.000000 0.000000
# 3 -0.003627 -0.005391 0.010643 0.000000 0.000000 0.000000
# 4 0.000000 0.000000 0.000000 0.031084 0.000000 0.000000
# 5 0.000000 0.000000 0.000000 0.000000 0.001857 0.000000
# 6 0.000000 0.000000 0.000000 0.000000 0.000000 0.049109
#
#
# Mechanical properties :
#
#
# Convention : Reuss Voigt Hill
#
# Bulk Modulus (GPa) = 26.27785 43.20317 34.74051
# Shear Modulus (GPa) = 28.49715 130.25883 79.37799
#
# Velocity S-wave (km/s) = 3.60422 7.70574 6.01535
# Velocity P-wave (km/s) = 5.41289 9.94311 8.00515
#
# Compressibility (1/GPa) = 0.03805486
#
# Stress axis : x y z
#
# Youngs Moduli (GPa) = 88.60688 26.69555 93.96088
#
# Poissons Ratio (x) = 0.04399 0.34083
# Poissons Ratio (y) = 0.14602 0.50656
# Poissons Ratio (z) = 0.32141 0.14392
#
# Static dielectric constant tensor:
#      x y z
#    x 1.845490 0.000000 0.000000 
#    y 0.000000 1.927700 0.000000 
#    z 0.000000 0.000000 1.929130 
# 
# From -- ./inp_files/12238.got.cif
#   From: 2010.05.17/outbox.cif.g08.bks.cpg/sg40_7_cif.got.tgz:12238.got - 2010.06.03 18:35:42.
