data_PCOD9363912
_publ_section_title
;
Structure prediction by ZEFSAII (Michael W. Deem and Ramdas Pophale) SiO2 
 PCOD9363912
Probable space group: A M A 2
;
_chemical_formula_sum "Si O2"
_cell_formula_units_Z 56
_cell_length_a 13.685796
_cell_length_b 15.103531
_cell_length_c 13.684403
_cell_angle_alpha 90.000000
_cell_angle_beta 90.000000
_cell_angle_gamma 90.000000
_cell_volume 2828.618705
_symmetry_space_group_name_H-M "A M A 2"
_symmetry_group_IT_number 40
_symmetry_cell_setting 'orthorhombic'
loop_
_space_group_symop_operation_xyz
x,y,z
-x,-y,z
1/2-x,y,z
1/2+x,-y,z
x,1/2+y,1/2+z
-x,1/2-y,1/2+z
1/2-x,1/2+y,1/2+z
1/2+x,1/2-y,1/2+z
loop_
_atom_site_type_symbol
_atom_site_label
_atom_site_fract_x
_atom_site_fract_y
_atom_site_fract_z
Si Si1 0.363648 0.328367 0.937750
Si Si2 0.042355 0.690977 0.058478
Si Si3 0.862397 0.960144 0.430106
Si Si4 0.639691 0.954102 0.002263
Si Si5 0.363420 0.610150 0.715272
Si Si6 0.941564 0.638458 0.439877
Si Si7 0.011514 0.739431 0.264404
O O1 0.250000 0.304031 0.942008
O O2 0.371741 0.434830 0.938441
O O3 0.415711 0.286976 0.841604
O O4 0.427648 0.299805 0.030790
O O5 0.061047 0.690131 0.173513
O O6 0.077493 0.603280 0.001847
O O7 0.087292 0.778765 0.008214
O O8 0.750000 0.936860 0.448921
O O9 0.883366 0.938416 0.317297
O O10 0.750000 0.924080 0.979624
O O11 0.627156 0.950706 0.119706
O O12 0.553200 0.893304 0.960765
O O13 0.622585 0.052676 0.961980
O O14 0.250000 0.641163 0.717143
O O15 0.442326 0.687547 0.714812
O O16 0.944784 0.674855 0.329935
#
# Coordination Sequence:
#
# PCOD9363912 Si02
#       7
#     8   8   8   8   8   8   8
#     4  10  23  41  63  91 123 163 209 251 304 374
#     4  11  22  39  64  89 125 166 201 256 308 365
#     4  10  21  39  61  92 125 160 203 253 307 364
#     4  10  22  40  62  86 122 164 204 253 304 365
#     4  10  20  35  62  93 119 156 203 251 308 364
#     4  10  22  39  59  92 120 158 209 251 306 365
#     4  11  23  40  64  93 123 164 202 259 309 360
#
# _framework density 19.797649
#
# number of rings (size 3 to 8) (size 9 to 14) (size 15 to 20)
#    0.000    1.714    4.286    0.429    2.000    4.571 
#    5.143    0.000    0.000    0.000    0.000    0.000 
#    0.000    0.000    0.000    0.000    0.000    0.000 
#
# Total GULP energy -156248.350135 kJ/mol
# GULP energy per Si atom -5580.298219 kJ/mol
# Density = 1.975259 g / cm^3
# Si number density = 19.797649 Si / 1000 Ang^3
#
#
#
# Elastic Constant Matrix: (Units=GPa)
#
#
# Indices 1 2 3 4 5 6 
#
# 1 65.3091 12.7479 5.4867 0.0000 0.0000 0.0000
# 2 12.7479 72.9056 30.5188 0.0000 0.0000 0.0000
# 3 5.4867 30.5188 90.4633 0.0000 0.0000 0.0000
# 4 0.0000 0.0000 0.0000 19.9389 0.0000 0.0000
# 5 0.0000 0.0000 0.0000 0.0000 17.9964 0.0000
# 6 0.0000 0.0000 0.0000 0.0000 0.0000 15.7725
#
#
#
# Elastic Compliance Matrix: (Units=1/GPa)
#
#
# Indices 1 2 3 4 5 6 
#
# 1 0.015853 -0.002759 -0.000031 0.000000 0.000000 0.000000
# 2 -0.002759 0.016452 -0.005383 0.000000 0.000000 0.000000
# 3 -0.000031 -0.005383 0.012872 0.000000 0.000000 0.000000
# 4 0.000000 0.000000 0.000000 0.050153 0.000000 0.000000
# 5 0.000000 0.000000 0.000000 0.000000 0.055567 0.000000
# 6 0.000000 0.000000 0.000000 0.000000 0.000000 0.063401
#
#
# Mechanical properties :
#
#
# Convention : Reuss Voigt Hill
#
# Bulk Modulus (GPa) = 34.68415 36.24277 35.46346
# Shear Modulus (GPa) = 20.81126 22.73654 21.77390
#
# Velocity S-wave (km/s) = 3.24574 3.39255 3.31996
# Velocity P-wave (km/s) = 5.62172 5.80450 5.71384
#
# Compressibility (1/GPa) = 0.02883162
#
# Stress axis : x y z
#
# Youngs Moduli (GPa) = 63.07983 60.78223 77.68754
#
# Poissons Ratio (x) = 0.16770 0.00238
# Poissons Ratio (y) = 0.17404 0.41819
# Poissons Ratio (z) = 0.00194 0.32719
#
# Static dielectric constant tensor:
#      x y z
#    x 1.742780 0.000000 0.000000 
#    y 0.000000 1.715690 0.000000 
#    z 0.000000 0.000000 1.690770 
# 
# From -- ./inp_files/17162.got.cif
#   From: 2010.05.17/outbox.cif.g08.bks.cpg/sg40_9_cif.got.tgz:17162.got - 2010.06.03 18:35:42.
