data_PCOD9363770
_publ_section_title
;
Structure prediction by ZEFSAII (Michael W. Deem and Ramdas Pophale) SiO2 
 PCOD9363770
Probable space group: A M A 2
;
_chemical_formula_sum "Si O2"
_cell_formula_units_Z 56
_cell_length_a 9.077984
_cell_length_b 14.753629
_cell_length_c 19.606503
_cell_angle_alpha 90.000000
_cell_angle_beta 90.000000
_cell_angle_gamma 90.000000
_cell_volume 2625.961845
_symmetry_space_group_name_H-M "A M A 2"
_symmetry_group_IT_number 40
_symmetry_cell_setting 'orthorhombic'
loop_
_space_group_symop_operation_xyz
x,y,z
-x,-y,z
1/2-x,y,z
1/2+x,-y,z
x,1/2+y,1/2+z
-x,1/2-y,1/2+z
1/2-x,1/2+y,1/2+z
1/2+x,1/2-y,1/2+z
loop_
_atom_site_type_symbol
_atom_site_label
_atom_site_fract_x
_atom_site_fract_y
_atom_site_fract_z
Si Si1 0.925947 0.781540 0.392330
Si Si2 0.080625 0.906067 0.503459
Si Si3 0.921867 0.593706 0.789404
Si Si4 0.582789 0.727772 0.130792
Si Si5 0.419030 0.592591 0.224115
Si Si6 0.420140 0.908122 0.124273
Si Si7 0.079481 0.592907 0.389229
O O1 0.750000 0.779236 0.389713
O O2 0.988040 0.851083 0.447937
O O3 0.993103 0.822019 0.322291
O O4 0.991186 0.682777 0.409039
O O5 0.250000 0.919774 0.480813
O O6 0.084314 0.846349 0.571407
O O7 0.000000 0.000000 0.516421
O O8 0.750000 0.595445 0.809431
O O9 0.926807 0.594844 0.707265
O O10 0.000000 0.500000 0.811932
O O11 0.750000 0.750426 0.150927
O O12 0.497676 0.679707 0.192565
O O13 0.503211 0.817246 0.103306
O O14 0.500000 0.500000 0.202680
O O15 0.250000 0.590601 0.201035
O O16 0.421040 0.594100 0.306245
O O17 0.250000 0.907827 0.103578
O O18 0.500000 0.000000 0.101791
O O19 0.250000 0.596123 0.411612
O O20 0.000000 0.500000 0.410977
#
# Coordination Sequence:
#
# PCOD9363770 Si02
#       7
#     8   8   8   8   8   8   8
#     4  12  24  38  59  85 114 152 193 237 287 339
#     4  11  25  44  63  85 114 149 190 237 285 337
#     4  10  20  35  56  85 119 154 190 233 285 341
#     4  11  23  38  59  85 115 152 193 237 286 338
#     4  10  20  34  56  86 120 155 190 232 284 339
#     4  10  21  37  59  86 118 153 190 234 284 338
#     4  10  21  38  59  86 119 153 190 234 283 338
#
# _framework density 21.325520000000001
#
# number of rings (size 3 to 8) (size 9 to 14) (size 15 to 20)
#    0.000    1.429    0.000    5.571    0.000   10.286 
#    0.000    0.714    0.000    3.429    0.000    0.000 
#    0.000    0.000    0.000    0.000    0.000    0.000 
#
# Total GULP energy -156693.870572 kJ/mol
# GULP energy per Si atom -5596.209663 kJ/mol
# Density = 2.127698 g / cm^3
# Si number density = 21.325520 Si / 1000 Ang^3
#
#
#
# Elastic Constant Matrix: (Units=GPa)
#
#
# Indices 1 2 3 4 5 6 
#
# 1 217.0176 94.2851 13.2276 0.0000 0.0000 0.0000
# 2 94.2851 179.2866 2.8928 0.0000 0.0000 0.0000
# 3 13.2276 2.8928 18.5245 0.0000 0.0000 0.0000
# 4 0.0000 0.0000 0.0000 13.7751 0.0000 0.0000
# 5 0.0000 0.0000 0.0000 0.0000 110.5823 0.0000
# 6 0.0000 0.0000 0.0000 0.0000 0.0000 40.1762
#
#
#
# Elastic Compliance Matrix: (Units=1/GPa)
#
#
# Indices 1 2 3 4 5 6 
#
# 1 0.006249 -0.003223 -0.003959 0.000000 0.000000 0.000000
# 2 -0.003223 0.007254 0.001168 0.000000 0.000000 0.000000
# 3 -0.003959 0.001168 0.056627 0.000000 0.000000 0.000000
# 4 0.000000 0.000000 0.000000 0.072595 0.000000 0.000000
# 5 0.000000 0.000000 0.000000 0.000000 0.009043 0.000000
# 6 0.000000 0.000000 0.000000 0.000000 0.000000 0.024890
#
#
# Mechanical properties :
#
#
# Convention : Reuss Voigt Hill
#
# Bulk Modulus (GPa) = 17.21074 70.62665 43.91870
# Shear Modulus (GPa) = 24.03241 53.20158 38.61700
#
# Velocity S-wave (km/s) = 3.36062 5.00015 4.26001
# Velocity P-wave (km/s) = 4.81107 8.15633 6.69597
#
# Compressibility (1/GPa) = 0.05810324
#
# Stress axis : x y z
#
# Youngs Moduli (GPa) = 160.01759 137.86389 17.65940
#
# Poissons Ratio (x) = 0.44428 0.06992
# Poissons Ratio (y) = 0.51567 -0.02063
# Poissons Ratio (z) = 0.63353 -0.16108
#
# Static dielectric constant tensor:
#      x y z
#    x 1.728270 0.000000 0.000000 
#    y 0.000000 1.745200 0.000000 
#    z 0.000000 0.000000 1.810280 
# 
# From -- ./inp_files/22121.got.cif
#   From: 2010.05.17/outbox.cif.g08.bks.cpg/sg40_12_cif.got.tgz:22121.got - 2010.06.03 18:35:42.
