data_PCOD9363263
_publ_section_title
;
Structure prediction by ZEFSAII (Michael W. Deem and Ramdas Pophale) SiO2 
 PCOD9363263
Probable space group: A M A 2
;
_chemical_formula_sum "Si O2"
_cell_formula_units_Z 44
_cell_length_a 11.315988
_cell_length_b 24.117072
_cell_length_c 8.189049
_cell_angle_alpha 90.000000
_cell_angle_beta 90.000000
_cell_angle_gamma 90.000000
_cell_volume 2234.861057
_symmetry_space_group_name_H-M "A M A 2"
_symmetry_group_IT_number 40
_symmetry_cell_setting 'orthorhombic'
loop_
_space_group_symop_operation_xyz
x,y,z
-x,-y,z
1/2-x,y,z
1/2+x,-y,z
x,1/2+y,1/2+z
-x,1/2-y,1/2+z
1/2-x,1/2+y,1/2+z
1/2+x,1/2-y,1/2+z
loop_
_atom_site_type_symbol
_atom_site_label
_atom_site_fract_x
_atom_site_fract_y
_atom_site_fract_z
Si Si1 0.949680 0.814338 0.682000
Si Si2 0.875586 0.729865 0.422195
Si Si3 0.000000 0.500000 0.147770
Si Si4 0.382134 0.580917 0.392127
Si Si5 0.115398 0.390909 0.588660
Si Si6 0.887202 0.104409 0.477251
O O1 0.878763 0.779319 0.550779
O O2 0.886657 0.860522 0.793540
O O3 0.015949 0.770785 0.798849
O O4 0.045357 0.848910 0.578928
O O5 0.750000 0.731311 0.332020
O O6 0.883050 0.671336 0.516911
O O7 0.093182 0.532160 0.262521
O O8 0.062269 0.454029 0.037753
O O9 0.250000 0.575281 0.465654
O O10 0.499428 0.581088 0.507223
O O11 0.250000 0.413787 0.554498
O O12 0.099161 0.389767 0.783007
O O13 0.750000 0.107642 0.517429
#
# Coordination Sequence:
#
# PCOD9363263 Si02
#       6
#     8   8   4   8   8   8
#     4  10  20  34  55  82 111 144 182 224 271 323
#     4  10  19  34  54  80 111 146 182 222 268 321
#     4  10  22  36  58  82 108 142 182 228 282 332
#     4  10  21  38  57  82 112 146 184 229 276 325
#     4   9  20  37  59  83 112 146 184 225 272 327
#     4  10  20  38  58  80 108 143 184 229 276 330
#
# _framework density 19.688023999999999
#
# number of rings (size 3 to 8) (size 9 to 14) (size 15 to 20)
#    0.000    2.182    0.000    2.727    0.000    5.818 
#    0.000   19.091    0.000    0.000    0.000    0.000 
#    0.000    0.000    0.000    0.000    0.000    0.000 
#
# Total GULP energy -122699.976710 kJ/mol
# GULP energy per Si atom -5577.271669 kJ/mol
# Density = 1.964321 g / cm^3
# Si number density = 19.688024 Si / 1000 Ang^3
#
#
#
# Elastic Constant Matrix: (Units=GPa)
#
#
# Indices 1 2 3 4 5 6 
#
# 1 142.4140 14.4497 44.1814 0.0000 0.0000 0.0000
# 2 14.4497 27.0812 -0.7495 0.0000 0.0000 0.0000
# 3 44.1814 -0.7495 50.8177 0.0000 0.0000 0.0000
# 4 0.0000 0.0000 0.0000 19.8531 0.0000 0.0000
# 5 0.0000 0.0000 0.0000 0.0000 13.8520 0.0000
# 6 0.0000 0.0000 0.0000 0.0000 0.0000 -0.2164
#
#
#
# Elastic Compliance Matrix: (Units=1/GPa)
#
#
# Indices 1 2 3 4 5 6 
#
# 1 0.010463 -0.005837 -0.009182 0.000000 0.000000 0.000000
# 2 -0.005837 0.040197 0.005667 0.000000 0.000000 0.000000
# 3 -0.009182 0.005667 0.027745 0.000000 0.000000 0.000000
# 4 0.000000 0.000000 0.000000 0.050370 0.000000 0.000000
# 5 0.000000 0.000000 0.000000 0.000000 0.072192 0.000000
# 6 0.000000 0.000000 0.000000 0.000000 0.000000 -4.620933
#
#
# Mechanical properties :
#
#
# Convention : Reuss Voigt Hill
#
# Bulk Modulus (GPa) = 16.75002 37.34175 27.04589
# Shear Modulus (GPa) = -1.14120 17.52649 8.19265
#
# Velocity S-wave (km/s) = -0.76217 2.98688 2.04212
# Velocity P-wave (km/s) = 2.78418 5.55906 4.39629
#
# Compressibility (1/GPa) = 0.05970141
#
# Stress axis : x y z
#
# Youngs Moduli (GPa) = 95.57784 24.87737 36.04241
#
# Poissons Ratio (x) = 0.14520 0.33096
# Poissons Ratio (y) = 0.55786 -0.20427
# Poissons Ratio (z) = 0.87764 -0.14099
#
# Static dielectric constant tensor:
#      x y z
#    x 1.733130 0.000000 0.000000 
#    y 0.000000 1.670270 0.000000 
#    z 0.000000 0.000000 1.670990 
# 
# From -- ./inp_files/5367.got.cif
#   From: 2010.05.17/outbox.cif.g08.bks.cpg/sg40_3_cif.got.tgz:5367.got - 2010.06.03 18:35:42.
