data_PCOD9363772
_publ_section_title
;
Structure prediction by ZEFSAII (Michael W. Deem and Ramdas Pophale) SiO2 
 PCOD9363772
Probable space group: A M A 2
;
_chemical_formula_sum "Si O2"
_cell_formula_units_Z 48
_cell_length_a 8.411220
_cell_length_b 14.188615
_cell_length_c 18.898305
_cell_angle_alpha 90.000000
_cell_angle_beta 90.000000
_cell_angle_gamma 90.000000
_cell_volume 2255.391039
_symmetry_space_group_name_H-M "A M A 2"
_symmetry_group_IT_number 40
_symmetry_cell_setting 'orthorhombic'
loop_
_space_group_symop_operation_xyz
x,y,z
-x,-y,z
1/2-x,y,z
1/2+x,-y,z
x,1/2+y,1/2+z
-x,1/2-y,1/2+z
1/2-x,1/2+y,1/2+z
1/2+x,1/2-y,1/2+z
loop_
_atom_site_type_symbol
_atom_site_label
_atom_site_fract_x
_atom_site_fract_y
_atom_site_fract_z
Si Si1 0.433290 0.899947 0.628300
Si Si2 0.940102 0.101172 0.013758
Si Si3 0.939408 0.606565 0.795836
Si Si4 0.935205 0.408136 0.283030
Si Si5 0.059824 0.194707 0.149186
Si Si6 0.560293 0.240781 0.889178
O O1 0.250000 0.897812 0.607956
O O2 0.456795 0.904436 0.713220
O O3 0.503661 0.795114 0.617448
O O4 0.500000 0.000000 0.600821
O O5 0.750000 0.098390 0.019784
O O6 0.981908 0.189547 0.962735
O O7 0.000000 0.000000 0.986625
O O8 0.016927 0.118656 0.090168
O O9 0.750000 0.608272 0.800398
O O10 0.000000 0.500000 0.787887
O O11 0.990972 0.664357 0.725102
O O12 0.012298 0.653947 0.866884
O O13 0.750000 0.415462 0.263906
O O14 0.000000 0.500000 0.322751
O O15 0.966656 0.319775 0.331226
O O16 0.250000 0.203236 0.157419
O O17 0.750000 0.230424 0.879932
#
# Coordination Sequence:
#
# PCOD9363772 Si02
#       6
#     8   8   8   8   8   8
#     4  10  20  34  56  86 122 160 202 255 308 368
#     4  11  25  43  66  94 129 169 212 262 318 383
#     4  12  25  42  67  95 126 166 213 266 321 381
#     4  11  20  31  53  84 119 158 197 248 304 365
#     4  11  23  41  65  93 131 171 214 265 317 380
#     4  11  23  41  62  90 125 162 208 262 316 377
#
# _framework density 21.282340000000001
#
# number of rings (size 3 to 8) (size 9 to 14) (size 15 to 20)
#    0.000    1.000    1.667    7.000    0.000    6.000 
#    0.000    0.833    0.000    2.000    0.000    0.000 
#    0.000    0.000    0.000    0.000    0.000    0.000 
#
# Total GULP energy -133947.390264 kJ/mol
# GULP energy per Si atom -5581.141261 kJ/mol
# Density = 2.123390 g / cm^3
# Si number density = 21.282340 Si / 1000 Ang^3
#
#
#
# Elastic Constant Matrix: (Units=GPa)
#
#
# Indices 1 2 3 4 5 6 
#
# 1 68.0691 18.2707 10.8313 0.0000 0.0000 0.0000
# 2 18.2707 128.7250 25.9736 0.0000 0.0000 0.0000
# 3 10.8313 25.9736 70.2343 0.0000 0.0000 0.0000
# 4 0.0000 0.0000 0.0000 25.4562 0.0000 0.0000
# 5 0.0000 0.0000 0.0000 0.0000 -12.7062 0.0000
# 6 0.0000 0.0000 0.0000 0.0000 0.0000 18.9557
#
#
#
# Elastic Compliance Matrix: (Units=1/GPa)
#
#
# Indices 1 2 3 4 5 6 
#
# 1 0.015458 -0.001851 -0.001699 0.000000 0.000000 0.000000
# 2 -0.001851 0.008617 -0.002901 0.000000 0.000000 0.000000
# 3 -0.001699 -0.002901 0.015573 0.000000 0.000000 0.000000
# 4 0.000000 0.000000 0.000000 0.039283 0.000000 0.000000
# 5 0.000000 0.000000 0.000000 0.000000 -0.078702 0.000000
# 6 0.000000 0.000000 0.000000 0.000000 0.000000 0.052755
#
#
# Mechanical properties :
#
#
# Convention : Reuss Voigt Hill
#
# Bulk Modulus (GPa) = 37.39060 41.90883 39.64972
# Shear Modulus (GPa) = 66.84332 20.47133 43.65732
#
# Velocity S-wave (km/s) = 5.61035 3.10480 4.53409
# Velocity P-wave (km/s) = 7.71849 5.70856 6.78833
#
# Compressibility (1/GPa) = 0.02674469
#
# Stress axis : x y z
#
# Youngs Moduli (GPa) = 64.69037 116.05489 64.21380
#
# Poissons Ratio (x) = 0.21484 0.10912
# Poissons Ratio (y) = 0.11976 0.18629
# Poissons Ratio (z) = 0.10993 0.33668
#
# Static dielectric constant tensor:
#      x y z
#    x 1.727370 0.000000 0.000000 
#    y 0.000000 1.945340 0.000000 
#    z 0.000000 0.000000 1.746030 
# 
# From -- ./inp_files/19206.got.cif
#   From: 2010.05.17/outbox.cif.g08.bks.cpg/sg40_10_cif.got.tgz:19206.got - 2010.06.03 18:35:42.
