data_PCOD9363825
_publ_section_title
;
Structure prediction by ZEFSAII (Michael W. Deem and Ramdas Pophale) SiO2 
 PCOD9363825
Probable space group: A M A 2
;
_chemical_formula_sum "Si O2"
_cell_formula_units_Z 64
_cell_length_a 8.764891
_cell_length_b 20.729642
_cell_length_c 20.172902
_cell_angle_alpha 90.000000
_cell_angle_beta 90.000000
_cell_angle_gamma 90.000000
_cell_volume 3665.276144
_symmetry_space_group_name_H-M "A M A 2"
_symmetry_group_IT_number 40
_symmetry_cell_setting 'orthorhombic'
loop_
_space_group_symop_operation_xyz
x,y,z
-x,-y,z
1/2-x,y,z
1/2+x,-y,z
x,1/2+y,1/2+z
-x,1/2-y,1/2+z
1/2-x,1/2+y,1/2+z
1/2+x,1/2-y,1/2+z
loop_
_atom_site_type_symbol
_atom_site_label
_atom_site_fract_x
_atom_site_fract_y
_atom_site_fract_z
Si Si1 0.933031 0.930217 0.946730
Si Si2 0.066494 0.430118 0.953609
Si Si3 0.567221 0.180498 0.348681
Si Si4 0.433666 0.069298 0.100260
Si Si5 0.067328 0.826367 0.697859
Si Si6 0.068142 0.069812 0.598885
Si Si7 0.934268 0.321676 0.703576
Si Si8 0.567582 0.179170 0.852935
O O1 0.750000 0.932023 0.942749
O O2 0.997367 0.874463 0.900327
O O3 0.977386 0.918436 0.023700
O O4 0.000000 0.000000 0.927851
O O5 0.250000 0.434229 0.957825
O O6 0.000000 0.500000 0.934328
O O7 0.000121 0.414859 0.026291
O O8 0.025164 0.375106 0.900828
O O9 0.750000 0.185455 0.347085
O O10 0.506003 0.165036 0.275247
O O11 0.498250 0.249920 0.367655
O O12 0.250000 0.065896 0.102441
O O13 0.482715 0.126153 0.149274
O O14 0.500000 0.000000 0.120026
O O15 0.250000 0.833935 0.688939
O O16 0.027170 0.751708 0.683204
O O17 0.982066 0.876321 0.651149
O O18 0.032378 0.836024 0.775743
O O19 0.250000 0.065168 0.594551
O O20 0.000000 0.000000 0.618081
O O21 0.750000 0.323826 0.710338
O O22 0.250000 0.319300 0.359477
#
# Coordination Sequence:
#
# PCOD9363825 Si02
#       8
#     8   8   8   8   8   8   8   8
#     4  10  20  35  55  79 109 143 180 222 265 313
#     4  10  21  37  56  78 107 141 176 217 263 313
#     4  10  21  36  55  80 108 139 176 218 264 314
#     4   9  19  35  54  78 107 141 178 216 262 311
#     4   9  19  36  55  76 105 139 173 213 262 314
#     4  11  22  36  56  80 106 137 174 217 262 312
#     4   9  19  36  56  77 106 142 177 216 262 312
#     4  10  21  37  57  80 107 140 177 219 266 315
#
# _framework density 17.461165999999999
#
# number of rings (size 3 to 8) (size 9 to 14) (size 15 to 20)
#    0.000    2.250    0.000    4.125    0.000    7.500 
#    0.000    5.000    0.000    0.000    0.000    0.000 
#    0.000    0.000    0.000    0.000    0.000    0.000 
#
# Total GULP energy -178632.391024 kJ/mol
# GULP energy per Si atom -5582.262220 kJ/mol
# Density = 1.742142 g / cm^3
# Si number density = 17.461166 Si / 1000 Ang^3
#
#
#
# Elastic Constant Matrix: (Units=GPa)
#
#
# Indices 1 2 3 4 5 6 
#
# 1 64.2312 67.6817 56.2493 0.0000 0.0000 0.0000
# 2 67.6817 174.2815 128.2161 0.0000 0.0000 0.0000
# 3 56.2493 128.2161 108.7076 0.0000 0.0000 0.0000
# 4 0.0000 0.0000 0.0000 43.1798 0.0000 0.0000
# 5 0.0000 0.0000 0.0000 0.0000 45.5024 0.0000
# 6 0.0000 0.0000 0.0000 0.0000 0.0000 32.4512
#
#
#
# Elastic Compliance Matrix: (Units=1/GPa)
#
#
# Indices 1 2 3 4 5 6 
#
# 1 0.028532 -0.001656 -0.012811 0.000000 0.000000 0.000000
# 2 -0.001656 0.043469 -0.050413 0.000000 0.000000 0.000000
# 3 -0.012811 -0.050413 0.075288 0.000000 0.000000 0.000000
# 4 0.000000 0.000000 0.000000 0.023159 0.000000 0.000000
# 5 0.000000 0.000000 0.000000 0.000000 0.021977 0.000000
# 6 0.000000 0.000000 0.000000 0.000000 0.000000 0.030815
#
#
# Mechanical properties :
#
#
# Convention : Reuss Voigt Hill
#
# Bulk Modulus (GPa) = 57.04539 94.61273 75.82906
# Shear Modulus (GPa) = 13.93367 30.56490 22.24929
#
# Velocity S-wave (km/s) = 2.82792 4.18838 3.57349
# Velocity P-wave (km/s) = 6.58814 8.81432 7.78126
#
# Compressibility (1/GPa) = 0.01752990
#
# Stress axis : x y z
#
# Youngs Moduli (GPa) = 35.04812 23.00492 13.28234
#
# Poissons Ratio (x) = 0.03809 0.17016
# Poissons Ratio (y) = 0.05803 0.66960
# Poissons Ratio (z) = 0.44899 1.15975
#
# Static dielectric constant tensor:
#      x y z
#    x 1.585980 0.000000 0.000000 
#    y 0.000000 1.569960 0.000000 
#    z 0.000000 0.000000 1.574250 
# 
# From -- ./inp_files/19591.got.cif
#   From: 2010.05.17/outbox.cif.g08.bks.cpg/sg40_10_cif.got.tgz:19591.got - 2010.06.03 18:35:42.
