data_PCOD9363109
_publ_section_title
;
Structure prediction by ZEFSAII (Michael W. Deem and Ramdas Pophale) SiO2 
 PCOD9363109
Probable space group: A M A 2
;
_chemical_formula_sum "Si O2"
_cell_formula_units_Z 56
_cell_length_a 8.927400
_cell_length_b 19.560647
_cell_length_c 17.231971
_cell_angle_alpha 90.000000
_cell_angle_beta 90.000000
_cell_angle_gamma 90.000000
_cell_volume 3009.145343
_symmetry_space_group_name_H-M "A M A 2"
_symmetry_group_IT_number 40
_symmetry_cell_setting 'orthorhombic'
loop_
_space_group_symop_operation_xyz
x,y,z
-x,-y,z
1/2-x,y,z
1/2+x,-y,z
x,1/2+y,1/2+z
-x,1/2-y,1/2+z
1/2-x,1/2+y,1/2+z
1/2+x,1/2-y,1/2+z
loop_
_atom_site_type_symbol
_atom_site_label
_atom_site_fract_x
_atom_site_fract_y
_atom_site_fract_z
Si Si1 0.425160 0.209434 0.710200
Si Si2 0.421777 0.431512 0.721099
Si Si3 0.919122 0.067862 0.034327
Si Si4 0.930708 0.926447 0.616517
Si Si5 0.571723 0.220462 0.044318
Si Si6 0.073907 0.683222 0.811088
Si Si7 0.072933 0.351223 0.972113
O O1 0.250000 0.206327 0.731470
O O2 0.470999 0.134869 0.676975
O O3 0.436360 0.260004 0.635406
O O4 0.514771 0.243393 0.780846
O O5 0.500000 0.500000 0.751811
O O6 0.250000 0.422298 0.748603
O O7 0.413833 0.437085 0.628084
O O8 0.527533 0.369575 0.744193
O O9 0.750000 0.067081 0.004741
O O10 0.979383 0.144329 0.022153
O O11 0.000000 0.000000 0.005088
O O12 0.750000 0.929523 0.613443
O O13 0.993131 0.902694 0.532429
O O14 0.000000 0.000000 0.636566
O O15 0.750000 0.227868 0.024423
O O16 0.470463 0.276261 0.003311
O O17 0.250000 0.686127 0.824352
O O18 0.992723 0.651303 0.885902
O O19 0.250000 0.363200 0.972439
#
# Coordination Sequence:
#
# PCOD9363109 Si02
#       7
#     8   8   8   8   8   8   8
#     4   9  18  35  57  80 109 144 180 226 277 325
#     4  10  19  33  49  73 106 140 174 211 256 306
#     4   9  17  29  48  73 103 135 167 207 254 302
#     4  10  21  39  62  87 116 147 186 233 283 338
#     4   9  17  34  54  75 105 139 175 221 270 318
#     4  12  23  35  53  79 110 147 187 227 273 330
#     4  11  23  37  55  79 108 144 184 227 277 333
#
# _framework density 18.609936000000001
#
# number of rings (size 3 to 8) (size 9 to 14) (size 15 to 20)
#    0.000    2.000    1.429    4.286    0.000    4.571 
#    0.000    2.857    0.000    0.857    0.000    6.000 
#    0.000    0.000    0.000    0.000    0.000    0.000 
#
# Total GULP energy -156064.615747 kJ/mol
# GULP energy per Si atom -5573.736277 kJ/mol
# Density = 1.856758 g / cm^3
# Si number density = 18.609936 Si / 1000 Ang^3
#
#
#
# Elastic Constant Matrix: (Units=GPa)
#
#
# Indices 1 2 3 4 5 6 
#
# 1 66.9704 22.9167 8.6259 0.0000 0.0000 0.0000
# 2 22.9167 120.7609 -3.1698 0.0000 0.0000 0.0000
# 3 8.6259 -3.1698 13.4196 0.0000 0.0000 0.0000
# 4 0.0000 0.0000 0.0000 9.1441 0.0000 0.0000
# 5 0.0000 0.0000 0.0000 0.0000 22.6984 0.0000
# 6 0.0000 0.0000 0.0000 0.0000 0.0000 33.0215
#
#
#
# Elastic Compliance Matrix: (Units=1/GPa)
#
#
# Indices 1 2 3 4 5 6 
#
# 1 0.017782 -0.003697 -0.012303 0.000000 0.000000 0.000000
# 2 -0.003697 0.009101 0.004526 0.000000 0.000000 0.000000
# 3 -0.012303 0.004526 0.083496 0.000000 0.000000 0.000000
# 4 0.000000 0.000000 0.000000 0.109360 0.000000 0.000000
# 5 0.000000 0.000000 0.000000 0.000000 0.044056 0.000000
# 6 0.000000 0.000000 0.000000 0.000000 0.000000 0.030283
#
#
# Mechanical properties :
#
#
# Convention : Reuss Voigt Hill
#
# Bulk Modulus (GPa) = 11.43768 28.65515 20.04641
# Shear Modulus (GPa) = 14.44378 24.49134 19.46756
#
# Velocity S-wave (km/s) = 2.78894 3.63166 3.23783
# Velocity P-wave (km/s) = 4.06574 5.74599 4.97728
#
# Compressibility (1/GPa) = 0.08743035
#
# Stress axis : x y z
#
# Youngs Moduli (GPa) = 56.23707 109.87451 11.97667
#
# Poissons Ratio (x) = 0.40625 0.14735
# Poissons Ratio (y) = 0.20793 -0.05421
# Poissons Ratio (z) = 0.69190 -0.49734
#
# Static dielectric constant tensor:
#      x y z
#    x 1.631770 0.000000 0.000000 
#    y 0.000000 1.700890 0.000000 
#    z 0.000000 0.000000 1.680380 
# 
# From -- ./inp_files/15322.got.cif
#   From: 2010.05.17/outbox.cif.g08.bks.cpg/sg40_8_cif.got.tgz:15322.got - 2010.06.03 18:35:42.
