data_PCOD9363888
_publ_section_title
;
Structure prediction by ZEFSAII (Michael W. Deem and Ramdas Pophale) SiO2 
 PCOD9363888
Probable space group: A M A 2
;
_chemical_formula_sum "Si O2"
_cell_formula_units_Z 64
_cell_length_a 9.725356
_cell_length_b 14.563761
_cell_length_c 24.440697
_cell_angle_alpha 90.000000
_cell_angle_beta 90.000000
_cell_angle_gamma 90.000000
_cell_volume 3461.725586
_symmetry_space_group_name_H-M "A M A 2"
_symmetry_group_IT_number 40
_symmetry_cell_setting 'orthorhombic'
loop_
_space_group_symop_operation_xyz
x,y,z
-x,-y,z
1/2-x,y,z
1/2+x,-y,z
x,1/2+y,1/2+z
-x,1/2-y,1/2+z
1/2-x,1/2+y,1/2+z
1/2+x,1/2-y,1/2+z
loop_
_atom_site_type_symbol
_atom_site_label
_atom_site_fract_x
_atom_site_fract_y
_atom_site_fract_z
Si Si1 0.089137 0.699243 0.498640
Si Si2 0.911875 0.727318 0.313400
Si Si3 0.404612 0.590091 0.123724
Si Si4 0.097356 0.087777 0.376596
Si Si5 0.085987 0.092302 0.106601
Si Si6 0.581714 0.904172 0.887373
Si Si7 0.908389 0.738252 0.183016
Si Si8 0.039013 0.607409 0.000215
O O1 0.250000 0.682485 0.500166
O O2 0.034671 0.647687 0.552544
O O3 0.042163 0.653811 0.441959
O O4 0.067914 0.808558 0.500461
O O5 0.750000 0.706781 0.327019
O O6 0.947170 0.824395 0.341716
O O7 0.920944 0.735915 0.248197
O O8 0.016178 0.652038 0.337002
O O9 0.500000 0.500000 0.127508
O O10 0.250000 0.573358 0.144355
O O11 0.484016 0.669411 0.155786
O O12 0.393652 0.617133 0.059643
O O13 0.250000 0.061342 0.358334
O O14 0.104836 0.117303 0.440383
O O15 0.000000 0.000000 0.371751
O O16 0.250000 0.072810 0.101323
O O17 0.069602 0.161230 0.157506
O O18 0.000000 0.000000 0.112506
O O19 0.750000 0.913247 0.884204
O O20 0.500000 0.000000 0.890420
O O21 0.750000 0.711818 0.168258
O O22 0.000000 0.500000 0.000002
#
# Coordination Sequence:
#
# PCOD9363888 Si02
#       8
#     8   8   8   8   8   8   8   8
#     4  10  20  37  62  89 122 159 196 240 296 357
#     4  10  22  41  62  86 116 157 203 249 295 348
#     4  11  23  38  60  90 121 154 194 240 297 359
#     4  10  21  37  58  87 121 154 191 235 290 353
#     4  10  21  39  61  88 119 157 196 244 296 352
#     4  11  23  40  63  91 120 158 199 247 302 357
#     4  10  22  41  63  84 116 159 202 247 299 347
#     4  10  20  35  58  91 122 155 191 235 295 356
#
# _framework density 18.48789
#
# number of rings (size 3 to 8) (size 9 to 14) (size 15 to 20)
#    0.000    1.750    2.500    1.500    0.000    6.500 
#    0.000    0.625    0.000    0.000    0.000    0.000 
#    0.000    0.000    0.000    0.000    0.000    0.000 
#
# Total GULP energy -178278.270983 kJ/mol
# GULP energy per Si atom -5571.195968 kJ/mol
# Density = 1.844581 g / cm^3
# Si number density = 18.487890 Si / 1000 Ang^3
#
#
#
# Elastic Constant Matrix: (Units=GPa)
#
#
# Indices 1 2 3 4 5 6 
#
# 1 79.3550 59.9742 44.3590 0.0000 0.0000 0.0000
# 2 59.9742 117.2386 55.3686 0.0000 0.0000 0.0000
# 3 44.3590 55.3686 96.0587 0.0000 0.0000 0.0000
# 4 0.0000 0.0000 0.0000 12.7007 0.0000 0.0000
# 5 0.0000 0.0000 0.0000 0.0000 2.4403 0.0000
# 6 0.0000 0.0000 0.0000 0.0000 0.0000 32.9037
#
#
#
# Elastic Compliance Matrix: (Units=1/GPa)
#
#
# Indices 1 2 3 4 5 6 
#
# 1 0.022224 -0.008961 -0.005097 0.000000 0.000000 0.000000
# 2 -0.008961 0.015334 -0.004700 0.000000 0.000000 0.000000
# 3 -0.005097 -0.004700 0.015473 0.000000 0.000000 0.000000
# 4 0.000000 0.000000 0.000000 0.078736 0.000000 0.000000
# 5 0.000000 0.000000 0.000000 0.000000 0.409778 0.000000
# 6 0.000000 0.000000 0.000000 0.000000 0.000000 0.030392
#
#
# Mechanical properties :
#
#
# Convention : Reuss Voigt Hill
#
# Bulk Modulus (GPa) = 64.46162 68.00621 66.23391
# Shear Modulus (GPa) = 8.13505 18.47231 13.30368
#
# Velocity S-wave (km/s) = 2.09994 3.16437 2.68543
# Velocity P-wave (km/s) = 6.38923 7.08626 6.74675
#
# Compressibility (1/GPa) = 0.01551311
#
# Stress axis : x y z
#
# Youngs Moduli (GPa) = 44.99694 65.21647 64.62732
#
# Poissons Ratio (x) = 0.58443 0.32943
# Poissons Ratio (y) = 0.40323 0.30375
# Poissons Ratio (z) = 0.22937 0.30652
#
# Static dielectric constant tensor:
#      x y z
#    x 1.643570 0.000000 0.000000 
#    y 0.000000 1.625170 0.000000 
#    z 0.000000 0.000000 1.650930 
# 
# From -- ./inp_files/24294.got.cif
#   From: 2010.05.17/outbox.cif.g08.bks.cpg/sg40_13_cif.got.tgz:24294.got - 2010.06.03 18:35:42.
