data_PCOD9363938
_publ_section_title
;
Structure prediction by ZEFSAII (Michael W. Deem and Ramdas Pophale) SiO2 
 PCOD9363938
Probable space group: A M A 2
;
_chemical_formula_sum "Si O2"
_cell_formula_units_Z 64
_cell_length_a 8.824237
_cell_length_b 28.569068
_cell_length_c 14.789733
_cell_angle_alpha 90.000000
_cell_angle_beta 90.000000
_cell_angle_gamma 90.000000
_cell_volume 3728.495045
_symmetry_space_group_name_H-M "A M A 2"
_symmetry_group_IT_number 40
_symmetry_cell_setting 'orthorhombic'
loop_
_space_group_symop_operation_xyz
x,y,z
-x,-y,z
1/2-x,y,z
1/2+x,-y,z
x,1/2+y,1/2+z
-x,1/2-y,1/2+z
1/2-x,1/2+y,1/2+z
1/2+x,1/2-y,1/2+z
loop_
_atom_site_type_symbol
_atom_site_label
_atom_site_fract_x
_atom_site_fract_y
_atom_site_fract_z
Si Si1 0.569123 0.362727 0.220950
Si Si2 0.929442 0.218209 0.839688
Si Si3 0.568490 0.326857 0.847976
Si Si4 0.067709 0.050665 0.844950
Si Si5 0.930042 0.723752 0.551472
Si Si6 0.432036 0.051095 0.053691
Si Si7 0.570180 0.175462 0.544824
Si Si8 0.068353 0.866088 0.171893
O O1 0.750000 0.363990 0.210013
O O2 0.523200 0.317489 0.279803
O O3 0.519430 0.408477 0.277039
O O4 0.491139 0.357470 0.124074
O O5 0.750000 0.212091 0.821004
O O6 0.969099 0.272604 0.823988
O O7 0.954453 0.209872 0.946649
O O8 0.750000 0.330723 0.849245
O O9 0.496794 0.359573 0.772069
O O10 0.504381 0.335414 0.947987
O O11 0.250000 0.047670 0.841899
O O12 0.025825 0.062208 0.949039
O O13 0.000000 0.000000 0.822881
O O14 0.750000 0.733774 0.561451
O O15 0.971810 0.680988 0.615890
O O16 0.020018 0.771396 0.569196
O O17 0.250000 0.049863 0.059964
O O18 0.498607 0.089991 0.119771
O O19 0.500000 0.000000 0.073759
O O20 0.750000 0.173057 0.538084
O O21 0.250000 0.869735 0.173678
#
# Coordination Sequence:
#
# PCOD9363938 Si02
#       8
#     8   8   8   8   8   8   8   8
#     4  11  21  33  51  76 105 137 172 210 257 309
#     4   9  18  32  50  75 105 138 175 211 251 300
#     4  10  21  37  53  72 103 140 176 217 262 305
#     4   9  20  36  55  79 106 136 169 207 254 307
#     4   9  19  34  51  74 107 142 174 212 257 305
#     4  10  20  36  56  80 109 139 171 210 258 309
#     4  11  22  35  52  74 101 137 179 219 258 303
#     4  11  21  33  53  80 106 137 177 216 258 310
#
# _framework density 17.165102000000001
#
# number of rings (size 3 to 8) (size 9 to 14) (size 15 to 20)
#    0.000    2.000    0.000    4.875    0.000    7.000 
#    0.000    0.000    0.000    0.750    0.000    3.500 
#    0.000    0.000    0.000    0.000    0.000    0.000 
#
# Total GULP energy -178753.758133 kJ/mol
# GULP energy per Si atom -5586.054942 kJ/mol
# Density = 1.712603 g / cm^3
# Si number density = 17.165102 Si / 1000 Ang^3
#
#
#
# Elastic Constant Matrix: (Units=GPa)
#
#
# Indices 1 2 3 4 5 6 
#
# 1 60.2231 51.9485 55.0965 0.0000 0.0000 0.0000
# 2 51.9485 102.0904 99.1220 0.0000 0.0000 0.0000
# 3 55.0965 99.1220 120.4590 0.0000 0.0000 0.0000
# 4 0.0000 0.0000 0.0000 29.9016 0.0000 0.0000
# 5 0.0000 0.0000 0.0000 0.0000 28.2599 0.0000
# 6 0.0000 0.0000 0.0000 0.0000 0.0000 27.4912
#
#
#
# Elastic Compliance Matrix: (Units=1/GPa)
#
#
# Indices 1 2 3 4 5 6 
#
# 1 0.030402 -0.009792 -0.005848 0.000000 0.000000 0.000000
# 2 -0.009792 0.051873 -0.038206 0.000000 0.000000 0.000000
# 3 -0.005848 -0.038206 0.042414 0.000000 0.000000 0.000000
# 4 0.000000 0.000000 0.000000 0.033443 0.000000 0.000000
# 5 0.000000 0.000000 0.000000 0.000000 0.035386 0.000000
# 6 0.000000 0.000000 0.000000 0.000000 0.000000 0.036375
#
#
# Mechanical properties :
#
#
# Convention : Reuss Voigt Hill
#
# Bulk Modulus (GPa) = 58.83103 77.23406 68.03254
# Shear Modulus (GPa) = 14.56667 22.23756 18.40211
#
# Velocity S-wave (km/s) = 2.91627 3.60322 3.27779
# Velocity P-wave (km/s) = 6.75926 7.89959 7.35156
#
# Compressibility (1/GPa) = 0.01699783
#
# Stress axis : x y z
#
# Youngs Moduli (GPa) = 32.89310 19.27799 23.57690
#
# Poissons Ratio (x) = 0.18877 0.13787
# Poissons Ratio (y) = 0.32209 0.90077
# Poissons Ratio (z) = 0.19235 0.73653
#
# Static dielectric constant tensor:
#      x y z
#    x 1.568250 0.000000 0.000000 
#    y 0.000000 1.555420 0.000000 
#    z 0.000000 0.000000 1.580310 
# 
# From -- ./inp_files/15632.got.cif
#   From: 2010.05.17/outbox.cif.g08.bks.cpg/sg40_8_cif.got.tgz:15632.got - 2010.06.03 18:35:42.
