data_PCOD9363672
_publ_section_title
;
Structure prediction by ZEFSAII (Michael W. Deem and Ramdas Pophale) SiO2 
 PCOD9363672
Probable space group: A M A 2
;
_chemical_formula_sum "Si O2"
_cell_formula_units_Z 64
_cell_length_a 20.172294
_cell_length_b 9.521183
_cell_length_c 17.360406
_cell_angle_alpha 90.000000
_cell_angle_beta 90.000000
_cell_angle_gamma 90.000000
_cell_volume 3334.310801
_symmetry_space_group_name_H-M "A M A 2"
_symmetry_group_IT_number 40
_symmetry_cell_setting 'orthorhombic'
loop_
_space_group_symop_operation_xyz
x,y,z
-x,-y,z
1/2-x,y,z
1/2+x,-y,z
x,1/2+y,1/2+z
-x,1/2-y,1/2+z
1/2-x,1/2+y,1/2+z
1/2+x,1/2-y,1/2+z
loop_
_atom_site_type_symbol
_atom_site_label
_atom_site_fract_x
_atom_site_fract_y
_atom_site_fract_z
Si Si1 0.823370 0.394168 0.022960
Si Si2 0.427347 0.477243 0.837302
Si Si3 0.672454 0.611220 0.601533
Si Si4 0.326230 0.515015 0.380009
Si Si5 0.821665 0.812875 0.347243
Si Si6 0.071768 0.078420 0.018984
Si Si7 0.061952 0.911847 0.520058
Si Si8 0.675591 0.733934 0.772160
O O1 0.750000 0.411450 0.055957
O O2 0.846101 0.237210 0.043339
O O3 0.871439 0.515538 0.050885
O O4 0.818343 0.389067 0.930581
O O5 0.500000 0.500000 0.804369
O O6 0.384158 0.611341 0.811566
O O7 0.384102 0.347132 0.811129
O O8 0.435976 0.449834 0.928793
O O9 0.750000 0.568765 0.588645
O O10 0.618751 0.490326 0.585372
O O11 0.670677 0.689404 0.683564
O O12 0.250000 0.536412 0.409964
O O13 0.332165 0.351114 0.360951
O O14 0.382022 0.558478 0.442188
O O15 0.330810 0.607117 0.302162
O O16 0.750000 0.833376 0.308372
O O17 0.059340 0.244926 0.030272
O O18 0.000000 0.000000 0.013439
O O19 0.000000 0.000000 0.552317
O O20 0.750000 0.688245 0.798133
#
# Coordination Sequence:
#
# PCOD9363672 Si02
#       8
#     8   8   8   8   8   8   8   8
#     4   9  17  32  55  80 109 149 187 236 292 343
#     4  10  20  33  53  79 115 154 189 240 288 350
#     4  10  21  39  60  85 120 158 195 242 300 363
#     4  10  20  35  57  86 114 147 198 248 290 346
#     4   9  17  31  54  81 111 144 187 238 291 339
#     4  12  23  35  61  89 118 152 196 254 301 357
#     4  10  21  35  52  83 117 148 188 242 297 347
#     4  10  21  38  58  83 118 156 194 238 295 355
#
# _framework density 19.194372000000001
#
# number of rings (size 3 to 8) (size 9 to 14) (size 15 to 20)
#    0.000    2.000    2.500    1.500    3.500    2.000 
#    0.000    1.250    0.000    6.750    0.000    0.000 
#    0.000    0.000    0.000    0.000    0.000    0.000 
#
# Total GULP energy -178163.435240 kJ/mol
# GULP energy per Si atom -5567.607351 kJ/mol
# Density = 1.915068 g / cm^3
# Si number density = 19.194372 Si / 1000 Ang^3
#
#
#
# Elastic Constant Matrix: (Units=GPa)
#
#
# Indices 1 2 3 4 5 6 
#
# 1 146.1927 93.1247 15.7073 0.0000 0.0000 0.0000
# 2 93.1247 148.0831 7.6033 0.0000 0.0000 0.0000
# 3 15.7073 7.6033 26.5330 0.0000 0.0000 0.0000
# 4 0.0000 0.0000 0.0000 18.3888 0.0000 0.0000
# 5 0.0000 0.0000 0.0000 0.0000 14.3314 0.0000
# 6 0.0000 0.0000 0.0000 0.0000 0.0000 10.9737
#
#
#
# Elastic Compliance Matrix: (Units=1/GPa)
#
#
# Indices 1 2 3 4 5 6 
#
# 1 0.012039 -0.007313 -0.005031 0.000000 0.000000 0.000000
# 2 -0.007313 0.011296 0.001092 0.000000 0.000000 0.000000
# 3 -0.005031 0.001092 0.040354 0.000000 0.000000 0.000000
# 4 0.000000 0.000000 0.000000 0.054381 0.000000 0.000000
# 5 0.000000 0.000000 0.000000 0.000000 0.069777 0.000000
# 6 0.000000 0.000000 0.000000 0.000000 0.000000 0.091127
#
#
# Mechanical properties :
#
#
# Convention : Reuss Voigt Hill
#
# Bulk Modulus (GPa) = 24.28057 61.51992 42.90024
# Shear Modulus (GPa) = 15.86266 22.36369 19.11317
#
# Velocity S-wave (km/s) = 2.87787 3.41708 3.15901
# Velocity P-wave (km/s) = 4.87034 6.90574 5.97534
#
# Compressibility (1/GPa) = 0.04118519
#
# Stress axis : x y z
#
# Youngs Moduli (GPa) = 83.06334 88.53040 24.78039
#
# Poissons Ratio (x) = 0.64739 0.12468
# Poissons Ratio (y) = 0.60741 -0.02706
# Poissons Ratio (z) = 0.41793 -0.09669
#
# Static dielectric constant tensor:
#      x y z
#    x 1.719240 0.000000 0.000000 
#    y 0.000000 1.667000 0.000000 
#    z 0.000000 0.000000 1.710900 
# 
# From -- ./inp_files/21390.got.cif
#   From: 2010.05.17/outbox.cif.g08.bks.cpg/sg40_11_cif.got.tgz:21390.got - 2010.06.03 18:35:42.
