data_PCOD9363693
_publ_section_title
;
Structure prediction by ZEFSAII (Michael W. Deem and Ramdas Pophale) SiO2 
 PCOD9363693
Probable space group: A M A 2
;
_chemical_formula_sum "Si O2"
_cell_formula_units_Z 48
_cell_length_a 14.658852
_cell_length_b 12.185975
_cell_length_c 10.169707
_cell_angle_alpha 90.000000
_cell_angle_beta 90.000000
_cell_angle_gamma 90.000000
_cell_volume 1816.639209
_symmetry_space_group_name_H-M "A M A 2"
_symmetry_group_IT_number 40
_symmetry_cell_setting 'orthorhombic'
loop_
_space_group_symop_operation_xyz
x,y,z
-x,-y,z
1/2-x,y,z
1/2+x,-y,z
x,1/2+y,1/2+z
-x,1/2-y,1/2+z
1/2-x,1/2+y,1/2+z
1/2+x,1/2-y,1/2+z
loop_
_atom_site_type_symbol
_atom_site_label
_atom_site_fract_x
_atom_site_fract_y
_atom_site_fract_z
Si Si1 0.855822 0.266685 0.194630
Si Si2 0.145725 0.652150 0.935988
Si Si3 0.901260 0.103699 0.889710
Si Si4 0.142730 0.347512 0.109589
Si Si5 0.360346 0.442817 0.820606
Si Si6 0.108754 0.127540 0.972274
O O1 0.750000 0.253428 0.155201
O O2 0.898063 0.146401 0.218376
O O3 0.854956 0.321793 0.336091
O O4 0.899210 0.340282 0.080375
O O5 0.250000 0.612141 0.950286
O O6 0.146980 0.778852 0.897706
O O7 0.105277 0.567475 0.830657
O O8 0.906471 0.093451 0.731374
O O9 0.000964 0.121190 0.949035
O O10 0.859279 0.999391 0.965892
O O11 0.250000 0.366990 0.132522
O O12 0.120203 0.398719 0.967709
O O13 0.130750 0.215757 0.085402
O O14 0.250000 0.438822 0.798607
#
# Coordination Sequence:
#
# PCOD9363693 Si02
#       6
#     8   8   8   8   8   8
#     4   9  18  35  60  82 109 155 200 245 301 361
#     4  10  20  33  55  86 117 151 194 247 302 364
#     4  11  24  38  58  90 127 163 207 256 319 383
#     4  10  21  40  66  91 120 165 215 260 313 381
#     4   8  16  33  55  83 111 143 198 250 292 355
#     4  10  23  41  59  88 126 162 207 261 317 378
#
# _framework density 26.422419999999999
#
# number of rings (size 3 to 8) (size 9 to 14) (size 15 to 20)
#    0.000    2.333    0.000    3.000    2.333    5.333 
#    0.000    4.167    0.000    0.000    0.000    0.000 
#    0.000    0.000    0.000    0.000    0.000    0.000 
#
# Total GULP energy -134041.870683 kJ/mol
# GULP energy per Si atom -5585.077945 kJ/mol
# Density = 2.636228 g / cm^3
# Si number density = 26.422420 Si / 1000 Ang^3
#
#
#
# Elastic Constant Matrix: (Units=GPa)
#
#
# Indices 1 2 3 4 5 6 
#
# 1 66.1991 3.6215 8.7391 0.0000 0.0000 0.0000
# 2 3.6215 159.4562 -7.6420 0.0000 0.0000 0.0000
# 3 8.7391 -7.6420 18.3791 0.0000 0.0000 0.0000
# 4 0.0000 0.0000 0.0000 31.3402 0.0000 0.0000
# 5 0.0000 0.0000 0.0000 0.0000 -16.3391 0.0000
# 6 0.0000 0.0000 0.0000 0.0000 0.0000 45.3475
#
#
#
# Elastic Compliance Matrix: (Units=1/GPa)
#
#
# Indices 1 2 3 4 5 6 
#
# 1 0.016206 -0.000752 -0.008019 0.000000 0.000000 0.000000
# 2 -0.000752 0.006434 0.003033 0.000000 0.000000 0.000000
# 3 -0.008019 0.003033 0.059484 0.000000 0.000000 0.000000
# 4 0.000000 0.000000 0.000000 0.031908 0.000000 0.000000
# 5 0.000000 0.000000 0.000000 0.000000 -0.061203 0.000000
# 6 0.000000 0.000000 0.000000 0.000000 0.000000 0.022052
#
#
# Mechanical properties :
#
#
# Convention : Reuss Voigt Hill
#
# Bulk Modulus (GPa) = 14.15487 28.16352 21.15920
# Shear Modulus (GPa) = 45.49379 28.02409 36.75894
#
# Velocity S-wave (km/s) = 4.15394 3.26025 3.73393
# Velocity P-wave (km/s) = 5.32689 4.98541 5.15898
#
# Compressibility (1/GPa) = 0.07064704
#
# Stress axis : x y z
#
# Youngs Moduli (GPa) = 61.70689 155.43022 16.81136
#
# Poissons Ratio (x) = 0.11694 0.13480
# Poissons Ratio (y) = 0.04643 -0.05099
# Poissons Ratio (z) = 0.49480 -0.47140
#
# Static dielectric constant tensor:
#      x y z
#    x 2.214250 0.000000 0.000000 
#    y 0.000000 2.188360 0.000000 
#    z 0.000000 0.000000 2.131990 
# 
# From -- ./inp_files/12870.got.cif
#   From: 2010.05.17/outbox.cif.g08.bks.cpg/sg40_7_cif.got.tgz:12870.got - 2010.06.03 18:35:42.
