data_PCOD9363622
_publ_section_title
;
Structure prediction by ZEFSAII (Michael W. Deem and Ramdas Pophale) SiO2 
 PCOD9363622
Probable space group: A M A 2
;
_chemical_formula_sum "Si O2"
_cell_formula_units_Z 64
_cell_length_a 8.950119
_cell_length_b 20.948583
_cell_length_c 20.055149
_cell_angle_alpha 90.000000
_cell_angle_beta 90.000000
_cell_angle_gamma 90.000000
_cell_volume 3760.186228
_symmetry_space_group_name_H-M "A M A 2"
_symmetry_group_IT_number 40
_symmetry_cell_setting 'orthorhombic'
loop_
_space_group_symop_operation_xyz
x,y,z
-x,-y,z
1/2-x,y,z
1/2+x,-y,z
x,1/2+y,1/2+z
-x,1/2-y,1/2+z
1/2-x,1/2+y,1/2+z
1/2+x,1/2-y,1/2+z
loop_
_atom_site_type_symbol
_atom_site_label
_atom_site_fract_x
_atom_site_fract_y
_atom_site_fract_z
Si Si1 0.571016 0.066241 0.399110
Si Si2 0.071492 0.884612 0.542874
Si Si3 0.571926 0.684921 0.402017
Si Si4 0.929106 0.259451 0.683298
Si Si5 0.929126 0.433092 0.324370
Si Si6 0.072126 0.733074 0.533938
Si Si7 0.071200 0.184280 0.323032
Si Si8 0.571644 0.880427 0.681120
O O1 0.750000 0.063494 0.396924
O O2 0.525050 0.078966 0.476149
O O3 0.513383 0.125559 0.355994
O O4 0.500000 0.000000 0.376217
O O5 0.250000 0.890223 0.551056
O O6 0.039144 0.809175 0.531292
O O7 0.994174 0.905240 0.611343
O O8 0.750000 0.676048 0.398963
O O9 0.491247 0.625367 0.367789
O O10 0.517412 0.696641 0.477237
O O11 0.535162 0.749907 0.361594
O O12 0.750000 0.247309 0.685163
O O13 0.963137 0.286526 0.609958
O O14 0.966465 0.304014 0.745562
O O15 0.009234 0.191353 0.690229
O O16 0.750000 0.435257 0.328898
O O17 0.971040 0.419469 0.247034
O O18 0.000000 0.500000 0.345504
O O19 0.250000 0.725488 0.522565
O O20 0.250000 0.174237 0.328742
O O21 0.750000 0.878555 0.676675
#
# Coordination Sequence:
#
# PCOD9363622 Si02
#       8
#     8   8   8   8   8   8   8   8
#     4  11  23  38  55  78 110 148 187 228 275 325
#     4   9  19  34  52  74 107 149 185 220 265 321
#     4  11  21  34  57  84 111 143 181 226 272 322
#     4   9  18  34  55  80 110 144 179 221 272 322
#     4  11  24  39  55  78 110 147 186 227 274 326
#     4   9  17  32  54  80 110 141 179 223 271 321
#     4  10  20  35  57  83 110 143 183 226 272 322
#     4  10  20  32  51  79 109 142 182 226 267 317
#
# _framework density 17.020432
#
# number of rings (size 3 to 8) (size 9 to 14) (size 15 to 20)
#    0.000    2.000    2.500    2.250    0.000    6.000 
#    0.000    2.500    0.000    0.750    0.000    3.500 
#    0.000    0.000    0.000    0.000    0.000    0.000 
#
# Total GULP energy -178639.884715 kJ/mol
# GULP energy per Si atom -5582.496397 kJ/mol
# Density = 1.698169 g / cm^3
# Si number density = 17.020432 Si / 1000 Ang^3
#
#
#
# Elastic Constant Matrix: (Units=GPa)
#
#
# Indices 1 2 3 4 5 6 
#
# 1 38.8263 44.8989 39.4070 0.0000 0.0000 0.0000
# 2 44.8989 102.0874 55.5103 0.0000 0.0000 0.0000
# 3 39.4070 55.5103 108.9992 0.0000 0.0000 0.0000
# 4 0.0000 0.0000 0.0000 19.0864 0.0000 0.0000
# 5 0.0000 0.0000 0.0000 0.0000 29.5922 0.0000
# 6 0.0000 0.0000 0.0000 0.0000 0.0000 16.8344
#
#
#
# Elastic Compliance Matrix: (Units=1/GPa)
#
#
# Indices 1 2 3 4 5 6 
#
# 1 0.061625 -0.020729 -0.011723 0.000000 0.000000 0.000000
# 2 -0.020729 0.020519 -0.002956 0.000000 0.000000 0.000000
# 3 -0.011723 -0.002956 0.014918 0.000000 0.000000 0.000000
# 4 0.000000 0.000000 0.000000 0.052393 0.000000 0.000000
# 5 0.000000 0.000000 0.000000 0.000000 0.033793 0.000000
# 6 0.000000 0.000000 0.000000 0.000000 0.000000 0.059402
#
#
# Mechanical properties :
#
#
# Convention : Reuss Voigt Hill
#
# Bulk Modulus (GPa) = 38.09928 58.83837 48.46882
# Shear Modulus (GPa) = 15.51761 20.44238 17.98000
#
# Velocity S-wave (km/s) = 3.02272 3.46938 3.25372
# Velocity P-wave (km/s) = 5.88349 7.11991 6.53102
#
# Compressibility (1/GPa) = 0.02624722
#
# Stress axis : x y z
#
# Youngs Moduli (GPa) = 16.22722 48.73431 67.03329
#
# Poissons Ratio (x) = 1.01020 0.78583
# Poissons Ratio (y) = 0.33637 0.19814
# Poissons Ratio (z) = 0.19023 0.14405
#
# Static dielectric constant tensor:
#      x y z
#    x 1.566760 0.000000 0.000000 
#    y 0.000000 1.549610 0.000000 
#    z 0.000000 0.000000 1.585800 
# 
# From -- ./inp_files/22373.got.cif
#   From: 2010.05.17/outbox.cif.g08.bks.cpg/sg40_12_cif.got.tgz:22373.got - 2010.06.03 18:35:42.
