data_PCOD9363845
_publ_section_title
;
Structure prediction by ZEFSAII (Michael W. Deem and Ramdas Pophale) SiO2 
 PCOD9363845
Probable space group: A M A 2
;
_chemical_formula_sum "Si O2"
_cell_formula_units_Z 56
_cell_length_a 14.109776
_cell_length_b 13.280014
_cell_length_c 15.817310
_cell_angle_alpha 90.000000
_cell_angle_beta 90.000000
_cell_angle_gamma 90.000000
_cell_volume 2963.816274
_symmetry_space_group_name_H-M "A M A 2"
_symmetry_group_IT_number 40
_symmetry_cell_setting 'orthorhombic'
loop_
_space_group_symop_operation_xyz
x,y,z
-x,-y,z
1/2-x,y,z
1/2+x,-y,z
x,1/2+y,1/2+z
-x,1/2-y,1/2+z
1/2-x,1/2+y,1/2+z
1/2+x,1/2-y,1/2+z
loop_
_atom_site_type_symbol
_atom_site_label
_atom_site_fract_x
_atom_site_fract_y
_atom_site_fract_z
Si Si1 0.862939 0.789984 0.480450
Si Si2 0.951705 0.395214 0.819175
Si Si3 0.636731 0.413306 0.145859
Si Si4 0.641007 0.125351 0.718809
Si Si5 0.981340 0.882594 0.980753
Si Si6 0.358470 0.150956 0.146534
Si Si7 0.458548 0.687766 0.305828
O O1 0.750000 0.771070 0.484593
O O2 0.887669 0.849848 0.394352
O O3 0.894332 0.860268 0.559388
O O4 0.925313 0.688447 0.484242
O O5 0.894072 0.403617 0.731740
O O6 0.000000 0.500000 0.842110
O O7 0.028956 0.307525 0.802788
O O8 0.750000 0.409178 0.144535
O O9 0.612536 0.530501 0.161194
O O10 0.599712 0.353424 0.227214
O O11 0.750000 0.111617 0.748335
O O12 0.637325 0.229859 0.668067
O O13 0.563860 0.139162 0.792273
O O14 0.924611 0.844491 0.898002
O O15 0.000000 0.000000 0.969085
O O16 0.924239 0.869795 0.067189
O O17 0.250000 0.123709 0.128923
#
# Coordination Sequence:
#
# PCOD9363845 Si02
#       7
#     8   8   8   8   8   8   8
#     4  10  22  39  60  87 116 149 193 243 298 360
#     4  10  21  38  59  82 111 149 193 239 288 344
#     4  10  20  35  56  82 111 143 180 227 284 340
#     4   9  18  34  58  82 105 139 183 231 284 338
#     4  11  23  37  55  82 113 151 194 235 285 345
#     4  10  21  37  56  81 114 151 193 237 283 343
#     4  10  21  36  55  80 110 142 180 230 281 332
#
# _framework density 18.894559000000001
#
# number of rings (size 3 to 8) (size 9 to 14) (size 15 to 20)
#    0.000    2.000    0.000    3.857    0.000    8.000 
#    0.000    2.857    0.000    0.857    0.000    0.000 
#    0.000    0.000    0.000    0.000    0.000    0.000 
#
# Total GULP energy -156269.344459 kJ/mol
# GULP energy per Si atom -5581.048016 kJ/mol
# Density = 1.885155 g / cm^3
# Si number density = 18.894559 Si / 1000 Ang^3
#
#
#
# Elastic Constant Matrix: (Units=GPa)
#
#
# Indices 1 2 3 4 5 6 
#
# 1 41.5973 27.5957 22.1123 0.0000 0.0000 0.0000
# 2 27.5957 87.4459 16.5850 0.0000 0.0000 0.0000
# 3 22.1123 16.5850 102.1737 0.0000 0.0000 0.0000
# 4 0.0000 0.0000 0.0000 19.4788 0.0000 0.0000
# 5 0.0000 0.0000 0.0000 0.0000 15.9148 0.0000
# 6 0.0000 0.0000 0.0000 0.0000 0.0000 15.4917
#
#
#
# Elastic Compliance Matrix: (Units=1/GPa)
#
#
# Indices 1 2 3 4 5 6 
#
# 1 0.033320 -0.009438 -0.005679 0.000000 0.000000 0.000000
# 2 -0.009438 0.014472 -0.000307 0.000000 0.000000 0.000000
# 3 -0.005679 -0.000307 0.011066 0.000000 0.000000 0.000000
# 4 0.000000 0.000000 0.000000 0.051338 0.000000 0.000000
# 5 0.000000 0.000000 0.000000 0.000000 0.062835 0.000000
# 6 0.000000 0.000000 0.000000 0.000000 0.000000 0.064551
#
#
# Mechanical properties :
#
#
# Convention : Reuss Voigt Hill
#
# Bulk Modulus (GPa) = 35.70014 40.42255 38.06134
# Shear Modulus (GPa) = 18.00079 21.17199 19.58639
#
# Velocity S-wave (km/s) = 3.08993 3.35107 3.22314
# Velocity P-wave (km/s) = 5.62722 6.03433 5.83433
#
# Compressibility (1/GPa) = 0.02801110
#
# Stress axis : x y z
#
# Youngs Moduli (GPa) = 30.01195 69.09827 90.36615
#
# Poissons Ratio (x) = 0.65214 0.51320
# Poissons Ratio (y) = 0.28325 0.02771
# Poissons Ratio (z) = 0.17044 0.02119
#
# Static dielectric constant tensor:
#      x y z
#    x 1.666090 0.000000 0.000000 
#    y 0.000000 1.648110 0.000000 
#    z 0.000000 0.000000 1.659410 
# 
# From -- ./inp_files/17085.got.cif
#   From: 2010.05.17/outbox.cif.g08.bks.cpg/sg40_9_cif.got.tgz:17085.got - 2010.06.03 18:35:42.
