data_PCOD9363684
_publ_section_title
;
Structure prediction by ZEFSAII (Michael W. Deem and Ramdas Pophale) SiO2 
 PCOD9363684
Probable space group: A M A 2
;
_chemical_formula_sum "Si O2"
_cell_formula_units_Z 64
_cell_length_a 7.788296
_cell_length_b 25.869529
_cell_length_c 15.549880
_cell_angle_alpha 90.000000
_cell_angle_beta 90.000000
_cell_angle_gamma 90.000000
_cell_volume 3132.982813
_symmetry_space_group_name_H-M "A M A 2"
_symmetry_group_IT_number 40
_symmetry_cell_setting 'orthorhombic'
loop_
_space_group_symop_operation_xyz
x,y,z
-x,-y,z
1/2-x,y,z
1/2+x,-y,z
x,1/2+y,1/2+z
-x,1/2-y,1/2+z
1/2-x,1/2+y,1/2+z
1/2+x,1/2-y,1/2+z
loop_
_atom_site_type_symbol
_atom_site_label
_atom_site_fract_x
_atom_site_fract_y
_atom_site_fract_z
Si Si1 0.455196 0.846417 0.342270
Si Si2 0.953586 0.942133 0.460825
Si Si3 0.950167 0.631989 0.471681
Si Si4 0.042976 0.233446 0.875902
Si Si5 0.038988 0.832020 0.147846
Si Si6 0.955446 0.894397 0.635021
Si Si7 0.957921 0.282448 0.174944
Si Si8 0.454850 0.940141 0.820228
O O1 0.250000 0.840445 0.336956
O O2 0.493443 0.897315 0.395526
O O3 0.516964 0.792815 0.385967
O O4 0.516631 0.848596 0.243344
O O5 0.750000 0.940709 0.466028
O O6 0.024885 0.927798 0.555632
O O7 0.000000 0.000000 0.434772
O O8 0.750000 0.617684 0.479648
O O9 0.022936 0.633779 0.568096
O O10 0.026308 0.594526 0.398822
O O11 0.962358 0.690432 0.436299
O O12 0.250000 0.230875 0.886274
O O13 0.002958 0.218691 0.776784
O O14 0.250000 0.832537 0.146641
O O15 0.983924 0.772155 0.136671
O O16 0.750000 0.890955 0.624995
O O17 0.023849 0.835578 0.634734
O O18 0.985675 0.919412 0.727801
O O19 0.750000 0.282656 0.168822
O O20 0.250000 0.934749 0.819959
O O21 0.500000 0.000000 0.830672
#
# Coordination Sequence:
#
# PCOD9363684 Si02
#       8
#     8   8   8   8   8   8   8   8
#     4   9  19  37  59  81 109 146 185 227 273 325
#     4  11  24  39  58  82 108 143 187 234 280 325
#     4  10  20  33  54  83 112 142 184 230 272 320
#     4   9  17  31  53  80 111 146 179 215 269 328
#     4   8  16  32  55  80 111 148 181 217 266 328
#     4  10  20  35  57  83 110 145 183 222 269 329
#     4   8  14  28  51  78 108 144 179 206 253 325
#     4  11  23  37  54  79 110 148 186 229 278 322
#
# _framework density 20.427817000000001
#
# number of rings (size 3 to 8) (size 9 to 14) (size 15 to 20)
#    0.000    2.500    1.250    2.625    1.750    3.000 
#    0.000    1.250    0.000    2.250    0.000    0.000 
#    0.000    0.000    0.000    0.000    0.000    0.000 
#
# Total GULP energy -178573.057597 kJ/mol
# GULP energy per Si atom -5580.408050 kJ/mol
# Density = 2.038132 g / cm^3
# Si number density = 20.427817 Si / 1000 Ang^3
#
#
#
# Elastic Constant Matrix: (Units=GPa)
#
#
# Indices 1 2 3 4 5 6 
#
# 1 25.5137 -4.6365 -2.5917 0.0000 0.0000 0.0000
# 2 -4.6365 138.2611 70.6466 0.0000 0.0000 0.0000
# 3 -2.5917 70.6466 100.0474 0.0000 0.0000 0.0000
# 4 0.0000 0.0000 0.0000 32.3496 0.0000 0.0000
# 5 0.0000 0.0000 0.0000 0.0000 5.2816 0.0000
# 6 0.0000 0.0000 0.0000 0.0000 0.0000 17.8365
#
#
#
# Elastic Compliance Matrix: (Units=1/GPa)
#
#
# Indices 1 2 3 4 5 6 
#
# 1 0.039436 0.001252 0.000137 0.000000 0.000000 0.000000
# 2 0.001252 0.011355 -0.007986 0.000000 0.000000 0.000000
# 3 0.000137 -0.007986 0.015638 0.000000 0.000000 0.000000
# 4 0.000000 0.000000 0.000000 0.030912 0.000000 0.000000
# 5 0.000000 0.000000 0.000000 0.000000 0.189337 0.000000
# 6 0.000000 0.000000 0.000000 0.000000 0.000000 0.056065
#
#
# Mechanical properties :
#
#
# Convention : Reuss Voigt Hill
#
# Bulk Modulus (GPa) = 18.78397 43.40652 31.09524
# Shear Modulus (GPa) = 13.38037 24.45379 18.91708
#
# Velocity S-wave (km/s) = 2.56209 3.46364 3.04640
# Velocity P-wave (km/s) = 4.23883 6.10660 5.25634
#
# Compressibility (1/GPa) = 0.05323689
#
# Stress axis : x y z
#
# Youngs Moduli (GPa) = 25.35739 88.06581 63.94753
#
# Poissons Ratio (x) = -0.11029 -0.00878
# Poissons Ratio (y) = -0.03176 0.51067
# Poissons Ratio (z) = -0.00348 0.70327
#
# Static dielectric constant tensor:
#      x y z
#    x 1.744830 0.000000 0.000000 
#    y 0.000000 1.625320 0.000000 
#    z 0.000000 0.000000 1.751190 
# 
# From -- ./inp_files/15652.got.cif
#   From: 2010.05.17/outbox.cif.g08.bks.cpg/sg40_8_cif.got.tgz:15652.got - 2010.06.03 18:35:42.
