data_PCOD9363835
_publ_section_title
;
Structure prediction by ZEFSAII (Michael W. Deem and Ramdas Pophale) SiO2 
 PCOD9363835
Probable space group: A M A 2
;
_chemical_formula_sum "Si O2"
_cell_formula_units_Z 56
_cell_length_a 8.655953
_cell_length_b 14.912867
_cell_length_c 22.237840
_cell_angle_alpha 90.000000
_cell_angle_beta 90.000000
_cell_angle_gamma 90.000000
_cell_volume 2870.573263
_symmetry_space_group_name_H-M "A M A 2"
_symmetry_group_IT_number 40
_symmetry_cell_setting 'orthorhombic'
loop_
_space_group_symop_operation_xyz
x,y,z
-x,-y,z
1/2-x,y,z
1/2+x,-y,z
x,1/2+y,1/2+z
-x,1/2-y,1/2+z
1/2-x,1/2+y,1/2+z
1/2+x,1/2-y,1/2+z
loop_
_atom_site_type_symbol
_atom_site_label
_atom_site_fract_x
_atom_site_fract_y
_atom_site_fract_z
Si Si1 0.935442 0.596392 0.379470
Si Si2 0.935827 0.599953 0.739016
Si Si3 0.564236 0.095803 0.019462
Si Si4 0.565187 0.403870 0.957956
Si Si5 0.066261 0.905419 0.592754
Si Si6 0.564578 0.716997 0.854211
Si Si7 0.563230 0.222842 0.126386
O O1 0.750000 0.596466 0.376279
O O2 0.982614 0.607638 0.450027
O O3 0.000000 0.500000 0.359560
O O4 0.004169 0.682161 0.346073
O O5 0.750000 0.594784 0.738917
O O6 0.982752 0.653788 0.798735
O O7 0.981523 0.657425 0.680675
O O8 0.000000 0.500000 0.737824
O O9 0.750000 0.092124 0.020940
O O10 0.515503 0.174693 0.064053
O O11 0.500000 0.000000 0.040535
O O12 0.500000 0.500000 0.935990
O O13 0.750000 0.405930 0.959166
O O14 0.506754 0.326140 0.914279
O O15 0.502648 0.392541 0.025555
O O16 0.250000 0.910543 0.588840
O O17 0.011957 0.820077 0.630457
O O18 0.000000 0.000000 0.615447
O O19 0.750000 0.717311 0.858620
O O20 0.750000 0.232270 0.126178
#
# Coordination Sequence:
#
# PCOD9363835 Si02
#       7
#     8   8   8   8   8   8   8
#     4  10  20  35  55  82 112 146 184 229 282 339
#     4  10  23  40  60  84 114 149 188 233 280 329
#     4   9  18  31  52  80 111 142 176 218 270 327
#     4  11  21  35  56  84 116 151 187 231 285 342
#     4  11  22  37  58  85 114 147 184 230 282 337
#     4  11  22  37  56  82 113 150 194 239 284 335
#     4  10  20  37  57  81 113 149 186 228 275 329
#
# _framework density 19.508298
#
# number of rings (size 3 to 8) (size 9 to 14) (size 15 to 20)
#    0.000    1.714    0.000    6.000    0.000    5.143 
#    0.000    0.714    0.000    0.000    0.000    0.000 
#    0.000    0.000    0.000    0.000    0.000    0.000 
#
# Total GULP energy -156509.760347 kJ/mol
# GULP energy per Si atom -5589.634298 kJ/mol
# Density = 1.946390 g / cm^3
# Si number density = 19.508298 Si / 1000 Ang^3
#
#
#
# Elastic Constant Matrix: (Units=GPa)
#
#
# Indices 1 2 3 4 5 6 
#
# 1 79.7036 52.4905 22.8751 0.0000 0.0000 0.0000
# 2 52.4905 195.3028 53.4946 0.0000 0.0000 0.0000
# 3 22.8751 53.4946 40.9119 0.0000 0.0000 0.0000
# 4 0.0000 0.0000 0.0000 32.1487 0.0000 0.0000
# 5 0.0000 0.0000 0.0000 0.0000 11.7424 0.0000
# 6 0.0000 0.0000 0.0000 0.0000 0.0000 39.2289
#
#
#
# Elastic Compliance Matrix: (Units=1/GPa)
#
#
# Indices 1 2 3 4 5 6 
#
# 1 0.015912 -0.002866 -0.005149 0.000000 0.000000 0.000000
# 2 -0.002866 0.008494 -0.009503 0.000000 0.000000 0.000000
# 3 -0.005149 -0.009503 0.039748 0.000000 0.000000 0.000000
# 4 0.000000 0.000000 0.000000 0.031105 0.000000 0.000000
# 5 0.000000 0.000000 0.000000 0.000000 0.085161 0.000000
# 6 0.000000 0.000000 0.000000 0.000000 0.000000 0.025491
#
#
# Mechanical properties :
#
#
# Convention : Reuss Voigt Hill
#
# Bulk Modulus (GPa) = 34.34517 63.73762 49.04140
# Shear Modulus (GPa) = 19.94781 29.09455 24.52118
#
# Velocity S-wave (km/s) = 3.20117 3.86605 3.54921
# Velocity P-wave (km/s) = 5.59526 7.25751 6.47991
#
# Compressibility (1/GPa) = 0.02911618
#
# Stress axis : x y z
#
# Youngs Moduli (GPa) = 62.84612 117.73591 25.15854
#
# Poissons Ratio (x) = 0.33745 0.12955
# Poissons Ratio (y) = 0.18013 0.23909
# Poissons Ratio (z) = 0.32360 1.11888
#
# Static dielectric constant tensor:
#      x y z
#    x 1.649090 0.000000 0.000000 
#    y 0.000000 1.683150 0.000000 
#    z 0.000000 0.000000 1.681770 
# 
# From -- ./inp_files/22172.got.cif
#   From: 2010.05.17/outbox.cif.g08.bks.cpg/sg40_12_cif.got.tgz:22172.got - 2010.06.03 18:35:42.
