data_PCOD9363007
_publ_section_title
;
Structure prediction by ZEFSAII (Michael W. Deem and Ramdas Pophale) SiO2 
 PCOD9363007
Probable space group: A M A 2
;
_chemical_formula_sum "Si O2"
_cell_formula_units_Z 64
_cell_length_a 8.997738
_cell_length_b 31.096617
_cell_length_c 14.670826
_cell_angle_alpha 90.000000
_cell_angle_beta 90.000000
_cell_angle_gamma 90.000000
_cell_volume 4104.885561
_symmetry_space_group_name_H-M "A M A 2"
_symmetry_group_IT_number 40
_symmetry_cell_setting 'orthorhombic'
loop_
_space_group_symop_operation_xyz
x,y,z
-x,-y,z
1/2-x,y,z
1/2+x,-y,z
x,1/2+y,1/2+z
-x,1/2-y,1/2+z
1/2-x,1/2+y,1/2+z
1/2+x,1/2-y,1/2+z
loop_
_atom_site_type_symbol
_atom_site_label
_atom_site_fract_x
_atom_site_fract_y
_atom_site_fract_z
Si Si1 0.428627 0.454723 0.744130
Si Si2 0.920434 0.323197 0.659761
Si Si3 0.574859 0.266143 0.149650
Si Si4 0.426745 0.366264 0.828402
Si Si5 0.926013 0.797681 0.452905
Si Si6 0.572306 0.045766 0.030534
Si Si7 0.928049 0.286240 0.358428
Si Si8 0.576671 0.370381 0.466549
O O1 0.500000 0.500000 0.769943
O O2 0.250000 0.457801 0.747578
O O3 0.475362 0.415152 0.807963
O O4 0.468303 0.446124 0.637660
O O5 0.750000 0.324364 0.692660
O O6 0.930296 0.350628 0.568072
O O7 0.971247 0.275146 0.638389
O O8 0.029001 0.341017 0.736632
O O9 0.750000 0.253292 0.147264
O O10 0.546831 0.285171 0.249827
O O11 0.549165 0.295520 0.061520
O O12 0.250000 0.365486 0.840689
O O13 0.504180 0.340090 0.908699
O O14 0.750000 0.796831 0.435967
O O15 0.996067 0.755075 0.405603
O O16 0.750000 0.043052 0.025230
O O17 0.500000 0.000000 0.005853
O O18 0.512591 0.085262 0.970729
O O19 0.750000 0.282725 0.374732
O O20 0.977447 0.331657 0.401593
O O21 0.750000 0.379064 0.445115
#
# Coordination Sequence:
#
# PCOD9363007 Si02
#       8
#     8   8   8   8   8   8   8   8
#     4   9  19  32  48  70  96 127 161 196 240 295
#     4  11  20  29  47  74 100 130 169 208 242 286
#     4  10  21  35  50  68  99 135 168 208 251 291
#     4  11  21  34  49  70 100 137 169 199 249 297
#     4  11  22  33  48  74  99 129 172 210 244 291
#     4  10  19  32  49  71 100 131 164 200 245 294
#     4  10  20  35  51  69  96 135 169 204 251 295
#     4  10  20  32  48  72 100 132 170 203 246 297
#
# _framework density 15.591177999999999
#
# number of rings (size 3 to 8) (size 9 to 14) (size 15 to 20)
#    0.000    1.750    3.750    1.500    0.000    3.000 
#    0.000    0.000    0.000    0.000    0.000    0.875 
#    0.000    2.000    0.000    0.000    0.000    0.000 
#
# Total GULP energy -178505.151555 kJ/mol
# GULP energy per Si atom -5578.285986 kJ/mol
# Density = 1.555569 g / cm^3
# Si number density = 15.591178 Si / 1000 Ang^3
#
#
#
# Elastic Constant Matrix: (Units=GPa)
#
#
# Indices 1 2 3 4 5 6 
#
# 1 39.4117 43.2999 24.5975 0.0000 0.0000 0.0000
# 2 43.2999 109.3074 25.1355 0.0000 0.0000 0.0000
# 3 24.5975 25.1355 56.9343 0.0000 0.0000 0.0000
# 4 0.0000 0.0000 0.0000 21.3146 0.0000 0.0000
# 5 0.0000 0.0000 0.0000 0.0000 13.8261 0.0000
# 6 0.0000 0.0000 0.0000 0.0000 0.0000 25.2772
#
#
#
# Elastic Compliance Matrix: (Units=1/GPa)
#
#
# Indices 1 2 3 4 5 6 
#
# 1 0.055343 -0.018281 -0.015839 0.000000 0.000000 0.000000
# 2 -0.018281 0.016221 0.000737 0.000000 0.000000 0.000000
# 3 -0.015839 0.000737 0.024082 0.000000 0.000000 0.000000
# 4 0.000000 0.000000 0.000000 0.046916 0.000000 0.000000
# 5 0.000000 0.000000 0.000000 0.000000 0.072327 0.000000
# 6 0.000000 0.000000 0.000000 0.000000 0.000000 0.039561
#
#
# Mechanical properties :
#
#
# Convention : Reuss Voigt Hill
#
# Bulk Modulus (GPa) = 34.62736 43.52437 39.07587
# Shear Modulus (GPa) = 15.11289 19.59161 17.35225
#
# Velocity S-wave (km/s) = 3.11677 3.54868 3.33971
# Velocity P-wave (km/s) = 5.93382 6.69085 6.32367
#
# Compressibility (1/GPa) = 0.02887890
#
# Stress axis : x y z
#
# Youngs Moduli (GPa) = 18.06912 61.64996 41.52477
#
# Poissons Ratio (x) = 1.12700 0.65773
# Poissons Ratio (y) = 0.33032 -0.03059
# Poissons Ratio (z) = 0.28620 -0.04542
#
# Static dielectric constant tensor:
#      x y z
#    x 1.526470 0.000000 0.000000 
#    y 0.000000 1.517140 0.000000 
#    z 0.000000 0.000000 1.515240 
# 
# From -- ./inp_files/15868.got.cif
#   From: 2010.05.17/outbox.cif.g08.bks.cpg/sg40_8_cif.got.tgz:15868.got - 2010.06.03 18:35:42.
