data_PCOD9363858
_publ_section_title
;
Structure prediction by ZEFSAII (Michael W. Deem and Ramdas Pophale) SiO2 
 PCOD9363858
Probable space group: A M A 2
;
_chemical_formula_sum "Si O2"
_cell_formula_units_Z 48
_cell_length_a 8.521658
_cell_length_b 19.313529
_cell_length_c 15.647307
_cell_angle_alpha 90.000000
_cell_angle_beta 90.000000
_cell_angle_gamma 90.000000
_cell_volume 2575.285249
_symmetry_space_group_name_H-M "A M A 2"
_symmetry_group_IT_number 40
_symmetry_cell_setting 'orthorhombic'
loop_
_space_group_symop_operation_xyz
x,y,z
-x,-y,z
1/2-x,y,z
1/2+x,-y,z
x,1/2+y,1/2+z
-x,1/2-y,1/2+z
1/2-x,1/2+y,1/2+z
1/2+x,1/2-y,1/2+z
loop_
_atom_site_type_symbol
_atom_site_label
_atom_site_fract_x
_atom_site_fract_y
_atom_site_fract_z
Si Si1 0.438336 0.684172 0.878530
Si Si2 0.440630 0.183925 0.183564
Si Si3 0.560220 0.922854 0.039289
Si Si4 0.939699 0.157565 0.685947
Si Si5 0.061891 0.161247 0.874027
Si Si6 0.438095 0.422919 0.018322
O O1 0.250000 0.683951 0.881992
O O2 0.487072 0.666875 0.780831
O O3 0.497738 0.762107 0.894827
O O4 0.504490 0.629868 0.945822
O O5 0.250000 0.183612 0.181213
O O6 0.495601 0.129170 0.113736
O O7 0.488901 0.263177 0.165282
O O8 0.750000 0.923496 0.041146
O O9 0.500000 0.000000 0.051796
O O10 0.511240 0.891543 0.947860
O O11 0.750000 0.156857 0.689811
O O12 0.991081 0.106750 0.610550
O O13 0.002930 0.140893 0.779957
O O14 0.250000 0.164567 0.873514
O O15 0.500000 0.500000 0.004135
O O16 0.250000 0.423677 0.017929
#
# Coordination Sequence:
#
# PCOD9363858 Si02
#       6
#     8   8   8   8   8   8
#     4  10  20  36  59  84 110 142 182 227 275 329
#     4   8  16  34  57  78 102 136 177 221 269 318
#     4  10  21  36  53  76 109 145 179 217 265 320
#     4   9  19  37  59  79 104 141 183 228 277 327
#     4  10  20  35  57  83 110 142 182 227 273 324
#     4  11  23  38  56  80 113 150 186 228 280 334
#
# _framework density 18.638711000000001
#
# number of rings (size 3 to 8) (size 9 to 14) (size 15 to 20)
#    0.000    2.333    0.000    3.500    0.000    6.667 
#    0.000    9.167    0.000    0.000    0.000    0.000 
#    0.000    0.000    0.000    0.000    0.000    0.000 
#
# Total GULP energy -133983.357755 kJ/mol
# GULP energy per Si atom -5582.639906 kJ/mol
# Density = 1.859629 g / cm^3
# Si number density = 18.638711 Si / 1000 Ang^3
#
#
#
# Elastic Constant Matrix: (Units=GPa)
#
#
# Indices 1 2 3 4 5 6 
#
# 1 23.9110 1.0898 5.2255 0.0000 0.0000 0.0000
# 2 1.0898 0.4160 -9.8293 0.0000 0.0000 0.0000
# 3 5.2255 -9.8293 24.6317 0.0000 0.0000 0.0000
# 4 0.0000 0.0000 0.0000 -1.2861 0.0000 0.0000
# 5 0.0000 0.0000 0.0000 0.0000 25.9644 0.0000
# 6 0.0000 0.0000 0.0000 0.0000 0.0000 22.6444
#
#
#
# Elastic Compliance Matrix: (Units=1/GPa)
#
#
# Indices 1 2 3 4 5 6 
#
# 1 0.038945 0.035265 0.005810 0.000000 0.000000 0.000000
# 2 0.035265 -0.253267 -0.108547 0.000000 0.000000 0.000000
# 3 0.005810 -0.108547 -0.003950 0.000000 0.000000 0.000000
# 4 0.000000 0.000000 0.000000 -0.777548 0.000000 0.000000
# 5 0.000000 0.000000 0.000000 0.000000 0.038514 0.000000
# 6 0.000000 0.000000 0.000000 0.000000 0.000000 0.044161
#
#
# Mechanical properties :
#
#
# Convention : Reuss Voigt Hill
#
# Bulk Modulus (GPa) = -2.83112 4.65897 0.91392
# Shear Modulus (GPa) = -5.58073 12.96274 3.69100
#
# Velocity S-wave (km/s) = -1.73224 2.64004 1.40875
# Velocity P-wave (km/s) = 2.35013 3.43484 1.77130
#
# Compressibility (1/GPa) = -0.35321670
#
# Stress axis : x y z
#
# Youngs Moduli (GPa) = 25.67739 -3.94840 -253.15152
#
# Poissons Ratio (x) = 0.13924 1.47092
# Poissons Ratio (y) = -0.90550 -27.47886
# Poissons Ratio (z) = -0.14920 -0.42859
#
# Static dielectric constant tensor:
#      x y z
#    x 1.638960 0.000000 0.000000 
#    y 0.000000 1.609760 0.000000 
#    z 0.000000 0.000000 1.643180 
# 
# From -- ./inp_files/15019.got.cif
#   From: 2010.05.17/outbox.cif.g08.bks.cpg/sg40_8_cif.got.tgz:15019.got - 2010.06.03 18:35:42.
