data_PCOD9363179
_publ_section_title
;
Structure prediction by ZEFSAII (Michael W. Deem and Ramdas Pophale) SiO2 
 PCOD9363179
Probable space group: A M A 2
;
_chemical_formula_sum "Si O2"
_cell_formula_units_Z 64
_cell_length_a 16.682673
_cell_length_b 8.646664
_cell_length_c 24.034837
_cell_angle_alpha 90.000000
_cell_angle_beta 90.000000
_cell_angle_gamma 90.000000
_cell_volume 3467.012452
_symmetry_space_group_name_H-M "A M A 2"
_symmetry_group_IT_number 40
_symmetry_cell_setting 'orthorhombic'
loop_
_space_group_symop_operation_xyz
x,y,z
-x,-y,z
1/2-x,y,z
1/2+x,-y,z
x,1/2+y,1/2+z
-x,1/2-y,1/2+z
1/2-x,1/2+y,1/2+z
1/2+x,1/2-y,1/2+z
loop_
_atom_site_type_symbol
_atom_site_label
_atom_site_fract_x
_atom_site_fract_y
_atom_site_fract_z
Si Si1 0.657614 0.116199 0.699770
Si Si2 0.082360 0.220678 0.297315
Si Si3 0.423765 0.712537 0.225216
Si Si4 0.919420 0.102551 0.911923
Si Si5 0.479048 0.817133 0.620075
Si Si6 0.840431 0.791240 0.922511
Si Si7 0.341696 0.901250 0.310675
Si Si8 0.990756 0.684827 0.993546
O O1 0.750000 0.083231 0.687689
O O2 0.647656 0.232174 0.751261
O O3 0.608954 0.186762 0.647656
O O4 0.610169 0.960802 0.718783
O O5 0.093196 0.314535 0.353610
O O6 0.997974 0.266333 0.268271
O O7 0.096195 0.042143 0.312135
O O8 0.460238 0.756409 0.165136
O O9 0.355152 0.816557 0.251964
O O10 0.939134 0.227399 0.959690
O O11 0.851229 0.976251 0.922469
O O12 0.000000 0.000000 0.907498
O O13 0.486968 0.759435 0.557458
O O14 0.500000 0.000000 0.618030
O O15 0.750000 0.748731 0.938271
O O16 0.855744 0.720230 0.860921
O O17 0.907614 0.724649 0.963125
O O18 0.250000 0.956016 0.316387
O O19 0.000000 0.500000 0.992005
#
# Coordination Sequence:
#
# PCOD9363179 Si02
#       8
#     8   8   8   8   8   8   8   8
#     4  10  19  33  54  81 110 141 177 220 269 326
#     4  11  20  33  52  78 108 141 180 222 269 322
#     4  10  19  34  54  76 105 143 181 217 262 322
#     4  10  20  34  55  78 103 140 182 219 265 328
#     4   8  18  34  55  79 102 135 181 221 260 315
#     4  10  22  37  54  79 111 144 180 222 276 332
#     4  11  22  34  51  80 112 142 176 223 278 323
#     4  10  19  37  60  81 105 138 183 230 271 318
#
# _framework density 18.459697999999999
#
# number of rings (size 3 to 8) (size 9 to 14) (size 15 to 20)
#    0.000    2.000    0.000    6.000    0.000    2.500 
#    0.000    8.125    0.000    6.750    0.000    0.000 
#    0.000    0.000    0.000    0.000    0.000    0.000 
#
# Total GULP energy -178469.638665 kJ/mol
# GULP energy per Si atom -5577.176208 kJ/mol
# Density = 1.841768 g / cm^3
# Si number density = 18.459698 Si / 1000 Ang^3
#
#
#
# Elastic Constant Matrix: (Units=GPa)
#
#
# Indices 1 2 3 4 5 6 
#
# 1 81.5942 10.7255 41.6060 0.0000 0.0000 0.0000
# 2 10.7255 65.3885 33.4584 0.0000 0.0000 0.0000
# 3 41.6060 33.4584 138.3188 0.0000 0.0000 0.0000
# 4 0.0000 0.0000 0.0000 23.7231 0.0000 0.0000
# 5 0.0000 0.0000 0.0000 0.0000 14.3990 0.0000
# 6 0.0000 0.0000 0.0000 0.0000 0.0000 24.8089
#
#
#
# Elastic Compliance Matrix: (Units=1/GPa)
#
#
# Indices 1 2 3 4 5 6 
#
# 1 0.014478 -0.000167 -0.004314 0.000000 0.000000 0.000000
# 2 -0.000167 0.017455 -0.004172 0.000000 0.000000 0.000000
# 3 -0.004314 -0.004172 0.009537 0.000000 0.000000 0.000000
# 4 0.000000 0.000000 0.000000 0.042153 0.000000 0.000000
# 5 0.000000 0.000000 0.000000 0.000000 0.069449 0.000000
# 6 0.000000 0.000000 0.000000 0.000000 0.000000 0.040308
#
#
# Mechanical properties :
#
#
# Convention : Reuss Voigt Hill
#
# Bulk Modulus (GPa) = 41.38639 50.76460 46.07549
# Shear Modulus (GPa) = 22.85799 25.88696 24.37247
#
# Velocity S-wave (km/s) = 3.52272 3.74886 3.63755
# Velocity P-wave (km/s) = 6.24616 6.80430 6.53120
#
# Compressibility (1/GPa) = 0.02416254
#
# Stress axis : x y z
#
# Youngs Moduli (GPa) = 69.07155 57.28876 104.85855
#
# Poissons Ratio (x) = 0.00957 0.45241
# Poissons Ratio (y) = 0.01154 0.43748
# Poissons Ratio (z) = 0.29801 0.23901
#
# Static dielectric constant tensor:
#      x y z
#    x 1.664460 0.000000 0.000000 
#    y 0.000000 1.664230 0.000000 
#    z 0.000000 0.000000 1.624950 
# 
# From -- ./inp_files/23381.got.cif
#   From: 2010.05.17/outbox.cif.g08.bks.cpg/sg40_12_cif.got.tgz:23381.got - 2010.06.03 18:35:42.
