data_PCOD9364037
_publ_section_title
;
Structure prediction by ZEFSAII (Michael W. Deem and Ramdas Pophale) SiO2 
 PCOD9364037
Probable space group: A M A 2
;
_chemical_formula_sum "Si O2"
_cell_formula_units_Z 64
_cell_length_a 16.251791
_cell_length_b 13.640096
_cell_length_c 14.535215
_cell_angle_alpha 90.000000
_cell_angle_beta 90.000000
_cell_angle_gamma 90.000000
_cell_volume 3222.108166
_symmetry_space_group_name_H-M "A M A 2"
_symmetry_group_IT_number 40
_symmetry_cell_setting 'orthorhombic'
loop_
_space_group_symop_operation_xyz
x,y,z
-x,-y,z
1/2-x,y,z
1/2+x,-y,z
x,1/2+y,1/2+z
-x,1/2-y,1/2+z
1/2-x,1/2+y,1/2+z
1/2+x,1/2-y,1/2+z
loop_
_atom_site_type_symbol
_atom_site_label
_atom_site_fract_x
_atom_site_fract_y
_atom_site_fract_z
Si Si1 0.658823 0.640815 0.506760
Si Si2 0.907553 0.961113 0.101566
Si Si3 0.152738 0.036061 0.308499
Si Si4 0.153695 0.760359 0.577654
Si Si5 0.004428 0.616377 0.113563
Si Si6 0.621872 0.676656 0.871286
Si Si7 0.160374 0.721173 0.185749
Si Si8 0.441999 0.200636 0.415001
O O1 0.750000 0.656262 0.469275
O O2 0.644557 0.528625 0.532615
O O3 0.653099 0.698883 0.603993
O O4 0.594460 0.693966 0.440713
O O5 0.885820 0.978796 0.208100
O O6 0.886506 0.847597 0.085845
O O7 0.000000 0.000000 0.087472
O O8 0.250000 0.041257 0.297959
O O9 0.119593 0.132859 0.358027
O O10 0.130072 0.940455 0.367444
O O11 0.250000 0.762414 0.610005
O O12 0.153744 0.787168 0.469436
O O13 0.085746 0.832732 0.624608
O O14 0.078478 0.656159 0.177439
O O15 0.000000 0.500000 0.120913
O O16 0.034539 0.646952 0.010886
O O17 0.663091 0.723652 0.782531
O O18 0.526888 0.705976 0.861794
O O19 0.250000 0.670711 0.171557
#
# Coordination Sequence:
#
# PCOD9364037 Si02
#       8
#     8   8   8   8   8   8   8   8
#     4  10  20  38  60  86 121 159 204 251 308 377
#     4  12  23  39  62  92 125 169 211 260 317 382
#     4  12  23  35  60  95 125 160 209 263 319 375
#     4  11  24  40  62  92 130 166 208 267 328 382
#     4  10  22  40  60  87 121 163 207 252 325 389
#     4  11  21  38  59  88 118 158 206 259 311 373
#     4  10  20  36  61  88 113 153 209 262 301 368
#     4  10  21  36  58  88 123 158 197 257 318 369
#
# _framework density 19.862772
#
# number of rings (size 3 to 8) (size 9 to 14) (size 15 to 20)
#    0.000    1.250    1.250    7.500    1.750    1.000 
#    0.000    1.875    0.000    0.000    0.000    0.000 
#    0.000    0.000    0.000    0.000    0.000    0.000 
#
# Total GULP energy -178680.225265 kJ/mol
# GULP energy per Si atom -5583.757040 kJ/mol
# Density = 1.981756 g / cm^3
# Si number density = 19.862772 Si / 1000 Ang^3
#
#
#
# Elastic Constant Matrix: (Units=GPa)
#
#
# Indices 1 2 3 4 5 6 
#
# 1 123.3643 55.4908 21.9516 0.0000 0.0000 0.0000
# 2 55.4908 123.8828 3.1394 0.0000 0.0000 0.0000
# 3 21.9516 3.1394 22.2393 0.0000 0.0000 0.0000
# 4 0.0000 0.0000 0.0000 20.0159 0.0000 0.0000
# 5 0.0000 0.0000 0.0000 0.0000 29.1366 0.0000
# 6 0.0000 0.0000 0.0000 0.0000 0.0000 40.8812
#
#
#
# Elastic Compliance Matrix: (Units=1/GPa)
#
#
# Indices 1 2 3 4 5 6 
#
# 1 0.012585 -0.005342 -0.011668 0.000000 0.000000 0.000000
# 2 -0.005342 0.010368 0.003809 0.000000 0.000000 0.000000
# 3 -0.011668 0.003809 0.055945 0.000000 0.000000 0.000000
# 4 0.000000 0.000000 0.000000 0.049960 0.000000 0.000000
# 5 0.000000 0.000000 0.000000 0.000000 0.034321 0.000000
# 6 0.000000 0.000000 0.000000 0.000000 0.000000 0.024461
#
#
# Mechanical properties :
#
#
# Convention : Reuss Voigt Hill
#
# Bulk Modulus (GPa) = 19.04886 47.84999 33.44943
# Shear Modulus (GPa) = 21.59439 30.60038 26.09738
#
# Velocity S-wave (km/s) = 3.30082 3.92929 3.62869
# Velocity P-wave (km/s) = 4.91307 6.68793 5.86799
#
# Compressibility (1/GPa) = 0.05249658
#
# Stress axis : x y z
#
# Youngs Moduli (GPa) = 79.45952 96.44822 17.87465
#
# Poissons Ratio (x) = 0.51518 0.20857
# Poissons Ratio (y) = 0.42443 -0.06808
# Poissons Ratio (z) = 0.92715 -0.36735
#
# Static dielectric constant tensor:
#      x y z
#    x 1.742410 0.000000 0.000000 
#    y 0.000000 1.684460 0.000000 
#    z 0.000000 0.000000 1.682060 
# 
# From -- ./inp_files/20809.got.cif
#   From: 2010.05.17/outbox.cif.g08.bks.cpg/sg40_11_cif.got.tgz:20809.got - 2010.06.03 18:35:42.
