data_PCOD9364415
_publ_section_title
;
Structure prediction by ZEFSAII (Michael W. Deem and Ramdas Pophale) SiO2 
 PCOD9364415
Probable space group: A M A 2
;
_chemical_formula_sum "Si O2"
_cell_formula_units_Z 64
_cell_length_a 31.129882
_cell_length_b 17.996442
_cell_length_c 5.521718
_cell_angle_alpha 90.000000
_cell_angle_beta 90.000000
_cell_angle_gamma 90.000000
_cell_volume 3093.416150
_symmetry_space_group_name_H-M "A M A 2"
_symmetry_group_IT_number 40
_symmetry_cell_setting 'orthorhombic'
loop_
_space_group_symop_operation_xyz
x,y,z
-x,-y,z
1/2-x,y,z
1/2+x,-y,z
x,1/2+y,1/2+z
-x,1/2-y,1/2+z
1/2-x,1/2+y,1/2+z
1/2+x,1/2-y,1/2+z
loop_
_atom_site_type_symbol
_atom_site_label
_atom_site_fract_x
_atom_site_fract_y
_atom_site_fract_z
Si Si1 0.203869 0.766181 0.294390
Si Si2 0.048249 0.027839 0.964072
Si Si3 0.618166 0.099177 0.959900
Si Si4 0.630719 0.759180 0.434354
Si Si5 0.918205 0.407268 0.980016
Si Si6 0.340360 0.499975 0.829942
Si Si7 0.299738 0.641185 0.639938
Si Si8 0.795345 0.598105 0.161687
O O1 0.250000 0.779190 0.168113
O O2 0.203306 0.681099 0.381971
O O3 0.203379 0.823628 0.518381
O O4 0.161131 0.774047 0.143855
O O5 0.053480 0.074637 0.715651
O O6 0.079322 0.957310 0.916660
O O7 0.063137 0.069645 0.213668
O O8 0.000000 0.000000 0.997420
O O9 0.606464 0.182478 0.872862
O O10 0.662809 0.087773 0.819357
O O11 0.633154 0.070072 0.225995
O O12 0.596034 0.821751 0.490029
O O13 0.666562 0.803662 0.276437
O O14 0.873709 0.454219 0.994447
O O15 0.322017 0.560946 0.642518
O O16 0.299869 0.466574 0.965784
O O17 0.250000 0.639795 0.733183
O O18 0.750000 0.592518 0.293875
#
# Coordination Sequence:
#
# PCOD9364415 Si02
#       8
#     8   8   8   8   8   8   8   8
#     4  10  21  34  54  84 123 175 224 266 320 376
#     4  11  24  48  73 100 132 166 210 271 338 406
#     4  11  23  39  60  91 122 172 212 270 331 391
#     4  11  22  37  60  84 127 166 213 274 323 388
#     4  10  24  41  71  99 128 165 211 261 327 401
#     4  10  21  38  55  86 124 165 217 264 322 375
#     4  10  21  35  52  80 120 169 219 268 317 371
#     4  11  21  34  55  88 126 168 225 274 315 380
#
# _framework density 20.689101000000001
#
# number of rings (size 3 to 8) (size 9 to 14) (size 15 to 20)
#    0.000    1.500    3.750    1.125    5.250    1.500 
#    0.000    3.750    0.000    0.000    0.000    0.000 
#    0.000    0.000    0.000    0.000    0.000    0.000 
#
# Total GULP energy -178152.346391 kJ/mol
# GULP energy per Si atom -5567.260825 kJ/mol
# Density = 2.064201 g / cm^3
# Si number density = 20.689101 Si / 1000 Ang^3
#
#
#
# Elastic Constant Matrix: (Units=GPa)
#
#
# Indices 1 2 3 4 5 6 
#
# 1 95.4451 25.5910 17.6422 0.0000 0.0000 0.0000
# 2 25.5910 123.7739 19.9746 0.0000 0.0000 0.0000
# 3 17.6422 19.9746 46.7316 0.0000 0.0000 0.0000
# 4 0.0000 0.0000 0.0000 24.4670 0.0000 0.0000
# 5 0.0000 0.0000 0.0000 0.0000 25.7634 0.0000
# 6 0.0000 0.0000 0.0000 0.0000 0.0000 35.4533
#
#
#
# Elastic Compliance Matrix: (Units=1/GPa)
#
#
# Indices 1 2 3 4 5 6 
#
# 1 0.011634 -0.001822 -0.003613 0.000000 0.000000 0.000000
# 2 -0.001822 0.008963 -0.003143 0.000000 0.000000 0.000000
# 3 -0.003613 -0.003143 0.024106 0.000000 0.000000 0.000000
# 4 0.000000 0.000000 0.000000 0.040871 0.000000 0.000000
# 5 0.000000 0.000000 0.000000 0.000000 0.038815 0.000000
# 6 0.000000 0.000000 0.000000 0.000000 0.000000 0.028206
#
#
# Mechanical properties :
#
#
# Convention : Reuss Voigt Hill
#
# Bulk Modulus (GPa) = 36.30274 43.59624 39.94949
# Shear Modulus (GPa) = 27.94315 30.65293 29.29804
#
# Velocity S-wave (km/s) = 3.67907 3.85333 3.76721
# Velocity P-wave (km/s) = 5.96928 6.39651 6.18658
#
# Compressibility (1/GPa) = 0.02754613
#
# Stress axis : x y z
#
# Youngs Moduli (GPa) = 85.95751 111.56651 41.48284
#
# Poissons Ratio (x) = 0.20330 0.14988
# Poissons Ratio (y) = 0.15664 0.13039
# Poissons Ratio (z) = 0.31057 0.35068
#
# Static dielectric constant tensor:
#      x y z
#    x 1.727810 0.000000 0.000000 
#    y 0.000000 1.771090 0.000000 
#    z 0.000000 0.000000 1.857620 
# 
# From -- ./inp_files/3479.got.cif
#   From: 2010.05.17/outbox.cif.g08.bks.cpg/sg40_2_cif.got.tgz:3479.got - 2010.06.03 18:35:42.
