data_PCOD9364327
_publ_section_title
;
Structure prediction by ZEFSAII (Michael W. Deem and Ramdas Pophale) SiO2 
 PCOD9364327
Probable space group: A M A 2
;
_chemical_formula_sum "Si O2"
_cell_formula_units_Z 60
_cell_length_a 30.398169
_cell_length_b 5.277197
_cell_length_c 17.466561
_cell_angle_alpha 90.000000
_cell_angle_beta 90.000000
_cell_angle_gamma 90.000000
_cell_volume 2801.935521
_symmetry_space_group_name_H-M "A M A 2"
_symmetry_group_IT_number 40
_symmetry_cell_setting 'orthorhombic'
loop_
_space_group_symop_operation_xyz
x,y,z
-x,-y,z
1/2-x,y,z
1/2+x,-y,z
x,1/2+y,1/2+z
-x,1/2-y,1/2+z
1/2-x,1/2+y,1/2+z
1/2+x,1/2-y,1/2+z
loop_
_atom_site_type_symbol
_atom_site_label
_atom_site_fract_x
_atom_site_fract_y
_atom_site_fract_z
Si Si1 0.618684 0.967748 0.244300
Si Si2 0.677872 0.526362 0.436756
Si Si3 0.134576 0.623796 0.575920
Si Si4 0.419857 0.115768 0.540902
Si Si5 0.417199 0.850116 0.884974
Si Si6 0.031130 0.292281 0.674591
Si Si7 0.201611 0.959707 0.347954
Si Si8 0.500000 0.000000 0.809556
O O1 0.637633 0.843030 0.166897
O O2 0.577920 0.139151 0.215162
O O3 0.661540 0.072838 0.288287
O O4 0.597374 0.783868 0.306816
O O5 0.676781 0.468715 0.527439
O O6 0.626225 0.507836 0.413567
O O7 0.702015 0.298739 0.395547
O O8 0.692154 0.800530 0.404669
O O9 0.114478 0.886121 0.545079
O O10 0.101363 0.388194 0.562789
O O11 0.432211 0.157544 0.452219
O O12 0.455107 0.088857 0.609245
O O13 0.457937 0.021320 0.862640
O O14 0.000442 0.221471 0.746867
O O15 0.000000 0.500000 0.633748
O O16 0.250000 0.001403 0.312975
#
# Coordination Sequence:
#
# PCOD9364327 Si02
#       8
#     8   8   8   8   8   8   8   4
#     4  10  21  41  65  89 128 167 208 266 320 376
#     4  10  21  41  66  88 129 162 211 255 324 380
#     4  10  20  40  64  91 116 168 206 254 313 383
#     4  10  23  38  60  85 124 163 220 252 312 368
#     4  10  21  38  61  90 120 169 211 266 311 379
#     4  11  23  39  58  86 127 174 215 266 318 376
#     4  11  23  41  67  98 128 165 211 264 323 387
#     4  12  22  36  58  86 124 160 226 256 322 364
#
# _framework density 21.41377
#
# number of rings (size 3 to 8) (size 9 to 14) (size 15 to 20)
#    0.000    1.600    1.333    4.400    2.800    4.267 
#    0.000    2.667    0.000    0.000    0.000    0.000 
#    0.000    0.000    0.000    0.000    0.000    0.000 
#
# Total GULP energy -167073.940584 kJ/mol
# GULP energy per Si atom -5569.131353 kJ/mol
# Density = 2.136503 g / cm^3
# Si number density = 21.413770 Si / 1000 Ang^3
#
#
#
# Elastic Constant Matrix: (Units=GPa)
#
#
# Indices 1 2 3 4 5 6 
#
# 1 106.5992 4.7311 12.3426 0.0000 0.0000 0.0000
# 2 4.7311 65.4111 28.0434 0.0000 0.0000 0.0000
# 3 12.3426 28.0434 125.4353 0.0000 0.0000 0.0000
# 4 0.0000 0.0000 0.0000 26.1520 0.0000 0.0000
# 5 0.0000 0.0000 0.0000 0.0000 10.9940 0.0000
# 6 0.0000 0.0000 0.0000 0.0000 0.0000 -160.8783
#
#
#
# Elastic Compliance Matrix: (Units=1/GPa)
#
#
# Indices 1 2 3 4 5 6 
#
# 1 0.009495 -0.000317 -0.000864 0.000000 0.000000 0.000000
# 2 -0.000317 0.016919 -0.003751 0.000000 0.000000 0.000000
# 3 -0.000864 -0.003751 0.008896 0.000000 0.000000 0.000000
# 4 0.000000 0.000000 0.000000 0.038238 0.000000 0.000000
# 5 0.000000 0.000000 0.000000 0.000000 0.090959 0.000000
# 6 0.000000 0.000000 0.000000 0.000000 0.000000 -0.006216
#
#
# Mechanical properties :
#
#
# Convention : Reuss Voigt Hill
#
# Bulk Modulus (GPa) = 39.29735 43.07554 41.18645
# Shear Modulus (GPa) = 28.30670 -7.92456 10.19107
#
# Velocity S-wave (km/s) = 3.63973 -1.92580 2.18391
# Velocity P-wave (km/s) = 6.00456 3.90058 5.06307
#
# Compressibility (1/GPa) = 0.02544701
#
# Stress axis : x y z
#
# Youngs Moduli (GPa) = 105.31899 59.10460 112.41123
#
# Poissons Ratio (x) = 0.01871 0.09707
# Poissons Ratio (y) = 0.03334 0.42170
# Poissons Ratio (z) = 0.09094 0.22173
#
# Static dielectric constant tensor:
#      x y z
#    x 1.818700 0.000000 0.000000 
#    y 0.000000 1.903630 0.000000 
#    z 0.000000 0.000000 1.845910 
# 
# From -- ./inp_files/21658.got.cif
#   From: 2010.05.17/outbox.cif.g08.bks.cpg/sg40_11_cif.got.tgz:21658.got - 2010.06.03 18:35:42.
