data_PCOD9364776
_publ_section_title
;
Structure prediction by ZEFSAII (Michael W. Deem and Ramdas Pophale) SiO2 
 PCOD9364776
Probable space group: A M A 2
;
_chemical_formula_sum "Si O2"
_cell_formula_units_Z 48
_cell_length_a 13.834349
_cell_length_b 9.406879
_cell_length_c 17.530704
_cell_angle_alpha 90.000000
_cell_angle_beta 90.000000
_cell_angle_gamma 90.000000
_cell_volume 2281.411583
_symmetry_space_group_name_H-M "A M A 2"
_symmetry_group_IT_number 40
_symmetry_cell_setting 'orthorhombic'
loop_
_space_group_symop_operation_xyz
x,y,z
-x,-y,z
1/2-x,y,z
1/2+x,-y,z
x,1/2+y,1/2+z
-x,1/2-y,1/2+z
1/2-x,1/2+y,1/2+z
1/2+x,1/2-y,1/2+z
loop_
_atom_site_type_symbol
_atom_site_label
_atom_site_fract_x
_atom_site_fract_y
_atom_site_fract_z
Si Si1 0.536447 0.838153 0.873160
Si Si2 0.991166 0.657362 0.614507
Si Si3 0.360926 0.844777 0.262629
Si Si4 0.358169 0.115483 0.530503
Si Si5 0.864359 0.213482 0.526692
Si Si6 0.356970 0.643672 0.848676
O O1 0.619832 0.795929 0.812952
O O2 0.446049 0.749131 0.838549
O O3 0.500000 0.000000 0.879295
O O4 0.577447 0.778880 0.954238
O O5 0.938369 0.647097 0.695071
O O6 0.926736 0.768434 0.567426
O O7 0.000000 0.500000 0.581031
O O8 0.100008 0.713393 0.604807
O O9 0.250000 0.846360 0.234860
O O10 0.373449 0.986056 0.314928
O O11 0.250000 0.132324 0.562544
O O12 0.353173 0.134802 0.440025
O O13 0.387788 0.952031 0.538340
O O14 0.750000 0.228012 0.512970
O O15 0.250000 0.691233 0.821733
#
# Coordination Sequence:
#
# PCOD9364776 Si02
#       6
#     8   8   8   8   8   8
#     4  12  24  41  67 106 141 177 227 294 354 413
#     4  12  25  42  65 104 141 181 225 294 361 410
#     4  11  25  47  72  97 138 190 237 288 353 424
#     4  10  21  40  68  96 130 179 235 284 335 411
#     4  11  24  42  66  98 137 183 235 287 344 413
#     4  10  21  40  68  97 131 182 235 279 335 417
#
# _framework density 21.039605000000002
#
# number of rings (size 3 to 8) (size 9 to 14) (size 15 to 20)
#    0.000    1.000    3.333    3.500    0.000    4.000 
#    0.000    0.833    0.000    0.000    0.000    0.000 
#    0.000    0.000    0.000    0.000    0.000    0.000 
#
# Total GULP energy -133933.709307 kJ/mol
# GULP energy per Si atom -5580.571221 kJ/mol
# Density = 2.099172 g / cm^3
# Si number density = 21.039605 Si / 1000 Ang^3
#
#
#
# Elastic Constant Matrix: (Units=GPa)
#
#
# Indices 1 2 3 4 5 6 
#
# 1 124.6224 66.9064 40.9381 0.0000 0.0000 0.0000
# 2 66.9064 142.2956 34.9535 0.0000 0.0000 0.0000
# 3 40.9381 34.9535 68.1395 0.0000 0.0000 0.0000
# 4 0.0000 0.0000 0.0000 3.9016 0.0000 0.0000
# 5 0.0000 0.0000 0.0000 0.0000 36.2651 0.0000
# 6 0.0000 0.0000 0.0000 0.0000 0.0000 25.0749
#
#
#
# Elastic Compliance Matrix: (Units=1/GPa)
#
#
# Indices 1 2 3 4 5 6 
#
# 1 0.012036 -0.004443 -0.004952 0.000000 0.000000 0.000000
# 2 -0.004443 0.009681 -0.002297 0.000000 0.000000 0.000000
# 3 -0.004952 -0.002297 0.018829 0.000000 0.000000 0.000000
# 4 0.000000 0.000000 0.000000 0.256305 0.000000 0.000000
# 5 0.000000 0.000000 0.000000 0.000000 0.027575 0.000000
# 6 0.000000 0.000000 0.000000 0.000000 0.000000 0.039881
#
#
# Mechanical properties :
#
#
# Convention : Reuss Voigt Hill
#
# Bulk Modulus (GPa) = 58.26633 68.96149 63.61391
# Shear Modulus (GPa) = 12.70935 25.86561 19.28748
#
# Velocity S-wave (km/s) = 2.46045 3.51005 3.03103
# Velocity P-wave (km/s) = 5.98544 7.01965 6.52307
#
# Compressibility (1/GPa) = 0.01716257
#
# Stress axis : x y z
#
# Youngs Moduli (GPa) = 83.08165 103.29729 53.10885
#
# Poissons Ratio (x) = 0.45894 0.26301
# Poissons Ratio (y) = 0.36912 0.12197
# Poissons Ratio (z) = 0.41145 0.23724
#
# Static dielectric constant tensor:
#      x y z
#    x 1.823450 0.000000 0.000000 
#    y 0.000000 1.784440 0.000000 
#    z 0.000000 0.000000 1.785590 
# 
# From -- ./inp_files/20533.got.cif
#   From: 2010.05.17/outbox.cif.g08.bks.cpg/sg40_11_cif.got.tgz:20533.got - 2010.06.03 18:35:42.
