data_PCOD9364258
_publ_section_title
;
Structure prediction by ZEFSAII (Michael W. Deem and Ramdas Pophale) SiO2 
 PCOD9364258
Probable space group: A M A 2
;
_chemical_formula_sum "Si O2"
_cell_formula_units_Z 64
_cell_length_a 18.145100
_cell_length_b 12.764212
_cell_length_c 15.028183
_cell_angle_alpha 90.000000
_cell_angle_beta 90.000000
_cell_angle_gamma 90.000000
_cell_volume 3480.645953
_symmetry_space_group_name_H-M "A M A 2"
_symmetry_group_IT_number 40
_symmetry_cell_setting 'orthorhombic'
loop_
_space_group_symop_operation_xyz
x,y,z
-x,-y,z
1/2-x,y,z
1/2+x,-y,z
x,1/2+y,1/2+z
-x,1/2-y,1/2+z
1/2-x,1/2+y,1/2+z
1/2+x,1/2-y,1/2+z
loop_
_atom_site_type_symbol
_atom_site_label
_atom_site_fract_x
_atom_site_fract_y
_atom_site_fract_z
Si Si1 0.835263 0.878532 0.701580
Si Si2 0.020345 0.877905 0.003539
Si Si3 0.835976 0.111893 0.392622
Si Si4 0.939999 0.778766 0.173875
Si Si5 0.335508 0.403202 0.103687
Si Si6 0.164891 0.840424 0.097175
Si Si7 0.664196 0.466988 0.733888
Si Si8 0.052993 0.209319 0.826564
O O1 0.750000 0.878088 0.732268
O O2 0.845992 0.771911 0.644680
O O3 0.893301 0.875763 0.781313
O O4 0.846914 0.980813 0.642059
O O5 0.107000 0.859182 0.019027
O O6 0.981534 0.817530 0.085276
O O7 0.000000 0.000000 0.010679
O O8 0.991070 0.834456 0.910473
O O9 0.750000 0.142606 0.375697
O O10 0.845617 0.095745 0.497336
O O11 0.892147 0.199240 0.358884
O O12 0.848610 0.008256 0.333859
O O13 0.889992 0.679412 0.148441
O O14 0.888608 0.873628 0.206580
O O15 0.997692 0.750112 0.250839
O O16 0.250000 0.373624 0.120831
O O17 0.250000 0.846271 0.068519
O O18 0.152322 0.932123 0.170020
O O19 0.750000 0.436537 0.724773
#
# Coordination Sequence:
#
# PCOD9364258 Si02
#       8
#     8   8   8   8   8   8   8   8
#     4  10  21  41  67  91 123 170 216 258 316 386
#     4  12  25  43  63  98 131 166 215 264 318 379
#     4  10  20  40  66  95 121 158 222 270 312 381
#     4  12  24  42  63  92 136 166 208 266 327 381
#     4  10  23  42  64  92 127 168 214 269 323 378
#     4  10  20  40  67  93 123 168 215 258 314 380
#     4  10  20  38  67  96 124 166 215 270 322 377
#     4  12  25  40  64  94 129 172 209 263 319 379
#
# _framework density 18.387391000000001
#
# number of rings (size 3 to 8) (size 9 to 14) (size 15 to 20)
#    0.000    1.250    5.000    0.750    1.750    1.000 
#    0.000    5.000    0.000    0.000    0.000    0.000 
#    0.000    0.000    0.000    0.000    0.000    0.000 
#
# Total GULP energy -178810.648171 kJ/mol
# GULP energy per Si atom -5587.832755 kJ/mol
# Density = 1.834554 g / cm^3
# Si number density = 18.387391 Si / 1000 Ang^3
#
#
#
# Elastic Constant Matrix: (Units=GPa)
#
#
# Indices 1 2 3 4 5 6 
#
# 1 132.1716 76.8423 91.7237 0.0000 0.0000 0.0000
# 2 76.8423 107.4091 61.4442 0.0000 0.0000 0.0000
# 3 91.7237 61.4442 137.0687 0.0000 0.0000 0.0000
# 4 0.0000 0.0000 0.0000 28.7107 0.0000 0.0000
# 5 0.0000 0.0000 0.0000 0.0000 -21.5075 0.0000
# 6 0.0000 0.0000 0.0000 0.0000 0.0000 -40.6488
#
#
#
# Elastic Compliance Matrix: (Units=1/GPa)
#
#
# Indices 1 2 3 4 5 6 
#
# 1 0.018244 -0.008161 -0.008550 0.000000 0.000000 0.000000
# 2 -0.008161 0.016172 -0.001788 0.000000 0.000000 0.000000
# 3 -0.008550 -0.001788 0.013819 0.000000 0.000000 0.000000
# 4 0.000000 0.000000 0.000000 0.034830 0.000000 0.000000
# 5 0.000000 0.000000 0.000000 0.000000 -0.046495 0.000000
# 6 0.000000 0.000000 0.000000 0.000000 0.000000 -0.024601
#
#
# Mechanical properties :
#
#
# Convention : Reuss Voigt Hill
#
# Bulk Modulus (GPa) = 89.00071 92.96332 90.98201
# Shear Modulus (GPa) = 94.85299 3.08682 48.96991
#
# Velocity S-wave (km/s) = 7.19012 1.29708 5.16625
# Velocity P-wave (km/s) = 10.83691 7.27401 9.22903
#
# Compressibility (1/GPa) = 0.01123587
#
# Stress axis : x y z
#
# Youngs Moduli (GPa) = 54.81145 61.83671 72.36443
#
# Poissons Ratio (x) = 0.50465 0.61875
# Poissons Ratio (y) = 0.44732 0.12940
# Poissons Ratio (z) = 0.46866 0.11057
#
# Static dielectric constant tensor:
#      x y z
#    x 1.668150 0.000000 0.000000 
#    y 0.000000 1.604160 0.000000 
#    z 0.000000 0.000000 1.614080 
# 
# From -- ./inp_files/17894.got.cif
#   From: 2010.05.17/outbox.cif.g08.bks.cpg/sg40_9_cif.got.tgz:17894.got - 2010.06.03 18:35:42.
