data_PCOD9364471
_publ_section_title
;
Structure prediction by ZEFSAII (Michael W. Deem and Ramdas Pophale) SiO2 
 PCOD9364471
Probable space group: A M A 2
;
_chemical_formula_sum "Si O2"
_cell_formula_units_Z 36
_cell_length_a 10.253732
_cell_length_b 19.322617
_cell_length_c 9.229642
_cell_angle_alpha 90.000000
_cell_angle_beta 90.000000
_cell_angle_gamma 90.000000
_cell_volume 1828.659151
_symmetry_space_group_name_H-M "A M A 2"
_symmetry_group_IT_number 40
_symmetry_cell_setting 'orthorhombic'
loop_
_space_group_symop_operation_xyz
x,y,z
-x,-y,z
1/2-x,y,z
1/2+x,-y,z
x,1/2+y,1/2+z
-x,1/2-y,1/2+z
1/2-x,1/2+y,1/2+z
1/2+x,1/2-y,1/2+z
loop_
_atom_site_type_symbol
_atom_site_label
_atom_site_fract_x
_atom_site_fract_y
_atom_site_fract_z
Si Si1 0.400840 0.289309 0.753920
Si Si2 0.000000 0.000000 0.284981
Si Si3 0.900272 0.881787 0.081870
Si Si4 0.400360 0.123382 0.752485
Si Si5 0.897079 0.607687 0.005769
O O1 0.250000 0.307167 0.717576
O O2 0.500953 0.324385 0.643145
O O3 0.411865 0.206979 0.756175
O O4 0.426180 0.323035 0.911915
O O5 0.919210 0.948002 0.184298
O O6 0.089012 0.953211 0.388465
O O7 0.750000 0.857336 0.086698
O O8 0.929550 0.900486 0.915612
O O9 0.250000 0.105767 0.716934
O O10 0.499350 0.097162 0.632146
O O11 0.750000 0.611746 0.062087
#
# Coordination Sequence:
#
# PCOD9364471 Si02
#       5
#     8   4   8   8   8
#     4   9  19  36  57  84 117 147 178 220 272 329
#     4  10  22  40  58  78 106 146 192 232 274 324
#     4  10  21  38  60  82 109 147 187 227 271 325
#     4  10  21  36  56  86 117 143 178 226 277 327
#     4  10  21  37  58  82 111 147 185 227 272 324
#
# _framework density 19.686556
#
# number of rings (size 3 to 8) (size 9 to 14) (size 15 to 20)
#    0.000    2.222    0.000    2.000    0.000    9.778 
#    0.000    2.222    0.000    0.000    0.000    0.000 
#    0.000    0.000    0.000    0.000    0.000    0.000 
#
# Total GULP energy -100538.563094 kJ/mol
# GULP energy per Si atom -5585.475727 kJ/mol
# Density = 1.964175 g / cm^3
# Si number density = 19.686556 Si / 1000 Ang^3
#
#
#
# Elastic Constant Matrix: (Units=GPa)
#
#
# Indices 1 2 3 4 5 6 
#
# 1 97.5099 10.7061 90.4962 0.0000 0.0000 0.0000
# 2 10.7061 45.8500 27.3298 0.0000 0.0000 0.0000
# 3 90.4962 27.3298 141.9168 0.0000 0.0000 0.0000
# 4 0.0000 0.0000 0.0000 1.0858 0.0000 0.0000
# 5 0.0000 0.0000 0.0000 0.0000 -9.4689 0.0000
# 6 0.0000 0.0000 0.0000 0.0000 0.0000 -4.3589
#
#
#
# Elastic Compliance Matrix: (Units=1/GPa)
#
#
# Indices 1 2 3 4 5 6 
#
# 1 0.025846 0.004280 -0.017306 0.000000 0.000000 0.000000
# 2 0.004280 0.025347 -0.007611 0.000000 0.000000 0.000000
# 3 -0.017306 -0.007611 0.019547 0.000000 0.000000 0.000000
# 4 0.000000 0.000000 0.000000 0.920977 0.000000 0.000000
# 5 0.000000 0.000000 0.000000 0.000000 -0.105609 0.000000
# 6 0.000000 0.000000 0.000000 0.000000 0.000000 -0.229415
#
#
# Mechanical properties :
#
#
# Convention : Reuss Voigt Hill
#
# Bulk Modulus (GPa) = 33.93428 60.26011 47.09720
# Shear Modulus (GPa) = 7.06425 7.90123 7.48274
#
# Velocity S-wave (km/s) = 1.89635 2.00555 1.95171
# Velocity P-wave (km/s) = 4.69783 6.00327 5.39021
#
# Compressibility (1/GPa) = 0.02946872
#
# Stress axis : x y z
#
# Youngs Moduli (GPa) = 38.68997 39.45188 51.15755
#
# Poissons Ratio (x) = -0.16886 0.88532
# Poissons Ratio (y) = -0.16560 0.38934
# Poissons Ratio (z) = 0.66956 0.30026
#
# Static dielectric constant tensor:
#      x y z
#    x 1.672350 0.000000 0.000000 
#    y 0.000000 1.705620 0.000000 
#    z 0.000000 0.000000 1.672190 
# 
# From -- ./inp_files/4118.got.cif
#   From: 2010.05.17/outbox.cif.g08.bks.cpg/sg40_3_cif.got.tgz:4118.got - 2010.06.03 18:35:42.
