data_PCOD9364783
_publ_section_title
;
Structure prediction by ZEFSAII (Michael W. Deem and Ramdas Pophale) SiO2 
 PCOD9364783
Probable space group: A M A 2
;
_chemical_formula_sum "Si O2"
_cell_formula_units_Z 40
_cell_length_a 18.495928
_cell_length_b 7.389324
_cell_length_c 11.466949
_cell_angle_alpha 90.000000
_cell_angle_beta 90.000000
_cell_angle_gamma 90.000000
_cell_volume 1567.215494
_symmetry_space_group_name_H-M "A M A 2"
_symmetry_group_IT_number 40
_symmetry_cell_setting 'orthorhombic'
loop_
_space_group_symop_operation_xyz
x,y,z
-x,-y,z
1/2-x,y,z
1/2+x,-y,z
x,1/2+y,1/2+z
-x,1/2-y,1/2+z
1/2-x,1/2+y,1/2+z
1/2+x,1/2-y,1/2+z
loop_
_atom_site_type_symbol
_atom_site_label
_atom_site_fract_x
_atom_site_fract_y
_atom_site_fract_z
Si Si1 0.329831 0.491738 0.701660
Si Si2 0.668469 0.439495 0.208914
Si Si3 0.172728 0.378836 0.457717
Si Si4 0.450135 0.272589 0.194869
Si Si5 0.520898 0.291122 0.947125
O O1 0.250000 0.539807 0.748382
O O2 0.328900 0.519544 0.562873
O O3 0.395825 0.614303 0.737840
O O4 0.339843 0.276577 0.713003
O O5 0.750000 0.481542 0.161433
O O6 0.669781 0.511800 0.340077
O O7 0.600108 0.553666 0.162573
O O8 0.250000 0.283084 0.466710
O O9 0.105425 0.248009 0.466723
O O10 0.495726 0.295076 0.316973
O O11 0.486795 0.221969 0.071093
O O12 0.500000 0.500000 0.938913
#
# Coordination Sequence:
#
# PCOD9364783 Si02
#       5
#     8   8   8   8   8
#     4  10  21  40  73 110 140 184 248 305 366 440
#     4   9  19  41  71 106 146 190 243 308 371 434
#     4   9  20  41  69 102 142 189 245 311 371 433
#     4  11  25  46  71 106 152 194 247 304 369 444
#     4  11  26  47  71 108 150 197 251 303 374 450
#
# _framework density 25.522974999999999
#
# number of rings (size 3 to 8) (size 9 to 14) (size 15 to 20)
#    0.000    2.000    0.000    1.800    2.800    2.400 
#    7.200    5.000    0.000   10.800    0.000    0.000 
#    0.000    0.000    0.000    0.000    0.000    0.000 
#
# Total GULP energy -111703.976392 kJ/mol
# GULP energy per Si atom -5585.198820 kJ/mol
# Density = 2.546488 g / cm^3
# Si number density = 25.522975 Si / 1000 Ang^3
#
#
#
# Elastic Constant Matrix: (Units=GPa)
#
#
# Indices 1 2 3 4 5 6 
#
# 1 150.5373 43.0179 54.8360 0.0000 0.0000 0.0000
# 2 43.0179 90.3166 19.8965 0.0000 0.0000 0.0000
# 3 54.8360 19.8965 163.0715 0.0000 0.0000 0.0000
# 4 0.0000 0.0000 0.0000 39.7377 0.0000 0.0000
# 5 0.0000 0.0000 0.0000 0.0000 15.3252 0.0000
# 6 0.0000 0.0000 0.0000 0.0000 0.0000 133.6536
#
#
#
# Elastic Compliance Matrix: (Units=1/GPa)
#
#
# Indices 1 2 3 4 5 6 
#
# 1 0.008541 -0.003530 -0.002441 0.000000 0.000000 0.000000
# 2 -0.003530 0.012837 -0.000379 0.000000 0.000000 0.000000
# 3 -0.002441 -0.000379 0.006999 0.000000 0.000000 0.000000
# 4 0.000000 0.000000 0.000000 0.025165 0.000000 0.000000
# 5 0.000000 0.000000 0.000000 0.000000 0.065252 0.000000
# 6 0.000000 0.000000 0.000000 0.000000 0.000000 0.007482
#
#
# Mechanical properties :
#
#
# Convention : Reuss Voigt Hill
#
# Bulk Modulus (GPa) = 63.79132 71.04736 67.41934
# Shear Modulus (GPa) = 34.67319 56.82165 45.74742
#
# Velocity S-wave (km/s) = 3.68979 4.72348 4.23827
# Velocity P-wave (km/s) = 6.57273 7.59246 7.10092
#
# Compressibility (1/GPa) = 0.01567611
#
# Stress axis : x y z
#
# Youngs Moduli (GPa) = 117.08237 77.89887 142.86759
#
# Poissons Ratio (x) = 0.27500 0.34879
# Poissons Ratio (y) = 0.41333 0.05417
# Poissons Ratio (z) = 0.28584 0.02954
#
# Static dielectric constant tensor:
#      x y z
#    x 2.113970 0.000000 0.000000 
#    y 0.000000 1.983300 0.000000 
#    z 0.000000 0.000000 2.075020 
# 
# From -- ./inp_files/7293.got.cif
#   From: 2010.05.17/outbox.cif.g08.bks.cpg/sg40_4_cif.got.tgz:7293.got - 2010.06.03 18:35:42.
