data_PCOD9364372
_publ_section_title
;
Structure prediction by ZEFSAII (Michael W. Deem and Ramdas Pophale) SiO2 
 PCOD9364372
Probable space group: A M A 2
;
_chemical_formula_sum "Si O2"
_cell_formula_units_Z 48
_cell_length_a 15.972340
_cell_length_b 12.973487
_cell_length_c 9.830294
_cell_angle_alpha 90.000000
_cell_angle_beta 90.000000
_cell_angle_gamma 90.000000
_cell_volume 2037.003495
_symmetry_space_group_name_H-M "A M A 2"
_symmetry_group_IT_number 40
_symmetry_cell_setting 'orthorhombic'
loop_
_space_group_symop_operation_xyz
x,y,z
-x,-y,z
1/2-x,y,z
1/2+x,-y,z
x,1/2+y,1/2+z
-x,1/2-y,1/2+z
1/2-x,1/2+y,1/2+z
1/2+x,1/2-y,1/2+z
loop_
_atom_site_type_symbol
_atom_site_label
_atom_site_fract_x
_atom_site_fract_y
_atom_site_fract_z
Si Si1 0.009307 0.892278 0.799730
Si Si2 0.654505 0.774441 0.901944
Si Si3 0.426098 0.370862 0.596005
Si Si4 0.905042 0.041371 0.369721
Si Si5 0.398169 0.705529 0.689145
Si Si6 0.843912 0.340520 0.991922
O O1 0.918332 0.843413 0.832915
O O2 0.065042 0.819256 0.708523
O O3 0.000000 0.000000 0.728092
O O4 0.058274 0.910361 0.943194
O O5 0.750000 0.774832 0.847941
O O6 0.614653 0.659717 0.906466
O O7 0.657346 0.808495 0.058308
O O8 0.380198 0.445555 0.705791
O O9 0.517272 0.358357 0.662972
O O10 0.392532 0.253020 0.569689
O O11 0.862200 0.963012 0.477337
O O12 0.000000 0.000000 0.377247
O O13 0.355873 0.683502 0.831814
O O14 0.750000 0.328147 0.038113
#
# Coordination Sequence:
#
# PCOD9364372 Si02
#       6
#     8   8   8   8   8   8
#     4  10  21  39  65  92 123 171 232 267 331 423
#     4  11  24  41  63  97 135 170 220 292 355 405
#     4  10  21  40  64  94 126 172 228 278 327 415
#     4  12  21  42  71  96 130 183 234 271 342 430
#     4  10  20  42  62  87 124 175 220 271 335 427
#     4  11  24  39  62  98 133 168 223 289 346 400
#
# _framework density 23.564024
#
# number of rings (size 3 to 8) (size 9 to 14) (size 15 to 20)
#    0.000    1.333    3.333    3.500    2.333    3.333 
#    0.000    4.167    0.000    0.000    0.000    0.000 
#    0.000    0.000    0.000    0.000    0.000    0.000 
#
# Total GULP energy -133732.411490 kJ/mol
# GULP energy per Si atom -5572.183812 kJ/mol
# Density = 2.351039 g / cm^3
# Si number density = 23.564024 Si / 1000 Ang^3
#
#
#
# Elastic Constant Matrix: (Units=GPa)
#
#
# Indices 1 2 3 4 5 6 
#
# 1 96.6948 22.7915 23.0822 0.0000 0.0000 0.0000
# 2 22.7915 117.1187 -6.4228 0.0000 0.0000 0.0000
# 3 23.0822 -6.4228 100.6305 0.0000 0.0000 0.0000
# 4 0.0000 0.0000 0.0000 9.2266 0.0000 0.0000
# 5 0.0000 0.0000 0.0000 0.0000 15.8392 0.0000
# 6 0.0000 0.0000 0.0000 0.0000 0.0000 18.6684
#
#
#
# Elastic Compliance Matrix: (Units=1/GPa)
#
#
# Indices 1 2 3 4 5 6 
#
# 1 0.011580 -0.002408 -0.002810 0.000000 0.000000 0.000000
# 2 -0.002408 0.009069 0.001131 0.000000 0.000000 0.000000
# 3 -0.002810 0.001131 0.010654 0.000000 0.000000 0.000000
# 4 0.000000 0.000000 0.000000 0.108382 0.000000 0.000000
# 5 0.000000 0.000000 0.000000 0.000000 0.063134 0.000000
# 6 0.000000 0.000000 0.000000 0.000000 0.000000 0.053566
#
#
# Mechanical properties :
#
#
# Convention : Reuss Voigt Hill
#
# Bulk Modulus (GPa) = 43.23342 43.70508 43.46925
# Shear Modulus (GPa) = 18.36423 27.07973 22.72198
#
# Velocity S-wave (km/s) = 2.79468 3.39366 3.10863
# Velocity P-wave (km/s) = 5.36663 5.82611 5.60108
#
# Compressibility (1/GPa) = 0.02313026
#
# Stress axis : x y z
#
# Youngs Moduli (GPa) = 86.35544 110.26702 93.86109
#
# Poissons Ratio (x) = 0.26548 0.26374
# Poissons Ratio (y) = 0.20791 -0.10616
# Poissons Ratio (z) = 0.24265 -0.12472
#
# Static dielectric constant tensor:
#      x y z
#    x 1.901580 0.000000 0.000000 
#    y 0.000000 2.000460 0.000000 
#    z 0.000000 0.000000 1.953180 
# 
# From -- ./inp_files/12896.got.cif
#   From: 2010.05.17/outbox.cif.g08.bks.cpg/sg40_7_cif.got.tgz:12896.got - 2010.06.03 18:35:42.
