data_PCOD9364867
_publ_section_title
;
Structure prediction by ZEFSAII (Michael W. Deem and Ramdas Pophale) SiO2 
 PCOD9364867
Probable space group: A M A 2
;
_chemical_formula_sum "Si O2"
_cell_formula_units_Z 40
_cell_length_a 18.493559
_cell_length_b 6.978296
_cell_length_c 12.552799
_cell_angle_alpha 90.000000
_cell_angle_beta 90.000000
_cell_angle_gamma 90.000000
_cell_volume 1619.983007
_symmetry_space_group_name_H-M "A M A 2"
_symmetry_group_IT_number 40
_symmetry_cell_setting 'orthorhombic'
loop_
_space_group_symop_operation_xyz
x,y,z
-x,-y,z
1/2-x,y,z
1/2+x,-y,z
x,1/2+y,1/2+z
-x,1/2-y,1/2+z
1/2-x,1/2+y,1/2+z
1/2+x,1/2-y,1/2+z
loop_
_atom_site_type_symbol
_atom_site_label
_atom_site_fract_x
_atom_site_fract_y
_atom_site_fract_z
Si Si1 0.038822 0.805607 0.009230
Si Si2 0.100554 0.847326 0.388230
Si Si3 0.170077 0.544048 0.513577
Si Si4 0.919622 0.447242 0.209273
Si Si5 0.334810 0.165198 0.251132
O O1 0.120562 0.054384 0.342948
O O2 0.066157 0.650922 0.094776
O O3 0.109741 0.907870 0.962449
O O4 0.000000 0.000000 0.057899
O O5 0.021567 0.795668 0.436267
O O6 0.111285 0.712528 0.286240
O O7 0.155115 0.760727 0.475111
O O8 0.250000 0.484520 0.483027
O O9 0.162704 0.542644 0.640986
O O10 0.000000 0.500000 0.248641
O O11 0.871290 0.635235 0.216877
O O12 0.250000 0.184744 0.278883
#
# Coordination Sequence:
#
# PCOD9364867 Si02
#       5
#     8   8   8   8   8
#     4  10  22  46  74 115 156 208 274 331 404 491
#     4  11  24  48  76 109 159 208 266 339 407 489
#     4  10  21  45  75 108 157 213 270 337 413 492
#     4  12  25  45  74 111 151 205 265 335 403 485
#     4  11  26  49  76 113 158 216 275 333 418 496
#
# _framework density 24.691616
#
# number of rings (size 3 to 8) (size 9 to 14) (size 15 to 20)
#    0.000    1.200    2.000    4.800    0.000    2.400 
#   28.800    0.000    0.000    0.000    0.000    0.000 
#    0.000    0.000    0.000    0.000    0.000    0.000 
#
# Total GULP energy -111924.791151 kJ/mol
# GULP energy per Si atom -5596.239558 kJ/mol
# Density = 2.463542 g / cm^3
# Si number density = 24.691616 Si / 1000 Ang^3
#
#
#
# Elastic Constant Matrix: (Units=GPa)
#
#
# Indices 1 2 3 4 5 6 
#
# 1 189.1790 71.1098 40.9477 0.0000 0.0000 0.0000
# 2 71.1098 183.6760 61.3613 0.0000 0.0000 0.0000
# 3 40.9477 61.3613 121.5973 0.0000 0.0000 0.0000
# 4 0.0000 0.0000 0.0000 54.2392 0.0000 0.0000
# 5 0.0000 0.0000 0.0000 0.0000 26.2754 0.0000
# 6 0.0000 0.0000 0.0000 0.0000 0.0000 23.3672
#
#
#
# Elastic Compliance Matrix: (Units=1/GPa)
#
#
# Indices 1 2 3 4 5 6 
#
# 1 0.006300 -0.002081 -0.001071 0.000000 0.000000 0.000000
# 2 -0.002081 0.007236 -0.002951 0.000000 0.000000 0.000000
# 3 -0.001071 -0.002951 0.010074 0.000000 0.000000 0.000000
# 4 0.000000 0.000000 0.000000 0.018437 0.000000 0.000000
# 5 0.000000 0.000000 0.000000 0.000000 0.038058 0.000000
# 6 0.000000 0.000000 0.000000 0.000000 0.000000 0.042795
#
#
# Mechanical properties :
#
#
# Convention : Reuss Voigt Hill
#
# Bulk Modulus (GPa) = 87.69334 93.47667 90.58500
# Shear Modulus (GPa) = 35.99530 42.17861 39.08696
#
# Velocity S-wave (km/s) = 3.82225 4.13754 3.98302
# Velocity P-wave (km/s) = 7.42105 7.79522 7.61044
#
# Compressibility (1/GPa) = 0.01140338
#
# Stress axis : x y z
#
# Youngs Moduli (GPa) = 158.72554 138.20183 99.26979
#
# Poissons Ratio (x) = 0.28762 0.10635
# Poissons Ratio (y) = 0.33034 0.29290
# Poissons Ratio (z) = 0.17005 0.40777
#
# Static dielectric constant tensor:
#      x y z
#    x 1.938540 0.000000 0.000000 
#    y 0.000000 1.995600 0.000000 
#    z 0.000000 0.000000 2.009490 
# 
# From -- ./inp_files/17469.got.cif
#   From: 2010.05.17/outbox.cif.g08.bks.cpg/sg40_9_cif.got.tgz:17469.got - 2010.06.03 18:35:42.
