data_PCOD9364919
_publ_section_title
;
Structure prediction by ZEFSAII (Michael W. Deem and Ramdas Pophale) SiO2 
 PCOD9364919
Probable space group: A M A 2
;
_chemical_formula_sum "Si O2"
_cell_formula_units_Z 64
_cell_length_a 17.915816
_cell_length_b 29.032535
_cell_length_c 5.889133
_cell_angle_alpha 90.000000
_cell_angle_beta 90.000000
_cell_angle_gamma 90.000000
_cell_volume 3063.182797
_symmetry_space_group_name_H-M "A M A 2"
_symmetry_group_IT_number 40
_symmetry_cell_setting 'orthorhombic'
loop_
_space_group_symop_operation_xyz
x,y,z
-x,-y,z
1/2-x,y,z
1/2+x,-y,z
x,1/2+y,1/2+z
-x,1/2-y,1/2+z
1/2-x,1/2+y,1/2+z
1/2+x,1/2-y,1/2+z
loop_
_atom_site_type_symbol
_atom_site_label
_atom_site_fract_x
_atom_site_fract_y
_atom_site_fract_z
Si Si1 0.577138 0.986559 0.508300
Si Si2 0.456623 0.251424 0.279487
Si Si3 0.837551 0.669085 0.337996
Si Si4 0.067863 0.155405 0.451279
Si Si5 0.046453 0.597332 0.339550
Si Si6 0.337289 0.928291 0.570410
Si Si7 0.423268 0.881881 0.188613
Si Si8 0.836591 0.419336 0.721973
O O1 0.549522 0.943963 0.661483
O O2 0.637039 0.966875 0.333876
O O3 0.500000 0.000000 0.386242
O O4 0.616005 0.027268 0.650150
O O5 0.503609 0.255615 0.526779
O O6 0.396849 0.292782 0.255314
O O7 0.414861 0.204183 0.343971
O O8 0.750000 0.682765 0.332541
O O9 0.843659 0.620528 0.201516
O O10 0.866611 0.655811 0.589435
O O11 0.053458 0.147093 0.717314
O O12 0.133866 0.120637 0.388540
O O13 0.988911 0.139503 0.342496
O O14 0.116928 0.589615 0.497284
O O15 0.971794 0.596696 0.486035
O O16 0.250000 0.939351 0.559894
O O17 0.374834 0.918017 0.327337
O O18 0.750000 0.417971 0.685481
#
# Coordination Sequence:
#
# PCOD9364919 Si02
#       8
#     8   8   8   8   8   8   8   8
#     4  11  22  40  62  92 125 170 223 283 335 415
#     4  12  25  45  76 107 142 188 242 298 357 432
#     4  11  25  43  66  99 137 180 228 289 356 422
#     4  10  22  40  68  95 128 173 224 281 339 416
#     4  10  22  38  66  94 127 171 225 277 342 419
#     4  11  24  40  62  92 133 176 217 275 347 420
#     4  11  19  41  63  90 127 168 218 270 334 403
#     4  10  23  41  63  93 131 172 220 282 353 417
#
# _framework density 20.893301000000001
#
# number of rings (size 3 to 8) (size 9 to 14) (size 15 to 20)
#    0.000    1.250    1.250    6.000    1.750    5.500 
#    0.000    2.500    0.000    0.000    0.000    0.000 
#    0.000    0.000    0.000    0.000    0.000    0.000 
#
# Total GULP energy -178462.482782 kJ/mol
# GULP energy per Si atom -5576.952587 kJ/mol
# Density = 2.084575 g / cm^3
# Si number density = 20.893301 Si / 1000 Ang^3
#
#
#
# Elastic Constant Matrix: (Units=GPa)
#
#
# Indices 1 2 3 4 5 6 
#
# 1 161.2532 37.9980 32.8010 0.0000 0.0000 0.0000
# 2 37.9980 80.4582 5.2956 0.0000 0.0000 0.0000
# 3 32.8010 5.2956 69.3888 0.0000 0.0000 0.0000
# 4 0.0000 0.0000 0.0000 -96.3174 0.0000 0.0000
# 5 0.0000 0.0000 0.0000 0.0000 4.2706 0.0000
# 6 0.0000 0.0000 0.0000 0.0000 0.0000 32.5803
#
#
#
# Elastic Compliance Matrix: (Units=1/GPa)
#
#
# Indices 1 2 3 4 5 6 
#
# 1 0.007692 -0.003410 -0.003376 0.000000 0.000000 0.000000
# 2 -0.003410 0.014004 0.000543 0.000000 0.000000 0.000000
# 3 -0.003376 0.000543 0.015966 0.000000 0.000000 0.000000
# 4 0.000000 0.000000 0.000000 -0.010382 0.000000 0.000000
# 5 0.000000 0.000000 0.000000 0.000000 0.234158 0.000000
# 6 0.000000 0.000000 0.000000 0.000000 0.000000 0.030693
#
#
# Mechanical properties :
#
#
# Convention : Reuss Voigt Hill
#
# Bulk Modulus (GPa) = 39.72063 51.47659 45.59861
# Shear Modulus (GPa) = 15.97403 3.77374 9.87389
#
# Velocity S-wave (km/s) = 2.76805 1.34541 2.17626
# Velocity P-wave (km/s) = 5.41005 5.20623 5.30912
#
# Compressibility (1/GPa) = 0.02517583
#
# Stress axis : x y z
#
# Youngs Moduli (GPa) = 130.00995 71.40991 62.63383
#
# Poissons Ratio (x) = 0.24353 0.21143
# Poissons Ratio (y) = 0.44338 -0.03404
# Poissons Ratio (z) = 0.43888 -0.03880
#
# Static dielectric constant tensor:
#      x y z
#    x 1.708440 0.000000 0.000000 
#    y 0.000000 1.826450 0.000000 
#    z 0.000000 0.000000 1.833760 
# 
# From -- ./inp_files/2021.got.cif
#   From: 2010.05.17/outbox.cif.g08.bks.cpg/sg40_2_cif.got.tgz:2021.got - 2010.06.03 18:35:42.
