data_PCOD9364003
_publ_section_title
;
Structure prediction by ZEFSAII (Michael W. Deem and Ramdas Pophale) SiO2 
 PCOD9364003
Probable space group: A M A 2
;
_chemical_formula_sum "Si O2"
_cell_formula_units_Z 64
_cell_length_a 8.984112
_cell_length_b 27.522141
_cell_length_c 12.599804
_cell_angle_alpha 90.000000
_cell_angle_beta 90.000000
_cell_angle_gamma 90.000000
_cell_volume 3115.452702
_symmetry_space_group_name_H-M "A M A 2"
_symmetry_group_IT_number 40
_symmetry_cell_setting 'orthorhombic'
loop_
_space_group_symop_operation_xyz
x,y,z
-x,-y,z
1/2-x,y,z
1/2+x,-y,z
x,1/2+y,1/2+z
-x,1/2-y,1/2+z
1/2-x,1/2+y,1/2+z
1/2+x,1/2-y,1/2+z
loop_
_atom_site_type_symbol
_atom_site_label
_atom_site_fract_x
_atom_site_fract_y
_atom_site_fract_z
Si Si1 0.917630 0.567591 0.295440
Si Si2 0.577025 0.303469 0.466758
Si Si3 0.926966 0.290128 0.038357
Si Si4 0.423316 0.045834 0.575442
Si Si5 0.574464 0.918360 0.011123
Si Si6 0.924581 0.875489 0.394208
Si Si7 0.917599 0.682605 0.254998
Si Si8 0.072343 0.448373 0.731170
O O1 0.750000 0.547719 0.303245
O O2 0.906930 0.625642 0.280839
O O3 0.998970 0.551576 0.188685
O O4 0.010317 0.559396 0.402274
O O5 0.750000 0.291001 0.482092
O O6 0.472457 0.265810 0.527231
O O7 0.557068 0.359622 0.500980
O O8 0.529181 0.297934 0.344150
O O9 0.750000 0.296205 0.053497
O O10 0.967169 0.321434 0.932815
O O11 0.016001 0.310167 0.139034
O O12 0.250000 0.036380 0.590346
O O13 0.438922 0.092632 0.501602
O O14 0.500000 0.000000 0.520242
O O15 0.750000 0.928801 0.022232
O O16 0.485205 0.937228 0.112415
O O17 0.750000 0.875519 0.362425
O O18 0.016712 0.904039 0.305552
O O19 0.750000 0.703409 0.263931
O O20 0.250000 0.452147 0.734843
O O21 0.000000 0.500000 0.763739
#
# Coordination Sequence:
#
# PCOD9364003 Si02
#       8
#     8   8   8   8   8   8   8   8
#     4  10  20  36  60  89 119 153 196 247 305 366
#     4  10  22  39  61  91 125 165 210 261 319 378
#     4  11  22  38  62  91 125 165 211 262 316 378
#     4  11  22  37  58  87 121 156 198 245 303 364
#     4  10  22  42  66  90 124 164 208 260 315 375
#     4  10  23  42  63  89 123 164 210 260 314 374
#     4  10  20  36  59  85 118 157 198 249 307 370
#     4  12  26  44  68  94 126 168 216 268 326 389
#
# _framework density 20.542760000000001
#
# number of rings (size 3 to 8) (size 9 to 14) (size 15 to 20)
#    0.000    1.500    1.250    3.750    0.000    7.000 
#    0.000    3.750    0.000    0.000    0.000    0.000 
#    0.000    0.000    0.000    0.000    0.000    0.000 
#
# Total GULP energy -178824.617968 kJ/mol
# GULP energy per Si atom -5588.269312 kJ/mol
# Density = 2.049600 g / cm^3
# Si number density = 20.542760 Si / 1000 Ang^3
#
#
#
# Elastic Constant Matrix: (Units=GPa)
#
#
# Indices 1 2 3 4 5 6 
#
# 1 113.5632 21.1456 35.8358 0.0000 0.0000 0.0000
# 2 21.1456 40.2887 -0.2874 0.0000 0.0000 0.0000
# 3 35.8358 -0.2874 85.9693 0.0000 0.0000 0.0000
# 4 0.0000 0.0000 0.0000 13.0225 0.0000 0.0000
# 5 0.0000 0.0000 0.0000 0.0000 34.0995 0.0000
# 6 0.0000 0.0000 0.0000 0.0000 0.0000 -10.4972
#
#
#
# Elastic Compliance Matrix: (Units=1/GPa)
#
#
# Indices 1 2 3 4 5 6 
#
# 1 0.011442 -0.006039 -0.004790 0.000000 0.000000 0.000000
# 2 -0.006039 0.028009 0.002611 0.000000 0.000000 0.000000
# 3 -0.004790 0.002611 0.013637 0.000000 0.000000 0.000000
# 4 0.000000 0.000000 0.000000 0.076790 0.000000 0.000000
# 5 0.000000 0.000000 0.000000 0.000000 0.029326 0.000000
# 6 0.000000 0.000000 0.000000 0.000000 0.000000 -0.095263
#
#
# Mechanical properties :
#
#
# Convention : Reuss Voigt Hill
#
# Bulk Modulus (GPa) = 27.28322 39.24544 33.26433
# Shear Modulus (GPa) = 53.99915 19.53343 36.76629
#
# Velocity S-wave (km/s) = 5.13257 3.08696 4.23513
# Velocity P-wave (km/s) = 6.95948 5.64371 6.33585
#
# Compressibility (1/GPa) = 0.03665257
#
# Stress axis : x y z
#
# Youngs Moduli (GPa) = 87.40061 35.70253 73.32843
#
# Poissons Ratio (x) = 0.21562 0.35121
# Poissons Ratio (y) = 0.52784 -0.19147
# Poissons Ratio (z) = 0.41861 -0.09322
#
# Static dielectric constant tensor:
#      x y z
#    x 1.698050 0.000000 0.000000 
#    y 0.000000 1.741650 0.000000 
#    z 0.000000 0.000000 1.706940 
# 
# From -- ./inp_files/10704.got.cif
#   From: 2010.05.17/outbox.cif.g08.bks.cpg/sg40_6_cif.got.tgz:10704.got - 2010.06.03 18:35:42.
