data_PCOD9364600
_publ_section_title
;
Structure prediction by ZEFSAII (Michael W. Deem and Ramdas Pophale) SiO2 
 PCOD9364600
Probable space group: A M A 2
;
_chemical_formula_sum "Si O2"
_cell_formula_units_Z 48
_cell_length_a 8.612711
_cell_length_b 9.247299
_cell_length_c 31.235334
_cell_angle_alpha 90.000000
_cell_angle_beta 90.000000
_cell_angle_gamma 90.000000
_cell_volume 2487.716743
_symmetry_space_group_name_H-M "A M A 2"
_symmetry_group_IT_number 40
_symmetry_cell_setting 'orthorhombic'
loop_
_space_group_symop_operation_xyz
x,y,z
-x,-y,z
1/2-x,y,z
1/2+x,-y,z
x,1/2+y,1/2+z
-x,1/2-y,1/2+z
1/2-x,1/2+y,1/2+z
1/2+x,1/2-y,1/2+z
loop_
_atom_site_type_symbol
_atom_site_label
_atom_site_fract_x
_atom_site_fract_y
_atom_site_fract_z
Si Si1 0.564392 0.662479 0.642350
Si Si2 0.064080 0.337459 0.061138
Si Si3 0.063916 0.838066 0.722763
Si Si4 0.935642 0.662502 0.900521
Si Si5 0.564200 0.161989 0.980157
Si Si6 0.564043 0.339936 0.807757
O O1 0.500000 0.500000 0.641953
O O2 0.750000 0.660351 0.639458
O O3 0.495318 0.750035 0.602332
O O4 0.511463 0.742053 0.685591
O O5 0.250000 0.339654 0.060541
O O6 0.000000 0.500000 0.062753
O O7 0.001247 0.258163 0.018898
O O8 0.250000 0.838335 0.717158
O O9 0.028646 0.766833 0.768779
O O10 0.000000 0.000000 0.720388
O O11 0.750000 0.660846 0.903493
O O12 0.000000 0.500000 0.907596
O O13 0.006456 0.767451 0.935967
O O14 0.988187 0.705265 0.852698
O O15 0.750000 0.160769 0.981660
O O16 0.500000 0.000000 0.984244
O O17 0.500000 0.500000 0.797590
O O18 0.750000 0.348641 0.813221
#
# Coordination Sequence:
#
# PCOD9364600 Si02
#       6
#     8   8   8   8   8   8
#     4  12  25  43  66  93 125 162 204 251 304 362
#     4  12  25  44  67  94 126 162 204 250 303 360
#     4  11  24  41  62  90 124 163 206 253 306 363
#     4  11  22  39  63  91 123 162 206 253 306 363
#     4  12  25  43  64  91 125 162 205 252 305 363
#     4  10  21  38  61  89 121 159 205 255 308 365
#
# _framework density 19.294799000000001
#
# number of rings (size 3 to 8) (size 9 to 14) (size 15 to 20)
#    0.000    0.667    0.000   10.000    0.000    4.667 
#    0.000    1.667    0.000    0.000    0.000    0.000 
#    0.000    0.000    0.000    0.000    0.000    0.000 
#
# Total GULP energy -134400.456294 kJ/mol
# GULP energy per Si atom -5600.019012 kJ/mol
# Density = 1.925088 g / cm^3
# Si number density = 19.294799 Si / 1000 Ang^3
#
#
#
# Elastic Constant Matrix: (Units=GPa)
#
#
# Indices 1 2 3 4 5 6 
#
# 1 205.8095 95.5819 93.1790 0.0000 0.0000 0.0000
# 2 95.5819 185.8127 118.7178 0.0000 0.0000 0.0000
# 3 93.1790 118.7178 144.9739 0.0000 0.0000 0.0000
# 4 0.0000 0.0000 0.0000 39.1251 0.0000 0.0000
# 5 0.0000 0.0000 0.0000 0.0000 44.0107 0.0000
# 6 0.0000 0.0000 0.0000 0.0000 0.0000 69.6816
#
#
#
# Elastic Compliance Matrix: (Units=1/GPa)
#
#
# Indices 1 2 3 4 5 6 
#
# 1 0.007056 -0.001535 -0.003278 0.000000 0.000000 0.000000
# 2 -0.001535 0.011621 -0.008530 0.000000 0.000000 0.000000
# 3 -0.003278 -0.008530 0.015989 0.000000 0.000000 0.000000
# 4 0.000000 0.000000 0.000000 0.025559 0.000000 0.000000
# 5 0.000000 0.000000 0.000000 0.000000 0.022722 0.000000
# 6 0.000000 0.000000 0.000000 0.000000 0.000000 0.014351
#
#
# Mechanical properties :
#
#
# Convention : Reuss Voigt Hill
#
# Bulk Modulus (GPa) = 125.29888 127.95037 126.62462
# Shear Modulus (GPa) = 39.48061 45.83797 42.65929
#
# Velocity S-wave (km/s) = 4.52838 4.87937 4.70714
# Velocity P-wave (km/s) = 9.61362 9.90967 9.76277
#
# Compressibility (1/GPa) = 0.00798092
#
# Stress axis : x y z
#
# Youngs Moduli (GPa) = 141.72560 86.04884 62.54129
#
# Poissons Ratio (x) = 0.13212 0.20499
# Poissons Ratio (y) = 0.21760 0.53346
# Poissons Ratio (z) = 0.46454 0.73398
#
# Static dielectric constant tensor:
#      x y z
#    x 1.644540 0.000000 0.000000 
#    y 0.000000 1.630780 0.000000 
#    z 0.000000 0.000000 1.648980 
# 
# From -- ./inp_files/26141.got.cif
#   From: 2010.05.17/outbox.cif.g08.bks.cpg/sg40_14_cif.got.tgz:26141.got - 2010.06.03 18:35:42.
