data_PCOD9364749
_publ_section_title
;
Structure prediction by ZEFSAII (Michael W. Deem and Ramdas Pophale) SiO2 
 PCOD9364749
Probable space group: A M A 2
;
_chemical_formula_sum "Si O2"
_cell_formula_units_Z 64
_cell_length_a 30.915982
_cell_length_b 8.509219
_cell_length_c 11.268983
_cell_angle_alpha 90.000000
_cell_angle_beta 90.000000
_cell_angle_gamma 90.000000
_cell_volume 2964.541065
_symmetry_space_group_name_H-M "A M A 2"
_symmetry_group_IT_number 40
_symmetry_cell_setting 'orthorhombic'
loop_
_space_group_symop_operation_xyz
x,y,z
-x,-y,z
1/2-x,y,z
1/2+x,-y,z
x,1/2+y,1/2+z
-x,1/2-y,1/2+z
1/2-x,1/2+y,1/2+z
1/2+x,1/2-y,1/2+z
loop_
_atom_site_type_symbol
_atom_site_label
_atom_site_fract_x
_atom_site_fract_y
_atom_site_fract_z
Si Si1 0.623087 0.397073 0.727140
Si Si2 0.298754 0.231452 0.096420
Si Si3 0.700038 0.914831 0.611550
Si Si4 0.446676 0.336924 0.135495
Si Si5 0.835498 0.934366 0.872983
Si Si6 0.953245 0.801316 0.658688
Si Si7 0.374328 0.824357 0.030551
Si Si8 0.905838 0.158486 0.375621
O O1 0.667496 0.309634 0.699064
O O2 0.582989 0.282020 0.707983
O O3 0.623205 0.531727 0.624876
O O4 0.617051 0.493419 0.847064
O O5 0.250000 0.218800 0.140159
O O6 0.306063 0.411601 0.056431
O O7 0.306179 0.116710 0.984888
O O8 0.750000 0.865013 0.592977
O O9 0.690887 0.939830 0.751760
O O10 0.664373 0.792441 0.566704
O O11 0.496438 0.284081 0.129703
O O12 0.445240 0.514256 0.185008
O O13 0.426896 0.339923 0.003806
O O14 0.870696 0.795872 0.863755
O O15 0.861290 0.092341 0.908146
O O16 0.920832 0.755602 0.551557
O O17 0.940613 0.697723 0.772950
#
# Coordination Sequence:
#
# PCOD9364749 Si02
#       8
#     8   8   8   8   8   8   8   8
#     4  10  21  40  67  90 125 172 207 263 316 380
#     4  10  22  41  64  96 129 164 213 264 316 381
#     4  11  23  41  65  93 131 167 209 267 316 380
#     4  11  23  44  64  91 134 163 211 269 318 379
#     4  11  22  42  65  92 126 172 209 259 317 383
#     4  10  24  43  63  98 126 164 217 263 318 392
#     4  10  21  40  64  93 126 166 212 261 318 375
#     4  11  23  43  64  94 125 168 215 254 327 376
#
# _framework density 21.588501000000001
#
# number of rings (size 3 to 8) (size 9 to 14) (size 15 to 20)
#    0.000    1.500    5.000    1.125    0.000    7.500 
#    4.500    0.000    0.000    0.000    0.000    0.000 
#    0.000    0.000    0.000    0.000    0.000    0.000 
#
# Total GULP energy -178939.335091 kJ/mol
# GULP energy per Si atom -5591.854222 kJ/mol
# Density = 2.153936 g / cm^3
# Si number density = 21.588501 Si / 1000 Ang^3
#
#
#
# Elastic Constant Matrix: (Units=GPa)
#
#
# Indices 1 2 3 4 5 6 
#
# 1 157.7073 71.7890 12.5406 0.0000 0.0000 0.0000
# 2 71.7890 93.5337 14.3114 0.0000 0.0000 0.0000
# 3 12.5406 14.3114 56.3225 0.0000 0.0000 0.0000
# 4 0.0000 0.0000 0.0000 33.5714 0.0000 0.0000
# 5 0.0000 0.0000 0.0000 0.0000 13.0675 0.0000
# 6 0.0000 0.0000 0.0000 0.0000 0.0000 22.4724
#
#
#
# Elastic Compliance Matrix: (Units=1/GPa)
#
#
# Indices 1 2 3 4 5 6 
#
# 1 0.009750 -0.007441 -0.000280 0.000000 0.000000 0.000000
# 2 -0.007441 0.016802 -0.002613 0.000000 0.000000 0.000000
# 3 -0.000280 -0.002613 0.018481 0.000000 0.000000 0.000000
# 4 0.000000 0.000000 0.000000 0.029787 0.000000 0.000000
# 5 0.000000 0.000000 0.000000 0.000000 0.076526 0.000000
# 6 0.000000 0.000000 0.000000 0.000000 0.000000 0.044499
#
#
# Mechanical properties :
#
#
# Convention : Reuss Voigt Hill
#
# Bulk Modulus (GPa) = 41.04046 56.09395 48.56720
# Shear Modulus (GPa) = 22.25840 27.75042 25.00441
#
# Velocity S-wave (km/s) = 3.21445 3.58917 3.40697
# Velocity P-wave (km/s) = 5.72962 6.57388 6.16621
#
# Compressibility (1/GPa) = 0.02436620
#
# Stress axis : x y z
#
# Youngs Moduli (GPa) = 102.56304 59.51738 54.10919
#
# Poissons Ratio (x) = 0.44284 0.01517
# Poissons Ratio (y) = 0.76312 0.14137
# Poissons Ratio (z) = 0.02875 0.15550
#
# Static dielectric constant tensor:
#      x y z
#    x 1.758160 0.000000 0.000000 
#    y 0.000000 1.815280 0.000000 
#    z 0.000000 0.000000 1.816840 
# 
# From -- ./inp_files/14417.got.cif
#   From: 2010.05.17/outbox.cif.g08.bks.cpg/sg40_8_cif.got.tgz:14417.got - 2010.06.03 18:35:42.
