data_PCOD9364608
_publ_section_title
;
Structure prediction by ZEFSAII (Michael W. Deem and Ramdas Pophale) SiO2 
 PCOD9364608
Probable space group: A M A 2
;
_chemical_formula_sum "Si O2"
_cell_formula_units_Z 64
_cell_length_a 14.587392
_cell_length_b 9.105987
_cell_length_c 22.520543
_cell_angle_alpha 90.000000
_cell_angle_beta 90.000000
_cell_angle_gamma 90.000000
_cell_volume 2991.462323
_symmetry_space_group_name_H-M "A M A 2"
_symmetry_group_IT_number 40
_symmetry_cell_setting 'orthorhombic'
loop_
_space_group_symop_operation_xyz
x,y,z
-x,-y,z
1/2-x,y,z
1/2+x,-y,z
x,1/2+y,1/2+z
-x,1/2-y,1/2+z
1/2-x,1/2+y,1/2+z
1/2+x,1/2-y,1/2+z
loop_
_atom_site_type_symbol
_atom_site_label
_atom_site_fract_x
_atom_site_fract_y
_atom_site_fract_z
Si Si1 0.648108 0.352821 0.914090
Si Si2 0.854490 0.791439 0.933702
Si Si3 0.860152 0.288930 0.090488
Si Si4 0.974250 0.829879 0.816470
Si Si5 0.908894 0.590023 0.478077
Si Si6 0.860405 0.680291 0.718523
Si Si7 0.854838 0.065919 0.526246
Si Si8 0.141592 0.114923 0.286266
O O1 0.750000 0.287640 0.910920
O O2 0.584477 0.215125 0.927624
O O3 0.645266 0.457984 0.969713
O O4 0.635063 0.442846 0.854217
O O5 0.750000 0.735308 0.923316
O O6 0.916676 0.779050 0.875068
O O7 0.893881 0.709490 0.993442
O O8 0.847024 0.961386 0.951826
O O9 0.750000 0.304247 0.093227
O O10 0.892247 0.219743 0.152171
O O11 0.878880 0.176830 0.036647
O O12 0.894890 0.454916 0.075613
O O13 0.903492 0.796967 0.763282
O O14 0.066411 0.743768 0.793445
O O15 0.000000 0.000000 0.824138
O O16 0.000000 0.500000 0.489831
O O17 0.750000 0.687853 0.720332
O O18 0.883711 0.515430 0.741397
O O19 0.750000 0.103362 0.544118
O O20 0.250000 0.155977 0.276100
#
# Coordination Sequence:
#
# PCOD9364608 Si02
#       8
#     8   8   8   8   8   8   8   8
#     4   9  16  31  52  74 106 147 192 239 291 349
#     4  11  21  36  60  92 128 162 200 246 304 372
#     4   9  19  40  64  84 112 154 202 253 310 366
#     4  12  25  39  59  91 132 169 209 261 320 380
#     4  11  21  33  52  83 121 159 200 247 305 367
#     4  10  22  42  66  89 117 160 215 268 318 375
#     4   8  16  31  55  84 112 146 187 233 289 356
#     4  10  21  38  62  89 118 161 215 267 316 373
#
# _framework density 21.394217999999999
#
# number of rings (size 3 to 8) (size 9 to 14) (size 15 to 20)
#    0.000    2.000    0.000    5.250    0.000    5.000 
#    0.000    7.500    0.000    4.500    0.000    0.000 
#    0.000    1.000    0.000    0.000    0.000    0.000 
#
# Total GULP energy -178230.064311 kJ/mol
# GULP energy per Si atom -5569.689510 kJ/mol
# Density = 2.134552 g / cm^3
# Si number density = 21.394218 Si / 1000 Ang^3
#
#
#
# Elastic Constant Matrix: (Units=GPa)
#
#
# Indices 1 2 3 4 5 6 
#
# 1 72.2019 43.1698 34.2863 0.0000 0.0000 0.0000
# 2 43.1698 120.2864 43.4420 0.0000 0.0000 0.0000
# 3 34.2863 43.4420 121.5662 0.0000 0.0000 0.0000
# 4 0.0000 0.0000 0.0000 34.5121 0.0000 0.0000
# 5 0.0000 0.0000 0.0000 0.0000 18.9028 0.0000
# 6 0.0000 0.0000 0.0000 0.0000 0.0000 31.8270
#
#
#
# Elastic Compliance Matrix: (Units=1/GPa)
#
#
# Indices 1 2 3 4 5 6 
#
# 1 0.018724 -0.005526 -0.003306 0.000000 0.000000 0.000000
# 2 -0.005526 0.011176 -0.002435 0.000000 0.000000 0.000000
# 3 -0.003306 -0.002435 0.010029 0.000000 0.000000 0.000000
# 4 0.000000 0.000000 0.000000 0.028975 0.000000 0.000000
# 5 0.000000 0.000000 0.000000 0.000000 0.052902 0.000000
# 6 0.000000 0.000000 0.000000 0.000000 0.000000 0.031420
#
#
# Mechanical properties :
#
#
# Convention : Reuss Voigt Hill
#
# Bulk Modulus (GPa) = 57.49063 61.76118 59.62591
# Shear Modulus (GPa) = 27.53924 29.92547 28.73236
#
# Velocity S-wave (km/s) = 3.59169 3.74406 3.66867
# Velocity P-wave (km/s) = 6.64309 6.90083 6.77319
#
# Compressibility (1/GPa) = 0.01739414
#
# Stress axis : x y z
#
# Youngs Moduli (GPa) = 53.40745 89.47583 99.71357
#
# Poissons Ratio (x) = 0.49443 0.32967
# Poissons Ratio (y) = 0.29512 0.24284
# Poissons Ratio (z) = 0.17658 0.21791
#
# Static dielectric constant tensor:
#      x y z
#    x 1.884010 0.000000 0.000000 
#    y 0.000000 1.794010 0.000000 
#    z 0.000000 0.000000 1.797500 
# 
# From -- ./inp_files/24784.got.cif
#   From: 2010.05.17/outbox.cif.g08.bks.cpg/sg40_13_cif.got.tgz:24784.got - 2010.06.03 18:35:42.
