data_PCOD9364712
_publ_section_title
;
Structure prediction by ZEFSAII (Michael W. Deem and Ramdas Pophale) SiO2 
 PCOD9364712
Probable space group: A M A 2
;
_chemical_formula_sum "Si O2"
_cell_formula_units_Z 44
_cell_length_a 7.657287
_cell_length_b 7.753319
_cell_length_c 30.382300
_cell_angle_alpha 90.000000
_cell_angle_beta 90.000000
_cell_angle_gamma 90.000000
_cell_volume 1803.778581
_symmetry_space_group_name_H-M "A M A 2"
_symmetry_group_IT_number 40
_symmetry_cell_setting 'orthorhombic'
loop_
_space_group_symop_operation_xyz
x,y,z
-x,-y,z
1/2-x,y,z
1/2+x,-y,z
x,1/2+y,1/2+z
-x,1/2-y,1/2+z
1/2-x,1/2+y,1/2+z
1/2+x,1/2-y,1/2+z
loop_
_atom_site_type_symbol
_atom_site_label
_atom_site_fract_x
_atom_site_fract_y
_atom_site_fract_z
Si Si1 0.449858 0.304775 0.130040
Si Si2 0.750000 0.668211 0.278298
Si Si3 0.542623 0.702752 0.532529
Si Si4 0.049437 0.302444 0.841082
Si Si5 0.946719 0.693492 0.719004
Si Si6 0.541226 0.704068 0.437379
O O1 0.500000 0.500000 0.139672
O O2 0.250000 0.269028 0.139378
O O3 0.477117 0.276883 0.078321
O O4 0.553117 0.196537 0.166017
O O5 0.594691 0.687273 0.316600
O O6 0.594537 0.686528 0.240154
O O7 0.500000 0.500000 0.533558
O O8 0.750000 0.725294 0.532563
O O9 0.476057 0.769644 0.485188
O O10 0.250000 0.264112 0.828617
O O11 0.000000 0.500000 0.829990
O O12 0.036743 0.284547 0.893670
O O13 0.750000 0.736527 0.733465
O O14 0.000000 0.500000 0.732890
O O15 0.500000 0.500000 0.436005
O O16 0.750000 0.726588 0.435685
#
# Coordination Sequence:
#
# PCOD9364712 Si02
#       6
#     8   4   8   8   8   8
#     4  12  25  44  65  94 134 171 210 267 327 391
#     4  12  24  44  66  98 128 170 220 278 318 388
#     4  10  21  39  67  98 129 170 218 263 315 383
#     4  12  24  40  67  95 133 171 217 274 325 382
#     4  12  24  42  70  97 128 170 220 272 320 382
#     4  10  21  41  65  95 134 172 215 267 320 386
#
# _framework density 24.393238
#
# number of rings (size 3 to 8) (size 9 to 14) (size 15 to 20)
#    0.000    0.727    3.636    4.364    0.000    2.909 
#    0.000    0.909    0.000    0.000    0.000    0.000 
#    0.000    0.000    0.000    0.000    0.000    0.000 
#
# Total GULP energy -122647.233205 kJ/mol
# GULP energy per Si atom -5574.874237 kJ/mol
# Density = 2.433772 g / cm^3
# Si number density = 24.393238 Si / 1000 Ang^3
#
#
#
# Elastic Constant Matrix: (Units=GPa)
#
#
# Indices 1 2 3 4 5 6 
#
# 1 222.4798 -1.6837 53.3052 0.0000 0.0000 0.0000
# 2 -1.6837 44.6866 16.7137 0.0000 0.0000 0.0000
# 3 53.3052 16.7137 225.7416 0.0000 0.0000 0.0000
# 4 0.0000 0.0000 0.0000 194.9819 0.0000 0.0000
# 5 0.0000 0.0000 0.0000 0.0000 14.9977 0.0000
# 6 0.0000 0.0000 0.0000 0.0000 0.0000 21.1124
#
#
#
# Elastic Compliance Matrix: (Units=1/GPa)
#
#
# Indices 1 2 3 4 5 6 
#
# 1 0.004781 0.000620 -0.001175 0.000000 0.000000 0.000000
# 2 0.000620 0.023096 -0.001856 0.000000 0.000000 0.000000
# 3 -0.001175 -0.001856 0.004845 0.000000 0.000000 0.000000
# 4 0.000000 0.000000 0.000000 0.005129 0.000000 0.000000
# 5 0.000000 0.000000 0.000000 0.000000 0.066677 0.000000
# 6 0.000000 0.000000 0.000000 0.000000 0.000000 0.047366
#
#
# Mechanical properties :
#
#
# Convention : Reuss Voigt Hill
#
# Bulk Modulus (GPa) = 35.84455 69.95316 52.89886
# Shear Modulus (GPa) = 30.11772 74.52324 52.32048
#
# Velocity S-wave (km/s) = 3.51761 5.53327 4.63631
# Velocity P-wave (km/s) = 5.58788 8.34040 7.09883
#
# Compressibility (1/GPa) = 0.02789825
#
# Stress axis : x y z
#
# Youngs Moduli (GPa) = 209.16301 43.29810 206.41134
#
# Poissons Ratio (x) = -0.02683 0.24250
# Poissons Ratio (y) = -0.12959 0.38316
# Poissons Ratio (z) = 0.24573 0.08037
#
# Static dielectric constant tensor:
#      x y z
#    x 1.884570 0.000000 0.000000 
#    y 0.000000 1.972800 0.000000 
#    z 0.000000 0.000000 1.964210 
# 
# From -- ./inp_files/25964.got.cif
#   From: 2010.05.17/outbox.cif.g08.bks.cpg/sg40_13_cif.got.tgz:25964.got - 2010.06.03 18:35:42.
