data_PCOD9364306
_publ_section_title
;
Structure prediction by ZEFSAII (Michael W. Deem and Ramdas Pophale) SiO2 
 PCOD9364306
Probable space group: A M A 2
;
_chemical_formula_sum "Si O2"
_cell_formula_units_Z 48
_cell_length_a 22.596933
_cell_length_b 17.526339
_cell_length_c 5.007455
_cell_angle_alpha 90.000000
_cell_angle_beta 90.000000
_cell_angle_gamma 90.000000
_cell_volume 1983.160030
_symmetry_space_group_name_H-M "A M A 2"
_symmetry_group_IT_number 40
_symmetry_cell_setting 'orthorhombic'
loop_
_space_group_symop_operation_xyz
x,y,z
-x,-y,z
1/2-x,y,z
1/2+x,-y,z
x,1/2+y,1/2+z
-x,1/2-y,1/2+z
1/2-x,1/2+y,1/2+z
1/2+x,1/2-y,1/2+z
loop_
_atom_site_type_symbol
_atom_site_label
_atom_site_fract_x
_atom_site_fract_y
_atom_site_fract_z
Si Si1 0.018512 0.706157 0.145710
Si Si2 0.922429 0.593532 0.001703
Si Si3 0.685557 0.092517 0.898265
Si Si4 0.316962 0.616702 0.309562
Si Si5 0.639811 0.969101 0.278419
Si Si6 0.139302 0.769458 0.167531
O O1 0.086362 0.715722 0.058366
O O2 0.012465 0.730938 0.453560
O O3 0.984285 0.627124 0.102405
O O4 0.873159 0.576571 0.227420
O O5 0.920635 0.514299 0.842985
O O6 0.893981 0.664312 0.834869
O O7 0.750000 0.080167 0.772730
O O8 0.680206 0.038563 0.159276
O O9 0.677850 0.181445 0.965878
O O10 0.250000 0.594794 0.383616
O O11 0.362630 0.587756 0.530909
O O12 0.320641 0.707778 0.309331
O O13 0.332598 0.575748 0.029070
#
# Coordination Sequence:
#
# PCOD9364306 Si02
#       6
#     8   8   8   8   8   8
#     4  10  20  39  68  94 126 166 213 267 325 374
#     4  10  22  42  69  96 125 168 220 270 311 378
#     4  11  21  39  66  98 127 165 218 267 310 378
#     4  12  25  42  63  93 135 174 206 260 331 389
#     4  11  25  42  65  90 128 178 215 254 319 386
#     4  10  24  40  64  98 130 167 214 268 322 379
#
# _framework density 24.203797000000002
#
# number of rings (size 3 to 8) (size 9 to 14) (size 15 to 20)
#    0.000    1.333    3.333    2.000    2.333    4.000 
#    0.000    0.833    3.667    0.000    0.000    0.000 
#    0.000    0.000    0.000    0.000    0.000    0.000 
#
# Total GULP energy -133918.701936 kJ/mol
# GULP energy per Si atom -5579.945914 kJ/mol
# Density = 2.414871 g / cm^3
# Si number density = 24.203797 Si / 1000 Ang^3
#
#
#
# Elastic Constant Matrix: (Units=GPa)
#
#
# Indices 1 2 3 4 5 6 
#
# 1 54.6949 6.1922 -10.6701 0.0000 0.0000 0.0000
# 2 6.1922 81.7358 7.9660 0.0000 0.0000 0.0000
# 3 -10.6701 7.9660 74.3970 0.0000 0.0000 0.0000
# 4 0.0000 0.0000 0.0000 24.5549 0.0000 0.0000
# 5 0.0000 0.0000 0.0000 0.0000 15.4092 0.0000
# 6 0.0000 0.0000 0.0000 0.0000 0.0000 15.3878
#
#
#
# Elastic Compliance Matrix: (Units=1/GPa)
#
#
# Indices 1 2 3 4 5 6 
#
# 1 0.019048 -0.001727 0.002917 0.000000 0.000000 0.000000
# 2 -0.001727 0.012520 -0.001588 0.000000 0.000000 0.000000
# 3 0.002917 -0.001588 0.014030 0.000000 0.000000 0.000000
# 4 0.000000 0.000000 0.000000 0.040725 0.000000 0.000000
# 5 0.000000 0.000000 0.000000 0.000000 0.064896 0.000000
# 6 0.000000 0.000000 0.000000 0.000000 0.000000 0.064986
#
#
# Mechanical properties :
#
#
# Convention : Reuss Voigt Hill
#
# Bulk Modulus (GPa) = 22.32136 24.20045 23.26090
# Shear Modulus (GPa) = 21.55759 24.89300 23.22530
#
# Velocity S-wave (km/s) = 2.98765 3.21046 3.10106
# Velocity P-wave (km/s) = 4.59822 4.87474 4.73850
#
# Compressibility (1/GPa) = 0.04480015
#
# Stress axis : x y z
#
# Youngs Moduli (GPa) = 52.49945 79.87091 71.27680
#
# Poissons Ratio (x) = 0.13796 -0.20790
# Poissons Ratio (y) = 0.09068 0.11321
# Poissons Ratio (z) = -0.15313 0.12686
#
# Static dielectric constant tensor:
#      x y z
#    x 1.951380 0.000000 0.000000 
#    y 0.000000 1.959890 0.000000 
#    z 0.000000 0.000000 2.003770 
# 
# From -- ./inp_files/2721.got.cif
#   From: 2010.05.17/outbox.cif.g08.bks.cpg/sg40_2_cif.got.tgz:2721.got - 2010.06.03 18:35:42.
