data_PCOD9364295
_publ_section_title
;
Structure prediction by ZEFSAII (Michael W. Deem and Ramdas Pophale) SiO2 
 PCOD9364295
Probable space group: A M A 2
;
_chemical_formula_sum "Si O2"
_cell_formula_units_Z 64
_cell_length_a 16.349514
_cell_length_b 16.403031
_cell_length_c 12.186208
_cell_angle_alpha 90.000000
_cell_angle_beta 90.000000
_cell_angle_gamma 90.000000
_cell_volume 3268.116576
_symmetry_space_group_name_H-M "A M A 2"
_symmetry_group_IT_number 40
_symmetry_cell_setting 'orthorhombic'
loop_
_space_group_symop_operation_xyz
x,y,z
-x,-y,z
1/2-x,y,z
1/2+x,-y,z
x,1/2+y,1/2+z
-x,1/2-y,1/2+z
1/2-x,1/2+y,1/2+z
1/2+x,1/2-y,1/2+z
loop_
_atom_site_type_symbol
_atom_site_label
_atom_site_fract_x
_atom_site_fract_y
_atom_site_fract_z
Si Si1 0.152676 0.136112 0.088580
Si Si2 0.099997 0.791535 0.983435
Si Si3 0.848587 0.545154 0.597967
Si Si4 0.345184 0.896175 0.342135
Si Si5 0.408106 0.532126 0.996102
Si Si6 0.919381 0.276224 0.387047
Si Si7 0.651214 0.340269 0.165391
Si Si8 0.343870 0.663304 0.832656
O O1 0.250000 0.129321 0.095859
O O2 0.125261 0.165371 0.208561
O O3 0.120513 0.044784 0.067270
O O4 0.132155 0.196895 0.992359
O O5 0.156356 0.751121 0.889996
O O6 0.011360 0.786309 0.928560
O O7 0.117416 0.882117 0.024372
O O8 0.115774 0.732368 0.088166
O O9 0.750000 0.547538 0.587229
O O10 0.866510 0.560533 0.726779
O O11 0.250000 0.871611 0.335323
O O12 0.399568 0.816505 0.356595
O O13 0.358410 0.957565 0.442970
O O14 0.500000 0.500000 0.012310
O O15 0.399979 0.603497 0.904599
O O16 0.371392 0.575395 0.103933
O O17 0.891062 0.329977 0.283206
O O18 0.750000 0.331841 0.172481
O O19 0.250000 0.630831 0.836382
#
# Coordination Sequence:
#
# PCOD9364295 Si02
#       8
#     8   8   8   8   8   8   8   8
#     4  10  22  41  63  91 127 166 210 261 324 390
#     4  11  23  38  64  96 127 162 216 271 321 376
#     4  10  20  39  66  92 119 159 219 266 309 385
#     4  11  20  38  66  95 119 159 221 270 306 373
#     4  11  22  38  63  97 130 161 212 274 326 374
#     4  12  26  40  63  94 134 168 212 269 329 384
#     4  11  23  45  69  92 131 183 220 255 329 416
#     4  10  20  39  66  94 128 168 211 262 331 399
#
# _framework density 19.583145999999999
#
# number of rings (size 3 to 8) (size 9 to 14) (size 15 to 20)
#    0.000    1.250    2.500    5.625    1.750    1.500 
#    2.250    0.000    0.000    3.000    0.000    0.000 
#    0.000    0.000    0.000    0.000    0.000    0.000 
#
# Total GULP energy -178701.832742 kJ/mol
# GULP energy per Si atom -5584.432273 kJ/mol
# Density = 1.953857 g / cm^3
# Si number density = 19.583146 Si / 1000 Ang^3
#
#
#
# Elastic Constant Matrix: (Units=GPa)
#
#
# Indices 1 2 3 4 5 6 
#
# 1 78.1375 -2.8577 27.6268 0.0000 0.0000 0.0000
# 2 -2.8577 22.7226 5.2517 0.0000 0.0000 0.0000
# 3 27.6268 5.2517 88.9344 0.0000 0.0000 0.0000
# 4 0.0000 0.0000 0.0000 32.6593 0.0000 0.0000
# 5 0.0000 0.0000 0.0000 0.0000 164.4196 0.0000
# 6 0.0000 0.0000 0.0000 0.0000 0.0000 31.9235
#
#
#
# Elastic Compliance Matrix: (Units=1/GPa)
#
#
# Indices 1 2 3 4 5 6 
#
# 1 0.014565 0.002917 -0.004697 0.000000 0.000000 0.000000
# 2 0.002917 0.045202 -0.003576 0.000000 0.000000 0.000000
# 3 -0.004697 -0.003576 0.012914 0.000000 0.000000 0.000000
# 4 0.000000 0.000000 0.000000 0.030619 0.000000 0.000000
# 5 0.000000 0.000000 0.000000 0.000000 0.006082 0.000000
# 6 0.000000 0.000000 0.000000 0.000000 0.000000 0.031325
#
#
# Mechanical properties :
#
#
# Convention : Reuss Voigt Hill
#
# Bulk Modulus (GPa) = 16.13631 27.75958 21.94794
# Shear Modulus (GPa) = 29.05698 56.45206 42.75452
#
# Velocity S-wave (km/s) = 3.85616 5.37489 4.67757
# Velocity P-wave (km/s) = 5.29947 7.26122 6.35648
#
# Compressibility (1/GPa) = 0.06197204
#
# Stress axis : x y z
#
# Youngs Moduli (GPa) = 68.65626 22.12272 77.43275
#
# Poissons Ratio (x) = -0.06454 0.36369
# Poissons Ratio (y) = -0.20030 0.27686
# Poissons Ratio (z) = 0.32247 0.07910
#
# Static dielectric constant tensor:
#      x y z
#    x 1.485200 0.000000 0.000000 
#    y 0.000000 1.700410 0.000000 
#    z 0.000000 0.000000 1.673720 
# 
# From -- ./inp_files/12482.got.cif
#   From: 2010.05.17/outbox.cif.g08.bks.cpg/sg40_7_cif.got.tgz:12482.got - 2010.06.03 18:35:42.
