data_PCOD9364220
_publ_section_title
;
Structure prediction by ZEFSAII (Michael W. Deem and Ramdas Pophale) SiO2 
 PCOD9364220
Probable space group: A M A 2
;
_chemical_formula_sum "Si O2"
_cell_formula_units_Z 64
_cell_length_a 27.587591
_cell_length_b 5.799377
_cell_length_c 18.555586
_cell_angle_alpha 90.000000
_cell_angle_beta 90.000000
_cell_angle_gamma 90.000000
_cell_volume 2968.723804
_symmetry_space_group_name_H-M "A M A 2"
_symmetry_group_IT_number 40
_symmetry_cell_setting 'orthorhombic'
loop_
_space_group_symop_operation_xyz
x,y,z
-x,-y,z
1/2-x,y,z
1/2+x,-y,z
x,1/2+y,1/2+z
-x,1/2-y,1/2+z
1/2-x,1/2+y,1/2+z
1/2+x,1/2-y,1/2+z
loop_
_atom_site_type_symbol
_atom_site_label
_atom_site_fract_x
_atom_site_fract_y
_atom_site_fract_z
Si Si1 0.521076 0.248049 0.778630
Si Si2 0.930214 0.675107 0.144270
Si Si3 0.898089 0.964327 0.508335
Si Si4 0.195497 0.213294 0.991257
Si Si5 0.391733 0.047344 0.348311
Si Si6 0.636840 0.343564 0.237280
Si Si7 0.854238 0.568284 0.603707
Si Si8 0.193526 0.881177 0.853375
O O1 0.500000 0.500000 0.800243
O O2 0.523858 0.244704 0.691486
O O3 0.575944 0.266036 0.807059
O O4 0.500000 0.000000 0.802377
O O5 0.935220 0.581969 0.063695
O O6 0.903933 0.475958 0.191113
O O7 0.892274 0.884198 0.136036
O O8 0.915642 0.976402 0.426612
O O9 0.883219 0.722177 0.544585
O O10 0.847423 0.106058 0.504718
O O11 0.250000 0.308865 0.986753
O O12 0.186097 0.061329 0.919339
O O13 0.189088 0.047072 0.059881
O O14 0.338916 0.154404 0.363277
O O15 0.386834 0.826739 0.296777
O O16 0.673668 0.503203 0.280627
O O17 0.663456 0.206158 0.173398
O O18 0.250000 0.827185 0.850015
#
# Coordination Sequence:
#
# PCOD9364220 Si02
#       8
#     8   8   8   8   8   8   8   8
#     4  12  27  46  79 108 138 184 236 290 363 432
#     4  10  22  43  67  96 128 174 228 278 348 430
#     4  10  22  38  68  91 128 183 222 274 359 402
#     4  10  21  36  56  94 136 175 234 284 335 414
#     4  12  23  43  69  98 140 180 227 296 349 422
#     4  11  20  39  66  90 133 180 225 286 346 407
#     4  10  20  38  63  91 118 181 222 269 351 407
#     4  11  23  37  61  98 136 184 236 284 346 414
#
# _framework density 21.558084999999998
#
# number of rings (size 3 to 8) (size 9 to 14) (size 15 to 20)
#    0.000    1.250    5.000    0.750    1.750    2.000 
#    0.000    9.375    0.000    0.000    0.000    0.000 
#    0.000    0.000    0.000    0.000    0.000    0.000 
#
# Total GULP energy -178584.664060 kJ/mol
# GULP energy per Si atom -5580.770752 kJ/mol
# Density = 2.150902 g / cm^3
# Si number density = 21.558085 Si / 1000 Ang^3
#
#
#
# Elastic Constant Matrix: (Units=GPa)
#
#
# Indices 1 2 3 4 5 6 
#
# 1 41.2277 21.0530 0.7204 0.0000 0.0000 0.0000
# 2 21.0530 86.6340 30.2366 0.0000 0.0000 0.0000
# 3 0.7204 30.2366 139.3393 0.0000 0.0000 0.0000
# 4 0.0000 0.0000 0.0000 46.5792 0.0000 0.0000
# 5 0.0000 0.0000 0.0000 0.0000 17.3899 0.0000
# 6 0.0000 0.0000 0.0000 0.0000 0.0000 21.6294
#
#
#
# Elastic Compliance Matrix: (Units=1/GPa)
#
#
# Indices 1 2 3 4 5 6 
#
# 1 0.027956 -0.007296 0.001439 0.000000 0.000000 0.000000
# 2 -0.007296 0.014393 -0.003085 0.000000 0.000000 0.000000
# 3 0.001439 -0.003085 0.007839 0.000000 0.000000 0.000000
# 4 0.000000 0.000000 0.000000 0.021469 0.000000 0.000000
# 5 0.000000 0.000000 0.000000 0.000000 0.057505 0.000000
# 6 0.000000 0.000000 0.000000 0.000000 0.000000 0.046233
#
#
# Mechanical properties :
#
#
# Convention : Reuss Voigt Hill
#
# Bulk Modulus (GPa) = 30.95753 41.24678 36.10215
# Shear Modulus (GPa) = 24.50416 31.46576 27.98496
#
# Velocity S-wave (km/s) = 3.37509 3.82459 3.60685
# Velocity P-wave (km/s) = 5.43871 6.21914 5.84197
#
# Compressibility (1/GPa) = 0.03230232
#
# Stress axis : x y z
#
# Youngs Moduli (GPa) = 35.77051 69.47998 127.57002
#
# Poissons Ratio (x) = 0.50691 -0.18353
# Poissons Ratio (y) = 0.26097 0.39361
# Poissons Ratio (z) = -0.05146 0.21438
#
# Static dielectric constant tensor:
#      x y z
#    x 1.783800 0.000000 0.000000 
#    y 0.000000 1.851600 0.000000 
#    z 0.000000 0.000000 1.799340 
# 
# From -- ./inp_files/21675.got.cif
#   From: 2010.05.17/outbox.cif.g08.bks.cpg/sg40_11_cif.got.tgz:21675.got - 2010.06.03 18:35:42.
