data_PCOD9364053
_publ_section_title
;
Structure prediction by ZEFSAII (Michael W. Deem and Ramdas Pophale) SiO2 
 PCOD9364053
Probable space group: A M A 2
;
_chemical_formula_sum "Si O2"
_cell_formula_units_Z 64
_cell_length_a 16.785508
_cell_length_b 9.255649
_cell_length_c 21.109666
_cell_angle_alpha 90.000000
_cell_angle_beta 90.000000
_cell_angle_gamma 90.000000
_cell_volume 3279.613971
_symmetry_space_group_name_H-M "A M A 2"
_symmetry_group_IT_number 40
_symmetry_cell_setting 'orthorhombic'
loop_
_space_group_symop_operation_xyz
x,y,z
-x,-y,z
1/2-x,y,z
1/2+x,-y,z
x,1/2+y,1/2+z
-x,1/2-y,1/2+z
1/2-x,1/2+y,1/2+z
1/2+x,1/2-y,1/2+z
loop_
_atom_site_type_symbol
_atom_site_label
_atom_site_fract_x
_atom_site_fract_y
_atom_site_fract_z
Si Si1 0.573400 0.892903 0.017410
Si Si2 0.877270 0.244051 0.851735
Si Si3 0.339443 0.036389 0.802706
Si Si4 0.839063 0.680464 0.494892
Si Si5 0.438584 0.732420 0.385142
Si Si6 0.156768 0.255282 0.687126
Si Si7 0.531661 0.331859 0.078166
Si Si8 0.341082 0.945485 0.299887
O O1 0.541429 0.784856 0.072333
O O2 0.500000 0.000000 0.001467
O O3 0.641832 0.016358 0.020183
O O4 0.582851 0.785931 0.958199
O O5 0.857141 0.130560 0.796881
O O6 0.847403 0.392785 0.823146
O O7 0.969848 0.252230 0.869050
O O8 0.840119 0.191306 0.918454
O O9 0.250000 0.056738 0.828046
O O10 0.405111 0.089653 0.851850
O O11 0.345489 0.127858 0.739241
O O12 0.750000 0.721848 0.515734
O O13 0.908238 0.789307 0.519981
O O14 0.392212 0.858037 0.350112
O O15 0.250000 0.266960 0.665281
O O16 0.090035 0.213065 0.636112
O O17 0.135249 0.398876 0.728344
O O18 0.500000 0.500000 0.078626
O O19 0.250000 0.895788 0.304265
#
# Coordination Sequence:
#
# PCOD9364053 Si02
#       8
#     8   8   8   8   8   8   8   8
#     4  10  20  39  59  89 122 167 211 259 310 381
#     4  12  21  35  59  98 131 162 202 257 318 388
#     4  10  20  36  62  91 123 165 205 248 309 382
#     4  11  23  40  64  93 130 176 213 260 328 394
#     4  11  19  34  57  85 130 164 198 247 313 370
#     4   9  21  44  65  86 125 171 213 260 317 379
#     4  11  24  42  67  91 122 169 226 278 326 373
#     4  10  23  38  60  95 128 166 205 253 319 381
#
# _framework density 19.514492000000001
#
# number of rings (size 3 to 8) (size 9 to 14) (size 15 to 20)
#    0.000    1.500    3.750    3.375    1.750    2.500 
#    0.000   12.500    0.000    1.500    0.000    0.000 
#    0.000    0.000    0.000    0.000    0.000    0.000 
#
# Total GULP energy -178181.367562 kJ/mol
# GULP energy per Si atom -5568.167736 kJ/mol
# Density = 1.947008 g / cm^3
# Si number density = 19.514492 Si / 1000 Ang^3
#
#
#
# Elastic Constant Matrix: (Units=GPa)
#
#
# Indices 1 2 3 4 5 6 
#
# 1 88.9092 29.4544 27.5485 0.0000 0.0000 0.0000
# 2 29.4544 115.9816 30.5742 0.0000 0.0000 0.0000
# 3 27.5485 30.5742 79.5195 0.0000 0.0000 0.0000
# 4 0.0000 0.0000 0.0000 10.2157 0.0000 0.0000
# 5 0.0000 0.0000 0.0000 0.0000 25.1358 0.0000
# 6 0.0000 0.0000 0.0000 0.0000 0.0000 44.0681
#
#
#
# Elastic Compliance Matrix: (Units=1/GPa)
#
#
# Indices 1 2 3 4 5 6 
#
# 1 0.013166 -0.002383 -0.003645 0.000000 0.000000 0.000000
# 2 -0.002383 0.010026 -0.003029 0.000000 0.000000 0.000000
# 3 -0.003645 -0.003029 0.015003 0.000000 0.000000 0.000000
# 4 0.000000 0.000000 0.000000 0.097889 0.000000 0.000000
# 5 0.000000 0.000000 0.000000 0.000000 0.039784 0.000000
# 6 0.000000 0.000000 0.000000 0.000000 0.000000 0.022692
#
#
# Mechanical properties :
#
#
# Convention : Reuss Voigt Hill
#
# Bulk Modulus (GPa) = 49.79910 51.06271 50.43090
# Shear Modulus (GPa) = 22.38462 29.00613 25.69537
#
# Velocity S-wave (km/s) = 3.39053 3.85955 3.63262
# Velocity P-wave (km/s) = 6.39547 6.78859 6.59496
#
# Compressibility (1/GPa) = 0.02008069
#
# Stress axis : x y z
#
# Youngs Moduli (GPa) = 75.95176 99.74335 66.65302
#
# Poissons Ratio (x) = 0.23766 0.24296
# Poissons Ratio (y) = 0.18097 0.20191
# Poissons Ratio (z) = 0.27685 0.30215
#
# Static dielectric constant tensor:
#      x y z
#    x 1.797210 0.000000 0.000000 
#    y 0.000000 1.767010 0.000000 
#    z 0.000000 0.000000 1.719920 
# 
# From -- ./inp_files/23405.got.cif
#   From: 2010.05.17/outbox.cif.g08.bks.cpg/sg40_12_cif.got.tgz:23405.got - 2010.06.03 18:35:42.
