data_PCOD9364366
_publ_section_title
;
Structure prediction by ZEFSAII (Michael W. Deem and Ramdas Pophale) SiO2 
 PCOD9364366
Probable space group: A M A 2
;
_chemical_formula_sum "Si O2"
_cell_formula_units_Z 52
_cell_length_a 25.514644
_cell_length_b 11.087218
_cell_length_c 9.445659
_cell_angle_alpha 90.000000
_cell_angle_beta 90.000000
_cell_angle_gamma 90.000000
_cell_volume 2672.048661
_symmetry_space_group_name_H-M "A M A 2"
_symmetry_group_IT_number 40
_symmetry_cell_setting 'orthorhombic'
loop_
_space_group_symop_operation_xyz
x,y,z
-x,-y,z
1/2-x,y,z
1/2+x,-y,z
x,1/2+y,1/2+z
-x,1/2-y,1/2+z
1/2-x,1/2+y,1/2+z
1/2+x,1/2-y,1/2+z
loop_
_atom_site_type_symbol
_atom_site_label
_atom_site_fract_x
_atom_site_fract_y
_atom_site_fract_z
Si Si1 0.416296 0.477324 0.829060
Si Si2 0.750000 0.981632 0.007654
Si Si3 0.036707 0.383707 0.444034
Si Si4 0.505993 0.819599 0.243404
Si Si5 0.354398 0.373482 0.576876
Si Si6 0.665834 0.896047 0.506151
Si Si7 0.250000 0.476275 0.197930
Si Si8 0.750000 0.308968 0.774207
O O1 0.460605 0.375213 0.845443
O O2 0.447196 0.583226 0.746401
O O3 0.372171 0.422251 0.728484
O O4 0.387164 0.536865 0.960072
O O5 0.750000 0.946764 0.842984
O O6 0.698921 0.063135 0.032687
O O7 0.750000 0.875957 0.123300
O O8 0.026721 0.302746 0.307961
O O9 0.098190 0.406229 0.469657
O O10 0.000000 0.500000 0.436448
O O11 0.018622 0.314663 0.587785
O O12 0.347473 0.229992 0.580740
O O13 0.700214 0.853402 0.368661
O O14 0.700504 0.983621 0.603329
O O15 0.250000 0.335137 0.243893
#
# Coordination Sequence:
#
# PCOD9364366 Si02
#       8
#     8   4   8   8   8   8   4   4
#     4  10  20  41  67  93 125 175 210 264 330 389
#     4  12  23  42  65  95 132 170 219 265 332 387
#     4  11  22  44  66  97 131 172 218 269 326 391
#     4  10  21  42  65  94 133 163 218 265 325 392
#     4  11  21  41  72  90 128 178 213 266 327 388
#     4  11  22  43  67  89 129 171 217 266 327 379
#     4  11  26  43  59 103 126 163 228 272 310 403
#     4  11  23  43  68  86 130 179 205 269 332 382
#
# _framework density 19.460723000000002
#
# number of rings (size 3 to 8) (size 9 to 14) (size 15 to 20)
#    0.000    1.231    7.692    0.462    0.000    1.231 
#   16.615    0.000    0.000    0.000    0.000    0.000 
#    0.000    0.000    0.000    0.000    0.000    0.000 
#
# Total GULP energy -145135.689141 kJ/mol
# GULP energy per Si atom -5582.141890 kJ/mol
# Density = 1.941643 g / cm^3
# Si number density = 19.460723 Si / 1000 Ang^3
#
#
#
# Elastic Constant Matrix: (Units=GPa)
#
#
# Indices 1 2 3 4 5 6 
#
# 1 90.3957 25.3025 20.2709 0.0000 0.0000 0.0000
# 2 25.3025 83.4743 32.4905 0.0000 0.0000 0.0000
# 3 20.2709 32.4905 68.1135 0.0000 0.0000 0.0000
# 4 0.0000 0.0000 0.0000 33.5577 0.0000 0.0000
# 5 0.0000 0.0000 0.0000 0.0000 7.8951 0.0000
# 6 0.0000 0.0000 0.0000 0.0000 0.0000 15.2511
#
#
#
# Elastic Compliance Matrix: (Units=1/GPa)
#
#
# Indices 1 2 3 4 5 6 
#
# 1 0.012381 -0.002847 -0.002326 0.000000 0.000000 0.000000
# 2 -0.002847 0.015366 -0.006482 0.000000 0.000000 0.000000
# 3 -0.002326 -0.006482 0.018466 0.000000 0.000000 0.000000
# 4 0.000000 0.000000 0.000000 0.029799 0.000000 0.000000
# 5 0.000000 0.000000 0.000000 0.000000 0.126661 0.000000
# 6 0.000000 0.000000 0.000000 0.000000 0.000000 0.065569
#
#
# Mechanical properties :
#
#
# Convention : Reuss Voigt Hill
#
# Bulk Modulus (GPa) = 43.66682 44.23460 43.95071
# Shear Modulus (GPa) = 16.71190 22.26875 19.49032
#
# Velocity S-wave (km/s) = 2.93362 3.38641 3.16812
# Velocity P-wave (km/s) = 5.82769 6.17008 6.00133
#
# Compressibility (1/GPa) = 0.02290068
#
# Stress axis : x y z
#
# Youngs Moduli (GPa) = 80.76766 65.07912 54.15414
#
# Poissons Ratio (x) = 0.18531 0.12599
# Poissons Ratio (y) = 0.22998 0.35104
# Poissons Ratio (z) = 0.18790 0.42186
#
# Static dielectric constant tensor:
#      x y z
#    x 1.697900 0.000000 0.000000 
#    y 0.000000 1.662210 0.000000 
#    z 0.000000 0.000000 1.676790 
# 
# From -- ./inp_files/9127.got.cif
#   From: 2010.05.17/outbox.cif.g08.bks.cpg/sg40_5_cif.got.tgz:9127.got - 2010.06.03 18:35:42.
