data_PCOD9364192
_publ_section_title
;
Structure prediction by ZEFSAII (Michael W. Deem and Ramdas Pophale) SiO2 
 PCOD9364192
Probable space group: A M A 2
;
_chemical_formula_sum "Si O2"
_cell_formula_units_Z 64
_cell_length_a 18.272320
_cell_length_b 12.272546
_cell_length_c 16.069947
_cell_angle_alpha 90.000000
_cell_angle_beta 90.000000
_cell_angle_gamma 90.000000
_cell_volume 3603.651671
_symmetry_space_group_name_H-M "A M A 2"
_symmetry_group_IT_number 40
_symmetry_cell_setting 'orthorhombic'
loop_
_space_group_symop_operation_xyz
x,y,z
-x,-y,z
1/2-x,y,z
1/2+x,-y,z
x,1/2+y,1/2+z
-x,1/2-y,1/2+z
1/2-x,1/2+y,1/2+z
1/2+x,1/2-y,1/2+z
loop_
_atom_site_type_symbol
_atom_site_label
_atom_site_fract_x
_atom_site_fract_y
_atom_site_fract_z
Si Si1 0.421629 0.450664 0.994550
Si Si2 0.834470 0.839487 0.547397
Si Si3 0.393307 0.212389 0.719908
Si Si4 0.560068 0.189667 0.655889
Si Si5 0.664860 0.687177 0.401663
Si Si6 0.665121 0.848590 0.243369
Si Si7 0.338100 0.416508 0.822854
Si Si8 0.584852 0.014360 0.798403
O O1 0.500000 0.500000 0.969044
O O2 0.374990 0.420461 0.913650
O O3 0.379082 0.549413 0.039398
O O4 0.434096 0.354886 0.061986
O O5 0.750000 0.860508 0.524418
O O6 0.841566 0.795964 0.640080
O O7 0.863930 0.749356 0.482808
O O8 0.476589 0.211976 0.684347
O O9 0.373553 0.317448 0.772765
O O10 0.384341 0.103292 0.774739
O O11 0.610746 0.293265 0.677259
O O12 0.587058 0.090962 0.716106
O O13 0.750000 0.661468 0.415198
O O14 0.659748 0.773751 0.326145
O O15 0.624313 0.579615 0.371355
O O16 0.750000 0.844827 0.215239
O O17 0.647580 0.970524 0.273344
O O18 0.250000 0.405391 0.829832
O O19 0.500000 0.000000 0.819786
#
# Coordination Sequence:
#
# PCOD9364192 Si02
#       8
#     8   8   8   8   8   8   8   8
#     4  12  22  38  63  94 123 154 201 264 311 362
#     4  11  21  37  61  86 119 158 201 251 301 362
#     4  11  22  39  60  89 126 160 202 250 305 370
#     4  10  20  38  60  91 122 152 205 254 305 365
#     4   9  18  33  57  87 113 147 199 246 289 354
#     4   9  19  36  58  86 121 161 201 246 302 366
#     4  11  25  41  60  92 129 165 206 252 312 375
#     4   9  18  35  58  83 118 153 192 244 296 354
#
# _framework density 17.759763
#
# number of rings (size 3 to 8) (size 9 to 14) (size 15 to 20)
#    0.000    1.750    3.750    1.125    1.750    3.000 
#    0.000    1.250    0.000    0.000    0.000    0.000 
#    0.000    0.000    0.000    0.000    0.000    0.000 
#
# Total GULP energy -178577.434873 kJ/mol
# GULP energy per Si atom -5580.544840 kJ/mol
# Density = 1.771934 g / cm^3
# Si number density = 17.759763 Si / 1000 Ang^3
#
#
#
# Elastic Constant Matrix: (Units=GPa)
#
#
# Indices 1 2 3 4 5 6 
#
# 1 65.5436 57.3299 41.7324 0.0000 0.0000 0.0000
# 2 57.3299 120.2461 58.7681 0.0000 0.0000 0.0000
# 3 41.7324 58.7681 87.2765 0.0000 0.0000 0.0000
# 4 0.0000 0.0000 0.0000 27.8804 0.0000 0.0000
# 5 0.0000 0.0000 0.0000 0.0000 26.9734 0.0000
# 6 0.0000 0.0000 0.0000 0.0000 0.0000 26.7450
#
#
#
# Elastic Compliance Matrix: (Units=1/GPa)
#
#
# Indices 1 2 3 4 5 6 
#
# 1 0.028572 -0.010352 -0.006692 0.000000 0.000000 0.000000
# 2 -0.010352 0.016146 -0.005922 0.000000 0.000000 0.000000
# 3 -0.006692 -0.005922 0.018645 0.000000 0.000000 0.000000
# 4 0.000000 0.000000 0.000000 0.035868 0.000000 0.000000
# 5 0.000000 0.000000 0.000000 0.000000 0.037074 0.000000
# 6 0.000000 0.000000 0.000000 0.000000 0.000000 0.037390
#
#
# Mechanical properties :
#
#
# Convention : Reuss Voigt Hill
#
# Bulk Modulus (GPa) = 57.36536 65.41410 61.38973
# Shear Modulus (GPa) = 22.17909 24.00216 23.09062
#
# Velocity S-wave (km/s) = 3.53773 3.68025 3.60969
# Velocity P-wave (km/s) = 7.00416 7.41429 7.21214
#
# Compressibility (1/GPa) = 0.01743212
#
# Stress axis : x y z
#
# Youngs Moduli (GPa) = 34.99870 61.93410 53.63299
#
# Poissons Ratio (x) = 0.64115 0.35889
# Poissons Ratio (y) = 0.36231 0.31762
# Poissons Ratio (z) = 0.23420 0.36678
#
# Static dielectric constant tensor:
#      x y z
#    x 1.617400 0.000000 0.000000 
#    y 0.000000 1.592960 0.000000 
#    z 0.000000 0.000000 1.591060 
# 
# From -- ./inp_files/17825.got.cif
#   From: 2010.05.17/outbox.cif.g08.bks.cpg/sg40_9_cif.got.tgz:17825.got - 2010.06.03 18:35:42.
