data_PCOD9364307
_publ_section_title
;
Structure prediction by ZEFSAII (Michael W. Deem and Ramdas Pophale) SiO2 
 PCOD9364307
Probable space group: A M A 2
;
_chemical_formula_sum "Si O2"
_cell_formula_units_Z 40
_cell_length_a 13.702512
_cell_length_b 9.404371
_cell_length_c 12.358427
_cell_angle_alpha 90.000000
_cell_angle_beta 90.000000
_cell_angle_gamma 90.000000
_cell_volume 1592.550238
_symmetry_space_group_name_H-M "A M A 2"
_symmetry_group_IT_number 40
_symmetry_cell_setting 'orthorhombic'
loop_
_space_group_symop_operation_xyz
x,y,z
-x,-y,z
1/2-x,y,z
1/2+x,-y,z
x,1/2+y,1/2+z
-x,1/2-y,1/2+z
1/2-x,1/2+y,1/2+z
1/2+x,1/2-y,1/2+z
loop_
_atom_site_type_symbol
_atom_site_label
_atom_site_fract_x
_atom_site_fract_y
_atom_site_fract_z
Si Si1 0.540559 0.647494 0.797010
Si Si2 0.136582 0.861813 0.769876
Si Si3 0.857854 0.760324 0.593373
Si Si4 0.140129 0.039589 0.967764
Si Si5 0.436593 0.831488 0.534914
O O1 0.500000 0.500000 0.751995
O O2 0.445100 0.748130 0.805556
O O3 0.616828 0.715908 0.715395
O O4 0.587374 0.619538 0.914185
O O5 0.250000 0.820987 0.790890
O O6 0.117387 0.000979 0.843122
O O7 0.121293 0.876889 0.641493
O O8 0.750000 0.822814 0.583135
O O9 0.859584 0.612290 0.526789
O O10 0.948258 0.855106 0.554681
O O11 0.250000 0.097464 0.973045
O O12 0.075312 0.159153 0.023061
#
# Coordination Sequence:
#
# PCOD9364307 Si02
#       5
#     8   8   8   8   8
#     4  11  24  40  61  90 127 172 210 265 332 398
#     4  10  22  42  66  94 127 167 220 276 329 395
#     4  10  21  39  63  90 119 159 216 267 319 390
#     4  10  20  39  68  95 121 163 220 276 328 392
#     4  11  22  40  65  93 131 170 214 266 336 395
#
# _framework density 25.116947
#
# number of rings (size 3 to 8) (size 9 to 14) (size 15 to 20)
#    0.000    1.600    2.000    3.600    0.000    4.000 
#    7.200    0.000    0.000    0.000    0.000    0.000 
#    0.000    0.000    0.000    0.000    0.000    0.000 
#
# Total GULP energy -112005.972740 kJ/mol
# GULP energy per Si atom -5600.298637 kJ/mol
# Density = 2.505978 g / cm^3
# Si number density = 25.116947 Si / 1000 Ang^3
#
#
#
# Elastic Constant Matrix: (Units=GPa)
#
#
# Indices 1 2 3 4 5 6 
#
# 1 138.0768 5.0577 18.4554 0.0000 0.0000 0.0000
# 2 5.0577 64.5103 15.4132 0.0000 0.0000 0.0000
# 3 18.4554 15.4132 186.8797 0.0000 0.0000 0.0000
# 4 0.0000 0.0000 0.0000 -106.4340 0.0000 0.0000
# 5 0.0000 0.0000 0.0000 0.0000 52.2046 0.0000
# 6 0.0000 0.0000 0.0000 0.0000 0.0000 23.7645
#
#
#
# Elastic Compliance Matrix: (Units=1/GPa)
#
#
# Indices 1 2 3 4 5 6 
#
# 1 0.007350 -0.000411 -0.000692 0.000000 0.000000 0.000000
# 2 -0.000411 0.015836 -0.001266 0.000000 0.000000 0.000000
# 3 -0.000692 -0.001266 0.005524 0.000000 0.000000 0.000000
# 4 0.000000 0.000000 0.000000 -0.009395 0.000000 0.000000
# 5 0.000000 0.000000 0.000000 0.000000 0.019155 0.000000
# 6 0.000000 0.000000 0.000000 0.000000 0.000000 0.042080
#
#
# Mechanical properties :
#
#
# Convention : Reuss Voigt Hill
#
# Bulk Modulus (GPa) = 41.71388 51.92438 46.81913
# Shear Modulus (GPa) = 53.60392 17.27638 35.44015
#
# Velocity S-wave (km/s) = 4.62472 2.62551 3.76041
# Velocity P-wave (km/s) = 6.72022 5.46891 6.12660
#
# Compressibility (1/GPa) = 0.02397284
#
# Stress axis : x y z
#
# Youngs Moduli (GPa) = 136.05654 63.14738 181.03653
#
# Poissons Ratio (x) = 0.02595 0.12527
# Poissons Ratio (y) = 0.05591 0.22910
# Poissons Ratio (z) = 0.09414 0.07991
#
# Static dielectric constant tensor:
#      x y z
#    x 1.835420 0.000000 0.000000 
#    y 0.000000 2.024380 0.000000 
#    z 0.000000 0.000000 1.981420 
# 
# From -- ./inp_files/11930.got.cif
#   From: 2010.05.17/outbox.cif.g08.bks.cpg/sg40_6_cif.got.tgz:11930.got - 2010.06.03 18:35:42.
