data_PCOD9364149
_publ_section_title
;
Structure prediction by ZEFSAII (Michael W. Deem and Ramdas Pophale) SiO2 
 PCOD9364149
Probable space group: A M A 2
;
_chemical_formula_sum "Si O2"
_cell_formula_units_Z 56
_cell_length_a 20.280009
_cell_length_b 12.295812
_cell_length_c 10.878106
_cell_angle_alpha 90.000000
_cell_angle_beta 90.000000
_cell_angle_gamma 90.000000
_cell_volume 2712.555571
_symmetry_space_group_name_H-M "A M A 2"
_symmetry_group_IT_number 40
_symmetry_cell_setting 'orthorhombic'
loop_
_space_group_symop_operation_xyz
x,y,z
-x,-y,z
1/2-x,y,z
1/2+x,-y,z
x,1/2+y,1/2+z
-x,1/2-y,1/2+z
1/2-x,1/2+y,1/2+z
1/2+x,1/2-y,1/2+z
loop_
_atom_site_type_symbol
_atom_site_label
_atom_site_fract_x
_atom_site_fract_y
_atom_site_fract_z
Si Si1 0.511687 0.728601 0.622030
Si Si2 0.677231 0.167262 0.430512
Si Si3 0.447144 0.091188 0.453998
Si Si4 0.095794 0.961386 0.226775
Si Si5 0.560441 0.921171 0.794719
Si Si6 0.827070 0.474013 0.113251
Si Si7 0.384024 0.633562 0.548213
O O1 0.525340 0.791952 0.493138
O O2 0.548977 0.614911 0.644355
O O3 0.540205 0.809945 0.725505
O O4 0.433534 0.711195 0.624603
O O5 0.750000 0.154722 0.378596
O O6 0.629505 0.118680 0.326430
O O7 0.665509 0.289168 0.475348
O O8 0.672483 0.093335 0.552686
O O9 0.374592 0.087888 0.515700
O O10 0.500000 0.000000 0.502932
O O11 0.437887 0.051845 0.315173
O O12 0.139243 0.035114 0.134455
O O13 0.629497 0.962572 0.735729
O O14 0.500000 0.000000 0.769933
O O15 0.570403 0.911917 0.939229
O O16 0.750000 0.439886 0.123212
#
# Coordination Sequence:
#
# PCOD9364149 Si02
#       7
#     8   8   8   8   8   8   8
#     4  11  21  37  61  90 129 167 208 262 329 388
#     4  10  22  44  67  87 122 172 219 263 328 394
#     4  10  20  37  63  91 127 168 214 265 331 383
#     4  11  23  41  61  96 128 166 211 272 324 392
#     4  11  22  38  58  95 132 167 214 269 328 385
#     4   9  19  38  63  88 119 164 216 264 317 390
#     4  12  24  37  62  97 128 164 217 266 327 391
#
# _framework density 20.644738
#
# number of rings (size 3 to 8) (size 9 to 14) (size 15 to 20)
#    0.000    1.429    1.429    6.429    2.000    1.143 
#    2.571    0.000    0.000    0.000    0.000    0.000 
#    0.000    0.000    0.000    0.000    0.000    0.000 
#
# Total GULP energy -155983.991509 kJ/mol
# GULP energy per Si atom -5570.856840 kJ/mol
# Density = 2.059775 g / cm^3
# Si number density = 20.644738 Si / 1000 Ang^3
#
#
#
# Elastic Constant Matrix: (Units=GPa)
#
#
# Indices 1 2 3 4 5 6 
#
# 1 101.6371 20.6412 15.6760 0.0000 0.0000 0.0000
# 2 20.6412 84.7223 37.8324 0.0000 0.0000 0.0000
# 3 15.6760 37.8324 82.5100 0.0000 0.0000 0.0000
# 4 0.0000 0.0000 0.0000 24.6617 0.0000 0.0000
# 5 0.0000 0.0000 0.0000 0.0000 4.4709 0.0000
# 6 0.0000 0.0000 0.0000 0.0000 0.0000 19.3153
#
#
#
# Elastic Compliance Matrix: (Units=1/GPa)
#
#
# Indices 1 2 3 4 5 6 
#
# 1 0.010420 -0.002081 -0.001026 0.000000 0.000000 0.000000
# 2 -0.002081 0.015258 -0.006601 0.000000 0.000000 0.000000
# 3 -0.001026 -0.006601 0.015341 0.000000 0.000000 0.000000
# 4 0.000000 0.000000 0.000000 0.040549 0.000000 0.000000
# 5 0.000000 0.000000 0.000000 0.000000 0.223668 0.000000
# 6 0.000000 0.000000 0.000000 0.000000 0.000000 0.051772
#
#
# Mechanical properties :
#
#
# Convention : Reuss Voigt Hill
#
# Bulk Modulus (GPa) = 46.28619 46.35207 46.31913
# Shear Modulus (GPa) = 13.03363 22.67090 17.85226
#
# Velocity S-wave (km/s) = 2.51535 3.31742 2.94383
# Velocity P-wave (km/s) = 5.55923 6.09711 5.83437
#
# Compressibility (1/GPa) = 0.02160472
#
# Stress axis : x y z
#
# Youngs Moduli (GPa) = 95.97242 65.54089 65.18431
#
# Poissons Ratio (x) = 0.13636 0.06686
# Poissons Ratio (y) = 0.19968 0.43026
# Poissons Ratio (z) = 0.09843 0.43261
#
# Static dielectric constant tensor:
#      x y z
#    x 1.747920 0.000000 0.000000 
#    y 0.000000 1.774100 0.000000 
#    z 0.000000 0.000000 1.768860 
# 
# From -- ./inp_files/13548.got.cif
#   From: 2010.05.17/outbox.cif.g08.bks.cpg/sg40_7_cif.got.tgz:13548.got - 2010.06.03 18:35:42.
