data_PCOD9364378
_publ_section_title
;
Structure prediction by ZEFSAII (Michael W. Deem and Ramdas Pophale) SiO2 
 PCOD9364378
Probable space group: A M A 2
;
_chemical_formula_sum "Si O2"
_cell_formula_units_Z 48
_cell_length_a 15.730912
_cell_length_b 15.308097
_cell_length_c 10.124175
_cell_angle_alpha 90.000000
_cell_angle_beta 90.000000
_cell_angle_gamma 90.000000
_cell_volume 2438.005890
_symmetry_space_group_name_H-M "A M A 2"
_symmetry_group_IT_number 40
_symmetry_cell_setting 'orthorhombic'
loop_
_space_group_symop_operation_xyz
x,y,z
-x,-y,z
1/2-x,y,z
1/2+x,-y,z
x,1/2+y,1/2+z
-x,1/2-y,1/2+z
1/2-x,1/2+y,1/2+z
1/2+x,1/2-y,1/2+z
loop_
_atom_site_type_symbol
_atom_site_label
_atom_site_fract_x
_atom_site_fract_y
_atom_site_fract_z
Si Si1 0.250000 0.245777 0.647740
Si Si2 0.922675 0.063599 0.024800
Si Si3 0.750000 0.952695 0.628842
Si Si4 0.069361 0.799981 0.791468
Si Si5 0.750000 0.014310 0.902235
Si Si6 0.582335 0.062528 0.552767
Si Si7 0.911254 0.670241 0.784518
Si Si8 0.250000 0.792697 0.849910
O O1 0.250000 0.148233 0.589355
O O2 0.168277 0.271923 0.734080
O O3 0.250000 0.298574 0.509432
O O4 0.933376 0.146830 0.928823
O O5 0.835005 0.016327 0.986597
O O6 0.921573 0.095924 0.173947
O O7 0.000000 0.000000 0.998447
O O8 0.750000 0.943454 0.788406
O O9 0.665103 0.002932 0.582602
O O10 0.065491 0.871617 0.675123
O O11 0.162664 0.755240 0.793890
O O12 0.994033 0.731389 0.784470
O O13 0.750000 0.104155 0.815214
O O14 0.598792 0.122891 0.424900
O O15 0.500000 0.000000 0.534954
#
# Coordination Sequence:
#
# PCOD9364378 Si02
#       8
#     4   8   4   8   4   8   8   4
#     4  12  25  44  70  96 129 180 227 266 334 404
#     4  11  22  42  67  90 128 172 212 263 323 388
#     4  12  25  42  70  98 125 178 225 272 322 396
#     4  11  22  42  69  93 130 177 221 264 322 402
#     4  10  20  42  66  90 121 169 220 258 317 383
#     4  12  25  42  65 101 137 166 218 278 334 391
#     4  12  25  42  65 100 135 168 214 273 338 387
#     4  10  20  44  68  90 129 177 218 272 325 375
#
# _framework density 19.688220999999999
#
# number of rings (size 3 to 8) (size 9 to 14) (size 15 to 20)
#    0.000    0.667    6.667    3.500    4.667    0.000 
#    0.000    0.833    0.000    0.000    0.000    0.000 
#    0.000    0.000    0.000    0.000    0.000    0.000 
#
# Total GULP energy -134074.053367 kJ/mol
# GULP energy per Si atom -5586.418890 kJ/mol
# Density = 1.964341 g / cm^3
# Si number density = 19.688221 Si / 1000 Ang^3
#
#
#
# Elastic Constant Matrix: (Units=GPa)
#
#
# Indices 1 2 3 4 5 6 
#
# 1 199.0320 54.9166 18.6172 0.0000 0.0000 0.0000
# 2 54.9166 57.1280 15.7413 0.0000 0.0000 0.0000
# 3 18.6172 15.7413 83.6856 0.0000 0.0000 0.0000
# 4 0.0000 0.0000 0.0000 12.4723 0.0000 0.0000
# 5 0.0000 0.0000 0.0000 0.0000 36.4892 0.0000
# 6 0.0000 0.0000 0.0000 0.0000 0.0000 -68.9030
#
#
#
# Elastic Compliance Matrix: (Units=1/GPa)
#
#
# Indices 1 2 3 4 5 6 
#
# 1 0.006845 -0.006497 -0.000301 0.000000 0.000000 0.000000
# 2 -0.006497 0.024629 -0.003187 0.000000 0.000000 0.000000
# 3 -0.000301 -0.003187 0.012616 0.000000 0.000000 0.000000
# 4 0.000000 0.000000 0.000000 0.080178 0.000000 0.000000
# 5 0.000000 0.000000 0.000000 0.000000 0.027405 0.000000
# 6 0.000000 0.000000 0.000000 0.000000 0.000000 -0.014513
#
#
# Mechanical properties :
#
#
# Convention : Reuss Voigt Hill
#
# Bulk Modulus (GPa) = 41.46070 57.59954 49.53012
# Shear Modulus (GPa) = 30.27184 12.71639 21.49411
#
# Velocity S-wave (km/s) = 3.92543 2.54419 3.30771
# Velocity P-wave (km/s) = 6.45366 6.16035 6.30871
#
# Compressibility (1/GPa) = 0.02411923
#
# Stress axis : x y z
#
# Youngs Moduli (GPa) = 146.08814 40.60314 79.26506
#
# Poissons Ratio (x) = 0.26381 0.02383
# Poissons Ratio (y) = 0.94919 0.25263
# Poissons Ratio (z) = 0.04392 0.12941
#
# Static dielectric constant tensor:
#      x y z
#    x 1.706980 0.000000 0.000000 
#    y 0.000000 1.651780 0.000000 
#    z 0.000000 0.000000 1.660220 
# 
# From -- ./inp_files/7502.got.cif
#   From: 2010.05.17/outbox.cif.g08.bks.cpg/sg40_4_cif.got.tgz:7502.got - 2010.06.03 18:35:42.
