data_PCOD9364959
_publ_section_title
;
Structure prediction by ZEFSAII (Michael W. Deem and Ramdas Pophale) SiO2 
 PCOD9364959
Probable space group: A M A 2
;
_chemical_formula_sum "Si O2"
_cell_formula_units_Z 64
_cell_length_a 27.934292
_cell_length_b 9.411918
_cell_length_c 11.112813
_cell_angle_alpha 90.000000
_cell_angle_beta 90.000000
_cell_angle_gamma 90.000000
_cell_volume 2921.728182
_symmetry_space_group_name_H-M "A M A 2"
_symmetry_group_IT_number 40
_symmetry_cell_setting 'orthorhombic'
loop_
_space_group_symop_operation_xyz
x,y,z
-x,-y,z
1/2-x,y,z
1/2+x,-y,z
x,1/2+y,1/2+z
-x,1/2-y,1/2+z
1/2-x,1/2+y,1/2+z
1/2+x,1/2-y,1/2+z
loop_
_atom_site_type_symbol
_atom_site_label
_atom_site_fract_x
_atom_site_fract_y
_atom_site_fract_z
Si Si1 0.947998 0.369308 0.030950
Si Si2 0.694695 0.583544 0.532902
Si Si3 0.192287 0.901868 0.295714
Si Si4 0.152801 0.156854 0.422863
Si Si5 0.948178 0.942281 0.813463
Si Si6 0.693092 0.934494 0.786340
Si Si7 0.553973 0.693008 0.990539
Si Si8 0.622650 0.651444 0.216014
O O1 0.949351 0.397843 0.173309
O O2 0.897078 0.312487 0.989927
O O3 0.947458 0.523797 0.964266
O O4 0.996771 0.282884 0.010182
O O5 0.750000 0.546849 0.546260
O O6 0.673265 0.554194 0.663166
O O7 0.690248 0.749322 0.497650
O O8 0.678473 0.497162 0.416812
O O9 0.250000 0.925109 0.305641
O O10 0.184636 0.732870 0.295091
O O11 0.166851 0.994385 0.398204
O O12 0.148976 0.225718 0.289413
O O13 0.931926 0.808086 0.891451
O O14 0.913646 0.076741 0.809448
O O15 0.000000 0.000000 0.849264
O O16 0.750000 0.958719 0.766940
O O17 0.661171 0.024906 0.692282
O O18 0.590090 0.702008 0.104422
#
# Coordination Sequence:
#
# PCOD9364959 Si02
#       8
#     8   8   8   8   8   8   8   8
#     4  10  22  40  61  95 127 164 215 272 326 397
#     4   9  20  40  63  93 134 172 214 270 325 386
#     4  10  22  41  65  97 134 175 223 268 325 392
#     4  11  23  38  65  95 131 170 220 271 328 387
#     4  11  21  42  67  90 128 170 211 270 332 390
#     4   9  20  40  66  98 136 176 217 269 328 388
#     4  10  22  41  66  89 127 166 216 269 328 388
#     4  10  22  40  65  97 130 169 223 260 331 391
#
# _framework density 21.904845000000002
#
# number of rings (size 3 to 8) (size 9 to 14) (size 15 to 20)
#    0.000    2.000    2.500    1.125    5.250    2.500 
#    2.250    1.250    0.000    6.750    0.000    0.000 
#    0.000    0.000    0.000    0.000    0.000    0.000 
#
# Total GULP energy -178411.513416 kJ/mol
# GULP energy per Si atom -5575.359794 kJ/mol
# Density = 2.185499 g / cm^3
# Si number density = 21.904845 Si / 1000 Ang^3
#
#
#
# Elastic Constant Matrix: (Units=GPa)
#
#
# Indices 1 2 3 4 5 6 
#
# 1 74.9229 15.0026 18.6503 0.0000 0.0000 0.0000
# 2 15.0026 81.8244 44.3664 0.0000 0.0000 0.0000
# 3 18.6503 44.3664 79.4001 0.0000 0.0000 0.0000
# 4 0.0000 0.0000 0.0000 27.1443 0.0000 0.0000
# 5 0.0000 0.0000 0.0000 0.0000 26.0729 0.0000
# 6 0.0000 0.0000 0.0000 0.0000 0.0000 23.7496
#
#
#
# Elastic Compliance Matrix: (Units=1/GPa)
#
#
# Indices 1 2 3 4 5 6 
#
# 1 0.014250 -0.001145 -0.002708 0.000000 0.000000 0.000000
# 2 -0.001145 0.017625 -0.009580 0.000000 0.000000 0.000000
# 3 -0.002708 -0.009580 0.018583 0.000000 0.000000 0.000000
# 4 0.000000 0.000000 0.000000 0.036840 0.000000 0.000000
# 5 0.000000 0.000000 0.000000 0.000000 0.038354 0.000000
# 6 0.000000 0.000000 0.000000 0.000000 0.000000 0.042106
#
#
# Mechanical properties :
#
#
# Convention : Reuss Voigt Hill
#
# Bulk Modulus (GPa) = 42.38192 43.57623 42.97907
# Shear Modulus (GPa) = 24.69279 25.93522 25.31401
#
# Velocity S-wave (km/s) = 3.36113 3.44466 3.40315
# Velocity P-wave (km/s) = 5.86968 5.97976 5.92497
#
# Compressibility (1/GPa) = 0.02359497
#
# Stress axis : x y z
#
# Youngs Moduli (GPa) = 70.17413 56.73617 53.81174
#
# Poissons Ratio (x) = 0.06494 0.14570
# Poissons Ratio (y) = 0.08033 0.51550
# Poissons Ratio (z) = 0.19001 0.54352
#
# Static dielectric constant tensor:
#      x y z
#    x 1.848440 0.000000 0.000000 
#    y 0.000000 1.827730 0.000000 
#    z 0.000000 0.000000 1.838350 
# 
# From -- ./inp_files/14411.got.cif
#   From: 2010.05.17/outbox.cif.g08.bks.cpg/sg40_8_cif.got.tgz:14411.got - 2010.06.03 18:35:42.
