data_PCOD9364251
_publ_section_title
;
Structure prediction by ZEFSAII (Michael W. Deem and Ramdas Pophale) SiO2 
 PCOD9364251
Probable space group: A M A 2
;
_chemical_formula_sum "Si O2"
_cell_formula_units_Z 36
_cell_length_a 7.836617
_cell_length_b 12.314502
_cell_length_c 14.474331
_cell_angle_alpha 90.000000
_cell_angle_beta 90.000000
_cell_angle_gamma 90.000000
_cell_volume 1396.831356
_symmetry_space_group_name_H-M "A M A 2"
_symmetry_group_IT_number 40
_symmetry_cell_setting 'orthorhombic'
loop_
_space_group_symop_operation_xyz
x,y,z
-x,-y,z
1/2-x,y,z
1/2+x,-y,z
x,1/2+y,1/2+z
-x,1/2-y,1/2+z
1/2-x,1/2+y,1/2+z
1/2+x,1/2-y,1/2+z
loop_
_atom_site_type_symbol
_atom_site_label
_atom_site_fract_x
_atom_site_fract_y
_atom_site_fract_z
Si Si1 0.946164 0.379678 0.032530
Si Si2 0.951476 0.114011 0.847861
Si Si3 0.250000 0.922849 0.179385
Si Si4 0.051401 0.146398 0.310603
Si Si5 0.434238 0.647263 0.553698
O O1 0.750000 0.360012 0.059204
O O2 0.000000 0.500000 0.061354
O O3 0.054765 0.277401 0.066103
O O4 0.955630 0.373734 0.920553
O O5 0.750000 0.115130 0.868208
O O6 0.050402 0.122048 0.945107
O O7 0.986392 0.225034 0.794353
O O8 0.000000 0.000000 0.802181
O O9 0.400015 0.913658 0.259971
O O10 0.402455 0.900998 0.102523
O O11 0.250000 0.128119 0.282590
O O12 0.250000 0.607296 0.589786
#
# Coordination Sequence:
#
# PCOD9364251 Si02
#       5
#     8   8   4   8   8
#     4  10  20  38  65  94 116 153 208 248 288 356
#     4  10  20  38  65  94 116 153 208 248 288 356
#     4  12  22  40  60  86 124 164 190 252 296 366
#     4   9  22  39  61  89 120 157 198 246 301 350
#     4  11  22  39  63  89 120 161 198 246 301 348
#
# _framework density 25.772617
#
# number of rings (size 3 to 8) (size 9 to 14) (size 15 to 20)
#    0.000    1.778    2.222    3.333    9.333    0.000 
#    0.000    2.222    0.000    0.000    0.000    0.000 
#    0.000    0.000    0.000    0.000    0.000    0.000 
#
# Total GULP energy -100415.127042 kJ/mol
# GULP energy per Si atom -5578.618169 kJ/mol
# Density = 2.571396 g / cm^3
# Si number density = 25.772617 Si / 1000 Ang^3
#
#
#
# Elastic Constant Matrix: (Units=GPa)
#
#
# Indices 1 2 3 4 5 6 
#
# 1 231.4995 52.1785 41.3844 0.0000 0.0000 0.0000
# 2 52.1785 191.4426 -16.2939 0.0000 0.0000 0.0000
# 3 41.3844 -16.2939 68.6770 0.0000 0.0000 0.0000
# 4 0.0000 0.0000 0.0000 -66.9397 0.0000 0.0000
# 5 0.0000 0.0000 0.0000 0.0000 88.3070 0.0000
# 6 0.0000 0.0000 0.0000 0.0000 0.0000 49.4693
#
#
#
# Elastic Compliance Matrix: (Units=1/GPa)
#
#
# Indices 1 2 3 4 5 6 
#
# 1 0.005374 -0.001776 -0.003660 0.000000 0.000000 0.000000
# 2 -0.001776 0.005918 0.002475 0.000000 0.000000 0.000000
# 3 -0.003660 0.002475 0.017353 0.000000 0.000000 0.000000
# 4 0.000000 0.000000 0.000000 -0.014939 0.000000 0.000000
# 5 0.000000 0.000000 0.000000 0.000000 0.011324 0.000000
# 6 0.000000 0.000000 0.000000 0.000000 0.000000 0.020215
#
#
# Mechanical properties :
#
#
# Convention : Reuss Voigt Hill
#
# Bulk Modulus (GPa) = 44.00916 71.79523 57.90220
# Shear Modulus (GPa) = 85.11572 41.79066 63.45319
#
# Velocity S-wave (km/s) = 5.75303 4.03117 4.96728
# Velocity P-wave (km/s) = 7.82578 7.04165 7.44404
#
# Compressibility (1/GPa) = 0.02272254
#
# Stress axis : x y z
#
# Youngs Moduli (GPa) = 186.07039 168.96904 57.62532
#
# Poissons Ratio (x) = 0.30014 0.21091
# Poissons Ratio (y) = 0.33052 -0.14259
# Poissons Ratio (z) = 0.68101 -0.41812
#
# Static dielectric constant tensor:
#      x y z
#    x 1.885020 0.000000 0.000000 
#    y 0.000000 2.197490 0.000000 
#    z 0.000000 0.000000 1.970370 
# 
# From -- ./inp_files/19051.got.cif
#   From: 2010.05.17/outbox.cif.g08.bks.cpg/sg40_10_cif.got.tgz:19051.got - 2010.06.03 18:35:42.
