data_PCOD9365082
_publ_section_title
;
Structure prediction by ZEFSAII (Michael W. Deem and Ramdas Pophale) SiO2 
 PCOD9365082
Probable space group: A M A 2
;
_chemical_formula_sum "Si O2"
_cell_formula_units_Z 36
_cell_length_a 13.081018
_cell_length_b 8.957223
_cell_length_c 11.806831
_cell_angle_alpha 90.000000
_cell_angle_beta 90.000000
_cell_angle_gamma 90.000000
_cell_volume 1383.401610
_symmetry_space_group_name_H-M "A M A 2"
_symmetry_group_IT_number 40
_symmetry_cell_setting 'orthorhombic'
loop_
_space_group_symop_operation_xyz
x,y,z
-x,-y,z
1/2-x,y,z
1/2+x,-y,z
x,1/2+y,1/2+z
-x,1/2-y,1/2+z
1/2-x,1/2+y,1/2+z
1/2+x,1/2-y,1/2+z
loop_
_atom_site_type_symbol
_atom_site_label
_atom_site_fract_x
_atom_site_fract_y
_atom_site_fract_z
Si Si1 0.132667 0.298569 0.899300
Si Si2 0.000000 0.000000 0.701604
Si Si3 0.134042 0.516260 0.548939
Si Si4 0.063829 0.185725 0.517261
Si Si5 0.563592 0.310008 0.772714
O O1 0.250000 0.344763 0.892631
O O2 0.058532 0.339653 0.794768
O O3 0.056736 0.356186 0.998190
O O4 0.132532 0.124228 0.938317
O O5 0.915635 0.902389 0.630900
O O6 0.062412 0.869280 0.763364
O O7 0.250000 0.464055 0.563076
O O8 0.071937 0.363630 0.533332
O O9 0.107968 0.611259 0.662642
O O10 0.112806 0.150211 0.395019
#
# Coordination Sequence:
#
# PCOD9365082 Si02
#       5
#     8   4   8   8   8
#     4   9  20  43  72 101 138 182 239 300 354 429
#     4  12  22  40  72 100 136 186 224 294 360 428
#     4  11  22  44  74 103 141 195 247 293 363 447
#     4  10  24  42  70 100 143 186 233 302 360 427
#     4  10  22  42  71  99 140 192 231 295 366 424
#
# _framework density 26.022812999999999
#
# number of rings (size 3 to 8) (size 9 to 14) (size 15 to 20)
#    1.333    0.444    2.222    2.000    0.000    2.667 
#    0.000    6.667    0.000    1.333    0.000    0.000 
#    0.000    0.000    0.000    0.000    0.000    0.000 
#
# Total GULP energy -100263.964563 kJ/mol
# GULP energy per Si atom -5570.220254 kJ/mol
# Density = 2.596358 g / cm^3
# Si number density = 26.022813 Si / 1000 Ang^3
#
#
#
# Elastic Constant Matrix: (Units=GPa)
#
#
# Indices 1 2 3 4 5 6 
#
# 1 100.6129 -18.4656 -17.0404 0.0000 0.0000 0.0000
# 2 -18.4656 103.7125 10.4338 0.0000 0.0000 0.0000
# 3 -17.0404 10.4338 86.3957 0.0000 0.0000 0.0000
# 4 0.0000 0.0000 0.0000 61.0936 0.0000 0.0000
# 5 0.0000 0.0000 0.0000 0.0000 24.0907 0.0000
# 6 0.0000 0.0000 0.0000 0.0000 0.0000 14.1014
#
#
#
# Elastic Compliance Matrix: (Units=1/GPa)
#
#
# Indices 1 2 3 4 5 6 
#
# 1 0.010568 0.001692 0.001880 0.000000 0.000000 0.000000
# 2 0.001692 0.010032 -0.000878 0.000000 0.000000 0.000000
# 3 0.001880 -0.000878 0.012051 0.000000 0.000000 0.000000
# 4 0.000000 0.000000 0.000000 0.016368 0.000000 0.000000
# 5 0.000000 0.000000 0.000000 0.000000 0.041510 0.000000
# 6 0.000000 0.000000 0.000000 0.000000 0.000000 0.070915
#
#
# Mechanical properties :
#
#
# Convention : Reuss Voigt Hill
#
# Bulk Modulus (GPa) = 26.28753 26.73076 26.50915
# Shear Modulus (GPa) = 29.63230 40.91004 35.27117
#
# Velocity S-wave (km/s) = 3.37813 3.96925 3.68556
# Velocity P-wave (km/s) = 5.03382 5.59473 5.32167
#
# Compressibility (1/GPa) = 0.03804085
#
# Stress axis : x y z
#
# Youngs Moduli (GPa) = 94.62428 99.68424 82.97757
#
# Poissons Ratio (x) = -0.16871 -0.15600
# Poissons Ratio (y) = -0.16015 0.07283
# Poissons Ratio (z) = -0.17790 0.08749
#
# Static dielectric constant tensor:
#      x y z
#    x 2.073950 0.000000 0.000000 
#    y 0.000000 2.148210 0.000000 
#    z 0.000000 0.000000 2.157040 
# 
# From -- ./inp_files/11033.got.cif
#   From: 2010.05.17/outbox.cif.g08.bks.cpg/sg40_6_cif.got.tgz:11033.got - 2010.06.03 18:35:42.
