data_PCOD9365742
_publ_section_title
;
Structure prediction by ZEFSAII (Michael W. Deem and Ramdas Pophale) SiO2 
 PCOD9365742
Probable space group: A B A 2
;
_chemical_formula_sum "Si O2"
_cell_formula_units_Z 56
_cell_length_a 5.480854
_cell_length_b 23.091640
_cell_length_c 19.060657
_cell_angle_alpha 90.000000
_cell_angle_beta 90.000000
_cell_angle_gamma 90.000000
_cell_volume 2412.353107
_symmetry_space_group_name_H-M "A B A 2"
_symmetry_group_IT_number 41
_symmetry_cell_setting 'orthorhombic'
loop_
_space_group_symop_operation_xyz
x,y,z
-x,-y,z
1/2-x,y,1/2+z
1/2+x,-y,1/2+z
x,1/2+y,1/2+z
-x,1/2-y,1/2+z
1/2-x,1/2+y,z
1/2+x,1/2-y,z
loop_
_atom_site_type_symbol
_atom_site_label
_atom_site_fract_x
_atom_site_fract_y
_atom_site_fract_z
Si Si1 0.134912 0.213829 0.206190
Si Si2 0.634910 0.286171 0.046131
Si Si3 0.254064 0.976485 0.234083
Si Si4 0.250000 0.549056 0.376160
Si Si5 0.381255 0.866259 0.813501
Si Si6 0.618746 0.633741 0.938819
Si Si7 0.245935 0.976485 0.518238
O O1 0.905127 0.258676 0.212530
O O2 0.117730 0.190116 0.126160
O O3 0.075199 0.168951 0.267466
O O4 0.905123 0.258676 0.039791
O O5 0.575200 0.331050 0.984855
O O6 0.248815 0.908199 0.254931
O O7 0.500000 0.000000 0.199089
O O8 0.259424 0.011172 0.307515
O O9 0.000000 0.000000 0.202218
O O10 0.478737 0.589722 0.364463
O O11 0.259424 0.511173 0.444807
O O12 0.021262 0.589722 0.387858
O O13 0.250000 0.829681 0.876160
O O14 0.748815 0.591801 0.997390
O O15 0.500000 0.000000 0.550103
O O16 0.000000 0.000000 0.553232
#
# Coordination Sequence:
#
# PCOD9365742 Si02
#       7
#     8   8   8   8   8   8   8
#     4  10  25  47  63  80 116 164 205 250 306 355
#     4  10  25  47  63  80 116 164 205 250 306 355
#     4  10  17  30  49  82 121 155 177 216 290 361
#     4  10  18  32  50  90 126 152 176 228 300 356
#     4  11  21  33  63  91 119 155 200 245 296 353
#     4  11  21  33  63  91 119 155 200 245 296 353
#     4  10  17  30  49  82 121 155 177 216 290 361
#
# _framework density 23.213849
#
# number of rings (size 3 to 8) (size 9 to 14) (size 15 to 20)
#    0.000    1.714    4.286    0.857    4.000    1.143 
#    0.000    0.000    0.000    8.571    0.000    0.000 
#    0.000    0.000    0.000    0.000    0.000    0.000 
#
# Total GULP energy -155886.926268 kJ/mol
# GULP energy per Si atom -5567.390224 kJ/mol
# Density = 2.316101 g / cm^3
# Si number density = 23.213849 Si / 1000 Ang^3
#
#
#
# Elastic Constant Matrix: (Units=GPa)
#
#
# Indices 1 2 3 4 5 6 
#
# 1 119.5481 -7.3334 -5.0008 0.0000 0.0000 0.0000
# 2 -7.3334 19.4245 9.6687 0.0000 0.0000 0.0000
# 3 -5.0008 9.6687 100.3044 0.0000 0.0000 0.0000
# 4 0.0000 0.0000 0.0000 198.6301 0.0000 0.0000
# 5 0.0000 0.0000 0.0000 0.0000 34.4364 0.0000
# 6 0.0000 0.0000 0.0000 0.0000 0.0000 10.8938
#
#
#
# Elastic Compliance Matrix: (Units=1/GPa)
#
#
# Indices 1 2 3 4 5 6 
#
# 1 0.008565 0.003173 0.000121 0.000000 0.000000 0.000000
# 2 0.003173 0.055252 -0.005168 0.000000 0.000000 0.000000
# 3 0.000121 -0.005168 0.010474 0.000000 0.000000 0.000000
# 4 0.000000 0.000000 0.000000 0.005034 0.000000 0.000000
# 5 0.000000 0.000000 0.000000 0.000000 0.029039 0.000000
# 6 0.000000 0.000000 0.000000 0.000000 0.000000 0.091795
#
#
# Mechanical properties :
#
#
# Convention : Reuss Voigt Hill
#
# Bulk Modulus (GPa) = 14.17571 25.99400 20.08485
# Shear Modulus (GPa) = 21.98573 64.92157 43.45365
#
# Velocity S-wave (km/s) = 3.08083 5.29410 4.33122
# Velocity P-wave (km/s) = 4.33303 6.97079 5.80375
#
# Compressibility (1/GPa) = 0.07054321
#
# Stress axis : x y z
#
# Youngs Moduli (GPa) = 116.76041 18.09898 95.47613
#
# Poissons Ratio (x) = -0.05743 -0.01156
# Poissons Ratio (y) = -0.37050 0.49339
# Poissons Ratio (z) = -0.01414 0.09353
#
# Static dielectric constant tensor:
#      x y z
#    x 2.250340 0.000000 0.000000 
#    y 0.000000 1.907250 0.000000 
#    z 0.000000 0.000000 1.831650 
# 
# From -- ./inp_files/11892.got.cif
#   From: 2010.05.17/outbox.cif.g08.bks.cpg/sg41_6_cif.got.tgz:11892.got - 2010.06.03 18:54:24.
