data_PCOD9365487
_publ_section_title
;
Structure prediction by ZEFSAII (Michael W. Deem and Ramdas Pophale) SiO2 
 PCOD9365487
Probable space group: A M A 2
;
_chemical_formula_sum "Si O2"
_cell_formula_units_Z 64
_cell_length_a 16.699141
_cell_length_b 15.411404
_cell_length_c 11.488719
_cell_angle_alpha 90.000000
_cell_angle_beta 90.000000
_cell_angle_gamma 90.000000
_cell_volume 2956.704650
_symmetry_space_group_name_H-M "A M A 2"
_symmetry_group_IT_number 40
_symmetry_cell_setting 'orthorhombic'
loop_
_space_group_symop_operation_xyz
x,y,z
-x,-y,z
1/2-x,y,z
1/2+x,-y,z
x,1/2+y,1/2+z
-x,1/2-y,1/2+z
1/2-x,1/2+y,1/2+z
1/2+x,1/2-y,1/2+z
loop_
_atom_site_type_symbol
_atom_site_label
_atom_site_fract_x
_atom_site_fract_y
_atom_site_fract_z
Si Si1 0.453463 0.287949 0.119130
Si Si2 0.584075 0.976451 0.388530
Si Si3 0.657719 0.862693 0.044409
Si Si4 0.654340 0.635361 0.444940
Si Si5 0.458598 0.718772 0.863537
Si Si6 0.846995 0.453809 0.328473
Si Si7 0.656935 0.040828 0.608263
Si Si8 0.157211 0.950470 0.172940
O O1 0.390419 0.209955 0.108658
O O2 0.496136 0.260774 0.243332
O O3 0.402755 0.377911 0.124752
O O4 0.496587 0.286542 0.990924
O O5 0.575949 0.878207 0.346805
O O6 0.500000 0.000000 0.446807
O O7 0.651247 0.000312 0.480679
O O8 0.598658 0.039971 0.280266
O O9 0.750000 0.835570 0.036176
O O10 0.656162 0.956426 0.107054
O O11 0.622503 0.880553 0.915119
O O12 0.750000 0.639130 0.440189
O O13 0.614609 0.716953 0.388241
O O14 0.629133 0.547389 0.379798
O O15 0.631862 0.621133 0.579715
O O16 0.750000 0.448041 0.337625
O O17 0.867972 0.462170 0.194564
O O18 0.750000 0.065391 0.634196
O O19 0.250000 0.935476 0.207732
#
# Coordination Sequence:
#
# PCOD9365487 Si02
#       8
#     8   8   8   8   8   8   8   8
#     4  12  25  44  62  98 130 177 217 271 325 396
#     4  12  25  43  59  90 135 180 216 267 329 404
#     4   9  18  36  65  95 121 155 212 271 316 379
#     4   9  19  37  66  97 121 155 213 278 320 375
#     4  12  27  43  66  92 137 173 222 269 334 394
#     4   8  16  35  61  93 123 154 203 264 321 377
#     4  11  23  42  68  92 127 173 218 270 333 391
#     4   9  19  37  64  96 126 160 211 269 329 387
#
# _framework density 21.645720000000001
#
# number of rings (size 3 to 8) (size 9 to 14) (size 15 to 20)
#    0.000    1.750    3.750    2.250    1.750    2.500 
#    0.000    1.875    0.000    3.750    0.000    0.000 
#    0.000    0.000    0.000    0.000    0.000    0.000 
#
# Total GULP energy -178346.396335 kJ/mol
# GULP energy per Si atom -5573.324885 kJ/mol
# Density = 2.159645 g / cm^3
# Si number density = 21.645720 Si / 1000 Ang^3
#
#
#
# Elastic Constant Matrix: (Units=GPa)
#
#
# Indices 1 2 3 4 5 6 
#
# 1 16.9998 4.2938 26.6512 0.0000 0.0000 0.0000
# 2 4.2938 45.2197 10.7591 0.0000 0.0000 0.0000
# 3 26.6512 10.7591 126.6006 0.0000 0.0000 0.0000
# 4 0.0000 0.0000 0.0000 33.1639 0.0000 0.0000
# 5 0.0000 0.0000 0.0000 0.0000 27.3162 0.0000
# 6 0.0000 0.0000 0.0000 0.0000 0.0000 17.3147
#
#
#
# Elastic Compliance Matrix: (Units=1/GPa)
#
#
# Indices 1 2 3 4 5 6 
#
# 1 0.088524 -0.004054 -0.018291 0.000000 0.000000 0.000000
# 2 -0.004054 0.022756 -0.001081 0.000000 0.000000 0.000000
# 3 -0.018291 -0.001081 0.011841 0.000000 0.000000 0.000000
# 4 0.000000 0.000000 0.000000 0.030153 0.000000 0.000000
# 5 0.000000 0.000000 0.000000 0.000000 0.036608 0.000000
# 6 0.000000 0.000000 0.000000 0.000000 0.000000 0.057754
#
#
# Mechanical properties :
#
#
# Convention : Reuss Voigt Hill
#
# Bulk Modulus (GPa) = 13.11119 30.24756 21.67938
# Shear Modulus (GPa) = 15.62933 25.36669 20.49801
#
# Velocity S-wave (km/s) = 2.69002 3.42702 3.08064
# Velocity P-wave (km/s) = 3.96467 5.44643 4.76351
#
# Compressibility (1/GPa) = 0.07627070
#
# Stress axis : x y z
#
# Youngs Moduli (GPa) = 11.29641 43.94394 84.45098
#
# Poissons Ratio (x) = 0.17814 1.54469
# Poissons Ratio (y) = 0.04579 0.09125
# Poissons Ratio (z) = 0.20662 0.04748
#
# Static dielectric constant tensor:
#      x y z
#    x 1.764110 0.000000 0.000000 
#    y 0.000000 1.737900 0.000000 
#    z 0.000000 0.000000 1.900750 
# 
# From -- ./inp_files/12446.got.cif
#   From: 2010.05.17/outbox.cif.g08.bks.cpg/sg40_7_cif.got.tgz:12446.got - 2010.06.03 18:35:42.
