data_PCOD9365678
_publ_section_title
;
Structure prediction by ZEFSAII (Michael W. Deem and Ramdas Pophale) SiO2 
 PCOD9365678
Probable space group: A M A 2
;
_chemical_formula_sum "Si O2"
_cell_formula_units_Z 32
_cell_length_a 9.000000
_cell_length_b 24.000000
_cell_length_c 15.000000
_cell_angle_alpha 90.000000
_cell_angle_beta 90.000000
_cell_angle_gamma 90.000000
_cell_volume 3240.000000
_symmetry_space_group_name_H-M "A M A 2"
_symmetry_group_IT_number 40
_symmetry_cell_setting 'orthorhombic'
loop_
_space_group_symop_operation_xyz
x,y,z
-x,-y,z
1/2-x,y,z
1/2+x,-y,z
x,1/2+y,1/2+z
-x,1/2-y,1/2+z
1/2-x,1/2+y,1/2+z
1/2+x,1/2-y,1/2+z
loop_
_atom_site_type_symbol
_atom_site_label
_atom_site_fract_x
_atom_site_fract_y
_atom_site_fract_z
Si Si1 0.572946 0.650703 0.353760
Si Si2 0.573398 0.060685 0.176324
Si Si3 0.082476 0.555421 0.849080
Si Si4 0.918913 0.277600 0.671214
Si Si5 0.087104 0.152293 0.488103
Si Si6 0.425891 0.636683 0.530296
Si Si7 0.425000 0.771699 0.350783
Si Si8 0.918407 0.643436 0.161143
O O1 0.750000 0.656347 0.355564
O O2 0.511057 0.621944 0.440756
O O3 0.499932 0.711421 0.357678
O O4 0.534472 0.623692 0.258912
O O5 0.750000 0.061510 0.163711
O O6 0.524079 0.080479 0.273801
O O7 0.485586 0.096107 0.105131
O O8 0.500000 0.000000 0.172249
O O9 0.250000 0.543249 0.814060
O O10 0.096944 0.598709 0.926743
O O11 0.000000 0.500000 0.879764
O O12 0.750000 0.296984 0.690740
O O13 0.961173 0.303404 0.575904
O O14 0.916598 0.211017 0.666158
O O15 0.020100 0.293948 0.754584
O O16 0.250000 0.179045 0.496038
O O17 0.978225 0.192817 0.434794
O O18 0.028700 0.131858 0.582273
O O19 0.250000 0.633900 0.515783
O O20 0.250000 0.766303 0.351034
O O21 0.750000 0.625048 0.142017
#
# Coordination Sequence:
#
# PCOD9365678 Si02
#       8
#     8   8   8   8   8   8   8   8
#     4  10  21  37  54  74 104 140 177 219 263 305
#     4  11  22  37  57  81 109 140 173 212 261 314
#     4  10  21  37  56  80 108 137 170 212 263 315
#     4   9  19  34  50  73 107 141 173 212 257 305
#     4  11  22  34  52  77 105 137 174 216 261 312
#     4  11  21  34  55  81 108 139 176 217 261 313
#     4  11  21  32  50  76 106 141 178 214 256 308
#     4   9  19  35  53  74 103 139 178 218 258 302
#
# _framework density 9.8765429999999999
#
# number of rings (size 3 to 8) (size 9 to 14) (size 15 to 20)
#    0.000    1.750    0.000    6.750    0.000    9.500 
#    0.000    0.000    0.000    0.750    0.000    1.750 
#    0.000    0.000    0.000    0.000    0.000    0.000 
#
# Total GULP energy -178428.210949 kJ/mol
# GULP energy per Si atom -5575.881592 kJ/mol
# Density = 0.985406 g / cm^3
# Si number density = 9.876543 Si / 1000 Ang^3
#
#
#
# Elastic Constant Matrix: (Units=GPa)
#
#
# Indices 1 2 3 4 5 6 
#
# 1 -7.6263 -14.1863 2.5407 0.0000 0.0000 0.0000
# 2 -14.1863 16.6050 -7.9819 0.0000 0.0000 0.0000
# 3 2.5407 -7.9819 78.5784 0.0000 0.0000 0.0000
# 4 0.0000 0.0000 0.0000 -6.9038 0.0000 0.0000
# 5 0.0000 0.0000 0.0000 0.0000 36.6491 0.0000
# 6 0.0000 0.0000 0.0000 0.0000 0.0000 25.1898
#
#
#
# Elastic Compliance Matrix: (Units=1/GPa)
#
#
# Indices 1 2 3 4 5 6 
#
# 1 -0.050022 -0.044112 -0.002863 0.000000 0.000000 0.000000
# 2 -0.044112 0.024414 0.003906 0.000000 0.000000 0.000000
# 3 -0.002863 0.003906 0.013216 0.000000 0.000000 0.000000
# 4 0.000000 0.000000 0.000000 -0.144847 0.000000 0.000000
# 5 0.000000 0.000000 0.000000 0.000000 0.027286 0.000000
# 6 0.000000 0.000000 0.000000 0.000000 0.000000 0.039699
#
#
# Mechanical properties :
#
#
# Convention : Reuss Voigt Hill
#
# Bulk Modulus (GPa) = -10.14895 5.36691 -2.39102
# Shear Modulus (GPa) = -135.27942 18.13266 -58.57338
#
# Velocity S-wave (km/s) = -8.28456 3.03308 -5.45134
# Velocity P-wave (km/s) = 9.83163 3.87156 6.39030
#
# Compressibility (1/GPa) = -0.09853232
#
# Stress axis : x y z
#
# Youngs Moduli (GPa) = -19.99113 40.96093 75.66862
#
# Poissons Ratio (x) = 1.80688 0.21667
# Poissons Ratio (y) = -0.88186 -0.29558
# Poissons Ratio (z) = -0.05724 -0.16000
#
# Static dielectric constant tensor:
#      x y z
#    x 1.687590 0.000000 0.000000 
#    y 0.000000 1.797770 0.000000 
#    z 0.000000 0.000000 1.764980 
# 
# From -- ./inp_files/15626.got.cif
#   From: 2010.05.17/outbox.ucp.g08.bks.cvg/sg40_8_cif.got.tgz:15626.got - 2010.06.11 16:26:39.
