data_PCOD9365156
_publ_section_title
;
Structure prediction by ZEFSAII (Michael W. Deem and Ramdas Pophale) SiO2 
 PCOD9365156
Probable space group: A M A 2
;
_chemical_formula_sum "Si O2"
_cell_formula_units_Z 48
_cell_length_a 21.298971
_cell_length_b 11.361592
_cell_length_c 9.120159
_cell_angle_alpha 90.000000
_cell_angle_beta 90.000000
_cell_angle_gamma 90.000000
_cell_volume 2206.989269
_symmetry_space_group_name_H-M "A M A 2"
_symmetry_group_IT_number 40
_symmetry_cell_setting 'orthorhombic'
loop_
_space_group_symop_operation_xyz
x,y,z
-x,-y,z
1/2-x,y,z
1/2+x,-y,z
x,1/2+y,1/2+z
-x,1/2-y,1/2+z
1/2-x,1/2+y,1/2+z
1/2+x,1/2-y,1/2+z
loop_
_atom_site_type_symbol
_atom_site_label
_atom_site_fract_x
_atom_site_fract_y
_atom_site_fract_z
Si Si1 0.883821 0.407193 0.970900
Si Si2 0.928011 0.039459 0.896332
Si Si3 0.819254 0.379304 0.271156
Si Si4 0.378907 0.822740 0.391717
Si Si5 0.538144 0.215613 0.133942
Si Si6 0.101212 0.241155 0.195801
O O1 0.891532 0.540727 0.919769
O O2 0.868724 0.336155 0.822894
O O3 0.833265 0.405489 0.100943
O O4 0.942226 0.335496 0.047651
O O5 0.916805 0.136305 0.771190
O O6 0.873823 0.943973 0.865897
O O7 0.925620 0.110327 0.050253
O O8 0.000000 0.000000 0.880442
O O9 0.750000 0.418804 0.313253
O O10 0.826701 0.238117 0.289839
O O11 0.440317 0.778472 0.302515
O O12 0.362009 0.769656 0.549725
O O13 0.464697 0.188607 0.137687
#
# Coordination Sequence:
#
# PCOD9365156 Si02
#       6
#     8   8   8   8   8   8
#     4  10  23  44  65  94 138 181 231 286 351 420
#     4  11  22  41  68 103 148 185 228 290 363 427
#     4  11  25  48  70  98 138 187 246 303 359 430
#     4  11  23  41  66  94 134 181 233 283 347 417
#     4  10  23  37  62 106 144 180 227 283 351 429
#     4  11  22  39  67 102 140 184 228 283 356 427
#
# _framework density 21.749085999999998
#
# number of rings (size 3 to 8) (size 9 to 14) (size 15 to 20)
#    0.000    1.333    1.667    5.000    4.667    2.000 
#    0.000    8.333    0.000    0.000    0.000    0.000 
#    0.000    0.000    0.000    0.000    0.000    0.000 
#
# Total GULP energy -133843.195638 kJ/mol
# GULP energy per Si atom -5576.799818 kJ/mol
# Density = 2.169958 g / cm^3
# Si number density = 21.749086 Si / 1000 Ang^3
#
#
#
# Elastic Constant Matrix: (Units=GPa)
#
#
# Indices 1 2 3 4 5 6 
#
# 1 86.8300 30.4839 -1.9472 0.0000 0.0000 0.0000
# 2 30.4839 128.6137 45.7818 0.0000 0.0000 0.0000
# 3 -1.9472 45.7818 87.6548 0.0000 0.0000 0.0000
# 4 0.0000 0.0000 0.0000 38.4381 0.0000 0.0000
# 5 0.0000 0.0000 0.0000 0.0000 6.1827 0.0000
# 6 0.0000 0.0000 0.0000 0.0000 0.0000 4.9143
#
#
#
# Elastic Compliance Matrix: (Units=1/GPa)
#
#
# Indices 1 2 3 4 5 6 
#
# 1 0.012935 -0.003892 0.002320 0.000000 0.000000 0.000000
# 2 -0.003892 0.010722 -0.005686 0.000000 0.000000 0.000000
# 3 0.002320 -0.005686 0.014430 0.000000 0.000000 0.000000
# 4 0.000000 0.000000 0.000000 0.026016 0.000000 0.000000
# 5 0.000000 0.000000 0.000000 0.000000 0.161742 0.000000
# 6 0.000000 0.000000 0.000000 0.000000 0.000000 0.203487
#
#
# Mechanical properties :
#
#
# Convention : Reuss Voigt Hill
#
# Bulk Modulus (GPa) = 42.42593 50.19283 46.30938
# Shear Modulus (GPa) = 11.06918 25.15901 18.11410
#
# Velocity S-wave (km/s) = 2.25844 3.40484 2.88907
# Velocity P-wave (km/s) = 5.13323 6.21172 5.69805
#
# Compressibility (1/GPa) = 0.02357049
#
# Stress axis : x y z
#
# Youngs Moduli (GPa) = 77.30936 93.26823 69.30051
#
# Poissons Ratio (x) = 0.36297 -0.16077
# Poissons Ratio (y) = 0.30086 0.39407
# Poissons Ratio (z) = -0.17935 0.53036
#
# Static dielectric constant tensor:
#      x y z
#    x 1.833770 0.000000 0.000000 
#    y 0.000000 1.870650 0.000000 
#    z 0.000000 0.000000 1.813680 
# 
# From -- ./inp_files/8726.got.cif
#   From: 2010.05.17/outbox.cif.g08.bks.cpg/sg40_5_cif.got.tgz:8726.got - 2010.06.03 18:35:42.
