data_PCOD9365471
_publ_section_title
;
Structure prediction by ZEFSAII (Michael W. Deem and Ramdas Pophale) SiO2 
 PCOD9365471
Probable space group: A M A 2
;
_chemical_formula_sum "Si O2"
_cell_formula_units_Z 48
_cell_length_a 7.964338
_cell_length_b 24.046189
_cell_length_c 11.970664
_cell_angle_alpha 90.000000
_cell_angle_beta 90.000000
_cell_angle_gamma 90.000000
_cell_volume 2292.525526
_symmetry_space_group_name_H-M "A M A 2"
_symmetry_group_IT_number 40
_symmetry_cell_setting 'orthorhombic'
loop_
_space_group_symop_operation_xyz
x,y,z
-x,-y,z
1/2-x,y,z
1/2+x,-y,z
x,1/2+y,1/2+z
-x,1/2-y,1/2+z
1/2-x,1/2+y,1/2+z
1/2+x,1/2-y,1/2+z
loop_
_atom_site_type_symbol
_atom_site_label
_atom_site_fract_x
_atom_site_fract_y
_atom_site_fract_z
Si Si1 0.945330 0.564430 0.689240
Si Si2 0.545208 0.140706 0.989283
Si Si3 0.455142 0.267471 0.319634
Si Si4 0.049491 0.936996 0.785282
Si Si5 0.946556 0.353375 0.863235
Si Si6 0.953343 0.652055 0.116618
O O1 0.750000 0.562442 0.663393
O O2 0.017554 0.611321 0.602919
O O3 0.000000 0.500000 0.679936
O O4 0.972395 0.591779 0.810510
O O5 0.750000 0.144639 0.995555
O O6 0.490577 0.199461 0.932892
O O7 0.494219 0.096780 0.893693
O O8 0.250000 0.266726 0.322869
O O9 0.516069 0.204387 0.312946
O O10 0.501771 0.301394 0.208167
O O11 0.250000 0.932643 0.785776
O O12 0.991908 0.905400 0.674836
O O13 0.000000 0.000000 0.790276
O O14 0.750000 0.357371 0.837903
O O15 0.970695 0.345246 0.994885
O O16 0.750000 0.653807 0.106446
#
# Coordination Sequence:
#
# PCOD9365471 Si02
#       6
#     8   8   8   8   8   8
#     4  11  23  39  60  84 117 156 198 239 286 346
#     4   8  16  33  57  84 111 146 184 229 284 337
#     4   8  17  35  58  83 113 146 185 235 292 347
#     4   9  17  31  54  80 107 139 178 223 275 328
#     4  11  23  37  57  84 115 150 191 238 287 343
#     4   9  19  37  56  77 108 147 187 227 280 342
#
# _framework density 20.937607
#
# number of rings (size 3 to 8) (size 9 to 14) (size 15 to 20)
#    0.000    2.667    0.000    3.500    2.333    1.333 
#    0.000    3.333    0.000    4.000    0.000    0.000 
#    0.000    0.000    0.000    0.000    0.000    0.000 
#
# Total GULP energy -133763.971229 kJ/mol
# GULP energy per Si atom -5573.498801 kJ/mol
# Density = 2.088995 g / cm^3
# Si number density = 20.937607 Si / 1000 Ang^3
#
#
#
# Elastic Constant Matrix: (Units=GPa)
#
#
# Indices 1 2 3 4 5 6 
#
# 1 16.7260 7.1403 -0.3655 0.0000 0.0000 0.0000
# 2 7.1403 89.3725 19.1495 0.0000 0.0000 0.0000
# 3 -0.3655 19.1495 71.6077 0.0000 0.0000 0.0000
# 4 0.0000 0.0000 0.0000 18.3143 0.0000 0.0000
# 5 0.0000 0.0000 0.0000 0.0000 22.9320 0.0000
# 6 0.0000 0.0000 0.0000 0.0000 0.0000 15.1630
#
#
#
# Elastic Compliance Matrix: (Units=1/GPa)
#
#
# Indices 1 2 3 4 5 6 
#
# 1 0.062103 -0.005335 0.001744 0.000000 0.000000 0.000000
# 2 -0.005335 0.012328 -0.003324 0.000000 0.000000 0.000000
# 3 0.001744 -0.003324 0.014863 0.000000 0.000000 0.000000
# 4 0.000000 0.000000 0.000000 0.054602 0.000000 0.000000
# 5 0.000000 0.000000 0.000000 0.000000 0.043607 0.000000
# 6 0.000000 0.000000 0.000000 0.000000 0.000000 0.065950
#
#
# Mechanical properties :
#
#
# Convention : Reuss Voigt Hill
#
# Bulk Modulus (GPa) = 13.25165 25.50611 19.37888
# Shear Modulus (GPa) = 17.09768 21.40065 19.24916
#
# Velocity S-wave (km/s) = 2.86072 3.20052 3.03538
# Velocity P-wave (km/s) = 4.15385 5.08588 4.64331
#
# Compressibility (1/GPa) = 0.07546231
#
# Stress axis : x y z
#
# Youngs Moduli (GPa) = 16.10233 81.11896 67.28224
#
# Poissons Ratio (x) = 0.43279 -0.11732
# Poissons Ratio (y) = 0.08591 0.22364
# Poissons Ratio (z) = -0.02808 0.26963
#
# Static dielectric constant tensor:
#      x y z
#    x 1.737370 0.000000 0.000000 
#    y 0.000000 1.722020 0.000000 
#    z 0.000000 0.000000 1.765390 
# 
# From -- ./inp_files/10254.got.cif
#   From: 2010.05.17/outbox.cif.g08.bks.cpg/sg40_6_cif.got.tgz:10254.got - 2010.06.03 18:35:42.
