data_PCOD9365689
_publ_section_title
;
Structure prediction by ZEFSAII (Michael W. Deem and Ramdas Pophale) SiO2 
 PCOD9365689
Probable space group: A M A 2
;
_chemical_formula_sum "Si O2"
_cell_formula_units_Z 32
_cell_length_a 15.000000
_cell_length_b 24.000000
_cell_length_c 9.000000
_cell_angle_alpha 90.000000
_cell_angle_beta 90.000000
_cell_angle_gamma 90.000000
_cell_volume 3240.000000
_symmetry_space_group_name_H-M "A M A 2"
_symmetry_group_IT_number 40
_symmetry_cell_setting 'orthorhombic'
loop_
_space_group_symop_operation_xyz
x,y,z
-x,-y,z
1/2-x,y,z
1/2+x,-y,z
x,1/2+y,1/2+z
-x,1/2-y,1/2+z
1/2-x,1/2+y,1/2+z
1/2+x,1/2-y,1/2+z
loop_
_atom_site_type_symbol
_atom_site_label
_atom_site_fract_x
_atom_site_fract_y
_atom_site_fract_z
Si Si1 0.849151 0.902539 0.872300
Si Si2 0.459797 0.598196 0.824239
Si Si3 0.346480 0.680745 0.645407
Si Si4 0.958773 0.345677 0.121121
Si Si5 0.852853 0.611509 0.705557
Si Si6 0.354708 0.269086 0.543381
Si Si7 0.147707 0.803015 0.697355
Si Si8 0.144921 0.512730 0.616105
O O1 0.750000 0.910567 0.806337
O O2 0.918338 0.875158 0.763612
O O3 0.841245 0.856951 0.001827
O O4 0.877177 0.958499 0.958995
O O5 0.423937 0.653110 0.739338
O O6 0.566660 0.600270 0.817821
O O7 0.414991 0.545161 0.740208
O O8 0.433358 0.611385 0.990874
O O9 0.250000 0.676554 0.725999
O O10 0.358269 0.744963 0.607701
O O11 0.915136 0.283920 0.091804
O O12 0.065015 0.339182 0.143278
O O13 0.750000 0.612538 0.760115
O O14 0.869339 0.671369 0.626947
O O15 0.861480 0.554236 0.609054
O O16 0.250000 0.254328 0.566799
O O17 0.366644 0.283686 0.368792
O O18 0.250000 0.824619 0.685023
O O19 0.250000 0.525940 0.646657
#
# Coordination Sequence:
#
# PCOD9365689 Si02
#       8
#     8   8   8   8   8   8   8   8
#     4   9  20  36  60  92 120 150 198 256 306 349
#     4  11  21  35  60  89 118 157 197 250 299 351
#     4   9  18  35  57  82 116 159 203 242 289 350
#     4  12  24  34  60  95 128 157 195 247 311 361
#     4  10  22  40  65  89 116 157 209 251 289 353
#     4  10  22  38  59  91 127 161 197 245 302 360
#     4  10  22  37  53  80 125 172 202 233 294 368
#     4   9  20  41  68  91 114 155 206 253 300 352
#
# _framework density 9.8765429999999999
#
# number of rings (size 3 to 8) (size 9 to 14) (size 15 to 20)
#    0.000    2.000    1.250    2.625    5.250    2.000 
#    0.000    2.500    5.500    0.000    0.000    0.000 
#    0.000    0.000    0.000    0.000    0.000    0.000 
#
# Total GULP energy -178283.963790 kJ/mol
# GULP energy per Si atom -5571.373868 kJ/mol
# Density = 0.985406 g / cm^3
# Si number density = 9.876543 Si / 1000 Ang^3
#
#
#
# Elastic Constant Matrix: (Units=GPa)
#
#
# Indices 1 2 3 4 5 6 
#
# 1 92.3063 23.0468 21.4375 0.0000 0.0000 0.0000
# 2 23.0468 77.3425 18.4099 0.0000 0.0000 0.0000
# 3 21.4375 18.4099 35.3985 0.0000 0.0000 0.0000
# 4 0.0000 0.0000 0.0000 10.7922 0.0000 0.0000
# 5 0.0000 0.0000 0.0000 0.0000 16.2572 0.0000
# 6 0.0000 0.0000 0.0000 0.0000 0.0000 25.3659
#
#
#
# Elastic Compliance Matrix: (Units=1/GPa)
#
#
# Indices 1 2 3 4 5 6 
#
# 1 0.012948 -0.002273 -0.006659 0.000000 0.000000 0.000000
# 2 -0.002273 0.015155 -0.006505 0.000000 0.000000 0.000000
# 3 -0.006659 -0.006505 0.035666 0.000000 0.000000 0.000000
# 4 0.000000 0.000000 0.000000 0.092660 0.000000 0.000000
# 5 0.000000 0.000000 0.000000 0.000000 0.061511 0.000000
# 6 0.000000 0.000000 0.000000 0.000000 0.000000 0.039423
#
#
# Mechanical properties :
#
#
# Convention : Reuss Voigt Hill
#
# Bulk Modulus (GPa) = 30.40074 36.75950 33.58012
# Shear Modulus (GPa) = 16.71114 19.95992 18.33553
#
# Velocity S-wave (km/s) = 2.91177 3.18224 3.05000
# Velocity P-wave (km/s) = 5.16994 5.67028 5.42588
#
# Compressibility (1/GPa) = 0.03289394
#
# Stress axis : x y z
#
# Youngs Moduli (GPa) = 77.23477 65.98341 28.03811
#
# Poissons Ratio (x) = 0.14999 0.18670
# Poissons Ratio (y) = 0.17556 0.18240
# Poissons Ratio (z) = 0.51430 0.42924
#
# Static dielectric constant tensor:
#      x y z
#    x 1.752200 0.000000 0.000000 
#    y 0.000000 1.690220 0.000000 
#    z 0.000000 0.000000 1.724020 
# 
# From -- ./inp_files/6908.got.cif
#   From: 2010.05.17/outbox.ucp.g08.bks.cvg/sg40_4_cif.got.tgz:6908.got - 2010.06.11 16:26:39.
