data_PCOD9365399
_publ_section_title
;
Structure prediction by ZEFSAII (Michael W. Deem and Ramdas Pophale) SiO2 
 PCOD9365399
Probable space group: A M A 2
;
_chemical_formula_sum "Si O2"
_cell_formula_units_Z 40
_cell_length_a 8.590088
_cell_length_b 9.244822
_cell_length_c 26.845749
_cell_angle_alpha 90.000000
_cell_angle_beta 90.000000
_cell_angle_gamma 90.000000
_cell_volume 2131.923869
_symmetry_space_group_name_H-M "A M A 2"
_symmetry_group_IT_number 40
_symmetry_cell_setting 'orthorhombic'
loop_
_space_group_symop_operation_xyz
x,y,z
-x,-y,z
1/2-x,y,z
1/2+x,-y,z
x,1/2+y,1/2+z
-x,1/2-y,1/2+z
1/2-x,1/2+y,1/2+z
1/2+x,1/2-y,1/2+z
loop_
_atom_site_type_symbol
_atom_site_label
_atom_site_fract_x
_atom_site_fract_y
_atom_site_fract_z
Si Si1 0.937013 0.664494 0.086890
Si Si2 0.062452 0.162321 0.294058
Si Si3 0.937513 0.163319 0.696402
Si Si4 0.935839 0.835582 0.483109
Si Si5 0.936141 0.837528 0.888664
O O1 0.750000 0.663874 0.082111
O O2 0.980860 0.723724 0.141521
O O3 0.000000 0.500000 0.088326
O O4 0.010045 0.727340 0.036622
O O5 0.250000 0.161663 0.296028
O O6 0.011935 0.238734 0.242510
O O7 0.998106 0.252597 0.340480
O O8 0.000000 0.000000 0.296408
O O9 0.750000 0.154915 0.697241
O O10 0.000000 0.000000 0.701731
O O11 0.750000 0.840087 0.481015
O O12 0.003020 0.743478 0.437836
O O13 0.000000 0.000000 0.479388
O O14 0.750000 0.838505 0.888435
O O15 0.000000 0.000000 0.887655
#
# Coordination Sequence:
#
# PCOD9365399 Si02
#       5
#     8   8   8   8   8
#     4   9  16  30  52  81 113 148 187 231 276 328
#     4  11  23  40  59  84 114 149 189 233 281 334
#     4   9  19  34  56  83 114 148 187 231 279 330
#     4  11  21  36  58  86 116 151 190 233 279 330
#     4  12  25  42  61  84 112 146 185 232 283 338
#
# _framework density 18.762395999999999
#
# number of rings (size 3 to 8) (size 9 to 14) (size 15 to 20)
#    0.000    1.600    0.000    7.200    0.000    4.000 
#    0.000    1.000    0.000    2.400    0.000    0.000 
#    0.000    0.000    0.000    0.000    0.000    0.000 
#
# Total GULP energy -111705.345022 kJ/mol
# GULP energy per Si atom -5585.267251 kJ/mol
# Density = 1.871969 g / cm^3
# Si number density = 18.762396 Si / 1000 Ang^3
#
#
#
# Elastic Constant Matrix: (Units=GPa)
#
#
# Indices 1 2 3 4 5 6 
#
# 1 123.0022 44.8082 73.5499 0.0000 0.0000 0.0000
# 2 44.8082 111.5177 97.6498 0.0000 0.0000 0.0000
# 3 73.5499 97.6498 231.6165 0.0000 0.0000 0.0000
# 4 0.0000 0.0000 0.0000 33.6841 0.0000 0.0000
# 5 0.0000 0.0000 0.0000 0.0000 33.7352 0.0000
# 6 0.0000 0.0000 0.0000 0.0000 0.0000 25.2859
#
#
#
# Elastic Compliance Matrix: (Units=1/GPa)
#
#
# Indices 1 2 3 4 5 6 
#
# 1 0.010316 -0.002024 -0.002423 0.000000 0.000000 0.000000
# 2 -0.002024 0.014612 -0.005518 0.000000 0.000000 0.000000
# 3 -0.002423 -0.005518 0.007413 0.000000 0.000000 0.000000
# 4 0.000000 0.000000 0.000000 0.029688 0.000000 0.000000
# 5 0.000000 0.000000 0.000000 0.000000 0.029643 0.000000
# 6 0.000000 0.000000 0.000000 0.000000 0.000000 0.039548
#
#
# Mechanical properties :
#
#
# Convention : Reuss Voigt Hill
#
# Bulk Modulus (GPa) = 80.56233 99.79471 90.17852
# Shear Modulus (GPa) = 32.19904 35.21629 33.70766
#
# Velocity S-wave (km/s) = 4.14714 4.33709 4.24318
# Velocity P-wave (km/s) = 8.12176 8.85351 8.49552
#
# Compressibility (1/GPa) = 0.01241275
#
# Stress axis : x y z
#
# Youngs Moduli (GPa) = 96.93954 68.43746 134.89614
#
# Poissons Ratio (x) = 0.13848 0.32680
# Poissons Ratio (y) = 0.19616 0.74433
# Poissons Ratio (z) = 0.23485 0.37763
#
# Static dielectric constant tensor:
#      x y z
#    x 1.630450 0.000000 0.000000 
#    y 0.000000 1.600670 0.000000 
#    z 0.000000 0.000000 1.684510 
# 
# From -- ./inp_files/23807.got.cif
#   From: 2010.05.17/outbox.cif.g08.bks.cpg/sg40_12_cif.got.tgz:23807.got - 2010.06.03 18:35:42.
