data_PCOD9365866
_publ_section_title
;
Structure prediction by ZEFSAII (Michael W. Deem and Ramdas Pophale) SiO2 
 PCOD9365866
Probable space group: A B A 2
;
_chemical_formula_sum "Si O2"
_cell_formula_units_Z 44
_cell_length_a 12.910266
_cell_length_b 8.885289
_cell_length_c 16.015090
_cell_angle_alpha 90.000000
_cell_angle_beta 90.000000
_cell_angle_gamma 90.000000
_cell_volume 1837.114107
_symmetry_space_group_name_H-M "A B A 2"
_symmetry_group_IT_number 41
_symmetry_cell_setting 'orthorhombic'
loop_
_space_group_symop_operation_xyz
x,y,z
-x,-y,z
1/2-x,y,1/2+z
1/2+x,-y,1/2+z
x,1/2+y,1/2+z
-x,1/2-y,1/2+z
1/2-x,1/2+y,z
1/2+x,1/2-y,z
loop_
_atom_site_type_symbol
_atom_site_label
_atom_site_fract_x
_atom_site_fract_y
_atom_site_fract_z
Si Si1 0.854915 0.452379 0.890290
Si Si2 0.257143 0.884692 0.603101
Si Si3 0.891063 0.362854 0.179994
Si Si4 0.657944 0.872691 0.485892
Si Si5 0.965588 0.252441 0.348390
Si Si6 0.000000 0.500000 0.046142
O O1 0.737858 0.411307 0.909859
O O2 0.886038 0.609245 0.847567
O O3 0.920302 0.320343 0.846501
O O4 0.906322 0.473542 0.982252
O O5 0.179582 0.994658 0.653286
O O6 0.334245 0.988179 0.548483
O O7 0.320805 0.781913 0.665821
O O8 0.202123 0.768626 0.538656
O O9 0.938806 0.356494 0.271079
O O10 0.982935 0.364094 0.111178
O O11 0.553719 0.830059 0.437836
#
# Coordination Sequence:
#
# PCOD9365866 Si02
#       6
#     8   8   8   8   8   4
#     4  10  21  44  68  91 131 183 219 266 336 411
#     4  10  21  39  69  94 123 172 228 258 334 395
#     4  11  23  41  64  99 131 171 215 288 333 392
#     4  11  19  43  70  95 125 176 224 272 325 411
#     4  10  23  40  64  98 135 171 216 277 337 389
#     4  10  18  42  66  82 130 170 218 264 324 392
#
# _framework density 23.950607000000002
#
# number of rings (size 3 to 8) (size 9 to 14) (size 15 to 20)
#    0.000    1.818    5.455    1.091    2.545    0.000 
#    6.545    9.091    4.000    0.000    0.000    0.000 
#    0.000    0.000    0.000    0.000    0.000    0.000 
#
# Total GULP energy -122924.919286 kJ/mol
# GULP energy per Si atom -5587.496331 kJ/mol
# Density = 2.389609 g / cm^3
# Si number density = 23.950607 Si / 1000 Ang^3
#
#
#
# Elastic Constant Matrix: (Units=GPa)
#
#
# Indices 1 2 3 4 5 6 
#
# 1 44.2067 25.5744 3.0835 0.0000 0.0000 0.0000
# 2 25.5744 116.9620 36.5708 0.0000 0.0000 0.0000
# 3 3.0835 36.5708 123.1421 0.0000 0.0000 0.0000
# 4 0.0000 0.0000 0.0000 32.3551 0.0000 0.0000
# 5 0.0000 0.0000 0.0000 0.0000 23.7480 0.0000
# 6 0.0000 0.0000 0.0000 0.0000 0.0000 35.7773
#
#
#
# Elastic Compliance Matrix: (Units=1/GPa)
#
#
# Indices 1 2 3 4 5 6 
#
# 1 0.026043 -0.006052 0.001145 0.000000 0.000000 0.000000
# 2 -0.006052 0.010832 -0.003065 0.000000 0.000000 0.000000
# 3 0.001145 -0.003065 0.009002 0.000000 0.000000 0.000000
# 4 0.000000 0.000000 0.000000 0.030907 0.000000 0.000000
# 5 0.000000 0.000000 0.000000 0.000000 0.042109 0.000000
# 6 0.000000 0.000000 0.000000 0.000000 0.000000 0.027951
#
#
# Mechanical properties :
#
#
# Convention : Reuss Voigt Hill
#
# Bulk Modulus (GPa) = 33.40927 46.08538 39.74732
# Shear Modulus (GPa) = 28.94106 32.98157 30.96132
#
# Velocity S-wave (km/s) = 3.47992 3.71491 3.59934
# Velocity P-wave (km/s) = 5.48872 6.13876 5.82282
#
# Compressibility (1/GPa) = 0.02993181
#
# Stress axis : x y z
#
# Youngs Moduli (GPa) = 38.39867 92.32242 111.08237
#
# Poissons Ratio (x) = 0.55878 -0.12723
# Poissons Ratio (y) = 0.23241 0.34049
# Poissons Ratio (z) = -0.04398 0.28299
#
# Static dielectric constant tensor:
#      x y z
#    x 2.165850 0.000000 0.000000 
#    y 0.000000 1.958560 0.000000 
#    z 0.000000 0.000000 1.875650 
# 
# From -- ./inp_files/10271.got.cif
#   From: 2010.05.17/outbox.cif.g08.bks.cpg/sg41_6_cif.got.tgz:10271.got - 2010.06.03 18:54:24.
