data_PCOD9365512
_publ_section_title
;
Structure prediction by ZEFSAII (Michael W. Deem and Ramdas Pophale) SiO2 
 PCOD9365512
Probable space group: A M A 2
;
_chemical_formula_sum "Si O2"
_cell_formula_units_Z 40
_cell_length_a 10.121933
_cell_length_b 7.751068
_cell_length_c 26.120109
_cell_angle_alpha 90.000000
_cell_angle_beta 90.000000
_cell_angle_gamma 90.000000
_cell_volume 2049.273812
_symmetry_space_group_name_H-M "A M A 2"
_symmetry_group_IT_number 40
_symmetry_cell_setting 'orthorhombic'
loop_
_space_group_symop_operation_xyz
x,y,z
-x,-y,z
1/2-x,y,z
1/2+x,-y,z
x,1/2+y,1/2+z
-x,1/2-y,1/2+z
1/2-x,1/2+y,1/2+z
1/2+x,1/2-y,1/2+z
loop_
_atom_site_type_symbol
_atom_site_label
_atom_site_fract_x
_atom_site_fract_y
_atom_site_fract_z
Si Si1 0.405249 0.339239 0.583450
Si Si2 0.490644 0.706247 0.972779
Si Si3 0.250000 0.713827 0.411008
Si Si4 0.406915 0.663594 0.190895
Si Si5 0.750000 0.980182 0.326276
Si Si6 0.000000 0.000000 0.252668
Si Si7 0.750000 0.172095 0.902922
O O1 0.500000 0.500000 0.595962
O O2 0.250000 0.389231 0.577544
O O3 0.459339 0.261505 0.530537
O O4 0.411536 0.205192 0.630231
O O5 0.500000 0.500000 0.969638
O O6 0.625220 0.774037 0.948450
O O7 0.375456 0.782092 0.937635
O O8 0.250000 0.865283 0.368497
O O9 0.250000 0.525583 0.386026
O O10 0.500000 0.500000 0.202500
O O11 0.250000 0.641733 0.204477
O O12 0.468075 0.831705 0.218659
O O13 0.875867 0.984015 0.289968
O O14 0.750000 0.801871 0.356294
#
# Coordination Sequence:
#
# PCOD9365512 Si02
#       7
#     8   8   4   8   4   4   4
#     4  11  24  42  69 106 143 188 237 285 357 433
#     4  12  23  43  67 102 142 187 230 287 353 425
#     4  12  26  44  71  99 141 186 234 295 354 423
#     4  11  26  48  75 109 145 187 240 300 363 434
#     4  12  26  46  74 102 138 190 244 302 364 418
#     4  12  26  48  76 102 142 192 244 302 366 418
#     4  12  24  46  69  99 139 182 238 293 346 425
#
# _framework density 19.519109
#
# number of rings (size 3 to 8) (size 9 to 14) (size 15 to 20)
#    0.000    0.400    5.000    3.600    2.800    2.400 
#    0.000    0.000    0.000    0.000    0.000    0.000 
#    0.000    0.000    0.000    0.000    0.000    0.000 
#
# Total GULP energy -111828.408412 kJ/mol
# GULP energy per Si atom -5591.420421 kJ/mol
# Density = 1.947468 g / cm^3
# Si number density = 19.519109 Si / 1000 Ang^3
#
#
#
# Elastic Constant Matrix: (Units=GPa)
#
#
# Indices 1 2 3 4 5 6 
#
# 1 200.3596 69.8559 68.4838 0.0000 0.0000 0.0000
# 2 69.8559 165.9716 46.4480 0.0000 0.0000 0.0000
# 3 68.4838 46.4480 118.6186 0.0000 0.0000 0.0000
# 4 0.0000 0.0000 0.0000 34.3459 0.0000 0.0000
# 5 0.0000 0.0000 0.0000 0.0000 80.2230 0.0000
# 6 0.0000 0.0000 0.0000 0.0000 0.0000 34.7459
#
#
#
# Elastic Compliance Matrix: (Units=1/GPa)
#
#
# Indices 1 2 3 4 5 6 
#
# 1 0.006744 -0.001964 -0.003124 0.000000 0.000000 0.000000
# 2 -0.001964 0.007339 -0.001740 0.000000 0.000000 0.000000
# 3 -0.003124 -0.001740 0.010915 0.000000 0.000000 0.000000
# 4 0.000000 0.000000 0.000000 0.029116 0.000000 0.000000
# 5 0.000000 0.000000 0.000000 0.000000 0.012465 0.000000
# 6 0.000000 0.000000 0.000000 0.000000 0.000000 0.028780
#
#
# Mechanical properties :
#
#
# Convention : Reuss Voigt Hill
#
# Bulk Modulus (GPa) = 88.17106 94.94724 91.55915
# Shear Modulus (GPa) = 44.32791 49.87375 47.10083
#
# Velocity S-wave (km/s) = 4.77067 5.06031 4.91762
# Velocity P-wave (km/s) = 8.69572 9.10446 8.90243
#
# Compressibility (1/GPa) = 0.01134159
#
# Stress axis : x y z
#
# Youngs Moduli (GPa) = 148.28633 136.26543 91.61312
#
# Poissons Ratio (x) = 0.26762 0.28624
# Poissons Ratio (y) = 0.29123 0.15938
# Poissons Ratio (z) = 0.46331 0.23706
#
# Static dielectric constant tensor:
#      x y z
#    x 1.664260 0.000000 0.000000 
#    y 0.000000 1.692460 0.000000 
#    z 0.000000 0.000000 1.670730 
# 
# From -- ./inp_files/23871.got.cif
#   From: 2010.05.17/outbox.cif.g08.bks.cpg/sg40_12_cif.got.tgz:23871.got - 2010.06.03 18:35:42.
