data_PCOD9365417
_publ_section_title
;
Structure prediction by ZEFSAII (Michael W. Deem and Ramdas Pophale) SiO2 
 PCOD9365417
Probable space group: A M A 2
;
_chemical_formula_sum "Si O2"
_cell_formula_units_Z 48
_cell_length_a 14.846537
_cell_length_b 8.687776
_cell_length_c 18.974202
_cell_angle_alpha 90.000000
_cell_angle_beta 90.000000
_cell_angle_gamma 90.000000
_cell_volume 2447.356855
_symmetry_space_group_name_H-M "A M A 2"
_symmetry_group_IT_number 40
_symmetry_cell_setting 'orthorhombic'
loop_
_space_group_symop_operation_xyz
x,y,z
-x,-y,z
1/2-x,y,z
1/2+x,-y,z
x,1/2+y,1/2+z
-x,1/2-y,1/2+z
1/2-x,1/2+y,1/2+z
1/2+x,1/2-y,1/2+z
loop_
_atom_site_type_symbol
_atom_site_label
_atom_site_fract_x
_atom_site_fract_y
_atom_site_fract_z
Si Si1 0.074047 0.381896 0.200440
Si Si2 0.916390 0.903565 0.101307
Si Si3 0.250000 0.585996 0.220161
Si Si4 0.554468 0.846523 0.937803
Si Si5 0.250000 0.716528 0.376480
Si Si6 0.951723 0.339941 0.826578
Si Si7 0.250000 0.414903 0.654183
Si Si8 0.750000 0.452701 0.815365
O O1 0.099163 0.246776 0.147248
O O2 0.162462 0.480693 0.214369
O O3 0.034054 0.295109 0.269239
O O4 0.000000 0.500000 0.171995
O O5 0.834185 0.020140 0.110858
O O6 0.939432 0.850705 0.022272
O O7 0.000000 0.000000 0.130217
O O8 0.250000 0.656319 0.297453
O O9 0.250000 0.731509 0.166783
O O10 0.657582 0.838708 0.911940
O O11 0.498497 0.711535 0.899484
O O12 0.500000 0.000000 0.916854
O O13 0.250000 0.900832 0.367394
O O14 0.843811 0.364353 0.828651
O O15 0.000000 0.500000 0.804927
O O16 0.250000 0.490624 0.733278
#
# Coordination Sequence:
#
# PCOD9365417 Si02
#       8
#     8   8   4   8   4   8   4   4
#     4  12  24  39  64  99 132 169 220 291 337 392
#     4  11  24  44  68  93 135 189 228 273 346 414
#     4  11  24  38  67 100 130 164 224 297 343 390
#     4  11  25  43  68  95 137 185 229 289 340 414
#     4  11  21  42  63  98 132 173 221 281 351 397
#     4  12  23  41  68 100 136 182 233 283 348 418
#     4  11  22  44  69  97 133 174 235 278 341 419
#     4  11  23  38  71  99 127 175 222 286 337 404
#
# _framework density 19.612995000000002
#
# number of rings (size 3 to 8) (size 9 to 14) (size 15 to 20)
#    0.000    0.667    3.333    5.500    2.333    1.333 
#    0.000    0.833    7.333    0.000    0.000    0.000 
#    0.000    0.000    0.000    0.000    0.000    0.000 
#
# Total GULP energy -134102.596255 kJ/mol
# GULP energy per Si atom -5587.608177 kJ/mol
# Density = 1.956836 g / cm^3
# Si number density = 19.612995 Si / 1000 Ang^3
#
#
#
# Elastic Constant Matrix: (Units=GPa)
#
#
# Indices 1 2 3 4 5 6 
#
# 1 102.2028 16.5227 -4.4729 0.0000 0.0000 0.0000
# 2 16.5227 100.7338 28.4785 0.0000 0.0000 0.0000
# 3 -4.4729 28.4785 72.5385 0.0000 0.0000 0.0000
# 4 0.0000 0.0000 0.0000 14.9830 0.0000 0.0000
# 5 0.0000 0.0000 0.0000 0.0000 63.8378 0.0000
# 6 0.0000 0.0000 0.0000 0.0000 0.0000 37.9069
#
#
#
# Elastic Compliance Matrix: (Units=1/GPa)
#
#
# Indices 1 2 3 4 5 6 
#
# 1 0.010184 -0.002079 0.001444 0.000000 0.000000 0.000000
# 2 -0.002079 0.011591 -0.004679 0.000000 0.000000 0.000000
# 3 0.001444 -0.004679 0.015712 0.000000 0.000000 0.000000
# 4 0.000000 0.000000 0.000000 0.066742 0.000000 0.000000
# 5 0.000000 0.000000 0.000000 0.000000 0.015665 0.000000
# 6 0.000000 0.000000 0.000000 0.000000 0.000000 0.026380
#
#
# Mechanical properties :
#
#
# Convention : Reuss Voigt Hill
#
# Bulk Modulus (GPa) = 37.23064 39.61462 38.42263
# Shear Modulus (GPa) = 30.14709 39.00865 34.57787
#
# Velocity S-wave (km/s) = 3.92484 4.46457 4.20337
# Velocity P-wave (km/s) = 6.28991 6.84240 6.57197
#
# Compressibility (1/GPa) = 0.02685960
#
# Stress axis : x y z
#
# Youngs Moduli (GPa) = 98.19612 86.27524 63.64693
#
# Poissons Ratio (x) = 0.17933 -0.09191
# Poissons Ratio (y) = 0.20411 0.29779
# Poissons Ratio (z) = -0.14180 0.40366
#
# Static dielectric constant tensor:
#      x y z
#    x 1.402310 0.000000 0.000000 
#    y 0.000000 1.707330 0.000000 
#    z 0.000000 0.000000 1.681980 
# 
# From -- ./inp_files/20632.got.cif
#   From: 2010.05.17/outbox.cif.g08.bks.cpg/sg40_11_cif.got.tgz:20632.got - 2010.06.03 18:35:42.
