data_PCOD9365533
_publ_section_title
;
Structure prediction by ZEFSAII (Michael W. Deem and Ramdas Pophale) SiO2 
 PCOD9365533
Probable space group: A M A 2
;
_chemical_formula_sum "Si O2"
_cell_formula_units_Z 40
_cell_length_a 13.405624
_cell_length_b 8.812162
_cell_length_c 15.320478
_cell_angle_alpha 90.000000
_cell_angle_beta 90.000000
_cell_angle_gamma 90.000000
_cell_volume 1809.846833
_symmetry_space_group_name_H-M "A M A 2"
_symmetry_group_IT_number 40
_symmetry_cell_setting 'orthorhombic'
loop_
_space_group_symop_operation_xyz
x,y,z
-x,-y,z
1/2-x,y,z
1/2+x,-y,z
x,1/2+y,1/2+z
-x,1/2-y,1/2+z
1/2-x,1/2+y,1/2+z
1/2+x,1/2-y,1/2+z
loop_
_atom_site_type_symbol
_atom_site_label
_atom_site_fract_x
_atom_site_fract_y
_atom_site_fract_z
Si Si1 0.750000 0.210790 0.342340
Si Si2 0.419151 0.230635 0.120523
Si Si3 0.750000 0.504056 0.682085
Si Si4 0.038292 0.172541 0.779060
Si Si5 0.541269 0.666246 0.449112
Si Si6 0.250000 0.275182 0.528338
Si Si7 0.250000 0.916906 0.542552
O O1 0.750000 0.057036 0.282822
O O2 0.848610 0.304057 0.312125
O O3 0.750000 0.170784 0.447143
O O4 0.506938 0.246958 0.190247
O O5 0.344417 0.370096 0.102020
O O6 0.346122 0.094503 0.151409
O O7 0.472977 0.217449 0.028085
O O8 0.750000 0.657282 0.625180
O O9 0.974117 0.248588 0.857476
O O10 0.000000 0.000000 0.763781
O O11 0.500000 0.500000 0.430790
O O12 0.653484 0.664769 0.479091
O O13 0.250000 0.094568 0.526285
#
# Coordination Sequence:
#
# PCOD9365533 Si02
#       7
#     4   8   4   8   8   4   4
#     4  12  26  51  71 113 143 201 241 315 368 444
#     4  11  25  49  70 110 144 201 240 304 363 442
#     4  11  26  45  81 100 155 192 251 295 369 448
#     4  11  28  45  77 107 150 193 248 310 367 443
#     4  11  24  46  73 102 142 195 248 295 361 444
#     4  12  26  43  75 111 141 195 241 306 368 440
#     4  11  28  47  77 104 159 184 253 302 379 432
#
# _framework density 22.101317000000002
#
# number of rings (size 3 to 8) (size 9 to 14) (size 15 to 20)
#    0.000    0.800    4.000    1.200    8.400    4.800 
#    0.000    0.000    0.000    0.000    0.000    0.000 
#    0.000    0.000    0.000    0.000    0.000    0.000 
#
# Total GULP energy -111692.772403 kJ/mol
# GULP energy per Si atom -5584.638620 kJ/mol
# Density = 2.205101 g / cm^3
# Si number density = 22.101317 Si / 1000 Ang^3
#
#
#
# Elastic Constant Matrix: (Units=GPa)
#
#
# Indices 1 2 3 4 5 6 
#
# 1 110.6060 27.9276 -6.2256 0.0000 0.0000 0.0000
# 2 27.9276 71.0361 5.3311 0.0000 0.0000 0.0000
# 3 -6.2256 5.3311 97.6243 0.0000 0.0000 0.0000
# 4 0.0000 0.0000 0.0000 18.6586 0.0000 0.0000
# 5 0.0000 0.0000 0.0000 0.0000 30.6003 0.0000
# 6 0.0000 0.0000 0.0000 0.0000 0.0000 12.5612
#
#
#
# Elastic Compliance Matrix: (Units=1/GPa)
#
#
# Indices 1 2 3 4 5 6 
#
# 1 0.010110 -0.004040 0.000865 0.000000 0.000000 0.000000
# 2 -0.004040 0.015749 -0.001118 0.000000 0.000000 0.000000
# 3 0.000865 -0.001118 0.010360 0.000000 0.000000 0.000000
# 4 0.000000 0.000000 0.000000 0.053595 0.000000 0.000000
# 5 0.000000 0.000000 0.000000 0.000000 0.032679 0.000000
# 6 0.000000 0.000000 0.000000 0.000000 0.000000 0.079610
#
#
# Mechanical properties :
#
#
# Convention : Reuss Voigt Hill
#
# Bulk Modulus (GPa) = 36.18612 37.03693 36.61153
# Shear Modulus (GPa) = 22.73781 29.17960 25.95870
#
# Velocity S-wave (km/s) = 3.21097 3.63749 3.43086
# Velocity P-wave (km/s) = 5.49140 5.86821 5.68293
#
# Compressibility (1/GPa) = 0.02763490
#
# Stress axis : x y z
#
# Youngs Moduli (GPa) = 98.91414 63.49462 96.52916
#
# Poissons Ratio (x) = 0.25649 -0.08353
# Poissons Ratio (y) = 0.39957 0.10789
# Poissons Ratio (z) = -0.08559 0.07096
#
# Static dielectric constant tensor:
#      x y z
#    x 1.805420 0.000000 0.000000 
#    y 0.000000 2.044310 0.000000 
#    z 0.000000 0.000000 1.872390 
# 
# From -- ./inp_files/19910.got.cif
#   From: 2010.05.17/outbox.cif.g08.bks.cpg/sg40_10_cif.got.tgz:19910.got - 2010.06.03 18:35:42.
