data_PCOD9365025
_publ_section_title
;
Structure prediction by ZEFSAII (Michael W. Deem and Ramdas Pophale) SiO2 
 PCOD9365025
Probable space group: A M A 2
;
_chemical_formula_sum "Si O2"
_cell_formula_units_Z 48
_cell_length_a 14.209647
_cell_length_b 30.048622
_cell_length_c 5.259080
_cell_angle_alpha 90.000000
_cell_angle_beta 90.000000
_cell_angle_gamma 90.000000
_cell_volume 2245.523616
_symmetry_space_group_name_H-M "A M A 2"
_symmetry_group_IT_number 40
_symmetry_cell_setting 'orthorhombic'
loop_
_space_group_symop_operation_xyz
x,y,z
-x,-y,z
1/2-x,y,z
1/2+x,-y,z
x,1/2+y,1/2+z
-x,1/2-y,1/2+z
1/2-x,1/2+y,1/2+z
1/2+x,1/2-y,1/2+z
loop_
_atom_site_type_symbol
_atom_site_label
_atom_site_fract_x
_atom_site_fract_y
_atom_site_fract_z
Si Si1 0.641858 0.081782 0.125000
Si Si2 0.136677 0.571608 0.133900
Si Si3 0.981093 0.222075 0.152346
Si Si4 0.363629 0.520201 0.639982
Si Si5 0.005813 0.642150 0.346648
Si Si6 0.646688 0.167096 0.463410
O O1 0.750000 0.080894 0.018692
O O2 0.645793 0.116667 0.356616
O O3 0.613902 0.031361 0.186210
O O4 0.563292 0.103586 0.948529
O O5 0.250000 0.575057 0.130031
O O6 0.110107 0.537627 0.361513
O O7 0.090118 0.618407 0.202714
O O8 0.102511 0.552223 0.865253
O O9 0.880630 0.201220 0.238672
O O10 0.020228 0.246321 0.404700
O O11 0.035846 0.177083 0.063891
O O12 0.250000 0.522486 0.650433
O O13 0.936940 0.669147 0.162110
O O14 0.750000 0.176600 0.567288
#
# Coordination Sequence:
#
# PCOD9365025 Si02
#       6
#     8   8   8   8   8   8
#     4   9  20  37  59  93 129 171 217 268 329 381
#     4  10  23  41  61  88 128 178 222 265 317 372
#     4  11  23  45  69  93 127 167 206 266 330 400
#     4   9  20  39  60  84 127 174 221 272 312 369
#     4  11  23  39  68  95 132 172 214 276 325 394
#     4  10  22  41  68  99 134 169 211 268 336 394
#
# _framework density 21.375862999999999
#
# number of rings (size 3 to 8) (size 9 to 14) (size 15 to 20)
#    0.000    2.000    1.667    0.500    7.000    1.333 
#    0.000    1.667    0.000    1.000    0.000    0.000 
#    0.000    0.000    0.000    0.000    0.000    0.000 
#
# Total GULP energy -133911.938171 kJ/mol
# GULP energy per Si atom -5579.664090 kJ/mol
# Density = 2.132721 g / cm^3
# Si number density = 21.375863 Si / 1000 Ang^3
#
#
#
# Elastic Constant Matrix: (Units=GPa)
#
#
# Indices 1 2 3 4 5 6 
#
# 1 47.6673 21.9768 13.8140 0.0000 0.0000 0.0000
# 2 21.9768 85.7320 16.2469 0.0000 0.0000 0.0000
# 3 13.8140 16.2469 79.4756 0.0000 0.0000 0.0000
# 4 0.0000 0.0000 0.0000 37.9462 0.0000 0.0000
# 5 0.0000 0.0000 0.0000 0.0000 16.6081 0.0000
# 6 0.0000 0.0000 0.0000 0.0000 0.0000 8.3780
#
#
#
# Elastic Compliance Matrix: (Units=1/GPa)
#
#
# Indices 1 2 3 4 5 6 
#
# 1 0.024501 -0.005694 -0.003095 0.000000 0.000000 0.000000
# 2 -0.005694 0.013458 -0.001761 0.000000 0.000000 0.000000
# 3 -0.003095 -0.001761 0.013480 0.000000 0.000000 0.000000
# 4 0.000000 0.000000 0.000000 0.026353 0.000000 0.000000
# 5 0.000000 0.000000 0.000000 0.000000 0.060212 0.000000
# 6 0.000000 0.000000 0.000000 0.000000 0.000000 0.119360
#
#
# Mechanical properties :
#
#
# Convention : Reuss Voigt Hill
#
# Bulk Modulus (GPa) = 32.96115 35.21670 34.08892
# Shear Modulus (GPa) = 17.32640 23.30894 20.31767
#
# Velocity S-wave (km/s) = 2.85012 3.30575 3.08636
# Velocity P-wave (km/s) = 5.12681 5.57507 5.35563
#
# Compressibility (1/GPa) = 0.03033875
#
# Stress axis : x y z
#
# Youngs Moduli (GPa) = 40.81500 74.30686 74.18158
#
# Poissons Ratio (x) = 0.42311 0.22956
# Poissons Ratio (y) = 0.23241 0.13066
# Poissons Ratio (z) = 0.12630 0.13088
#
# Static dielectric constant tensor:
#      x y z
#    x 1.788710 0.000000 0.000000 
#    y 0.000000 1.782740 0.000000 
#    z 0.000000 0.000000 1.831430 
# 
# From -- ./inp_files/1350.got.cif
#   From: 2010.05.17/outbox.cif.g08.bks.cpg/sg40_1_cif.got.tgz:1350.got - 2010.06.03 18:35:42.
