data_PCOD9365423
_publ_section_title
;
Structure prediction by ZEFSAII (Michael W. Deem and Ramdas Pophale) SiO2 
 PCOD9365423
Probable space group: A M A 2
;
_chemical_formula_sum "Si O2"
_cell_formula_units_Z 44
_cell_length_a 13.616723
_cell_length_b 20.673197
_cell_length_c 8.330843
_cell_angle_alpha 90.000000
_cell_angle_beta 90.000000
_cell_angle_gamma 90.000000
_cell_volume 2345.142277
_symmetry_space_group_name_H-M "A M A 2"
_symmetry_group_IT_number 40
_symmetry_cell_setting 'orthorhombic'
loop_
_space_group_symop_operation_xyz
x,y,z
-x,-y,z
1/2-x,y,z
1/2+x,-y,z
x,1/2+y,1/2+z
-x,1/2-y,1/2+z
1/2-x,1/2+y,1/2+z
1/2+x,1/2-y,1/2+z
loop_
_atom_site_type_symbol
_atom_site_label
_atom_site_fract_x
_atom_site_fract_y
_atom_site_fract_z
Si Si1 0.750000 0.875038 0.709530
Si Si2 0.250000 0.515744 0.781923
Si Si3 0.250000 0.147015 0.084970
Si Si4 0.944374 0.167316 0.435029
Si Si5 0.917251 0.448399 0.032858
Si Si6 0.590446 0.258159 0.734161
Si Si7 0.750000 0.127441 0.259316
Si Si8 0.750000 0.741793 0.503355
O O1 0.845239 0.918445 0.667041
O O2 0.750000 0.811191 0.595135
O O3 0.750000 0.854212 0.893491
O O4 0.250000 0.575805 0.660942
O O5 0.250000 0.446127 0.698276
O O6 0.155181 0.522174 0.898061
O O7 0.345060 0.185721 0.149667
O O8 0.925721 0.203108 0.602890
O O9 0.844736 0.137921 0.369175
O O10 0.024843 0.111982 0.458380
O O11 0.988029 0.216653 0.303962
O O12 0.000000 0.500000 0.085227
O O13 0.655717 0.237895 0.887105
O O14 0.750000 0.182607 0.125344
#
# Coordination Sequence:
#
# PCOD9365423 Si02
#       8
#     4   4   4   8   8   8   4   4
#     4  11  23  43  69  96 131 170 222 271 325 389
#     4  11  22  45  66  89 127 176 218 259 314 399
#     4  11  23  44  68  95 130 173 213 270 323 393
#     4  12  23  40  66  98 126 169 218 270 322 387
#     4  11  22  44  67  89 128 176 219 259 322 389
#     4  11  23  40  68  95 131 166 215 270 332 383
#     4  12  25  39  66  96 134 170 216 273 321 382
#     4  11  21  45  61  96 134 167 211 277 331 381
#
# _framework density 18.762187000000001
#
# number of rings (size 3 to 8) (size 9 to 14) (size 15 to 20)
#    0.000    0.727    5.455    4.364    2.545    0.000 
#    3.273    0.909    0.000    0.000    0.000    0.000 
#    0.000    0.000    0.000    0.000    0.000    0.000 
#
# Total GULP energy -122980.655395 kJ/mol
# GULP energy per Si atom -5590.029791 kJ/mol
# Density = 1.871948 g / cm^3
# Si number density = 18.762187 Si / 1000 Ang^3
#
#
#
# Elastic Constant Matrix: (Units=GPa)
#
#
# Indices 1 2 3 4 5 6 
#
# 1 112.4070 37.1404 33.2601 0.0000 0.0000 0.0000
# 2 37.1404 119.2837 43.2064 0.0000 0.0000 0.0000
# 3 33.2601 43.2064 99.7838 0.0000 0.0000 0.0000
# 4 0.0000 0.0000 0.0000 30.7185 0.0000 0.0000
# 5 0.0000 0.0000 0.0000 0.0000 9.4685 0.0000
# 6 0.0000 0.0000 0.0000 0.0000 0.0000 18.6024
#
#
#
# Elastic Compliance Matrix: (Units=1/GPa)
#
#
# Indices 1 2 3 4 5 6 
#
# 1 0.010397 -0.002351 -0.002448 0.000000 0.000000 0.000000
# 2 -0.002351 0.010474 -0.003752 0.000000 0.000000 0.000000
# 3 -0.002448 -0.003752 0.012462 0.000000 0.000000 0.000000
# 4 0.000000 0.000000 0.000000 0.032554 0.000000 0.000000
# 5 0.000000 0.000000 0.000000 0.000000 0.105614 0.000000
# 6 0.000000 0.000000 0.000000 0.000000 0.000000 0.053756
#
#
# Mechanical properties :
#
#
# Convention : Reuss Voigt Hill
#
# Bulk Modulus (GPa) = 61.60279 62.07645 61.83962
# Shear Modulus (GPa) = 20.18008 26.28239 23.23124
#
# Velocity S-wave (km/s) = 3.28315 3.74681 3.52262
# Velocity P-wave (km/s) = 6.87582 7.20249 7.04105
#
# Compressibility (1/GPa) = 0.01623303
#
# Stress axis : x y z
#
# Youngs Moduli (GPa) = 96.17978 95.47221 80.24326
#
# Poissons Ratio (x) = 0.22442 0.19642
# Poissons Ratio (y) = 0.22609 0.30106
# Poissons Ratio (z) = 0.23543 0.35819
#
# Static dielectric constant tensor:
#      x y z
#    x 1.661680 0.000000 0.000000 
#    y 0.000000 1.645370 0.000000 
#    z 0.000000 0.000000 1.608500 
# 
# From -- ./inp_files/6413.got.cif
#   From: 2010.05.17/outbox.cif.g08.bks.cpg/sg40_4_cif.got.tgz:6413.got - 2010.06.03 18:35:42.
