data_PCOD9365822
_publ_section_title
;
Structure prediction by ZEFSAII (Michael W. Deem and Ramdas Pophale) SiO2 
 PCOD9365822
Probable space group: A B A 2
;
_chemical_formula_sum "Si O2"
_cell_formula_units_Z 64
_cell_length_a 10.598959
_cell_length_b 30.446986
_cell_length_c 8.792249
_cell_angle_alpha 90.000000
_cell_angle_beta 90.000000
_cell_angle_gamma 90.000000
_cell_volume 2837.314638
_symmetry_space_group_name_H-M "A B A 2"
_symmetry_group_IT_number 41
_symmetry_cell_setting 'orthorhombic'
loop_
_space_group_symop_operation_xyz
x,y,z
-x,-y,z
1/2-x,y,1/2+z
1/2+x,-y,1/2+z
x,1/2+y,1/2+z
-x,1/2-y,1/2+z
1/2-x,1/2+y,z
1/2+x,1/2-y,z
loop_
_atom_site_type_symbol
_atom_site_label
_atom_site_fract_x
_atom_site_fract_y
_atom_site_fract_z
Si Si1 0.060793 0.167895 0.671430
Si Si2 0.635912 0.523197 0.933366
Si Si3 0.632540 0.489426 0.261276
Si Si4 0.268196 0.151144 0.883064
Si Si5 0.892075 0.895172 0.109292
Si Si6 0.608802 0.122273 0.392532
Si Si7 0.860181 0.222025 0.971398
Si Si8 0.893663 0.249729 0.639236
O O1 0.155162 0.180476 0.811369
O O2 0.144254 0.162857 0.523028
O O3 0.981948 0.128236 0.745086
O O4 0.957817 0.202521 0.625543
O O5 0.500000 0.500000 0.894169
O O6 0.747490 0.494224 0.865862
O O7 0.663735 0.573143 0.877311
O O8 0.642481 0.521592 0.116034
O O9 0.500000 0.500000 0.342423
O O10 0.622422 0.441819 0.185835
O O11 0.348753 0.139073 0.736452
O O12 0.194825 0.110056 0.959875
O O13 0.028371 0.884214 0.046268
O O14 0.669837 0.171280 0.417460
O O15 0.879835 0.252594 0.821901
O O16 0.744370 0.244125 0.063890
O O17 0.993583 0.221096 0.064834
#
# Coordination Sequence:
#
# PCOD9365822 Si02
#       8
#     8   8   8   8   8   8   8   8
#     4   9  21  39  63 100 132 175 225 281 344 420
#     4  11  24  43  68  94 139 180 231 290 345 411
#     4  11  23  42  62  94 129 182 229 285 343 408
#     4   9  19  33  63  93 129 170 218 283 334 409
#     4  10  18  36  60  88 127 170 226 273 336 403
#     4  10  22  44  65  95 137 183 229 286 354 408
#     4  11  26  46  75 102 143 185 231 295 353 440
#     4  11  25  47  70 104 140 181 235 281 362 425
#
# _framework density 22.556539999999998
#
# number of rings (size 3 to 8) (size 9 to 14) (size 15 to 20)
#    0.000    1.750    2.500    1.500    3.500    9.500 
#    4.500    0.000    0.000    0.000    0.000    0.000 
#    0.000    0.000    0.000    0.000    0.000    0.000 
#
# Total GULP energy -178278.871224 kJ/mol
# GULP energy per Si atom -5571.214726 kJ/mol
# Density = 2.250520 g / cm^3
# Si number density = 22.556540 Si / 1000 Ang^3
#
#
#
# Elastic Constant Matrix: (Units=GPa)
#
#
# Indices 1 2 3 4 5 6 
#
# 1 108.2869 15.0674 39.5732 0.0000 0.0000 0.0000
# 2 15.0674 70.7704 7.2779 0.0000 0.0000 0.0000
# 3 39.5732 7.2779 84.7501 0.0000 0.0000 0.0000
# 4 0.0000 0.0000 0.0000 26.7933 0.0000 0.0000
# 5 0.0000 0.0000 0.0000 0.0000 35.6091 0.0000
# 6 0.0000 0.0000 0.0000 0.0000 0.0000 27.9380
#
#
#
# Elastic Compliance Matrix: (Units=1/GPa)
#
#
# Indices 1 2 3 4 5 6 
#
# 1 0.011381 -0.001893 -0.005152 0.000000 0.000000 0.000000
# 2 -0.001893 0.014571 -0.000367 0.000000 0.000000 0.000000
# 3 -0.005152 -0.000367 0.014236 0.000000 0.000000 0.000000
# 4 0.000000 0.000000 0.000000 0.037323 0.000000 0.000000
# 5 0.000000 0.000000 0.000000 0.000000 0.028083 0.000000
# 6 0.000000 0.000000 0.000000 0.000000 0.000000 0.035794
#
#
# Mechanical properties :
#
#
# Convention : Reuss Voigt Hill
#
# Bulk Modulus (GPa) = 39.42580 43.07162 41.24871
# Shear Modulus (GPa) = 30.36449 31.52735 30.94592
#
# Velocity S-wave (km/s) = 3.67297 3.74264 3.70797
# Velocity P-wave (km/s) = 5.95854 6.14922 6.05463
#
# Compressibility (1/GPa) = 0.02536410
#
# Stress axis : x y z
#
# Youngs Moduli (GPa) = 87.86735 68.62922 70.24248
#
# Poissons Ratio (x) = 0.12993 0.36186
# Poissons Ratio (y) = 0.16636 0.02580
# Poissons Ratio (z) = 0.45265 0.02520
#
# Static dielectric constant tensor:
#      x y z
#    x 1.903960 0.000000 0.000000 
#    y 0.000000 1.974800 0.000000 
#    z 0.000000 0.000000 1.838830 
# 
# From -- ./inp_files/2231.got.cif
#   From: 2010.05.17/outbox.cif.g08.bks.cpg/sg41_2_cif.got.tgz:2231.got - 2010.06.03 18:54:24.
