data_PCOD9365120
_publ_section_title
;
Structure prediction by ZEFSAII (Michael W. Deem and Ramdas Pophale) SiO2 
 PCOD9365120
Probable space group: A M A 2
;
_chemical_formula_sum "Si O2"
_cell_formula_units_Z 60
_cell_length_a 25.087442
_cell_length_b 8.905574
_cell_length_c 11.820010
_cell_angle_alpha 90.000000
_cell_angle_beta 90.000000
_cell_angle_gamma 90.000000
_cell_volume 2640.803836
_symmetry_space_group_name_H-M "A M A 2"
_symmetry_group_IT_number 40
_symmetry_cell_setting 'orthorhombic'
loop_
_space_group_symop_operation_xyz
x,y,z
-x,-y,z
1/2-x,y,z
1/2+x,-y,z
x,1/2+y,1/2+z
-x,1/2-y,1/2+z
1/2-x,1/2+y,1/2+z
1/2+x,1/2-y,1/2+z
loop_
_atom_site_type_symbol
_atom_site_label
_atom_site_fract_x
_atom_site_fract_y
_atom_site_fract_z
Si Si1 0.605318 0.049599 0.056970
Si Si2 0.690098 0.898853 0.471858
Si Si3 0.000000 0.000000 0.757466
Si Si4 0.689506 0.055669 0.888903
Si Si5 0.541303 0.776745 0.411299
Si Si6 0.566140 0.243009 0.509775
Si Si7 0.390086 0.945026 0.320187
Si Si8 0.384531 0.991894 0.670105
O O1 0.611688 0.081090 0.187994
O O2 0.563146 0.916858 0.037402
O O3 0.659388 0.989254 0.998468
O O4 0.584366 0.189164 0.985576
O O5 0.750000 0.943732 0.503845
O O6 0.692420 0.731758 0.421104
O O7 0.665356 0.001022 0.373277
O O8 0.651358 0.917982 0.579954
O O9 0.981713 0.149005 0.826964
O O10 0.944412 0.952408 0.697328
O O11 0.750000 0.001477 0.870524
O O12 0.650851 0.030986 0.781900
O O13 0.493019 0.820618 0.493936
O O14 0.568186 0.919586 0.350747
O O15 0.600971 0.163979 0.606233
O O16 0.592940 0.200775 0.390615
#
# Coordination Sequence:
#
# PCOD9365120 Si02
#       8
#     8   8   4   8   8   8   8   8
#     4  12  24  46  66  99 140 176 231 282 334 408
#     4  10  22  44  70  96 132 178 226 281 340 403
#     4  12  22  40  68  94 138 182 226 280 338 414
#     4  11  23  44  70  98 134 179 231 283 343 406
#     4  12  23  45  63 101 139 186 225 275 344 413
#     4  11  25  42  67 100 141 183 227 279 343 412
#     4  11  26  45  66 100 141 174 231 282 336 410
#     4  11  24  41  66 104 136 178 228 280 344 408
#
# _framework density 22.720355000000001
#
# number of rings (size 3 to 8) (size 9 to 14) (size 15 to 20)
#    0.000    0.800    4.000    2.400    3.733    5.867 
#    0.000    3.333    0.000    0.000    0.000    0.000 
#    0.000    0.000    0.000    0.000    0.000    0.000 
#
# Total GULP energy -167778.942914 kJ/mol
# GULP energy per Si atom -5592.631430 kJ/mol
# Density = 2.266864 g / cm^3
# Si number density = 22.720355 Si / 1000 Ang^3
#
#
#
# Elastic Constant Matrix: (Units=GPa)
#
#
# Indices 1 2 3 4 5 6 
#
# 1 171.5361 1.2543 54.7624 0.0000 0.0000 0.0000
# 2 1.2543 31.7692 3.9540 0.0000 0.0000 0.0000
# 3 54.7624 3.9540 144.8824 0.0000 0.0000 0.0000
# 4 0.0000 0.0000 0.0000 24.3116 0.0000 0.0000
# 5 0.0000 0.0000 0.0000 0.0000 28.1020 0.0000
# 6 0.0000 0.0000 0.0000 0.0000 0.0000 19.2410
#
#
#
# Elastic Compliance Matrix: (Units=1/GPa)
#
#
# Indices 1 2 3 4 5 6 
#
# 1 0.006630 0.000050 -0.002507 0.000000 0.000000 0.000000
# 2 0.000050 0.031585 -0.000881 0.000000 0.000000 0.000000
# 3 -0.002507 -0.000881 0.007874 0.000000 0.000000 0.000000
# 4 0.000000 0.000000 0.000000 0.041133 0.000000 0.000000
# 5 0.000000 0.000000 0.000000 0.000000 0.035585 0.000000
# 6 0.000000 0.000000 0.000000 0.000000 0.000000 0.051972
#
#
# Mechanical properties :
#
#
# Convention : Reuss Voigt Hill
#
# Bulk Modulus (GPa) = 25.37276 52.01437 38.69357
# Shear Modulus (GPa) = 25.69486 33.54537 29.62011
#
# Velocity S-wave (km/s) = 3.36656 3.84662 3.61457
# Velocity P-wave (km/s) = 5.12867 6.53236 5.87260
#
# Compressibility (1/GPa) = 0.03941235
#
# Stress axis : x y z
#
# Youngs Moduli (GPa) = 150.83531 31.66093 127.00206
#
# Poissons Ratio (x) = -0.00159 0.31843
# Poissons Ratio (y) = -0.00759 0.11189
# Poissons Ratio (z) = 0.37819 0.02789
#
# Static dielectric constant tensor:
#      x y z
#    x 1.881830 0.000000 0.000000 
#    y 0.000000 1.892910 0.000000 
#    z 0.000000 0.000000 1.848310 
# 
# From -- ./inp_files/14221.got.cif
#   From: 2010.05.17/outbox.cif.g08.bks.cpg/sg40_8_cif.got.tgz:14221.got - 2010.06.03 18:35:42.
