data_PCOD9365432
_publ_section_title
;
Structure prediction by ZEFSAII (Michael W. Deem and Ramdas Pophale) SiO2 
 PCOD9365432
Probable space group: A M A 2
;
_chemical_formula_sum "Si O2"
_cell_formula_units_Z 64
_cell_length_a 19.829538
_cell_length_b 9.501495
_cell_length_c 19.342874
_cell_angle_alpha 90.000000
_cell_angle_beta 90.000000
_cell_angle_gamma 90.000000
_cell_volume 3644.395845
_symmetry_space_group_name_H-M "A M A 2"
_symmetry_group_IT_number 40
_symmetry_cell_setting 'orthorhombic'
loop_
_space_group_symop_operation_xyz
x,y,z
-x,-y,z
1/2-x,y,z
1/2+x,-y,z
x,1/2+y,1/2+z
-x,1/2-y,1/2+z
1/2-x,1/2+y,1/2+z
1/2+x,1/2-y,1/2+z
loop_
_atom_site_type_symbol
_atom_site_label
_atom_site_fract_x
_atom_site_fract_y
_atom_site_fract_z
Si Si1 0.825593 0.247514 0.108710
Si Si2 0.974947 0.659921 0.077050
Si Si3 0.525008 0.654417 0.446070
Si Si4 0.044335 0.861207 0.343855
Si Si5 0.676781 0.027446 0.412574
Si Si6 0.456318 0.859698 0.179309
Si Si7 0.173535 0.429658 0.077798
Si Si8 0.175901 0.794919 0.942808
O O1 0.750000 0.218814 0.134898
O O2 0.882166 0.153452 0.145196
O O3 0.837745 0.416727 0.112922
O O4 0.824910 0.221281 0.026184
O O5 0.893878 0.661927 0.086379
O O6 0.000000 0.500000 0.067879
O O7 0.005432 0.729075 0.145143
O O8 0.005651 0.746397 0.011773
O O9 0.500000 0.500000 0.462608
O O10 0.488859 0.728525 0.381448
O O11 0.604091 0.637227 0.428599
O O12 0.117083 0.892398 0.375875
O O13 0.048046 0.847416 0.261624
O O14 0.000000 0.000000 0.360377
O O15 0.750000 0.072358 0.386381
O O16 0.674946 0.050324 0.494943
O O17 0.671520 0.858608 0.407252
O O18 0.500000 0.000000 0.162696
O O19 0.250000 0.381438 0.097503
O O20 0.250000 0.856014 0.924699
#
# Coordination Sequence:
#
# PCOD9365432 Si02
#       8
#     8   8   8   8   8   8   8   8
#     4   9  17  33  56  84 113 149 188 230 288 346
#     4  12  20  36  63  84 109 156 191 234 290 342
#     4  12  23  36  59  89 117 147 190 243 287 342
#     4  11  22  38  57  81 115 155 197 235 283 339
#     4   9  16  31  58  88 112 142 193 239 282 342
#     4  11  24  37  54  86 120 150 194 243 278 338
#     4   9  17  31  57  90 111 139 193 242 282 342
#     4   9  17  32  58  86 113 146 186 234 292 347
#
# _framework density 17.561209999999999
#
# number of rings (size 3 to 8) (size 9 to 14) (size 15 to 20)
#    0.000    1.750    5.000    3.000    0.000    1.000 
#    0.000    1.875    0.000    1.500    0.000    0.000 
#    0.000    0.000    0.000    0.000    0.000    0.000 
#
# Total GULP energy -178244.105796 kJ/mol
# GULP energy per Si atom -5570.128306 kJ/mol
# Density = 1.752124 g / cm^3
# Si number density = 17.561210 Si / 1000 Ang^3
#
#
#
# Elastic Constant Matrix: (Units=GPa)
#
#
# Indices 1 2 3 4 5 6 
#
# 1 181.8413 44.9561 33.4835 0.0000 0.0000 0.0000
# 2 44.9561 79.3548 32.0291 0.0000 0.0000 0.0000
# 3 33.4835 32.0291 52.5428 0.0000 0.0000 0.0000
# 4 0.0000 0.0000 0.0000 18.8695 0.0000 0.0000
# 5 0.0000 0.0000 0.0000 0.0000 10.5283 0.0000
# 6 0.0000 0.0000 0.0000 0.0000 0.0000 17.9042
#
#
#
# Elastic Compliance Matrix: (Units=1/GPa)
#
#
# Indices 1 2 3 4 5 6 
#
# 1 0.006647 -0.002727 -0.002574 0.000000 0.000000 0.000000
# 2 -0.002727 0.017833 -0.009133 0.000000 0.000000 0.000000
# 3 -0.002574 -0.009133 0.026239 0.000000 0.000000 0.000000
# 4 0.000000 0.000000 0.000000 0.052996 0.000000 0.000000
# 5 0.000000 0.000000 0.000000 0.000000 0.094982 0.000000
# 6 0.000000 0.000000 0.000000 0.000000 0.000000 0.055853
#
#
# Mechanical properties :
#
#
# Convention : Reuss Voigt Hill
#
# Bulk Modulus (GPa) = 45.76129 59.40848 52.58489
# Shear Modulus (GPa) = 17.19981 23.01174 20.10577
#
# Velocity S-wave (km/s) = 3.13296 3.62383 3.38730
# Velocity P-wave (km/s) = 6.26115 7.17024 6.73106
#
# Compressibility (1/GPa) = 0.02185253
#
# Stress axis : x y z
#
# Youngs Moduli (GPa) = 150.43396 56.07686 38.11077
#
# Poissons Ratio (x) = 0.15293 0.09809
# Poissons Ratio (y) = 0.41025 0.34805
# Poissons Ratio (z) = 0.38718 0.51213
#
# Static dielectric constant tensor:
#      x y z
#    x 1.673020 0.000000 0.000000 
#    y 0.000000 1.590440 0.000000 
#    z 0.000000 0.000000 1.573310 
# 
# From -- ./inp_files/21362.got.cif
#   From: 2010.05.17/outbox.cif.g08.bks.cpg/sg40_11_cif.got.tgz:21362.got - 2010.06.03 18:35:42.
