data_PCOD9365862
_publ_section_title
;
Structure prediction by ZEFSAII (Michael W. Deem and Ramdas Pophale) SiO2 
 PCOD9365862
Probable space group: A B A 2
;
_chemical_formula_sum "Si O2"
_cell_formula_units_Z 64
_cell_length_a 11.902621
_cell_length_b 13.907233
_cell_length_c 19.009428
_cell_angle_alpha 90.000000
_cell_angle_beta 90.000000
_cell_angle_gamma 90.000000
_cell_volume 3146.678588
_symmetry_space_group_name_H-M "A B A 2"
_symmetry_group_IT_number 41
_symmetry_cell_setting 'orthorhombic'
loop_
_space_group_symop_operation_xyz
x,y,z
-x,-y,z
1/2-x,y,1/2+z
1/2+x,-y,1/2+z
x,1/2+y,1/2+z
-x,1/2-y,1/2+z
1/2-x,1/2+y,z
1/2+x,1/2-y,z
loop_
_atom_site_type_symbol
_atom_site_label
_atom_site_fract_x
_atom_site_fract_y
_atom_site_fract_z
Si Si1 0.932781 0.400059 0.037200
Si Si2 0.749992 0.344312 0.640808
Si Si3 0.067263 0.599920 0.744422
Si Si4 0.379593 0.743998 0.010362
Si Si5 0.620383 0.255951 0.771207
Si Si6 0.244401 0.353947 0.390799
Si Si7 0.873805 0.452567 0.890820
Si Si8 0.514360 0.384874 0.890765
O O1 0.847514 0.401846 0.101464
O O2 0.000000 0.500000 0.037618
O O3 0.867417 0.394404 0.962730
O O4 0.016890 0.310163 0.036274
O O5 0.847413 0.401908 0.680187
O O6 0.809641 0.286028 0.578394
O O7 0.690415 0.285912 0.703192
O O8 0.132574 0.605595 0.818908
O O9 0.000000 0.500000 0.744006
O O10 0.983168 0.689829 0.745293
O O11 0.303074 0.807970 0.958769
O O12 0.424159 0.657135 0.960497
O O13 0.696831 0.191978 0.822841
O O14 0.575850 0.342866 0.821037
O O15 0.281059 0.465294 0.390823
O O16 0.111721 0.342663 0.390763
O O17 0.000000 0.500000 0.890820
O O18 0.500000 0.500000 0.890766
#
# Coordination Sequence:
#
# PCOD9365862 Si02
#       8
#     8   8   8   8   8   8   8   8
#     4  11  23  44  70  99 131 177 235 278 330 414
#     4  12  28  40  64  98 146 192 210 272 354 404
#     4  11  23  44  70  99 131 177 235 278 330 414
#     4  11  24  46  67  99 139 180 230 277 336 421
#     4  11  24  46  67  99 139 180 230 277 336 421
#     4  11  21  43  75  96 125 182 223 291 340 390
#     4  10  18  41  72  96 120 165 237 269 328 391
#     4  11  27  42  69 108 137 163 231 302 337 385
#
# _framework density 20.338906000000001
#
# number of rings (size 3 to 8) (size 9 to 14) (size 15 to 20)
#    0.000    1.000    5.000    3.000    3.500    3.000 
#    0.000    0.000    0.000    0.000    0.000    0.000 
#    0.000    0.000    0.000    0.000    0.000    0.000 
#
# Total GULP energy -178929.810610 kJ/mol
# GULP energy per Si atom -5591.556582 kJ/mol
# Density = 2.029261 g / cm^3
# Si number density = 20.338906 Si / 1000 Ang^3
#
#
#
# Elastic Constant Matrix: (Units=GPa)
#
#
# Indices 1 2 3 4 5 6 
#
# 1 102.3897 33.4433 65.4222 0.0000 0.0000 0.0000
# 2 33.4433 97.3386 36.0652 0.0000 0.0000 0.0000
# 3 65.4222 36.0652 152.3814 0.0000 0.0000 0.0000
# 4 0.0000 0.0000 0.0000 81.2707 0.0000 0.0000
# 5 0.0000 0.0000 0.0000 0.0000 42.8726 0.0000
# 6 0.0000 0.0000 0.0000 0.0000 0.0000 31.1715
#
#
#
# Elastic Compliance Matrix: (Units=1/GPa)
#
#
# Indices 1 2 3 4 5 6 
#
# 1 0.014150 -0.002862 -0.005398 0.000000 0.000000 0.000000
# 2 -0.002862 0.011840 -0.001574 0.000000 0.000000 0.000000
# 3 -0.005398 -0.001574 0.009252 0.000000 0.000000 0.000000
# 4 0.000000 0.000000 0.000000 0.012305 0.000000 0.000000
# 5 0.000000 0.000000 0.000000 0.000000 0.023325 0.000000
# 6 0.000000 0.000000 0.000000 0.000000 0.000000 0.032081
#
#
# Mechanical properties :
#
#
# Convention : Reuss Voigt Hill
#
# Bulk Modulus (GPa) = 64.20113 69.10789 66.65451
# Shear Modulus (GPa) = 39.12033 45.54156 42.33095
#
# Velocity S-wave (km/s) = 4.39044 4.73708 4.56705
# Velocity P-wave (km/s) = 7.57202 7.99824 7.78805
#
# Compressibility (1/GPa) = 0.01557605
#
# Stress axis : x y z
#
# Youngs Moduli (GPa) = 70.66977 84.46191 108.08025
#
# Poissons Ratio (x) = 0.24171 0.58340
# Poissons Ratio (y) = 0.20224 0.17007
# Poissons Ratio (z) = 0.38147 0.13290
#
# Static dielectric constant tensor:
#      x y z
#    x 1.742680 0.000000 0.000000 
#    y 0.000000 1.574000 0.000000 
#    z 0.000000 0.000000 1.733970 
# 
# From -- ./inp_files/10137.got.cif
#   From: 2010.05.17/outbox.cif.g08.bks.cpg/sg41_6_cif.got.tgz:10137.got - 2010.06.03 18:54:24.
