data_PCOD9365502
_publ_section_title
;
Structure prediction by ZEFSAII (Michael W. Deem and Ramdas Pophale) SiO2 
 PCOD9365502
Probable space group: A M A 2
;
_chemical_formula_sum "Si O2"
_cell_formula_units_Z 32
_cell_length_a 16.850853
_cell_length_b 4.883458
_cell_length_c 13.499874
_cell_angle_alpha 90.000000
_cell_angle_beta 90.000000
_cell_angle_gamma 90.000000
_cell_volume 1110.910475
_symmetry_space_group_name_H-M "A M A 2"
_symmetry_group_IT_number 40
_symmetry_cell_setting 'orthorhombic'
loop_
_space_group_symop_operation_xyz
x,y,z
-x,-y,z
1/2-x,y,z
1/2+x,-y,z
x,1/2+y,1/2+z
-x,1/2-y,1/2+z
1/2-x,1/2+y,1/2+z
1/2+x,1/2-y,1/2+z
loop_
_atom_site_type_symbol
_atom_site_label
_atom_site_fract_x
_atom_site_fract_y
_atom_site_fract_z
Si Si1 0.079667 0.653081 0.227050
Si Si2 0.250000 0.696764 0.562164
Si Si3 0.389142 0.928621 0.934273
Si Si4 0.250000 0.047712 0.401670
Si Si5 0.000000 0.000000 0.097264
Si Si6 0.750000 0.281006 0.210530
O O1 0.078323 0.613079 0.344540
O O2 0.068385 0.955760 0.181898
O O3 0.167160 0.563415 0.192546
O O4 0.000000 0.500000 0.187299
O O5 0.329760 0.600085 0.503882
O O6 0.250000 0.516049 0.659882
O O7 0.250000 0.008073 0.521240
O O8 0.331996 0.705714 0.884390
O O9 0.455213 0.818190 0.011099
O O10 0.250000 0.791729 0.327785
#
# Coordination Sequence:
#
# PCOD9365502 Si02
#       6
#     8   4   8   4   4   4
#     4  12  28  50  81 119 167 215 281 349 408 499
#     4  11  23  49  78 111 157 214 275 333 418 497
#     4  11  25  49  75 115 160 203 283 330 415 496
#     4  11  26  45  84 112 154 228 260 357 409 484
#     4  12  28  50  72 118 162 214 270 340 420 494
#     4  12  25  50  78 117 167 218 287 332 429 499
#
# _framework density 28.805202999999999
#
# number of rings (size 3 to 8) (size 9 to 14) (size 15 to 20)
#    0.000    0.500    6.250    0.750    3.500    4.000 
#    2.250    1.250    0.000    0.000    0.000    0.000 
#    0.000    0.000    0.000    0.000    0.000    0.000 
#
# Total GULP energy -89076.601835 kJ/mol
# GULP energy per Si atom -5567.287615 kJ/mol
# Density = 2.873964 g / cm^3
# Si number density = 28.805203 Si / 1000 Ang^3
#
#
#
# Elastic Constant Matrix: (Units=GPa)
#
#
# Indices 1 2 3 4 5 6 
#
# 1 204.3379 44.6454 67.3809 0.0000 0.0000 0.0000
# 2 44.6454 77.6091 28.7794 0.0000 0.0000 0.0000
# 3 67.3809 28.7794 220.6337 0.0000 0.0000 0.0000
# 4 0.0000 0.0000 0.0000 41.5855 0.0000 0.0000
# 5 0.0000 0.0000 0.0000 0.0000 51.1956 0.0000
# 6 0.0000 0.0000 0.0000 0.0000 0.0000 40.5397
#
#
#
# Elastic Compliance Matrix: (Units=1/GPa)
#
#
# Indices 1 2 3 4 5 6 
#
# 1 0.006011 -0.002918 -0.001455 0.000000 0.000000 0.000000
# 2 -0.002918 0.014957 -0.001060 0.000000 0.000000 0.000000
# 3 -0.001455 -0.001060 0.005115 0.000000 0.000000 0.000000
# 4 0.000000 0.000000 0.000000 0.024047 0.000000 0.000000
# 5 0.000000 0.000000 0.000000 0.000000 0.019533 0.000000
# 6 0.000000 0.000000 0.000000 0.000000 0.000000 0.024667
#
#
# Mechanical properties :
#
#
# Convention : Reuss Voigt Hill
#
# Bulk Modulus (GPa) = 65.71746 87.13244 76.42495
# Shear Modulus (GPa) = 45.34363 50.78251 48.06307
#
# Velocity S-wave (km/s) = 3.97186 4.20332 4.08923
# Velocity P-wave (km/s) = 6.62557 7.33974 6.99178
#
# Compressibility (1/GPa) = 0.01521666
#
# Stress axis : x y z
#
# Youngs Moduli (GPa) = 166.35201 66.85867 195.50240
#
# Poissons Ratio (x) = 0.19513 0.28449
# Poissons Ratio (y) = 0.48549 0.20717
# Poissons Ratio (z) = 0.24207 0.07085
#
# Static dielectric constant tensor:
#      x y z
#    x 2.304660 0.000000 0.000000 
#    y 0.000000 2.806800 0.000000 
#    z 0.000000 0.000000 2.143650 
# 
# From -- ./inp_files/17386.got.cif
#   From: 2010.05.17/outbox.cif.g08.bks.cpg/sg40_9_cif.got.tgz:17386.got - 2010.06.03 18:35:42.
