data_PCOD9365192
_publ_section_title
;
Structure prediction by ZEFSAII (Michael W. Deem and Ramdas Pophale) SiO2 
 PCOD9365192
Probable space group: A M A 2
;
_chemical_formula_sum "Si O2"
_cell_formula_units_Z 48
_cell_length_a 8.947565
_cell_length_b 27.524516
_cell_length_c 9.773340
_cell_angle_alpha 90.000000
_cell_angle_beta 90.000000
_cell_angle_gamma 90.000000
_cell_volume 2406.952725
_symmetry_space_group_name_H-M "A M A 2"
_symmetry_group_IT_number 40
_symmetry_cell_setting 'orthorhombic'
loop_
_space_group_symop_operation_xyz
x,y,z
-x,-y,z
1/2-x,y,z
1/2+x,-y,z
x,1/2+y,1/2+z
-x,1/2-y,1/2+z
1/2-x,1/2+y,1/2+z
1/2+x,1/2-y,1/2+z
loop_
_atom_site_type_symbol
_atom_site_label
_atom_site_fract_x
_atom_site_fract_y
_atom_site_fract_z
Si Si1 0.572209 0.915735 0.798810
Si Si2 0.923027 0.546081 0.028922
Si Si3 0.071351 0.221963 0.435756
Si Si4 0.070471 0.448374 0.580909
Si Si5 0.576529 0.629623 0.805229
Si Si6 0.929065 0.301948 0.247593
O O1 0.750000 0.921954 0.816600
O O2 0.514934 0.943387 0.665338
O O3 0.540251 0.858692 0.773777
O O4 0.485848 0.935683 0.929768
O O5 0.750000 0.535780 0.058951
O O6 0.000000 0.500000 0.958424
O O7 0.929027 0.592962 0.933128
O O8 0.250000 0.224424 0.436326
O O9 0.021965 0.213408 0.593673
O O10 0.017992 0.176479 0.344153
O O11 0.004638 0.269424 0.363899
O O12 0.250000 0.452196 0.587486
O O13 0.025452 0.403302 0.678058
O O14 0.000000 0.500000 0.621738
O O15 0.750000 0.644078 0.782501
O O16 0.750000 0.295163 0.254074
#
# Coordination Sequence:
#
# PCOD9365192 Si02
#       6
#     8   8   8   8   8   8
#     4  11  23  42  64  89 125 164 207 258 305 365
#     4  11  22  38  63  92 122 161 203 251 310 367
#     4  11  24  42  67  95 124 163 207 254 310 372
#     4  11  24  42  63  92 127 166 210 256 308 368
#     4  10  23  42  64  91 126 162 204 257 309 366
#     4  10  24  44  64  93 128 162 205 256 310 370
#
# _framework density 19.942229000000001
#
# number of rings (size 3 to 8) (size 9 to 14) (size 15 to 20)
#    0.000    1.333    1.667    3.000    2.333    4.667 
#    0.000    0.000    0.000    0.000    0.000    0.000 
#    0.000    0.000    0.000    0.000    0.000    0.000 
#
# Total GULP energy -134201.116516 kJ/mol
# GULP energy per Si atom -5591.713188 kJ/mol
# Density = 1.989684 g / cm^3
# Si number density = 19.942229 Si / 1000 Ang^3
#
#
#
# Elastic Constant Matrix: (Units=GPa)
#
#
# Indices 1 2 3 4 5 6 
#
# 1 41.1110 34.4820 3.4752 0.0000 0.0000 0.0000
# 2 34.4820 73.6833 -5.4561 0.0000 0.0000 0.0000
# 3 3.4752 -5.4561 64.7727 0.0000 0.0000 0.0000
# 4 0.0000 0.0000 0.0000 36.9556 0.0000 0.0000
# 5 0.0000 0.0000 0.0000 0.0000 28.3642 0.0000
# 6 0.0000 0.0000 0.0000 0.0000 0.0000 38.2769
#
#
#
# Elastic Compliance Matrix: (Units=1/GPa)
#
#
# Indices 1 2 3 4 5 6 
#
# 1 0.040967 -0.019456 -0.003837 0.000000 0.000000 0.000000
# 2 -0.019456 0.022897 0.002973 0.000000 0.000000 0.000000
# 3 -0.003837 0.002973 0.015895 0.000000 0.000000 0.000000
# 4 0.000000 0.000000 0.000000 0.027060 0.000000 0.000000
# 5 0.000000 0.000000 0.000000 0.000000 0.035256 0.000000
# 6 0.000000 0.000000 0.000000 0.000000 0.000000 0.026125
#
#
# Mechanical properties :
#
#
# Convention : Reuss Voigt Hill
#
# Bulk Modulus (GPa) = 25.56335 27.17435 26.36885
# Shear Modulus (GPa) = 22.53478 30.52373 26.52925
#
# Velocity S-wave (km/s) = 3.36520 3.91654 3.65129
# Velocity P-wave (km/s) = 5.28639 5.84025 5.57021
#
# Compressibility (1/GPa) = 0.03911851
#
# Stress axis : x y z
#
# Youngs Moduli (GPa) = 24.40964 43.67467 62.91346
#
# Poissons Ratio (x) = 0.84973 0.24139
# Poissons Ratio (y) = 0.47491 -0.18701
# Poissons Ratio (z) = 0.09366 -0.12982
#
# Static dielectric constant tensor:
#      x y z
#    x 1.670240 0.000000 0.000000 
#    y 0.000000 1.647900 0.000000 
#    z 0.000000 0.000000 1.689420 
# 
# From -- ./inp_files/4617.got.cif
#   From: 2010.05.17/outbox.cif.g08.bks.cpg/sg40_3_cif.got.tgz:4617.got - 2010.06.03 18:35:42.
