data_PCOD9365950
_publ_section_title
;
Structure prediction by ZEFSAII (Michael W. Deem and Ramdas Pophale) SiO2 
 PCOD9365950
Probable space group: A B A 2
;
_chemical_formula_sum "Si O2"
_cell_formula_units_Z 64
_cell_length_a 27.730067
_cell_length_b 5.470053
_cell_length_c 22.942426
_cell_angle_alpha 90.000000
_cell_angle_beta 90.000000
_cell_angle_gamma 90.000000
_cell_volume 3480.020424
_symmetry_space_group_name_H-M "A B A 2"
_symmetry_group_IT_number 41
_symmetry_cell_setting 'orthorhombic'
loop_
_space_group_symop_operation_xyz
x,y,z
-x,-y,z
1/2-x,y,1/2+z
1/2+x,-y,1/2+z
x,1/2+y,1/2+z
-x,1/2-y,1/2+z
1/2-x,1/2+y,z
1/2+x,1/2-y,z
loop_
_atom_site_type_symbol
_atom_site_label
_atom_site_fract_x
_atom_site_fract_y
_atom_site_fract_z
Si Si1 0.220195 0.272616 0.777040
Si Si2 0.644920 0.144741 0.007489
Si Si3 0.449757 0.397508 0.662600
Si Si4 0.780301 0.000026 0.595984
Si Si5 0.092647 0.000032 0.095970
Si Si6 0.855082 0.855165 0.684452
Si Si7 0.220194 0.727646 0.414883
Si Si8 0.050239 0.602548 0.029356
O O1 0.247684 0.528622 0.764571
O O2 0.171702 0.262909 0.738870
O O3 0.209701 0.250127 0.845961
O O4 0.627636 0.329754 0.058034
O O5 0.685423 0.985699 0.039667
O O6 0.596703 0.991280 0.994604
O O7 0.671700 0.262706 0.953053
O O8 0.500000 0.500000 0.686081
O O9 0.441581 0.116335 0.646017
O O10 0.403301 0.491419 0.697353
O O11 0.446449 0.500018 0.595977
O O12 0.749999 0.750027 0.595990
O O13 0.814590 0.014331 0.652290
O O14 0.127641 0.829784 0.133890
O O15 0.058403 0.883728 0.045941
O O16 0.247691 0.471659 0.427353
O O17 0.000000 0.500000 0.005874
#
# Coordination Sequence:
#
# PCOD9365950 Si02
#       8
#     8   8   8   8   8   8   8   8
#     4  10  23  41  60  83 112 154 201 240 281 338
#     4  11  21  34  54  84 114 151 190 234 295 340
#     4   9  19  33  52  81 113 151 188 230 283 354
#     4  12  23  32  48  80 117 149 180 225 286 342
#     4  10  19  35  55  82 124 149 190 231 297 352
#     4  11  21  34  54  84 114 151 190 234 295 340
#     4  10  23  41  60  83 112 154 201 240 281 338
#     4   9  19  33  52  81 113 151 188 230 283 354
#
# _framework density 18.390695999999998
#
# number of rings (size 3 to 8) (size 9 to 14) (size 15 to 20)
#    0.000    1.750    3.750    2.250    3.500    8.000 
#    0.000    0.000    0.000    0.000    6.500    0.000 
#    0.000    0.000    0.000    0.000    0.000    0.000 
#
# Total GULP energy -178216.490866 kJ/mol
# GULP energy per Si atom -5569.265340 kJ/mol
# Density = 1.834884 g / cm^3
# Si number density = 18.390696 Si / 1000 Ang^3
#
#
#
# Elastic Constant Matrix: (Units=GPa)
#
#
# Indices 1 2 3 4 5 6 
#
# 1 161.3447 61.3229 49.4567 0.0000 0.0000 0.0000
# 2 61.3229 98.7770 18.7577 0.0000 0.0000 0.0000
# 3 49.4567 18.7577 50.6295 0.0000 0.0000 0.0000
# 4 0.0000 0.0000 0.0000 14.3774 0.0000 0.0000
# 5 0.0000 0.0000 0.0000 0.0000 21.1575 0.0000
# 6 0.0000 0.0000 0.0000 0.0000 0.0000 20.1591
#
#
#
# Elastic Compliance Matrix: (Units=1/GPa)
#
#
# Indices 1 2 3 4 5 6 
#
# 1 0.010764 -0.005041 -0.008648 0.000000 0.000000 0.000000
# 2 -0.005041 0.013250 0.000015 0.000000 0.000000 0.000000
# 3 -0.008648 0.000015 0.028193 0.000000 0.000000 0.000000
# 4 0.000000 0.000000 0.000000 0.069554 0.000000 0.000000
# 5 0.000000 0.000000 0.000000 0.000000 0.047265 0.000000
# 6 0.000000 0.000000 0.000000 0.000000 0.000000 0.049605
#
#
# Mechanical properties :
#
#
# Convention : Reuss Voigt Hill
#
# Bulk Modulus (GPa) = 40.22363 63.31398 51.76880
# Shear Modulus (GPa) = 19.66447 23.21972 21.44209
#
# Velocity S-wave (km/s) = 3.27350 3.55713 3.41826
# Velocity P-wave (km/s) = 6.01722 7.16749 6.61740
#
# Compressibility (1/GPa) = 0.02486101
#
# Stress axis : x y z
#
# Youngs Moduli (GPa) = 92.89817 75.46972 35.46956
#
# Poissons Ratio (x) = 0.38042 0.30673
# Poissons Ratio (y) = 0.46827 -0.00052
# Poissons Ratio (z) = 0.80335 -0.00111
#
# Static dielectric constant tensor:
#      x y z
#    x 1.673500 0.000000 0.000000 
#    y 0.000000 1.846610 0.000000 
#    z 0.000000 0.000000 1.619970 
# 
# From -- ./inp_files/12338.got.cif
#   From: 2010.05.17/outbox.cif.g08.bks.cpg/sg41_7_cif.got.tgz:12338.got - 2010.06.03 18:54:24.
