data_PCOD9365521
_publ_section_title
;
Structure prediction by ZEFSAII (Michael W. Deem and Ramdas Pophale) SiO2 
 PCOD9365521
Probable space group: A M A 2
;
_chemical_formula_sum "Si O2"
_cell_formula_units_Z 64
_cell_length_a 29.943978
_cell_length_b 9.034882
_cell_length_c 11.529504
_cell_angle_alpha 90.000000
_cell_angle_beta 90.000000
_cell_angle_gamma 90.000000
_cell_volume 3119.195561
_symmetry_space_group_name_H-M "A M A 2"
_symmetry_group_IT_number 40
_symmetry_cell_setting 'orthorhombic'
loop_
_space_group_symop_operation_xyz
x,y,z
-x,-y,z
1/2-x,y,z
1/2+x,-y,z
x,1/2+y,1/2+z
-x,1/2-y,1/2+z
1/2-x,1/2+y,1/2+z
1/2+x,1/2-y,1/2+z
loop_
_atom_site_type_symbol
_atom_site_label
_atom_site_fract_x
_atom_site_fract_y
_atom_site_fract_z
Si Si1 0.199864 0.744653 0.224400
Si Si2 0.661647 0.093536 0.018574
Si Si3 0.802913 0.585006 0.262288
Si Si4 0.056210 0.139815 0.734049
Si Si5 0.879690 0.645850 0.878238
Si Si6 0.412446 0.657934 0.974965
Si Si7 0.628019 0.792175 0.129467
Si Si8 0.545116 0.191657 0.779825
O O1 0.250000 0.743911 0.270927
O O2 0.196510 0.827857 0.103124
O O3 0.186629 0.573521 0.203652
O O4 0.166547 0.824501 0.312428
O O5 0.641107 0.957887 0.091764
O O6 0.684094 0.055625 0.896247
O O7 0.623353 0.211810 0.989315
O O8 0.750000 0.617150 0.251296
O O9 0.833455 0.712038 0.205635
O O10 0.084445 0.262925 0.801936
O O11 0.073524 0.113713 0.603963
O O12 0.004572 0.187426 0.730059
O O13 0.059481 0.979983 0.795737
O O14 0.892454 0.476172 0.899891
O O15 0.876570 0.711343 0.006549
O O16 0.453376 0.724948 0.902149
O O17 0.581589 0.769691 0.197698
#
# Coordination Sequence:
#
# PCOD9365521 Si02
#       8
#     8   8   8   8   8   8   8   8
#     4  11  24  44  69 101 135 175 226 281 339 406
#     4  12  24  45  70  98 136 179 225 283 331 409
#     4  11  25  45  68  99 137 178 226 281 343 409
#     4  11  26  46  68 100 142 172 231 282 339 408
#     4  12  24  45  73  97 138 185 222 281 345 404
#     4  12  25  45  71  98 136 182 225 276 343 399
#     4  12  24  44  72  97 138 180 225 279 349 395
#     4  11  25  45  68 103 133 181 225 285 340 409
#
# _framework density 20.518108999999999
#
# number of rings (size 3 to 8) (size 9 to 14) (size 15 to 20)
#    0.000    0.500    5.000    3.375    1.750    2.000 
#    0.000    0.625    0.000    0.000    0.000    0.000 
#    0.000    0.000    0.000    0.000    0.000    0.000 
#
# Total GULP energy -178965.545117 kJ/mol
# GULP energy per Si atom -5592.673285 kJ/mol
# Density = 2.047141 g / cm^3
# Si number density = 20.518109 Si / 1000 Ang^3
#
#
#
# Elastic Constant Matrix: (Units=GPa)
#
#
# Indices 1 2 3 4 5 6 
#
# 1 104.0154 49.3104 33.0047 0.0000 0.0000 0.0000
# 2 49.3104 135.6752 36.4905 0.0000 0.0000 0.0000
# 3 33.0047 36.4905 83.2688 0.0000 0.0000 0.0000
# 4 0.0000 0.0000 0.0000 39.0480 0.0000 0.0000
# 5 0.0000 0.0000 0.0000 0.0000 26.5230 0.0000
# 6 0.0000 0.0000 0.0000 0.0000 0.0000 11.3019
#
#
#
# Elastic Compliance Matrix: (Units=1/GPa)
#
#
# Indices 1 2 3 4 5 6 
#
# 1 0.012378 -0.003604 -0.003327 0.000000 0.000000 0.000000
# 2 -0.003604 0.009405 -0.002693 0.000000 0.000000 0.000000
# 3 -0.003327 -0.002693 0.014508 0.000000 0.000000 0.000000
# 4 0.000000 0.000000 0.000000 0.025609 0.000000 0.000000
# 5 0.000000 0.000000 0.000000 0.000000 0.037703 0.000000
# 6 0.000000 0.000000 0.000000 0.000000 0.000000 0.088481
#
#
# Mechanical properties :
#
#
# Convention : Reuss Voigt Hill
#
# Bulk Modulus (GPa) = 58.67389 62.28562 60.47976
# Shear Modulus (GPa) = 23.47274 28.98483 26.22879
#
# Velocity S-wave (km/s) = 3.38598 3.76260 3.57924
# Velocity P-wave (km/s) = 6.62908 7.02129 6.82800
#
# Compressibility (1/GPa) = 0.01704336
#
# Stress axis : x y z
#
# Youngs Moduli (GPa) = 80.78763 106.33035 68.92734
#
# Poissons Ratio (x) = 0.38321 0.22931
# Poissons Ratio (y) = 0.29116 0.18561
# Poissons Ratio (z) = 0.26877 0.28633
#
# Static dielectric constant tensor:
#      x y z
#    x 1.717010 0.000000 0.000000 
#    y 0.000000 1.755370 0.000000 
#    z 0.000000 0.000000 1.728590 
# 
# From -- ./inp_files/14414.got.cif
#   From: 2010.05.17/outbox.cif.g08.bks.cpg/sg40_8_cif.got.tgz:14414.got - 2010.06.03 18:35:42.
