data_PCOD9365887
_publ_section_title
;
Structure prediction by ZEFSAII (Michael W. Deem and Ramdas Pophale) SiO2 
 PCOD9365887
Probable space group: A B A 2
;
_chemical_formula_sum "Si O2"
_cell_formula_units_Z 60
_cell_length_a 14.522997
_cell_length_b 11.264050
_cell_length_c 15.822213
_cell_angle_alpha 90.000000
_cell_angle_beta 90.000000
_cell_angle_gamma 90.000000
_cell_volume 2588.320452
_symmetry_space_group_name_H-M "A B A 2"
_symmetry_group_IT_number 41
_symmetry_cell_setting 'orthorhombic'
loop_
_space_group_symop_operation_xyz
x,y,z
-x,-y,z
1/2-x,y,1/2+z
1/2+x,-y,1/2+z
x,1/2+y,1/2+z
-x,1/2-y,1/2+z
1/2-x,1/2+y,z
1/2+x,1/2-y,z
loop_
_atom_site_type_symbol
_atom_site_label
_atom_site_fract_x
_atom_site_fract_y
_atom_site_fract_z
Si Si1 0.431389 0.192012 0.754270
Si Si2 0.722631 0.067626 0.508351
Si Si3 0.100807 0.325823 0.957583
Si Si4 0.000000 0.500000 0.087633
Si Si5 0.434653 0.307912 0.940787
Si Si6 0.730418 0.184762 0.178366
Si Si7 0.335340 0.133890 0.073080
Si Si8 0.616330 0.081311 0.774849
O O1 0.422637 0.251677 0.847523
O O2 0.375763 0.284111 0.695140
O O3 0.536697 0.159709 0.728085
O O4 0.387865 0.058717 0.755678
O O5 0.790763 0.170951 0.473453
O O6 0.625825 0.075418 0.460511
O O7 0.730225 0.092079 0.608984
O O8 0.778258 0.945515 0.506192
O O9 0.087374 0.397785 0.871248
O O10 0.044655 0.203235 0.954598
O O11 0.053129 0.405741 0.028685
O O12 0.086444 0.565340 0.127658
O O13 0.389739 0.225751 0.013839
O O14 0.769430 0.305805 0.139853
O O15 0.784826 0.140833 0.260395
#
# Coordination Sequence:
#
# PCOD9365887 Si02
#       8
#     8   8   8   4   8   8   8   8
#     4  10  20  35  53  77 104 137 177 220 273 326
#     4  10  19  32  51  74 101 130 165 216 264 306
#     4   9  16  31  53  74  92 124 171 215 253 298
#     4   8  14  28  52  70  88 120 166 216 252 292
#     4   9  18  32  54  75  93 124 173 217 254 305
#     4  11  22  32  48  77 108 139 171 209 263 330
#     4   9  18  32  49  72  99 130 170 210 256 310
#     4  10  20  35  54  74 105 140 176 221 267 322
#
# _framework density 23.181056000000002
#
# number of rings (size 3 to 8) (size 9 to 14) (size 15 to 20)
#    0.000    2.400    0.000    4.800    0.000    4.267 
#    0.000    0.000    0.000    2.400    0.000   13.067 
#    0.000    0.000    0.000    0.000    0.000    0.000 
#
# Total GULP energy -167001.695998 kJ/mol
# GULP energy per Si atom -5566.723200 kJ/mol
# Density = 2.312829 g / cm^3
# Si number density = 23.181056 Si / 1000 Ang^3
#
#
#
# Elastic Constant Matrix: (Units=GPa)
#
#
# Indices 1 2 3 4 5 6 
#
# 1 30.0519 10.0869 -4.2169 0.0000 0.0000 0.0000
# 2 10.0869 55.5769 2.3988 0.0000 0.0000 0.0000
# 3 -4.2169 2.3988 47.2796 0.0000 0.0000 0.0000
# 4 0.0000 0.0000 0.0000 -0.4868 0.0000 0.0000
# 5 0.0000 0.0000 0.0000 0.0000 21.5186 0.0000
# 6 0.0000 0.0000 0.0000 0.0000 0.0000 28.7596
#
#
#
# Elastic Compliance Matrix: (Units=1/GPa)
#
#
# Indices 1 2 3 4 5 6 
#
# 1 0.036020 -0.006691 0.003552 0.000000 0.000000 0.000000
# 2 -0.006691 0.019275 -0.001575 0.000000 0.000000 0.000000
# 3 0.003552 -0.001575 0.021548 0.000000 0.000000 0.000000
# 4 0.000000 0.000000 0.000000 -2.054418 0.000000 0.000000
# 5 0.000000 0.000000 0.000000 0.000000 0.046471 0.000000
# 6 0.000000 0.000000 0.000000 0.000000 0.000000 0.034771
#
#
# Mechanical properties :
#
#
# Convention : Reuss Voigt Hill
#
# Bulk Modulus (GPa) = 14.83322 16.60508 15.71915
# Shear Modulus (GPa) = -2.68178 18.26759 7.79291
#
# Velocity S-wave (km/s) = -1.07675 2.81025 1.83550
# Velocity P-wave (km/s) = 2.20610 4.20818 3.35974
#
# Compressibility (1/GPa) = 0.06741626
#
# Stress axis : x y z
#
# Youngs Moduli (GPa) = 27.76241 51.87969 46.40909
#
# Poissons Ratio (x) = 0.34711 -0.16485
# Poissons Ratio (y) = 0.18575 0.07308
# Poissons Ratio (z) = -0.09862 0.08169
#
# Static dielectric constant tensor:
#      x y z
#    x 2.009750 0.000000 0.000000 
#    y 0.000000 2.003980 0.000000 
#    z 0.000000 0.000000 1.921360 
# 
# From -- ./inp_files/8540.got.cif
#   From: 2010.05.17/outbox.cif.g08.bks.cpg/sg41_5_cif.got.tgz:8540.got - 2010.06.03 18:54:24.
