data_PCOD9365514
_publ_section_title
;
Structure prediction by ZEFSAII (Michael W. Deem and Ramdas Pophale) SiO2 
 PCOD9365514
Probable space group: A M A 2
;
_chemical_formula_sum "Si O2"
_cell_formula_units_Z 64
_cell_length_a 17.826268
_cell_length_b 15.006623
_cell_length_c 12.132604
_cell_angle_alpha 90.000000
_cell_angle_beta 90.000000
_cell_angle_gamma 90.000000
_cell_volume 3245.618173
_symmetry_space_group_name_H-M "A M A 2"
_symmetry_group_IT_number 40
_symmetry_cell_setting 'orthorhombic'
loop_
_space_group_symop_operation_xyz
x,y,z
-x,-y,z
1/2-x,y,z
1/2+x,-y,z
x,1/2+y,1/2+z
-x,1/2-y,1/2+z
1/2-x,1/2+y,1/2+z
1/2+x,1/2-y,1/2+z
loop_
_atom_site_type_symbol
_atom_site_label
_atom_site_fract_x
_atom_site_fract_y
_atom_site_fract_z
Si Si1 0.585916 0.217987 0.122970
Si Si2 0.663090 0.482498 0.386732
Si Si3 0.914084 0.217986 0.650494
Si Si4 0.839035 0.397199 0.606277
Si Si5 0.585293 0.534722 0.758917
Si Si6 0.414707 0.465278 0.014545
Si Si7 0.661728 0.694547 0.386732
Si Si8 0.339035 0.102801 0.667186
O O1 0.500000 0.250000 0.136732
O O2 0.595340 0.122532 0.182803
O O3 0.635746 0.295725 0.175613
O O4 0.615529 0.218097 0.996817
O O5 0.750000 0.451379 0.386731
O O6 0.628222 0.446591 0.498654
O O7 0.665036 0.587868 0.386734
O O8 0.628223 0.446593 0.274808
O O9 0.864253 0.295724 0.597851
O O10 0.904660 0.122531 0.590660
O O11 0.884471 0.218096 0.776646
O O12 0.750000 0.402820 0.608198
O O13 0.867813 0.451979 0.711298
O O14 0.500000 0.500000 0.753407
O O15 0.603221 0.554706 0.886731
O O16 0.500000 0.500000 0.020056
O O17 0.367813 0.548021 0.062164
O O18 0.750000 0.726450 0.386732
O O19 0.250000 0.097180 0.665265
#
# Coordination Sequence:
#
# PCOD9365514 Si02
#       8
#     8   8   8   8   8   8   8   8
#     4  12  26  42  69 103 137 182 233 291 348 419
#     4   9  20  41  65  92 128 166 219 283 339 406
#     4  12  26  42  69 103 137 182 233 291 348 419
#     4  11  24  43  67  98 134 178 227 281 348 417
#     4  11  25  46  66  96 140 181 227 285 349 420
#     4  11  25  46  66  96 140 181 227 285 349 420
#     4  11  24  45  71  99 138 186 237 288 348 422
#     4  11  24  43  67  98 134 178 227 281 348 417
#
# _framework density 19.718893999999999
#
# number of rings (size 3 to 8) (size 9 to 14) (size 15 to 20)
#    0.000    1.000    5.000    0.750    5.250    1.500 
#    0.000    2.500    0.000    0.000    0.000    0.000 
#    0.000    0.000    0.000    0.000    0.000    0.000 
#
# Total GULP energy -178597.973405 kJ/mol
# GULP energy per Si atom -5581.186669 kJ/mol
# Density = 1.967401 g / cm^3
# Si number density = 19.718894 Si / 1000 Ang^3
#
#
#
# Elastic Constant Matrix: (Units=GPa)
#
#
# Indices 1 2 3 4 5 6 
#
# 1 86.4686 20.1230 52.7771 0.0000 0.0000 0.0000
# 2 20.1230 81.8192 13.7691 0.0000 0.0000 0.0000
# 3 52.7771 13.7691 97.7370 0.0000 0.0000 0.0000
# 4 0.0000 0.0000 0.0000 33.4849 0.0000 0.0000
# 5 0.0000 0.0000 0.0000 0.0000 -119.0237 0.0000
# 6 0.0000 0.0000 0.0000 0.0000 0.0000 36.6427
#
#
#
# Elastic Compliance Matrix: (Units=1/GPa)
#
#
# Indices 1 2 3 4 5 6 
#
# 1 0.017872 -0.002839 -0.009251 0.000000 0.000000 0.000000
# 2 -0.002839 0.012970 -0.000294 0.000000 0.000000 0.000000
# 3 -0.009251 -0.000294 0.015268 0.000000 0.000000 0.000000
# 4 0.000000 0.000000 0.000000 0.029864 0.000000 0.000000
# 5 0.000000 0.000000 0.000000 0.000000 -0.008402 0.000000
# 6 0.000000 0.000000 0.000000 0.000000 0.000000 0.027291
#
#
# Mechanical properties :
#
#
# Convention : Reuss Voigt Hill
#
# Bulk Modulus (GPa) = 46.85495 48.81813 47.83654
# Shear Modulus (GPa) = 39.44946 2.17782 20.81364
#
# Velocity S-wave (km/s) = 4.47765 1.05206 3.25240
# Velocity P-wave (km/s) = 7.10954 5.12704 6.19807
#
# Compressibility (1/GPa) = 0.02134246
#
# Stress axis : x y z
#
# Youngs Moduli (GPa) = 55.95407 77.10238 65.49519
#
# Poissons Ratio (x) = 0.21887 0.60588
# Poissons Ratio (y) = 0.15884 0.01927
# Poissons Ratio (z) = 0.51761 0.02269
#
# Static dielectric constant tensor:
#      x y z
#    x 1.674250 0.000000 0.000000 
#    y 0.000000 1.643130 0.000000 
#    z 0.000000 0.000000 1.738470 
# 
# From -- ./inp_files/13141.got.cif
#   From: 2010.05.17/outbox.cif.g08.bks.cpg/sg40_7_cif.got.tgz:13141.got - 2010.06.03 18:35:42.
