data_PCOD9366758
_publ_section_title
;
Structure prediction by ZEFSAII (Michael W. Deem and Ramdas Pophale) SiO2 
 PCOD9366758
Probable space group: A B A 2
;
_chemical_formula_sum "Si O2"
_cell_formula_units_Z 64
_cell_length_a 14.953977
_cell_length_b 15.430398
_cell_length_c 12.897143
_cell_angle_alpha 90.000000
_cell_angle_beta 90.000000
_cell_angle_gamma 90.000000
_cell_volume 2975.961796
_symmetry_space_group_name_H-M "A B A 2"
_symmetry_group_IT_number 41
_symmetry_cell_setting 'orthorhombic'
loop_
_space_group_symop_operation_xyz
x,y,z
-x,-y,z
1/2-x,y,1/2+z
1/2+x,-y,1/2+z
x,1/2+y,1/2+z
-x,1/2-y,1/2+z
1/2-x,1/2+y,z
1/2+x,1/2-y,z
loop_
_atom_site_type_symbol
_atom_site_label
_atom_site_fract_x
_atom_site_fract_y
_atom_site_fract_z
Si Si1 0.690294 0.820117 0.363510
Si Si2 0.028236 0.161030 0.576415
Si Si3 0.652906 0.462340 0.698216
Si Si4 0.084986 0.937650 0.888313
Si Si5 0.536242 0.209558 0.766504
Si Si6 0.417239 0.934307 0.906012
Si Si7 0.757585 0.977945 0.995359
Si Si8 0.623397 0.257315 0.391178
O O1 0.696253 0.888397 0.269802
O O2 0.596970 0.773457 0.339398
O O3 0.706507 0.882580 0.462179
O O4 0.772567 0.753665 0.365378
O O5 0.067008 0.080918 0.642277
O O6 0.024561 0.241798 0.656645
O O7 0.104390 0.189500 0.495082
O O8 0.944459 0.130065 0.504375
O O9 0.623079 0.538420 0.774552
O O10 0.722497 0.485841 0.610749
O O11 0.076580 0.835740 0.897193
O O12 0.158788 0.962179 0.971917
O O13 0.000000 0.000000 0.901790
O O14 0.583749 0.119185 0.798000
O O15 0.435121 0.195212 0.804688
O O16 0.500000 0.000000 0.903843
O O17 0.326414 0.986647 0.927607
#
# Coordination Sequence:
#
# PCOD9366758 Si02
#       8
#     8   8   8   8   8   8   8   8
#     4  10  21  42  63  92 134 166 218 282 327 387
#     4  10  21  41  67  93 128 170 221 267 326 404
#     4  10  21  40  67  93 123 172 224 268 326 401
#     4  11  25  42  65  93 136 174 216 279 336 402
#     4  10  23  41  63  98 130 176 218 273 339 399
#     4  11  21  38  70 101 136 172 225 287 327 401
#     4  11  21  40  65  98 131 170 226 274 335 395
#     4  11  21  42  62  92 128 168 217 270 331 396
#
# _framework density 21.505651
#
# number of rings (size 3 to 8) (size 9 to 14) (size 15 to 20)
#    0.000    1.500    2.500    3.750    3.500    0.000 
#   15.750    0.625    0.000    0.000    0.000    0.000 
#    0.000    0.000    0.000    0.000    0.000    0.000 
#
# Total GULP energy -178418.376144 kJ/mol
# GULP energy per Si atom -5575.574255 kJ/mol
# Density = 2.145670 g / cm^3
# Si number density = 21.505651 Si / 1000 Ang^3
#
#
#
# Elastic Constant Matrix: (Units=GPa)
#
#
# Indices 1 2 3 4 5 6 
#
# 1 87.4876 7.6493 6.9403 0.0000 0.0000 0.0000
# 2 7.6493 62.2704 -4.9627 0.0000 0.0000 0.0000
# 3 6.9403 -4.9627 56.6081 0.0000 0.0000 0.0000
# 4 0.0000 0.0000 0.0000 -9.0649 0.0000 0.0000
# 5 0.0000 0.0000 0.0000 0.0000 10.5253 0.0000
# 6 0.0000 0.0000 0.0000 0.0000 0.0000 16.0827
#
#
#
# Elastic Compliance Matrix: (Units=1/GPa)
#
#
# Indices 1 2 3 4 5 6 
#
# 1 0.011691 -0.001561 -0.001570 0.000000 0.000000 0.000000
# 2 -0.001561 0.016380 0.001627 0.000000 0.000000 0.000000
# 3 -0.001570 0.001627 0.018001 0.000000 0.000000 0.000000
# 4 0.000000 0.000000 0.000000 -0.110316 0.000000 0.000000
# 5 0.000000 0.000000 0.000000 0.000000 0.095009 0.000000
# 6 0.000000 0.000000 0.000000 0.000000 0.000000 0.062178
#
#
# Mechanical properties :
#
#
# Convention : Reuss Voigt Hill
#
# Bulk Modulus (GPa) = 23.22121 25.06888 24.14505
# Shear Modulus (GPa) = 45.32819 16.62459 30.97639
#
# Velocity S-wave (km/s) = 4.59599 2.78336 3.79936
# Velocity P-wave (km/s) = 6.24382 4.69166 5.52254
#
# Compressibility (1/GPa) = 0.04306408
#
# Stress axis : x y z
#
# Youngs Moduli (GPa) = 85.53397 61.04826 55.55398
#
# Poissons Ratio (x) = 0.09531 0.08723
# Poissons Ratio (y) = 0.13354 -0.09041
# Poissons Ratio (z) = 0.13431 -0.09935
#
# Static dielectric constant tensor:
#      x y z
#    x 1.761960 0.000000 0.000000 
#    y 0.000000 1.921070 0.000000 
#    z 0.000000 0.000000 1.816580 
# 
# From -- ./inp_files/5705.got.cif
#   From: 2010.05.17/outbox.cif.g08.bks.cpg/sg41_3_cif.got.tgz:5705.got - 2010.06.03 18:54:24.
