data_PCOD9366524
_publ_section_title
;
Structure prediction by ZEFSAII (Michael W. Deem and Ramdas Pophale) SiO2 
 PCOD9366524
Probable space group: A B A 2
;
_chemical_formula_sum "Si O2"
_cell_formula_units_Z 64
_cell_length_a 8.817684
_cell_length_b 20.033458
_cell_length_c 19.036146
_cell_angle_alpha 90.000000
_cell_angle_beta 90.000000
_cell_angle_gamma 90.000000
_cell_volume 3362.710483
_symmetry_space_group_name_H-M "A B A 2"
_symmetry_group_IT_number 41
_symmetry_cell_setting 'orthorhombic'
loop_
_space_group_symop_operation_xyz
x,y,z
-x,-y,z
1/2-x,y,1/2+z
1/2+x,-y,1/2+z
x,1/2+y,1/2+z
-x,1/2-y,1/2+z
1/2-x,1/2+y,z
1/2+x,1/2-y,z
loop_
_atom_site_type_symbol
_atom_site_label
_atom_site_fract_x
_atom_site_fract_y
_atom_site_fract_z
Si Si1 0.867094 0.659009 0.190340
Si Si2 0.655588 0.894229 0.945149
Si Si3 0.150791 0.702732 0.530952
Si Si4 0.343348 0.346040 0.847095
Si Si5 0.597786 0.734322 0.132551
Si Si6 0.041752 0.777438 0.395889
Si Si7 0.906287 0.562510 0.059446
Si Si8 0.328209 0.975687 0.445841
O O1 0.878728 0.630481 0.268165
O O2 0.703555 0.693136 0.183602
O O3 0.878966 0.611160 0.123573
O O4 0.994836 0.714608 0.175796
O O5 0.586976 0.835170 0.897348
O O6 0.722343 0.963615 0.915591
O O7 0.792409 0.860944 0.988612
O O8 0.517632 0.909741 0.998516
O O9 0.290338 0.728457 0.578001
O O10 0.012841 0.690791 0.583703
O O11 0.100336 0.759278 0.474875
O O12 0.470080 0.291630 0.868884
O O13 0.330819 0.409344 0.898389
O O14 0.184890 0.305972 0.854181
O O15 0.000000 0.500000 0.088138
O O16 0.752991 0.541877 0.019560
O O17 0.500000 0.000000 0.453586
#
# Coordination Sequence:
#
# PCOD9366524 Si02
#       8
#     8   8   8   8   8   8   8   8
#     4  11  23  42  61  92 132 174 206 256 320 390
#     4  11  20  39  65  95 125 162 210 269 324 368
#     4  11  18  34  63 101 123 156 214 269 322 356
#     4  12  26  41  64  94 136 172 216 257 324 387
#     4  10  21  34  63  95 128 161 207 265 317 374
#     4  12  22  37  65  98 128 171 210 272 315 381
#     4  10  22  42  66  87 121 170 213 260 320 378
#     4  11  26  41  66  97 125 164 218 275 314 378
#
# _framework density 19.032267000000001
#
# number of rings (size 3 to 8) (size 9 to 14) (size 15 to 20)
#    0.000    1.000    5.000    2.250    3.500    0.500 
#    0.000    0.000    2.750    0.000    0.000    0.000 
#    0.000    0.000    0.000    0.000    0.000    0.000 
#
# Total GULP energy -178669.041734 kJ/mol
# GULP energy per Si atom -5583.407554 kJ/mol
# Density = 1.898895 g / cm^3
# Si number density = 19.032267 Si / 1000 Ang^3
#
#
#
# Elastic Constant Matrix: (Units=GPa)
#
#
# Indices 1 2 3 4 5 6 
#
# 1 111.9987 43.1341 38.7856 0.0000 0.0000 0.0000
# 2 43.1341 89.3365 19.2554 0.0000 0.0000 0.0000
# 3 38.7856 19.2554 64.3300 0.0000 0.0000 0.0000
# 4 0.0000 0.0000 0.0000 -2.6932 0.0000 0.0000
# 5 0.0000 0.0000 0.0000 0.0000 7.0703 0.0000
# 6 0.0000 0.0000 0.0000 0.0000 0.0000 34.8205
#
#
#
# Elastic Compliance Matrix: (Units=1/GPa)
#
#
# Indices 1 2 3 4 5 6 
#
# 1 0.013034 -0.004917 -0.006387 0.000000 0.000000 0.000000
# 2 -0.004917 0.013820 -0.001172 0.000000 0.000000 0.000000
# 3 -0.006387 -0.001172 0.019746 0.000000 0.000000 0.000000
# 4 0.000000 0.000000 0.000000 -0.371305 0.000000 0.000000
# 5 0.000000 0.000000 0.000000 0.000000 0.141436 0.000000
# 6 0.000000 0.000000 0.000000 0.000000 0.000000 0.028719
#
#
# Mechanical properties :
#
#
# Convention : Reuss Voigt Hill
#
# Bulk Modulus (GPa) = 46.19120 52.00171 49.09646
# Shear Modulus (GPa) = -40.85548 18.80554 -11.02497
#
# Velocity S-wave (km/s) = -4.63821 3.14680 -2.40943
# Velocity P-wave (km/s) = 2.08840 6.37066 4.25581
#
# Compressibility (1/GPa) = 0.02164914
#
# Stress axis : x y z
#
# Youngs Moduli (GPa) = 76.72276 72.35793 50.64205
#
# Poissons Ratio (x) = 0.35575 0.32344
# Poissons Ratio (y) = 0.37721 0.05937
# Poissons Ratio (z) = 0.49001 0.08483
#
# Static dielectric constant tensor:
#      x y z
#    x 1.677430 0.000000 0.000000 
#    y 0.000000 1.703390 0.000000 
#    z 0.000000 0.000000 1.638110 
# 
# From -- ./inp_files/9843.got.cif
#   From: 2010.05.17/outbox.cif.g08.bks.cpg/sg41_5_cif.got.tgz:9843.got - 2010.06.03 18:54:24.
