data_PCOD9366353
_publ_section_title
;
Structure prediction by ZEFSAII (Michael W. Deem and Ramdas Pophale) SiO2 
 PCOD9366353
Probable space group: A B A 2
;
_chemical_formula_sum "Si O2"
_cell_formula_units_Z 64
_cell_length_a 24.257624
_cell_length_b 8.569262
_cell_length_c 13.884717
_cell_angle_alpha 90.000000
_cell_angle_beta 90.000000
_cell_angle_gamma 90.000000
_cell_volume 2886.215228
_symmetry_space_group_name_H-M "A B A 2"
_symmetry_group_IT_number 41
_symmetry_cell_setting 'orthorhombic'
loop_
_space_group_symop_operation_xyz
x,y,z
-x,-y,z
1/2-x,y,1/2+z
1/2+x,-y,1/2+z
x,1/2+y,1/2+z
-x,1/2-y,1/2+z
1/2-x,1/2+y,z
1/2+x,1/2-y,z
loop_
_atom_site_type_symbol
_atom_site_label
_atom_site_fract_x
_atom_site_fract_y
_atom_site_fract_z
Si Si1 0.977555 0.164778 0.456860
Si Si2 0.370030 0.987545 0.920361
Si Si3 0.721311 0.737577 0.430951
Si Si4 0.412608 0.315890 0.922541
Si Si5 0.668240 0.984171 0.708562
Si Si6 0.812119 0.045591 0.811954
Si Si7 0.757225 0.703615 0.144416
Si Si8 0.941592 0.440378 0.590645
O O1 0.955511 0.275857 0.541018
O O2 0.025645 0.253446 0.398163
O O3 0.925110 0.109225 0.396896
O O4 0.000000 0.000000 0.496717
O O5 0.384387 0.156578 0.961924
O O6 0.339615 0.015950 0.821149
O O7 0.328290 0.871748 0.971340
O O8 0.766033 0.650727 0.365847
O O9 0.749715 0.762266 0.533687
O O10 0.696592 0.879089 0.367200
O O11 0.372539 0.388307 0.841604
O O12 0.423245 0.443856 0.004179
O O13 0.711984 0.851889 0.686487
O O14 0.609866 0.943080 0.661343
O O15 0.696473 0.144049 0.673717
O O16 0.796932 0.070597 0.698858
O O17 0.000000 0.500000 0.632485
#
# Coordination Sequence:
#
# PCOD9366353 Si02
#       8
#     8   8   8   8   8   8   8   8
#     4   9  20  39  69  97 128 176 228 284 357 431
#     4  11  22  41  64  95 133 180 226 283 356 421
#     4  12  25  41  68  94 137 183 229 287 358 419
#     4  10  20  39  65  94 132 171 223 286 347 423
#     4  12  25  44  64  99 143 181 237 298 354 436
#     4  12  23  42  64  97 136 180 232 290 357 435
#     4  12  25  43  64  99 137 185 237 296 356 433
#     4  10  22  43  72 103 136 182 240 294 366 443
#
# _framework density 22.174368999999999
#
# number of rings (size 3 to 8) (size 9 to 14) (size 15 to 20)
#    0.000    1.000    2.500    5.250    0.000    2.500 
#    0.000    1.250    0.000    3.750    0.000    0.000 
#    0.000    0.000    0.000    0.000    0.000    0.000 
#
# Total GULP energy -178327.174346 kJ/mol
# GULP energy per Si atom -5572.724198 kJ/mol
# Density = 2.212390 g / cm^3
# Si number density = 22.174369 Si / 1000 Ang^3
#
#
#
# Elastic Constant Matrix: (Units=GPa)
#
#
# Indices 1 2 3 4 5 6 
#
# 1 121.0842 26.9679 6.1990 0.0000 0.0000 0.0000
# 2 26.9679 78.1949 11.0194 0.0000 0.0000 0.0000
# 3 6.1990 11.0194 38.1848 0.0000 0.0000 0.0000
# 4 0.0000 0.0000 0.0000 13.0413 0.0000 0.0000
# 5 0.0000 0.0000 0.0000 0.0000 32.8226 0.0000
# 6 0.0000 0.0000 0.0000 0.0000 0.0000 45.5818
#
#
#
# Elastic Compliance Matrix: (Units=1/GPa)
#
#
# Indices 1 2 3 4 5 6 
#
# 1 0.008958 -0.003007 -0.000587 0.000000 0.000000 0.000000
# 2 -0.003007 0.014340 -0.003650 0.000000 0.000000 0.000000
# 3 -0.000587 -0.003650 0.027337 0.000000 0.000000 0.000000
# 4 0.000000 0.000000 0.000000 0.076679 0.000000 0.000000
# 5 0.000000 0.000000 0.000000 0.000000 0.030467 0.000000
# 6 0.000000 0.000000 0.000000 0.000000 0.000000 0.021939
#
#
# Mechanical properties :
#
#
# Convention : Reuss Voigt Hill
#
# Bulk Modulus (GPa) = 27.66388 36.20405 31.93397
# Shear Modulus (GPa) = 24.24162 31.17433 27.70797
#
# Velocity S-wave (km/s) = 3.30999 3.75356 3.53873
# Velocity P-wave (km/s) = 5.20679 5.92858 5.57937
#
# Compressibility (1/GPa) = 0.03614822
#
# Stress axis : x y z
#
# Youngs Moduli (GPa) = 111.62642 69.73518 36.58044
#
# Poissons Ratio (x) = 0.20969 0.02146
# Poissons Ratio (y) = 0.33565 0.13352
# Poissons Ratio (z) = 0.06548 0.25454
#
# Static dielectric constant tensor:
#      x y z
#    x 8.776100 0.000000 0.000000 
#    y 0.000000 1.983010 0.000000 
#    z 0.000000 0.000000 2.021250 
# 
# From -- ./inp_files/9169.got.cif
#   From: 2010.05.17/outbox.cif.g08.bks.cpg/sg41_5_cif.got.tgz:9169.got - 2010.06.03 18:54:24.
