data_PCOD9366015
_publ_section_title
;
Structure prediction by ZEFSAII (Michael W. Deem and Ramdas Pophale) SiO2 
 PCOD9366015
Probable space group: A B A 2
;
_chemical_formula_sum "Si O2"
_cell_formula_units_Z 64
_cell_length_a 22.701649
_cell_length_b 8.396303
_cell_length_c 16.783030
_cell_angle_alpha 90.000000
_cell_angle_beta 90.000000
_cell_angle_gamma 90.000000
_cell_volume 3199.012066
_symmetry_space_group_name_H-M "A B A 2"
_symmetry_group_IT_number 41
_symmetry_cell_setting 'orthorhombic'
loop_
_space_group_symop_operation_xyz
x,y,z
-x,-y,z
1/2-x,y,1/2+z
1/2+x,-y,1/2+z
x,1/2+y,1/2+z
-x,1/2-y,1/2+z
1/2-x,1/2+y,z
1/2+x,1/2-y,z
loop_
_atom_site_type_symbol
_atom_site_label
_atom_site_fract_x
_atom_site_fract_y
_atom_site_fract_z
Si Si1 0.925111 0.846384 0.367480
Si Si2 0.257735 0.651850 0.788930
Si Si3 0.059329 0.430229 0.713997
Si Si4 0.808149 0.068043 0.186264
Si Si5 0.356557 0.982777 0.378862
Si Si6 0.275244 0.349383 0.014083
Si Si7 0.315760 0.046182 0.943363
Si Si8 0.466064 0.667294 0.838927
O O1 0.889352 0.681501 0.358108
O O2 0.884856 0.949661 0.426548
O O3 0.990734 0.786073 0.387427
O O4 0.929561 0.946384 0.286787
O O5 0.289649 0.811946 0.758520
O O6 0.214373 0.599830 0.718700
O O7 0.310729 0.530941 0.810149
O O8 0.217163 0.630055 0.867599
O O9 0.121934 0.422288 0.670338
O O10 0.046797 0.261008 0.756772
O O11 0.000000 0.500000 0.673083
O O12 0.774548 0.102027 0.105048
O O13 0.321430 0.952090 0.460777
O O14 0.405650 0.119962 0.381734
O O15 0.297927 0.169429 0.011741
O O16 0.213986 0.380640 0.967412
O O17 0.500000 0.500000 0.825122
#
# Coordination Sequence:
#
# PCOD9366015 Si02
#       8
#     8   8   8   8   8   8   8   8
#     4   9  17  30  55  80 107 134 188 235 278 321
#     4  11  21  33  58  77 111 142 197 223 281 330
#     4  10  20  34  54  83 112 144 187 242 285 334
#     4  12  22  36  52  85 112 152 182 238 282 355
#     4   9  18  35  52  81 106 145 182 231 275 342
#     4  10  22  33  52  75 120 140 181 219 297 323
#     4  10  19  37  52  80 104 150 179 233 264 347
#     4   9  17  32  55  83 107 138 189 243 278 327
#
# _framework density 20.006177999999998
#
# number of rings (size 3 to 8) (size 9 to 14) (size 15 to 20)
#    0.000    2.000    2.500    3.000    0.000    0.000 
#    0.000    3.125    0.000    0.000    0.000   14.000 
#    0.000    0.000    0.000    0.000    0.000    0.000 
#
# Total GULP energy -178271.883656 kJ/mol
# GULP energy per Si atom -5570.996364 kJ/mol
# Density = 1.996064 g / cm^3
# Si number density = 20.006178 Si / 1000 Ang^3
#
#
#
# Elastic Constant Matrix: (Units=GPa)
#
#
# Indices 1 2 3 4 5 6 
#
# 1 101.7186 5.9505 3.6330 0.0000 0.0000 0.0000
# 2 5.9505 31.2130 3.2948 0.0000 0.0000 0.0000
# 3 3.6330 3.2948 42.4968 0.0000 0.0000 0.0000
# 4 0.0000 0.0000 0.0000 16.3366 0.0000 0.0000
# 5 0.0000 0.0000 0.0000 0.0000 14.9170 0.0000
# 6 0.0000 0.0000 0.0000 0.0000 0.0000 31.1124
#
#
#
# Elastic Compliance Matrix: (Units=1/GPa)
#
#
# Indices 1 2 3 4 5 6 
#
# 1 0.009963 -0.001824 -0.000710 0.000000 0.000000 0.000000
# 2 -0.001824 0.032636 -0.002374 0.000000 0.000000 0.000000
# 3 -0.000710 -0.002374 0.023776 0.000000 0.000000 0.000000
# 4 0.000000 0.000000 0.000000 0.061212 0.000000 0.000000
# 5 0.000000 0.000000 0.000000 0.000000 0.067037 0.000000
# 6 0.000000 0.000000 0.000000 0.000000 0.000000 0.032141
#
#
# Mechanical properties :
#
#
# Convention : Reuss Voigt Hill
#
# Bulk Modulus (GPa) = 17.68113 22.35387 20.01750
# Shear Modulus (GPa) = 19.57427 23.30989 21.44208
#
# Velocity S-wave (km/s) = 3.13135 3.41711 3.27735
# Velocity P-wave (km/s) = 4.68304 5.17364 4.93444
#
# Compressibility (1/GPa) = 0.05655746
#
# Stress axis : x y z
#
# Youngs Moduli (GPa) = 100.36998 30.64067 42.05923
#
# Poissons Ratio (x) = 0.05590 0.02987
# Poissons Ratio (y) = 0.18312 0.09986
# Poissons Ratio (z) = 0.07129 0.07275
#
# Static dielectric constant tensor:
#      x y z
#    x 1.779400 0.000000 0.000000 
#    y 0.000000 1.790050 0.000000 
#    z 0.000000 0.000000 1.667100 
# 
# From -- ./inp_files/9138.got.cif
#   From: 2010.05.17/outbox.cif.g08.bks.cpg/sg41_5_cif.got.tgz:9138.got - 2010.06.03 18:54:24.
