data_PCOD9366123
_publ_section_title
;
Structure prediction by ZEFSAII (Michael W. Deem and Ramdas Pophale) SiO2 
 PCOD9366123
Probable space group: A B A 2
;
_chemical_formula_sum "Si O2"
_cell_formula_units_Z 48
_cell_length_a 16.700149
_cell_length_b 10.052078
_cell_length_c 10.554779
_cell_angle_alpha 90.000000
_cell_angle_beta 90.000000
_cell_angle_gamma 90.000000
_cell_volume 1771.843420
_symmetry_space_group_name_H-M "A B A 2"
_symmetry_group_IT_number 41
_symmetry_cell_setting 'orthorhombic'
loop_
_space_group_symop_operation_xyz
x,y,z
-x,-y,z
1/2-x,y,1/2+z
1/2+x,-y,1/2+z
x,1/2+y,1/2+z
-x,1/2-y,1/2+z
1/2-x,1/2+y,z
1/2+x,1/2-y,z
loop_
_atom_site_type_symbol
_atom_site_label
_atom_site_fract_x
_atom_site_fract_y
_atom_site_fract_z
Si Si1 0.561822 0.261534 0.967550
Si Si2 0.230779 0.683788 0.371597
Si Si3 0.911441 0.945816 0.205528
Si Si4 0.417330 0.496584 0.614252
Si Si5 0.611587 0.764110 0.946780
Si Si6 0.246009 0.015695 0.126030
O O1 0.637414 0.279237 0.876716
O O2 0.472480 0.312492 0.933405
O O3 0.586278 0.336336 0.095319
O O4 0.558337 0.105689 0.002338
O O5 0.298620 0.788886 0.420903
O O6 0.242312 0.571910 0.482993
O O7 0.249509 0.633258 0.231264
O O8 0.894450 0.874941 0.336865
O O9 0.840293 0.045829 0.163003
O O10 0.000000 0.000000 0.210548
O O11 0.500000 0.500000 0.693509
O O12 0.602633 0.352788 0.572983
O O13 0.329808 0.441763 0.652849
#
# Coordination Sequence:
#
# PCOD9366123 Si02
#       6
#     8   8   8   8   8   8
#     4  10  20  33  55  85 108 138 188 234 270 319
#     4   9  19  36  55  79 111 144 182 227 273 325
#     4  10  20  36  54  78 111 145 182 225 275 328
#     4   9  18  35  56  79 108 147 187 222 271 335
#     4   9  19  37  56  75 108 151 185 216 271 343
#     4   9  19  37  56  76 109 147 181 224 275 326
#
# _framework density 27.090429
#
# number of rings (size 3 to 8) (size 9 to 14) (size 15 to 20)
#    0.000    2.667    0.000    1.500    0.000    5.333 
#    0.000   25.000    0.000    0.000    0.000    0.000 
#    0.000    0.000    0.000    0.000    0.000    0.000 
#
# Total GULP energy -133877.902184 kJ/mol
# GULP energy per Si atom -5578.245924 kJ/mol
# Density = 2.702877 g / cm^3
# Si number density = 27.090429 Si / 1000 Ang^3
#
#
#
# Elastic Constant Matrix: (Units=GPa)
#
#
# Indices 1 2 3 4 5 6 
#
# 1 258.4802 -3.9313 6.8959 0.0000 0.0000 0.0000
# 2 -3.9313 47.0478 25.6435 0.0000 0.0000 0.0000
# 3 6.8959 25.6435 99.5510 0.0000 0.0000 0.0000
# 4 0.0000 0.0000 0.0000 -8.8065 0.0000 0.0000
# 5 0.0000 0.0000 0.0000 0.0000 -177.7475 0.0000
# 6 0.0000 0.0000 0.0000 0.0000 0.0000 30.2138
#
#
#
# Elastic Compliance Matrix: (Units=1/GPa)
#
#
# Indices 1 2 3 4 5 6 
#
# 1 0.003888 0.000549 -0.000411 0.000000 0.000000 0.000000
# 2 0.000549 0.024804 -0.006427 0.000000 0.000000 0.000000
# 3 -0.000411 -0.006427 0.011729 0.000000 0.000000 0.000000
# 4 0.000000 0.000000 0.000000 -0.113553 0.000000 0.000000
# 5 0.000000 0.000000 0.000000 0.000000 -0.005626 0.000000
# 6 0.000000 0.000000 0.000000 0.000000 0.000000 0.033097
#
#
# Mechanical properties :
#
#
# Convention : Reuss Voigt Hill
#
# Bulk Modulus (GPa) = 35.91598 51.36615 43.64106
# Shear Modulus (GPa) = -210.07672 -6.16996 -108.12334
#
# Velocity S-wave (km/s) = -8.81560 -1.51079 -6.32445
# Velocity P-wave (km/s) = 9.50438 3.99485 6.09813
#
# Compressibility (1/GPa) = 0.02784276
#
# Stress axis : x y z
#
# Youngs Moduli (GPa) = 257.19705 40.31599 85.25754
#
# Poissons Ratio (x) = -0.02212 0.03501
# Poissons Ratio (y) = -0.14113 0.54798
# Poissons Ratio (z) = 0.10562 0.25912
#
# Static dielectric constant tensor:
#      x y z
#    x 2.500000 0.000000 0.000000 
#    y 0.000000 2.159380 0.000000 
#    z 0.000000 0.000000 2.047740 
# 
# From -- ./inp_files/5652.got.cif
#   From: 2010.05.17/outbox.cif.g08.bks.cpg/sg41_3_cif.got.tgz:5652.got - 2010.06.03 18:54:24.
