data_PCOD9366496
_publ_section_title
;
Structure prediction by ZEFSAII (Michael W. Deem and Ramdas Pophale) SiO2 
 PCOD9366496
Probable space group: A B A 2
;
_chemical_formula_sum "Si O2"
_cell_formula_units_Z 48
_cell_length_a 14.752566
_cell_length_b 9.852891
_cell_length_c 17.045888
_cell_angle_alpha 90.000000
_cell_angle_beta 90.000000
_cell_angle_gamma 90.000000
_cell_volume 2477.712291
_symmetry_space_group_name_H-M "A B A 2"
_symmetry_group_IT_number 41
_symmetry_cell_setting 'orthorhombic'
loop_
_space_group_symop_operation_xyz
x,y,z
-x,-y,z
1/2-x,y,1/2+z
1/2+x,-y,1/2+z
x,1/2+y,1/2+z
-x,1/2-y,1/2+z
1/2-x,1/2+y,z
1/2+x,1/2-y,z
loop_
_atom_site_type_symbol
_atom_site_label
_atom_site_fract_x
_atom_site_fract_y
_atom_site_fract_z
Si Si1 0.828642 0.902357 0.422320
Si Si2 0.000000 0.500000 0.513455
Si Si3 0.189893 0.868873 0.164319
Si Si4 0.511121 0.263367 0.128784
Si Si5 0.333806 0.164092 0.740848
Si Si6 0.500000 0.000000 0.022456
Si Si7 0.692022 0.610594 0.984279
O O1 0.842060 0.852570 0.333809
O O2 0.796962 0.768893 0.468244
O O3 0.917368 0.958569 0.466041
O O4 0.753715 0.018882 0.429339
O O5 0.960119 0.383446 0.569502
O O6 0.086549 0.432686 0.471891
O O7 0.092135 0.797108 0.152357
O O8 0.255160 0.764642 0.209666
O O9 0.180877 0.011398 0.208869
O O10 0.219606 0.906562 0.075479
O O11 0.574889 0.274716 0.203592
O O12 0.519776 0.125919 0.079960
#
# Coordination Sequence:
#
# PCOD9366496 Si02
#       7
#     8   4   8   8   8   4   8
#     4  12  27  42  67 102 135 171 216 280 337 382
#     4  10  20  43  69  94 126 172 224 262 318 383
#     4  11  23  43  70  94 129 179 220 261 325 400
#     4  11  23  44  69  96 128 178 223 265 317 399
#     4  12  25  44  67  98 137 171 215 276 338 382
#     4  12  26  43  69 100 128 176 236 262 318 401
#     4  11  23  45  67  99 130 178 223 268 325 393
#
# _framework density 19.372710000000001
#
# number of rings (size 3 to 8) (size 9 to 14) (size 15 to 20)
#    0.000    0.667    6.667    3.000    7.000    0.000 
#    3.000    0.000    0.000    0.000    0.000    0.000 
#    0.000    0.000    0.000    0.000    0.000    0.000 
#
# Total GULP energy -134097.125262 kJ/mol
# GULP energy per Si atom -5587.380219 kJ/mol
# Density = 1.932862 g / cm^3
# Si number density = 19.372710 Si / 1000 Ang^3
#
#
#
# Elastic Constant Matrix: (Units=GPa)
#
#
# Indices 1 2 3 4 5 6 
#
# 1 78.0806 16.0697 22.6338 0.0000 0.0000 0.0000
# 2 16.0697 100.4370 13.9734 0.0000 0.0000 0.0000
# 3 22.6338 13.9734 95.9193 0.0000 0.0000 0.0000
# 4 0.0000 0.0000 0.0000 22.1322 0.0000 0.0000
# 5 0.0000 0.0000 0.0000 0.0000 24.2074 0.0000
# 6 0.0000 0.0000 0.0000 0.0000 0.0000 28.6171
#
#
#
# Elastic Compliance Matrix: (Units=1/GPa)
#
#
# Indices 1 2 3 4 5 6 
#
# 1 0.014068 -0.001826 -0.003054 0.000000 0.000000 0.000000
# 2 -0.001826 0.010399 -0.001084 0.000000 0.000000 0.000000
# 3 -0.003054 -0.001084 0.011304 0.000000 0.000000 0.000000
# 4 0.000000 0.000000 0.000000 0.045183 0.000000 0.000000
# 5 0.000000 0.000000 0.000000 0.000000 0.041310 0.000000
# 6 0.000000 0.000000 0.000000 0.000000 0.000000 0.034944
#
#
# Mechanical properties :
#
#
# Convention : Reuss Voigt Hill
#
# Bulk Modulus (GPa) = 41.93908 42.19896 42.06902
# Shear Modulus (GPa) = 28.23516 29.77533 29.00524
#
# Velocity S-wave (km/s) = 3.82183 3.92468 3.87359
# Velocity P-wave (km/s) = 6.41644 6.50903 6.46290
#
# Compressibility (1/GPa) = 0.02384411
#
# Stress axis : x y z
#
# Youngs Moduli (GPa) = 71.08193 96.15864 88.46485
#
# Poissons Ratio (x) = 0.17559 0.27014
# Poissons Ratio (y) = 0.12980 0.09590
# Poissons Ratio (z) = 0.21706 0.10424
#
# Static dielectric constant tensor:
#      x y z
#    x 1.574910 0.000000 0.000000 
#    y 0.000000 1.725300 0.000000 
#    z 0.000000 0.000000 1.660340 
# 
# From -- ./inp_files/8740.got.cif
#   From: 2010.05.17/outbox.cif.g08.bks.cpg/sg41_5_cif.got.tgz:8740.got - 2010.06.03 18:54:24.
