data_PCOD9366650
_publ_section_title
;
Structure prediction by ZEFSAII (Michael W. Deem and Ramdas Pophale) SiO2 
 PCOD9366650
Probable space group: A B A 2
;
_chemical_formula_sum "Si O2"
_cell_formula_units_Z 60
_cell_length_a 10.640029
_cell_length_b 25.389896
_cell_length_c 11.284055
_cell_angle_alpha 90.000000
_cell_angle_beta 90.000000
_cell_angle_gamma 90.000000
_cell_volume 3048.378767
_symmetry_space_group_name_H-M "A B A 2"
_symmetry_group_IT_number 41
_symmetry_cell_setting 'orthorhombic'
loop_
_space_group_symop_operation_xyz
x,y,z
-x,-y,z
1/2-x,y,1/2+z
1/2+x,-y,1/2+z
x,1/2+y,1/2+z
-x,1/2-y,1/2+z
1/2-x,1/2+y,z
1/2+x,1/2-y,z
loop_
_atom_site_type_symbol
_atom_site_label
_atom_site_fract_x
_atom_site_fract_y
_atom_site_fract_z
Si Si1 0.601467 0.760076 0.699990
Si Si2 0.466399 0.160860 0.296198
Si Si3 0.500000 0.500000 0.679390
Si Si4 0.181958 0.926390 0.794331
Si Si5 0.703616 0.826782 0.892514
Si Si6 0.947466 0.889761 0.559836
Si Si7 0.153275 0.272982 0.559601
Si Si8 0.234718 0.884670 0.536466
O O1 0.539590 0.715296 0.783010
O O2 0.636338 0.812979 0.769177
O O3 0.734883 0.737242 0.655356
O O4 0.489219 0.769576 0.606752
O O5 0.565424 0.114066 0.310238
O O6 0.352180 0.165604 0.384950
O O7 0.402715 0.145459 0.170315
O O8 0.383299 0.481337 0.759803
O O9 0.538178 0.449990 0.599807
O O10 0.251939 0.907799 0.671328
O O11 0.248122 0.922843 0.922279
O O12 0.641348 0.877262 0.951741
O O13 0.676588 0.774131 0.968124
O O14 0.087893 0.869080 0.533451
O O15 0.182674 0.332424 0.518520
#
# Coordination Sequence:
#
# PCOD9366650 Si02
#       8
#     8   8   4   8   8   8   8   8
#     4  12  23  38  54  89 131 173 212 255 325 383
#     4  10  21  39  54  86 126 168 211 260 328 387
#     4   8  20  44  70  82 130 162 218 274 360 382
#     4  10  21  43  66  95 122 167 214 278 335 393
#     4  12  24  35  63  86 129 173 221 255 329 397
#     4  10  21  44  60  93 122 170 214 284 328 395
#     4  12  24  37  59  89 131 174 213 265 315 401
#     4  10  22  38  67  93 127 163 220 264 328 392
#
# _framework density 19.682593000000001
#
# number of rings (size 3 to 8) (size 9 to 14) (size 15 to 20)
#    0.000    1.600    5.333    0.800    7.467    0.000 
#    9.600    0.000    0.000    3.200    0.000    0.000 
#    0.000    0.000    0.000    0.000    0.000    0.000 
#
# Total GULP energy -167225.890314 kJ/mol
# GULP energy per Si atom -5574.196344 kJ/mol
# Density = 1.963779 g / cm^3
# Si number density = 19.682593 Si / 1000 Ang^3
#
#
#
# Elastic Constant Matrix: (Units=GPa)
#
#
# Indices 1 2 3 4 5 6 
#
# 1 56.5852 7.6997 23.5318 0.0000 0.0000 0.0000
# 2 7.6997 68.9305 17.2727 0.0000 0.0000 0.0000
# 3 23.5318 17.2727 79.2394 0.0000 0.0000 0.0000
# 4 0.0000 0.0000 0.0000 22.3735 0.0000 0.0000
# 5 0.0000 0.0000 0.0000 0.0000 40.8512 0.0000
# 6 0.0000 0.0000 0.0000 0.0000 0.0000 19.4462
#
#
#
# Elastic Compliance Matrix: (Units=1/GPa)
#
#
# Indices 1 2 3 4 5 6 
#
# 1 0.020204 -0.000797 -0.005826 0.000000 0.000000 0.000000
# 2 -0.000797 0.015377 -0.003115 0.000000 0.000000 0.000000
# 3 -0.005826 -0.003115 0.015029 0.000000 0.000000 0.000000
# 4 0.000000 0.000000 0.000000 0.044696 0.000000 0.000000
# 5 0.000000 0.000000 0.000000 0.000000 0.024479 0.000000
# 6 0.000000 0.000000 0.000000 0.000000 0.000000 0.051424
#
#
# Mechanical properties :
#
#
# Convention : Reuss Voigt Hill
#
# Bulk Modulus (GPa) = 32.11987 33.52928 32.82458
# Shear Modulus (GPa) = 24.86778 26.95091 25.90934
#
# Velocity S-wave (km/s) = 3.55835 3.70439 3.63210
# Velocity P-wave (km/s) = 5.76514 5.94715 5.85685
#
# Compressibility (1/GPa) = 0.03113337
#
# Stress axis : x y z
#
# Youngs Moduli (GPa) = 49.49556 65.03219 66.53685
#
# Poissons Ratio (x) = 0.05182 0.38766
# Poissons Ratio (y) = 0.03944 0.20728
# Poissons Ratio (z) = 0.28837 0.20259
#
# Static dielectric constant tensor:
#      x y z
#    x 1.691400 0.000000 0.000000 
#    y 0.000000 1.676910 0.000000 
#    z 0.000000 0.000000 1.824560 
# 
# From -- ./inp_files/4575.got.cif
#   From: 2010.05.17/outbox.cif.g08.bks.cpg/sg41_3_cif.got.tgz:4575.got - 2010.06.03 18:54:24.
