data_PCOD9366477
_publ_section_title
;
Structure prediction by ZEFSAII (Michael W. Deem and Ramdas Pophale) SiO2 
 PCOD9366477
Probable space group: A B A 2
;
_chemical_formula_sum "Si O2"
_cell_formula_units_Z 48
_cell_length_a 14.773104
_cell_length_b 16.412334
_cell_length_c 9.691884
_cell_angle_alpha 90.000000
_cell_angle_beta 90.000000
_cell_angle_gamma 90.000000
_cell_volume 2349.905021
_symmetry_space_group_name_H-M "A B A 2"
_symmetry_group_IT_number 41
_symmetry_cell_setting 'orthorhombic'
loop_
_space_group_symop_operation_xyz
x,y,z
-x,-y,z
1/2-x,y,1/2+z
1/2+x,-y,1/2+z
x,1/2+y,1/2+z
-x,1/2-y,1/2+z
1/2-x,1/2+y,z
1/2+x,1/2-y,z
loop_
_atom_site_type_symbol
_atom_site_label
_atom_site_fract_x
_atom_site_fract_y
_atom_site_fract_z
Si Si1 0.500545 0.901742 0.016570
Si Si2 0.150282 0.594343 0.813758
Si Si3 0.752438 0.556234 0.288236
Si Si4 0.805204 0.844459 0.010986
Si Si5 0.205374 0.844414 0.536826
Si Si6 0.919885 0.936469 0.796483
O O1 0.400543 0.866534 0.023725
O O2 0.550948 0.884756 0.162164
O O3 0.500000 0.000000 0.014638
O O4 0.556010 0.878173 0.880004
O O5 0.161744 0.498174 0.780178
O O6 0.178607 0.637941 0.672368
O O7 0.221109 0.609860 0.938701
O O8 0.759538 0.632444 0.187382
O O9 0.758910 0.593477 0.439165
O O10 0.834314 0.493964 0.257542
O O11 0.889621 0.878690 0.921773
O O12 0.785826 0.749046 0.996749
O O13 0.000000 0.000000 0.832073
#
# Coordination Sequence:
#
# PCOD9366477 Si02
#       6
#     8   8   8   8   8   8
#     4  11  21  42  68  94 126 168 213 268 312 372
#     4  11  22  43  66  91 126 172 215 255 314 389
#     4  11  20  39  68  87 119 170 212 250 311 393
#     4  11  25  40  63  95 131 164 211 267 322 379
#     4  12  24  41  63  98 128 164 210 271 328 365
#     4  10  20  42  69  88 122 171 217 251 314 384
#
# _framework density 20.426356999999999
#
# number of rings (size 3 to 8) (size 9 to 14) (size 15 to 20)
#    0.000    1.000    5.000    5.000    0.000    2.000 
#    6.000    0.000    0.000    0.000    0.000    0.000 
#    0.000    0.000    0.000    0.000    0.000    0.000 
#
# Total GULP energy -133949.810155 kJ/mol
# GULP energy per Si atom -5581.242090 kJ/mol
# Density = 2.037987 g / cm^3
# Si number density = 20.426357 Si / 1000 Ang^3
#
#
#
# Elastic Constant Matrix: (Units=GPa)
#
#
# Indices 1 2 3 4 5 6 
#
# 1 45.7084 -7.0153 22.5350 0.0000 0.0000 0.0000
# 2 -7.0153 67.8153 -0.8997 0.0000 0.0000 0.0000
# 3 22.5350 -0.8997 92.7252 0.0000 0.0000 0.0000
# 4 0.0000 0.0000 0.0000 25.0679 0.0000 0.0000
# 5 0.0000 0.0000 0.0000 0.0000 26.0618 0.0000
# 6 0.0000 0.0000 0.0000 0.0000 0.0000 15.7822
#
#
#
# Elastic Compliance Matrix: (Units=1/GPa)
#
#
# Indices 1 2 3 4 5 6 
#
# 1 0.025284 0.002534 -0.006120 0.000000 0.000000 0.000000
# 2 0.002534 0.015002 -0.000470 0.000000 0.000000 0.000000
# 3 -0.006120 -0.000470 0.012267 0.000000 0.000000 0.000000
# 4 0.000000 0.000000 0.000000 0.039892 0.000000 0.000000
# 5 0.000000 0.000000 0.000000 0.000000 0.038370 0.000000
# 6 0.000000 0.000000 0.000000 0.000000 0.000000 0.063363
#
#
# Mechanical properties :
#
#
# Convention : Reuss Voigt Hill
#
# Bulk Modulus (GPa) = 22.50174 26.16543 24.33359
# Shear Modulus (GPa) = 23.03042 26.15763 24.59402
#
# Velocity S-wave (km/s) = 3.36145 3.58240 3.47368
# Velocity P-wave (km/s) = 5.10938 5.47256 5.29408
#
# Compressibility (1/GPa) = 0.04444100
#
# Stress axis : x y z
#
# Youngs Moduli (GPa) = 39.55048 66.65836 81.51694
#
# Poissons Ratio (x) = -0.16894 0.49890
# Poissons Ratio (y) = -0.10024 0.03834
# Poissons Ratio (z) = 0.24206 0.03135
#
# Static dielectric constant tensor:
#      x y z
#    x 1.773800 0.000000 0.000000 
#    y 0.000000 1.695690 0.000000 
#    z 0.000000 0.000000 1.741030 
# 
# From -- ./inp_files/2528.got.cif
#   From: 2010.05.17/outbox.cif.g08.bks.cpg/sg41_2_cif.got.tgz:2528.got - 2010.06.03 18:54:24.
