data_PCOD9366610
_publ_section_title
;
Structure prediction by ZEFSAII (Michael W. Deem and Ramdas Pophale) SiO2 
 PCOD9366610
Probable space group: A B A 2
;
_chemical_formula_sum "Si O2"
_cell_formula_units_Z 64
_cell_length_a 14.552840
_cell_length_b 8.058302
_cell_length_c 22.967334
_cell_angle_alpha 90.000000
_cell_angle_beta 90.000000
_cell_angle_gamma 90.000000
_cell_volume 2693.406352
_symmetry_space_group_name_H-M "A B A 2"
_symmetry_group_IT_number 41
_symmetry_cell_setting 'orthorhombic'
loop_
_space_group_symop_operation_xyz
x,y,z
-x,-y,z
1/2-x,y,1/2+z
1/2+x,-y,1/2+z
x,1/2+y,1/2+z
-x,1/2-y,1/2+z
1/2-x,1/2+y,z
1/2+x,1/2-y,z
loop_
_atom_site_type_symbol
_atom_site_label
_atom_site_fract_x
_atom_site_fract_y
_atom_site_fract_z
Si Si1 0.018000 0.197799 0.885140
Si Si2 0.051589 0.169455 0.616658
Si Si3 0.793817 0.904634 0.861186
Si Si4 0.749641 0.078078 0.983534
Si Si5 0.632891 0.214680 0.297579
Si Si6 0.599038 0.357782 0.485700
Si Si7 0.379928 0.685944 0.164353
Si Si8 0.265200 0.487341 0.614912
O O1 0.967562 0.233463 0.824635
O O2 0.965403 0.303449 0.933405
O O3 0.125764 0.225164 0.876464
O O4 0.000000 0.000000 0.898866
O O5 0.050681 0.181351 0.546617
O O6 0.158709 0.130920 0.628460
O O7 0.986186 0.306509 0.645241
O O8 0.000000 0.000000 0.634814
O O9 0.779833 0.999669 0.921986
O O10 0.702897 0.826506 0.834944
O O11 0.834780 0.028696 0.812872
O O12 0.639505 0.044748 0.984674
O O13 0.807127 0.248280 0.982736
O O14 0.771596 0.008931 0.048497
O O15 0.632138 0.256960 0.230425
O O16 0.323522 0.517239 0.154419
O O17 0.323736 0.820252 0.124880
#
# Coordination Sequence:
#
# PCOD9366610 Si02
#       8
#     8   8   8   8   8   8   8   8
#     4  10  21  38  60  93 119 167 216 258 321 380
#     4   9  22  40  61  94 128 168 216 267 327 385
#     4  11  22  41  65  93 126 169 217 270 327 388
#     4  11  20  39  67  94 136 163 216 270 331 392
#     4  11  23  41  64  91 126 171 216 265 320 392
#     4  11  21  40  65 100 134 170 219 268 339 398
#     4  11  23  41  64  90 127 169 218 263 320 390
#     4  10  22  39  61  94 121 171 208 266 329 383
#
# _framework density 23.761731000000001
#
# number of rings (size 3 to 8) (size 9 to 14) (size 15 to 20)
#    0.000    1.500    3.750    2.250    1.750    5.500 
#    4.500    2.500    0.000    4.500    0.000    0.000 
#    0.000    0.000    0.000    0.000    0.000    0.000 
#
# Total GULP energy -178720.125761 kJ/mol
# GULP energy per Si atom -5585.003930 kJ/mol
# Density = 2.370765 g / cm^3
# Si number density = 23.761731 Si / 1000 Ang^3
#
#
#
# Elastic Constant Matrix: (Units=GPa)
#
#
# Indices 1 2 3 4 5 6 
#
# 1 110.2223 30.6226 32.4952 0.0000 0.0000 0.0000
# 2 30.6226 51.2740 12.8737 0.0000 0.0000 0.0000
# 3 32.4952 12.8737 108.4939 0.0000 0.0000 0.0000
# 4 0.0000 0.0000 0.0000 20.5426 0.0000 0.0000
# 5 0.0000 0.0000 0.0000 0.0000 26.4224 0.0000
# 6 0.0000 0.0000 0.0000 0.0000 0.0000 45.1096
#
#
#
# Elastic Compliance Matrix: (Units=1/GPa)
#
#
# Indices 1 2 3 4 5 6 
#
# 1 0.011616 -0.006250 -0.002738 0.000000 0.000000 0.000000
# 2 -0.006250 0.023465 -0.000912 0.000000 0.000000 0.000000
# 3 -0.002738 -0.000912 0.010145 0.000000 0.000000 0.000000
# 4 0.000000 0.000000 0.000000 0.048679 0.000000 0.000000
# 5 0.000000 0.000000 0.000000 0.000000 0.037847 0.000000
# 6 0.000000 0.000000 0.000000 0.000000 0.000000 0.022168
#
#
# Mechanical properties :
#
#
# Convention : Reuss Voigt Hill
#
# Bulk Modulus (GPa) = 39.32936 46.88592 43.10764
# Shear Modulus (GPa) = 27.44295 31.34817 29.39556
#
# Velocity S-wave (km/s) = 3.40210 3.63612 3.52105
# Velocity P-wave (km/s) = 5.65861 6.11580 5.89164
#
# Compressibility (1/GPa) = 0.02542630
#
# Stress axis : x y z
#
# Youngs Moduli (GPa) = 86.08733 42.61668 98.56794
#
# Poissons Ratio (x) = 0.26636 0.26983
# Poissons Ratio (y) = 0.53807 0.08992
# Poissons Ratio (z) = 0.23567 0.03888
#
# Static dielectric constant tensor:
#      x y z
#    x 1.913560 0.000000 0.000000 
#    y 0.000000 2.067150 0.000000 
#    z 0.000000 0.000000 1.834770 
# 
# From -- ./inp_files/12234.got.cif
#   From: 2010.05.17/outbox.cif.g08.bks.cpg/sg41_7_cif.got.tgz:12234.got - 2010.06.03 18:54:24.
