data_PCOD9366128
_publ_section_title
;
Structure prediction by ZEFSAII (Michael W. Deem and Ramdas Pophale) SiO2 
 PCOD9366128
Probable space group: A B A 2
;
_chemical_formula_sum "Si O2"
_cell_formula_units_Z 60
_cell_length_a 14.292964
_cell_length_b 20.881308
_cell_length_c 9.816056
_cell_angle_alpha 90.000000
_cell_angle_beta 90.000000
_cell_angle_gamma 90.000000
_cell_volume 2929.658685
_symmetry_space_group_name_H-M "A B A 2"
_symmetry_group_IT_number 41
_symmetry_cell_setting 'orthorhombic'
loop_
_space_group_symop_operation_xyz
x,y,z
-x,-y,z
1/2-x,y,1/2+z
1/2+x,-y,1/2+z
x,1/2+y,1/2+z
-x,1/2-y,1/2+z
1/2-x,1/2+y,z
1/2+x,1/2-y,z
loop_
_atom_site_type_symbol
_atom_site_label
_atom_site_fract_x
_atom_site_fract_y
_atom_site_fract_z
Si Si1 0.000000 0.500000 0.858731
Si Si2 0.176256 0.774608 0.103811
Si Si3 0.003309 0.704694 0.748263
Si Si4 0.895097 0.617110 0.961792
Si Si5 0.027900 0.352434 0.246611
Si Si6 0.215135 0.845780 0.845373
Si Si7 0.150484 0.100359 0.302396
Si Si8 0.330772 0.123002 0.131641
O O1 0.054914 0.450332 0.951560
O O2 0.076130 0.542708 0.778525
O O3 0.237832 0.817219 0.208403
O O4 0.183595 0.699870 0.136180
O O5 0.066588 0.793750 0.119383
O O6 0.208933 0.787261 0.951365
O O7 0.013443 0.778612 0.788284
O O8 0.099605 0.665290 0.746599
O O9 0.943189 0.665477 0.856985
O O10 0.789362 0.607916 0.916208
O O11 0.917851 0.648750 0.103558
O O12 0.112891 0.377854 0.338350
O O13 0.929776 0.386202 0.212060
O O14 0.245917 0.092301 0.217431
O O15 0.163324 0.105455 0.468966
#
# Coordination Sequence:
#
# PCOD9366128 Si02
#       8
#     4   8   8   8   8   8   8   8
#     4  10  22  48  68  78 120 176 224 262 312 384
#     4  10  20  33  58  93 138 170 200 264 318 403
#     4   9  20  35  59  87 130 168 207 254 322 387
#     4  10  21  41  61  91 119 171 215 256 320 375
#     4  11  20  36  61  94 131 164 204 263 324 395
#     4  11  21  35  57  96 130 167 210 251 329 381
#     4  11  23  43  64  93 123 178 220 266 322 376
#     4  11  22  38  62  96 129 170 218 258 331 381
#
# _framework density 20.480201999999998
#
# number of rings (size 3 to 8) (size 9 to 14) (size 15 to 20)
#    0.000    1.600    4.000    2.400    1.867    1.067 
#    2.400    0.000    0.000    0.800    0.000    0.000 
#    0.000    0.000    0.000    0.000    0.000    0.000 
#
# Total GULP energy -167072.411480 kJ/mol
# GULP energy per Si atom -5569.080383 kJ/mol
# Density = 2.043359 g / cm^3
# Si number density = 20.480202 Si / 1000 Ang^3
#
#
#
# Elastic Constant Matrix: (Units=GPa)
#
#
# Indices 1 2 3 4 5 6 
#
# 1 171.0122 23.1866 39.0957 0.0000 0.0000 0.0000
# 2 23.1866 46.8060 10.8482 0.0000 0.0000 0.0000
# 3 39.0957 10.8482 53.4022 0.0000 0.0000 0.0000
# 4 0.0000 0.0000 0.0000 -27.8412 0.0000 0.0000
# 5 0.0000 0.0000 0.0000 0.0000 18.5151 0.0000
# 6 0.0000 0.0000 0.0000 0.0000 0.0000 20.1622
#
#
#
# Elastic Compliance Matrix: (Units=1/GPa)
#
#
# Indices 1 2 3 4 5 6 
#
# 1 0.007290 -0.002492 -0.004831 0.000000 0.000000 0.000000
# 2 -0.002492 0.023272 -0.002903 0.000000 0.000000 0.000000
# 3 -0.004831 -0.002903 0.022852 0.000000 0.000000 0.000000
# 4 0.000000 0.000000 0.000000 -0.035918 0.000000 0.000000
# 5 0.000000 0.000000 0.000000 0.000000 0.054010 0.000000
# 6 0.000000 0.000000 0.000000 0.000000 0.000000 0.049598
#
#
# Mechanical properties :
#
#
# Convention : Reuss Voigt Hill
#
# Bulk Modulus (GPa) = 30.33746 46.38681 38.36213
# Shear Modulus (GPa) = 32.77782 15.37323 24.07553
#
# Velocity S-wave (km/s) = 4.00492 2.74275 3.43235
# Velocity P-wave (km/s) = 6.01922 5.72093 5.87197
#
# Compressibility (1/GPa) = 0.03296255
#
# Stress axis : x y z
#
# Youngs Moduli (GPa) = 137.17989 42.97014 43.75964
#
# Poissons Ratio (x) = 0.10706 0.21139
# Poissons Ratio (y) = 0.34179 0.12705
# Poissons Ratio (z) = 0.66267 0.12476
#
# Static dielectric constant tensor:
#      x y z
#    x 1.882140 0.000000 0.000000 
#    y 0.000000 1.727970 0.000000 
#    z 0.000000 0.000000 1.780050 
# 
# From -- ./inp_files/2773.got.cif
#   From: 2010.05.17/outbox.cif.g08.bks.cpg/sg41_2_cif.got.tgz:2773.got - 2010.06.03 18:54:24.
