data_PCOD9366199
_publ_section_title
;
Structure prediction by ZEFSAII (Michael W. Deem and Ramdas Pophale) SiO2 
 PCOD9366199
Probable space group: A B A 2
;
_chemical_formula_sum "Si O2"
_cell_formula_units_Z 56
_cell_length_a 10.987215
_cell_length_b 15.118192
_cell_length_c 15.335768
_cell_angle_alpha 90.000000
_cell_angle_beta 90.000000
_cell_angle_gamma 90.000000
_cell_volume 2547.375745
_symmetry_space_group_name_H-M "A B A 2"
_symmetry_group_IT_number 41
_symmetry_cell_setting 'orthorhombic'
loop_
_space_group_symop_operation_xyz
x,y,z
-x,-y,z
1/2-x,y,1/2+z
1/2+x,-y,1/2+z
x,1/2+y,1/2+z
-x,1/2-y,1/2+z
1/2-x,1/2+y,z
1/2+x,1/2-y,z
loop_
_atom_site_type_symbol
_atom_site_label
_atom_site_fract_x
_atom_site_fract_y
_atom_site_fract_z
Si Si1 0.032635 0.396604 0.854110
Si Si2 0.110633 0.666735 0.692683
Si Si3 0.260368 0.318054 0.461166
Si Si4 0.237256 0.509456 0.142729
Si Si5 0.445710 0.911535 0.548790
Si Si6 0.586932 0.148067 0.133508
Si Si7 0.859786 0.357758 0.016320
O O1 0.166665 0.359518 0.879847
O O2 0.000000 0.500000 0.839703
O O3 0.983461 0.347708 0.769624
O O4 0.948901 0.372459 0.936377
O O5 0.218055 0.593718 0.699303
O O6 0.138527 0.770230 0.688733
O O7 0.046203 0.643849 0.600401
O O8 0.126625 0.357566 0.476901
O O9 0.338361 0.350185 0.543644
O O10 0.236411 0.214382 0.481395
O O11 0.354397 0.447919 0.124566
O O12 0.126748 0.446737 0.172706
O O13 0.202590 0.552601 0.049254
O O14 0.500000 0.000000 0.508835
O O15 0.447362 0.163013 0.101065
#
# Coordination Sequence:
#
# PCOD9366199 Si02
#       7
#     8   8   8   8   8   8   8
#     4  11  24  41  58  92 135 178 215 278 344 406
#     4  11  21  40  62  93 136 165 219 268 330 404
#     4  10  20  38  62  92 125 172 222 271 333 390
#     4  10  20  36  63  95 121 168 217 267 324 394
#     4   9  18  33  61  93 116 160 217 271 315 387
#     4  10  20  37  65  96 124 165 224 276 316 393
#     4  11  20  39  63  92 125 167 225 277 326 398
#
# _framework density 21.983408000000001
#
# number of rings (size 3 to 8) (size 9 to 14) (size 15 to 20)
#    0.000    1.714    2.857    4.286    0.000    0.000 
#   10.286    0.000    0.000    0.000    0.000    1.000 
#    0.000    0.000    0.000    0.000    0.000    0.000 
#
# Total GULP energy -155995.760245 kJ/mol
# GULP energy per Si atom -5571.277152 kJ/mol
# Density = 2.193337 g / cm^3
# Si number density = 21.983408 Si / 1000 Ang^3
#
#
#
# Elastic Constant Matrix: (Units=GPa)
#
#
# Indices 1 2 3 4 5 6 
#
# 1 37.7416 28.0105 10.9042 0.0000 0.0000 0.0000
# 2 28.0105 144.5613 28.4143 0.0000 0.0000 0.0000
# 3 10.9042 28.4143 45.8751 0.0000 0.0000 0.0000
# 4 0.0000 0.0000 0.0000 9.5943 0.0000 0.0000
# 5 0.0000 0.0000 0.0000 0.0000 18.2308 0.0000
# 6 0.0000 0.0000 0.0000 0.0000 0.0000 35.2519
#
#
#
# Elastic Compliance Matrix: (Units=1/GPa)
#
#
# Indices 1 2 3 4 5 6 
#
# 1 0.031655 -0.005300 -0.004242 0.000000 0.000000 0.000000
# 2 -0.005300 0.008764 -0.004168 0.000000 0.000000 0.000000
# 3 -0.004242 -0.004168 0.025388 0.000000 0.000000 0.000000
# 4 0.000000 0.000000 0.000000 0.104229 0.000000 0.000000
# 5 0.000000 0.000000 0.000000 0.000000 0.054852 0.000000
# 6 0.000000 0.000000 0.000000 0.000000 0.000000 0.028367
#
#
# Mechanical properties :
#
#
# Convention : Reuss Voigt Hill
#
# Bulk Modulus (GPa) = 26.05023 40.31512 33.18267
# Shear Modulus (GPa) = 17.03750 23.33867 20.18809
#
# Velocity S-wave (km/s) = 2.78693 3.26183 3.03369
# Velocity P-wave (km/s) = 4.71505 5.70655 5.23433
#
# Compressibility (1/GPa) = 0.03838737
#
# Stress axis : x y z
#
# Youngs Moduli (GPa) = 31.59085 114.10718 39.38825
#
# Poissons Ratio (x) = 0.60474 0.16707
# Poissons Ratio (y) = 0.16743 0.16418
# Poissons Ratio (z) = 0.13399 0.47564
#
# Static dielectric constant tensor:
#      x y z
#    x 1.924890 0.000000 0.000000 
#    y 0.000000 1.894700 0.000000 
#    z 0.000000 0.000000 1.750440 
# 
# From -- ./inp_files/7966.got.cif
#   From: 2010.05.17/outbox.cif.g08.bks.cpg/sg41_4_cif.got.tgz:7966.got - 2010.06.03 18:54:24.
