data_PCOD9366660
_publ_section_title
;
Structure prediction by ZEFSAII (Michael W. Deem and Ramdas Pophale) SiO2 
 PCOD9366660
Probable space group: A B A 2
;
_chemical_formula_sum "Si O2"
_cell_formula_units_Z 64
_cell_length_a 19.426718
_cell_length_b 9.411542
_cell_length_c 17.736005
_cell_angle_alpha 90.000000
_cell_angle_beta 90.000000
_cell_angle_gamma 90.000000
_cell_volume 3242.769079
_symmetry_space_group_name_H-M "A B A 2"
_symmetry_group_IT_number 41
_symmetry_cell_setting 'orthorhombic'
loop_
_space_group_symop_operation_xyz
x,y,z
-x,-y,z
1/2-x,y,1/2+z
1/2+x,-y,1/2+z
x,1/2+y,1/2+z
-x,1/2-y,1/2+z
1/2-x,1/2+y,z
1/2+x,1/2-y,z
loop_
_atom_site_type_symbol
_atom_site_label
_atom_site_fract_x
_atom_site_fract_y
_atom_site_fract_z
Si Si1 0.250043 0.290127 0.718000
Si Si2 0.062229 0.900588 0.851206
Si Si3 0.345276 0.290532 0.987490
Si Si4 0.390535 0.369890 0.143687
Si Si5 0.874712 0.307559 0.612971
Si Si6 0.304394 0.538593 0.810404
Si Si7 0.508160 0.170055 0.196943
Si Si8 0.777944 0.909217 0.980236
O O1 0.188010 0.359517 0.672116
O O2 0.315780 0.257564 0.666844
O O3 0.270223 0.387835 0.789229
O O4 0.220586 0.141750 0.746023
O O5 0.107185 0.817435 0.913930
O O6 0.114965 0.011490 0.813338
O O7 0.038591 0.804077 0.781257
O O8 0.000000 0.000000 0.881810
O O9 0.297932 0.151540 0.995700
O O10 0.291496 0.423078 0.991639
O O11 0.393114 0.308122 0.059539
O O12 0.402621 0.538105 0.139795
O O13 0.441664 0.270614 0.190175
O O14 0.940208 0.209174 0.628496
O O15 0.836101 0.333707 0.532733
O O16 0.286775 0.606383 0.890715
O O17 0.500000 0.000000 0.193670
#
# Coordination Sequence:
#
# PCOD9366660 Si02
#       8
#     8   8   8   8   8   8   8   8
#     4  12  21  38  61  96 127 163 214 273 316 382
#     4  10  21  39  61  88 122 169 210 262 325 397
#     4  10  22  39  64  94 127 169 211 273 329 401
#     4  11  24  39  64  97 130 171 214 268 333 390
#     4  11  23  41  63  91 133 165 215 273 326 389
#     4  11  22  37  63  91 126 165 214 262 326 385
#     4  11  24  42  65  94 128 174 218 270 328 404
#     4  10  22  39  61  93 124 165 211 264 330 381
#
# _framework density 19.736218000000001
#
# number of rings (size 3 to 8) (size 9 to 14) (size 15 to 20)
#    0.000    1.250    3.750    3.375    0.000    4.000 
#    0.000    0.000    0.000    1.500    0.000    0.000 
#    0.000    0.000    0.000    0.000    0.000    0.000 
#
# Total GULP energy -178390.564410 kJ/mol
# GULP energy per Si atom -5574.705138 kJ/mol
# Density = 1.969130 g / cm^3
# Si number density = 19.736218 Si / 1000 Ang^3
#
#
#
# Elastic Constant Matrix: (Units=GPa)
#
#
# Indices 1 2 3 4 5 6 
#
# 1 77.1494 32.4009 22.3964 0.0000 0.0000 0.0000
# 2 32.4009 56.4366 23.2704 0.0000 0.0000 0.0000
# 3 22.3964 23.2704 81.8595 0.0000 0.0000 0.0000
# 4 0.0000 0.0000 0.0000 25.4932 0.0000 0.0000
# 5 0.0000 0.0000 0.0000 0.0000 24.1068 0.0000
# 6 0.0000 0.0000 0.0000 0.0000 0.0000 32.5479
#
#
#
# Elastic Compliance Matrix: (Units=1/GPa)
#
#
# Indices 1 2 3 4 5 6 
#
# 1 0.017416 -0.009101 -0.002178 0.000000 0.000000 0.000000
# 2 -0.009101 0.024827 -0.004568 0.000000 0.000000 0.000000
# 3 -0.002178 -0.004568 0.014110 0.000000 0.000000 0.000000
# 4 0.000000 0.000000 0.000000 0.039226 0.000000 0.000000
# 5 0.000000 0.000000 0.000000 0.000000 0.041482 0.000000
# 6 0.000000 0.000000 0.000000 0.000000 0.000000 0.030724
#
#
# Mechanical properties :
#
#
# Convention : Reuss Voigt Hill
#
# Bulk Modulus (GPa) = 40.54995 41.28677 40.91836
# Shear Modulus (GPa) = 24.07324 25.58809 24.83067
#
# Velocity S-wave (km/s) = 3.49628 3.60461 3.55086
# Velocity P-wave (km/s) = 6.07365 6.18781 6.13099
#
# Compressibility (1/GPa) = 0.02466094
#
# Stress axis : x y z
#
# Youngs Moduli (GPa) = 57.41770 40.27818 70.86966
#
# Poissons Ratio (x) = 0.36657 0.15435
# Poissons Ratio (y) = 0.52255 0.32372
# Poissons Ratio (z) = 0.12505 0.18398
#
# Static dielectric constant tensor:
#      x y z
#    x 1.719820 0.000000 0.000000 
#    y 0.000000 1.924690 0.000000 
#    z 0.000000 0.000000 1.735670 
# 
# From -- ./inp_files/10680.got.cif
#   From: 2010.05.17/outbox.cif.g08.bks.cpg/sg41_6_cif.got.tgz:10680.got - 2010.06.03 18:54:24.
