data_PCOD9366515
_publ_section_title
;
Structure prediction by ZEFSAII (Michael W. Deem and Ramdas Pophale) SiO2 
 PCOD9366515
Probable space group: A B A 2
;
_chemical_formula_sum "Si O2"
_cell_formula_units_Z 36
_cell_length_a 7.709788
_cell_length_b 15.839633
_cell_length_c 11.547654
_cell_angle_alpha 90.000000
_cell_angle_beta 90.000000
_cell_angle_gamma 90.000000
_cell_volume 1410.201960
_symmetry_space_group_name_H-M "A B A 2"
_symmetry_group_IT_number 41
_symmetry_cell_setting 'orthorhombic'
loop_
_space_group_symop_operation_xyz
x,y,z
-x,-y,z
1/2-x,y,1/2+z
1/2+x,-y,1/2+z
x,1/2+y,1/2+z
-x,1/2-y,1/2+z
1/2-x,1/2+y,z
1/2+x,1/2-y,z
loop_
_atom_site_type_symbol
_atom_site_label
_atom_site_fract_x
_atom_site_fract_y
_atom_site_fract_z
Si Si1 0.457145 0.909866 0.046850
Si Si2 0.097641 0.131038 0.312074
Si Si3 0.000000 0.000000 0.159715
Si Si4 0.403835 0.921360 0.436271
Si Si5 0.790974 0.194833 0.751866
O O1 0.382461 0.842057 0.137116
O O2 0.500000 0.000000 0.103476
O O3 0.595544 0.876057 0.952116
O O4 0.296189 0.936416 0.965110
O O5 0.901114 0.157535 0.272761
O O6 0.215057 0.204990 0.261816
O O7 0.134785 0.042146 0.248592
O O8 0.019388 0.924576 0.065858
O O9 0.406979 0.838644 0.359736
O O10 0.500000 0.000000 0.378057
#
# Coordination Sequence:
#
# PCOD9366515 Si02
#       5
#     8   8   4   8   8
#     4  11  23  39  64  94 126 159 210 256 308 374
#     4  11  25  42  64  92 130 162 207 255 318 358
#     4  10  20  46  64  84 126 174 194 258 306 380
#     4   9  21  40  65  84 125 162 205 250 308 365
#     4  11  24  42  61  96 125 161 210 260 298 380
#
# _framework density 25.528255999999999
#
# number of rings (size 3 to 8) (size 9 to 14) (size 15 to 20)
#    0.667    0.889    3.333    0.667    3.111    3.556 
#    0.000    0.000    0.000    0.000    0.000    0.000 
#    0.000    0.000    0.000    0.000    0.000    0.000 
#
# Total GULP energy -100342.222374 kJ/mol
# GULP energy per Si atom -5574.567910 kJ/mol
# Density = 2.547015 g / cm^3
# Si number density = 25.528256 Si / 1000 Ang^3
#
#
#
# Elastic Constant Matrix: (Units=GPa)
#
#
# Indices 1 2 3 4 5 6 
#
# 1 51.8611 13.3560 24.9422 0.0000 0.0000 0.0000
# 2 13.3560 89.1824 28.0446 0.0000 0.0000 0.0000
# 3 24.9422 28.0446 125.3469 0.0000 0.0000 0.0000
# 4 0.0000 0.0000 0.0000 -22.3115 0.0000 0.0000
# 5 0.0000 0.0000 0.0000 0.0000 -5.8677 0.0000
# 6 0.0000 0.0000 0.0000 0.0000 0.0000 29.9465
#
#
#
# Elastic Compliance Matrix: (Units=1/GPa)
#
#
# Indices 1 2 3 4 5 6 
#
# 1 0.021660 -0.002031 -0.003855 0.000000 0.000000 0.000000
# 2 -0.002031 0.012252 -0.002337 0.000000 0.000000 0.000000
# 3 -0.003855 -0.002337 0.009268 0.000000 0.000000 0.000000
# 4 0.000000 0.000000 0.000000 -0.044820 0.000000 0.000000
# 5 0.000000 0.000000 0.000000 0.000000 -0.170424 0.000000
# 6 0.000000 0.000000 0.000000 0.000000 0.000000 0.033393
#
#
# Mechanical properties :
#
#
# Convention : Reuss Voigt Hill
#
# Bulk Modulus (GPa) = 37.40833 44.34175 40.87504
# Shear Modulus (GPa) = -44.12564 13.68996 -15.21784
#
# Velocity S-wave (km/s) = -4.16204 2.31826 -2.44420
# Velocity P-wave (km/s) = 2.90021 4.95713 2.84270
#
# Compressibility (1/GPa) = 0.02673201
#
# Stress axis : x y z
#
# Youngs Moduli (GPa) = 46.16870 81.61863 107.89905
#
# Poissons Ratio (x) = 0.16580 0.41600
# Poissons Ratio (y) = 0.09378 0.25216
# Poissons Ratio (z) = 0.17800 0.19074
#
# Static dielectric constant tensor:
#      x y z
#    x 2.116770 0.000000 0.000000 
#    y 0.000000 6.579090 0.000000 
#    z 0.000000 0.000000 1.992620 
# 
# From -- ./inp_files/4769.got.cif
#   From: 2010.05.17/outbox.cif.g08.bks.cpg/sg41_3_cif.got.tgz:4769.got - 2010.06.03 18:54:24.
