data_PCOD9366527
_publ_section_title
;
Structure prediction by ZEFSAII (Michael W. Deem and Ramdas Pophale) SiO2 
 PCOD9366527
Probable space group: A B A 2
;
_chemical_formula_sum "Si O2"
_cell_formula_units_Z 48
_cell_length_a 13.195979
_cell_length_b 28.539636
_cell_length_c 5.163060
_cell_angle_alpha 90.000000
_cell_angle_beta 90.000000
_cell_angle_gamma 90.000000
_cell_volume 1944.451958
_symmetry_space_group_name_H-M "A B A 2"
_symmetry_group_IT_number 41
_symmetry_cell_setting 'orthorhombic'
loop_
_space_group_symop_operation_xyz
x,y,z
-x,-y,z
1/2-x,y,1/2+z
1/2+x,-y,1/2+z
x,1/2+y,1/2+z
-x,1/2-y,1/2+z
1/2-x,1/2+y,z
1/2+x,1/2-y,z
loop_
_atom_site_type_symbol
_atom_site_label
_atom_site_fract_x
_atom_site_fract_y
_atom_site_fract_z
Si Si1 0.325674 0.132122 0.441180
Si Si2 0.945195 0.772002 0.948749
Si Si3 0.304931 0.804493 0.805909
Si Si4 0.382938 0.493044 0.292836
Si Si5 0.603826 0.469862 0.798077
Si Si6 0.316544 0.895676 0.978082
O O1 0.252301 0.135219 0.694948
O O2 0.411559 0.173608 0.450063
O O3 0.386912 0.082388 0.412698
O O4 0.841895 0.746006 0.876056
O O5 0.017433 0.750784 0.720597
O O6 0.289887 0.810032 0.502001
O O7 0.373816 0.847389 0.909504
O O8 0.500000 0.500000 0.229185
O O9 0.355194 0.531551 0.505693
O O10 0.373979 0.442357 0.414818
O O11 0.336042 0.498081 0.007278
O O12 0.500000 0.500000 0.752319
O O13 0.225599 0.895819 0.766392
#
# Coordination Sequence:
#
# PCOD9366527 Si02
#       6
#     8   8   8   8   8   8
#     4  12  26  46  71 101 138 184 233 286 348 418
#     4  12  26  43  69 101 134 173 220 276 337 408
#     4  10  21  41  65  92 126 167 211 267 331 395
#     4  10  21  37  57  85 122 164 204 258 319 379
#     4  10  23  40  62  91 128 174 221 275 330 393
#     4  10  21  35  58  86 114 152 202 252 302 363
#
# _framework density 24.685616
#
# number of rings (size 3 to 8) (size 9 to 14) (size 15 to 20)
#    0.000    1.333    0.000    5.000    0.000    9.333 
#    0.000    0.000    0.000    0.000    0.000    0.000 
#    0.000    0.000    0.000    0.000    0.000    0.000 
#
# Total GULP energy -133707.351330 kJ/mol
# GULP energy per Si atom -5571.139639 kJ/mol
# Density = 2.462943 g / cm^3
# Si number density = 24.685616 Si / 1000 Ang^3
#
#
#
# Elastic Constant Matrix: (Units=GPa)
#
#
# Indices 1 2 3 4 5 6 
#
# 1 74.5233 24.5835 13.3283 0.0000 0.0000 0.0000
# 2 24.5835 149.0591 11.2941 0.0000 0.0000 0.0000
# 3 13.3283 11.2941 167.3725 0.0000 0.0000 0.0000
# 4 0.0000 0.0000 0.0000 24.7977 0.0000 0.0000
# 5 0.0000 0.0000 0.0000 0.0000 27.0968 0.0000
# 6 0.0000 0.0000 0.0000 0.0000 0.0000 38.8959
#
#
#
# Elastic Compliance Matrix: (Units=1/GPa)
#
#
# Indices 1 2 3 4 5 6 
#
# 1 0.014351 -0.002292 -0.000988 0.000000 0.000000 0.000000
# 2 -0.002292 0.007109 -0.000297 0.000000 0.000000 0.000000
# 3 -0.000988 -0.000297 0.006073 0.000000 0.000000 0.000000
# 4 0.000000 0.000000 0.000000 0.040326 0.000000 0.000000
# 5 0.000000 0.000000 0.000000 0.000000 0.036905 0.000000
# 6 0.000000 0.000000 0.000000 0.000000 0.000000 0.025710
#
#
# Mechanical properties :
#
#
# Convention : Reuss Voigt Hill
#
# Bulk Modulus (GPa) = 49.06933 54.37408 51.72170
# Shear Modulus (GPa) = 34.62057 40.94134 37.78096
#
# Velocity S-wave (km/s) = 3.74901 4.07690 3.91639
# Velocity P-wave (km/s) = 6.21779 6.65101 6.43804
#
# Compressibility (1/GPa) = 0.02037933
#
# Stress axis : x y z
#
# Youngs Moduli (GPa) = 69.67945 140.66116 164.65130
#
# Poissons Ratio (x) = 0.32240 0.16270
# Poissons Ratio (y) = 0.15971 0.04894
# Poissons Ratio (z) = 0.06886 0.04181
#
# Static dielectric constant tensor:
#      x y z
#    x 1.830550 0.000000 0.000000 
#    y 0.000000 2.036780 0.000000 
#    z 0.000000 0.000000 2.046790 
# 
# From -- ./inp_files/294.got.cif
#   From: 2010.05.17/outbox.cif.g08.bks.cpg/sg41_1_cif.got.tgz:294.got - 2010.06.03 18:54:24.
