data_PCOD9366709
_publ_section_title
;
Structure prediction by ZEFSAII (Michael W. Deem and Ramdas Pophale) SiO2 
 PCOD9366709
Probable space group: A B A 2
;
_chemical_formula_sum "Si O2"
_cell_formula_units_Z 64
_cell_length_a 8.568395
_cell_length_b 15.519420
_cell_length_c 21.297575
_cell_angle_alpha 90.000000
_cell_angle_beta 90.000000
_cell_angle_gamma 90.000000
_cell_volume 2832.077424
_symmetry_space_group_name_H-M "A B A 2"
_symmetry_group_IT_number 41
_symmetry_cell_setting 'orthorhombic'
loop_
_space_group_symop_operation_xyz
x,y,z
-x,-y,z
1/2-x,y,1/2+z
1/2+x,-y,1/2+z
x,1/2+y,1/2+z
-x,1/2-y,1/2+z
1/2-x,1/2+y,z
1/2+x,1/2-y,z
loop_
_atom_site_type_symbol
_atom_site_label
_atom_site_fract_x
_atom_site_fract_y
_atom_site_fract_z
Si Si1 0.096943 0.414108 0.563180
Si Si2 0.276154 0.743352 0.744874
Si Si3 0.575835 0.358492 0.463969
Si Si4 0.720696 0.091591 0.810767
Si Si5 0.040017 0.413060 0.091882
Si Si6 0.534286 0.770120 0.656801
Si Si7 0.204613 0.832801 0.942631
Si Si8 0.844548 0.403852 0.831144
O O1 0.279820 0.425355 0.574344
O O2 0.037391 0.340967 0.611230
O O3 0.093712 0.383155 0.491054
O O4 0.000000 0.500000 0.573224
O O5 0.226179 0.842263 0.757477
O O6 0.453459 0.756924 0.724354
O O7 0.240017 0.680502 0.802873
O O8 0.205399 0.704991 0.680584
O O9 0.575823 0.404639 0.531338
O O10 0.659212 0.266388 0.455520
O O11 0.390171 0.342463 0.455330
O O12 0.649794 0.412649 0.406862
O O13 0.805810 0.128521 0.872847
O O14 0.530545 0.101328 0.816271
O O15 0.735947 0.989340 0.803473
O O16 0.000000 0.500000 0.128896
O O17 0.033923 0.320729 0.123212
#
# Coordination Sequence:
#
# PCOD9366709 Si02
#       8
#     8   8   8   8   8   8   8   8
#     4  11  26  45  68 102 138 181 228 283 350 413
#     4  12  24  43  69  95 132 186 236 282 333 402
#     4  10  21  39  69  95 131 170 217 272 347 400
#     4  10  22  42  67 100 135 171 226 278 345 409
#     4  11  26  43  68 104 139 176 228 289 344 411
#     4  12  26  45  67  96 135 185 240 281 336 404
#     4  10  21  41  67  98 130 167 217 279 340 408
#     4  10  22  41  68  99 133 178 221 281 341 410
#
# _framework density 22.598254000000001
#
# number of rings (size 3 to 8) (size 9 to 14) (size 15 to 20)
#    0.000    1.250    5.000    0.000    7.000    3.000 
#    0.000    0.000    0.000    0.000    0.000    0.000 
#    0.000    0.000    0.000    0.000    0.000    0.000 
#
# Total GULP energy -178522.105334 kJ/mol
# GULP energy per Si atom -5578.815792 kJ/mol
# Density = 2.254682 g / cm^3
# Si number density = 22.598254 Si / 1000 Ang^3
#
#
#
# Elastic Constant Matrix: (Units=GPa)
#
#
# Indices 1 2 3 4 5 6 
#
# 1 27.5980 35.7222 25.6915 0.0000 0.0000 0.0000
# 2 35.7222 147.2808 36.7798 0.0000 0.0000 0.0000
# 3 25.6915 36.7798 64.7586 0.0000 0.0000 0.0000
# 4 0.0000 0.0000 0.0000 6.3951 0.0000 0.0000
# 5 0.0000 0.0000 0.0000 0.0000 13.5108 0.0000
# 6 0.0000 0.0000 0.0000 0.0000 0.0000 36.5317
#
#
#
# Elastic Compliance Matrix: (Units=1/GPa)
#
#
# Indices 1 2 3 4 5 6 
#
# 1 0.072083 -0.012051 -0.021753 0.000000 0.000000 0.000000
# 2 -0.012051 0.009927 -0.000857 0.000000 0.000000 0.000000
# 3 -0.021753 -0.000857 0.024559 0.000000 0.000000 0.000000
# 4 0.000000 0.000000 0.000000 0.156371 0.000000 0.000000
# 5 0.000000 0.000000 0.000000 0.000000 0.074015 0.000000
# 6 0.000000 0.000000 0.000000 0.000000 0.000000 0.027374
#
#
# Mechanical properties :
#
#
# Convention : Reuss Voigt Hill
#
# Bulk Modulus (GPa) = 26.84801 48.44717 37.64759
# Shear Modulus (GPa) = 11.20912 20.71710 15.96311
#
# Velocity S-wave (km/s) = 2.22956 3.03108 2.66068
# Velocity P-wave (km/s) = 4.30515 5.80818 5.11220
#
# Compressibility (1/GPa) = 0.03724671
#
# Stress axis : x y z
#
# Youngs Moduli (GPa) = 13.87281 100.73861 40.71891
#
# Poissons Ratio (x) = 1.21402 0.88576
# Poissons Ratio (y) = 0.16718 0.03489
# Poissons Ratio (z) = 0.30178 0.08632
#
# Static dielectric constant tensor:
#      x y z
#    x 1.899500 0.000000 0.000000 
#    y 0.000000 1.825310 0.000000 
#    z 0.000000 0.000000 1.866640 
# 
# From -- ./inp_files/12049.got.cif
#   From: 2010.05.17/outbox.cif.g08.bks.cpg/sg41_7_cif.got.tgz:12049.got - 2010.06.03 18:54:24.
