data_PCOD9367087
_publ_section_title
;
Structure prediction by ZEFSAII (Michael W. Deem and Ramdas Pophale) SiO2 
 PCOD9367087
Probable space group: A B A 2
;
_chemical_formula_sum "Si O2"
_cell_formula_units_Z 48
_cell_length_a 12.739748
_cell_length_b 19.118578
_cell_length_c 9.031581
_cell_angle_alpha 90.000000
_cell_angle_beta 90.000000
_cell_angle_gamma 90.000000
_cell_volume 2199.784846
_symmetry_space_group_name_H-M "A B A 2"
_symmetry_group_IT_number 41
_symmetry_cell_setting 'orthorhombic'
loop_
_space_group_symop_operation_xyz
x,y,z
-x,-y,z
1/2-x,y,1/2+z
1/2+x,-y,1/2+z
x,1/2+y,1/2+z
-x,1/2-y,1/2+z
1/2-x,1/2+y,z
1/2+x,1/2-y,z
loop_
_atom_site_type_symbol
_atom_site_label
_atom_site_fract_x
_atom_site_fract_y
_atom_site_fract_z
Si Si1 0.235287 0.685195 0.260030
Si Si2 0.156728 0.494386 0.581822
Si Si3 0.390671 0.242363 0.517913
Si Si4 0.343679 0.047615 0.902064
Si Si5 0.524346 0.873310 0.111029
Si Si6 0.490504 0.395867 0.941635
O O1 0.326062 0.717280 0.160519
O O2 0.189272 0.738796 0.380253
O O3 0.281554 0.616810 0.342384
O O4 0.136781 0.660622 0.159812
O O5 0.272581 0.510526 0.525353
O O6 0.144410 0.501140 0.756621
O O7 0.114165 0.421524 0.520621
O O8 0.082513 0.554244 0.507108
O O9 0.446942 0.314490 0.551043
O O10 0.476708 0.182981 0.478210
O O11 0.448526 0.073571 0.980802
O O12 0.483413 0.905184 0.265144
#
# Coordination Sequence:
#
# PCOD9367087 Si02
#       6
#     8   8   8   8   8   8
#     4  11  20  38  62 101 129 176 233 271 342 403
#     4  11  21  39  70  88 133 168 243 283 331 422
#     4  11  23  39  68 100 138 179 227 285 337 422
#     4  12  19  41  69  99 125 192 225 277 353 405
#     4  11  23  40  70  99 140 180 235 278 353 417
#     4  10  22  41  61  99 124 178 227 295 332 394
#
# _framework density 21.820315000000001
#
# number of rings (size 3 to 8) (size 9 to 14) (size 15 to 20)
#    0.000    1.000    8.333    0.000    4.667    0.000 
#    0.000   10.000    0.000    0.000    0.000    0.000 
#    0.000    0.000    0.000    0.000    0.000    0.000 
#
# Total GULP energy -134318.088289 kJ/mol
# GULP energy per Si atom -5596.587012 kJ/mol
# Density = 2.177065 g / cm^3
# Si number density = 21.820315 Si / 1000 Ang^3
#
#
#
# Elastic Constant Matrix: (Units=GPa)
#
#
# Indices 1 2 3 4 5 6 
#
# 1 52.0780 37.3180 46.6773 0.0000 0.0000 0.0000
# 2 37.3180 41.6402 50.8960 0.0000 0.0000 0.0000
# 3 46.6773 50.8960 164.6590 0.0000 0.0000 0.0000
# 4 0.0000 0.0000 0.0000 24.4023 0.0000 0.0000
# 5 0.0000 0.0000 0.0000 0.0000 12.5220 0.0000
# 6 0.0000 0.0000 0.0000 0.0000 0.0000 35.9966
#
#
#
# Elastic Compliance Matrix: (Units=1/GPa)
#
#
# Indices 1 2 3 4 5 6 
#
# 1 0.053699 -0.047443 -0.000558 0.000000 0.000000 0.000000
# 2 -0.047443 0.080514 -0.011438 0.000000 0.000000 0.000000
# 3 -0.000558 -0.011438 0.009767 0.000000 0.000000 0.000000
# 4 0.000000 0.000000 0.000000 0.040980 0.000000 0.000000
# 5 0.000000 0.000000 0.000000 0.000000 0.079859 0.000000
# 6 0.000000 0.000000 0.000000 0.000000 0.000000 0.027780
#
#
# Mechanical properties :
#
#
# Convention : Reuss Voigt Hill
#
# Bulk Modulus (GPa) = 39.83732 58.68444 49.26088
# Shear Modulus (GPa) = 11.90921 22.81658 17.36290
#
# Velocity S-wave (km/s) = 2.33874 3.23717 2.82391
# Velocity P-wave (km/s) = 5.05861 6.39728 5.76692
#
# Compressibility (1/GPa) = 0.02510209
#
# Stress axis : x y z
#
# Youngs Moduli (GPa) = 18.62243 12.42023 102.38915
#
# Poissons Ratio (x) = 0.58925 0.05712
# Poissons Ratio (y) = 0.88350 1.17109
# Poissons Ratio (z) = 0.01039 0.14206
#
# Static dielectric constant tensor:
#      x y z
#    x 1.805790 0.000000 0.000000 
#    y 0.000000 1.801600 0.000000 
#    z 0.000000 0.000000 1.790070 
# 
# From -- ./inp_files/2517.got.cif
#   From: 2010.05.17/outbox.cif.g08.bks.cpg/sg41_2_cif.got.tgz:2517.got - 2010.06.03 18:54:24.
