data_PCOD9367013
_publ_section_title
;
Structure prediction by ZEFSAII (Michael W. Deem and Ramdas Pophale) SiO2 
 PCOD9367013
Probable space group: A B A 2
;
_chemical_formula_sum "Si O2"
_cell_formula_units_Z 64
_cell_length_a 10.918202
_cell_length_b 27.699357
_cell_length_c 8.435122
_cell_angle_alpha 90.000000
_cell_angle_beta 90.000000
_cell_angle_gamma 90.000000
_cell_volume 2551.010117
_symmetry_space_group_name_H-M "A B A 2"
_symmetry_group_IT_number 41
_symmetry_cell_setting 'orthorhombic'
loop_
_space_group_symop_operation_xyz
x,y,z
-x,-y,z
1/2-x,y,1/2+z
1/2+x,-y,1/2+z
x,1/2+y,1/2+z
-x,1/2-y,1/2+z
1/2-x,1/2+y,z
1/2+x,1/2-y,z
loop_
_atom_site_type_symbol
_atom_site_label
_atom_site_fract_x
_atom_site_fract_y
_atom_site_fract_z
Si Si1 0.882513 0.111729 0.359680
Si Si2 0.159226 0.348845 0.203488
Si Si3 0.922147 0.949949 0.196802
Si Si4 0.609809 0.256927 0.332233
Si Si5 0.865957 0.286463 0.486644
Si Si6 0.114168 0.522801 0.171715
Si Si7 0.562538 0.391172 0.872420
Si Si8 0.752302 0.010407 0.408811
O O1 0.883726 0.139616 0.525756
O O2 0.800975 0.138807 0.229411
O O3 0.007795 0.093583 0.288356
O O4 0.812880 0.061504 0.392002
O O5 0.139281 0.294099 0.250007
O O6 0.078536 0.379415 0.329205
O O7 0.824588 0.965190 0.332727
O O8 0.909732 0.924501 0.024486
O O9 0.000000 0.000000 0.179455
O O10 0.726765 0.268670 0.446045
O O11 0.477133 0.247952 0.417187
O O12 0.610226 0.291226 0.176350
O O13 0.879325 0.338770 0.402804
O O14 0.105620 0.577990 0.218087
O O15 0.121709 0.490043 0.329271
O O16 0.000000 0.500000 0.079100
O O17 0.237897 0.504013 0.089497
#
# Coordination Sequence:
#
# PCOD9367013 Si02
#       8
#     8   8   8   8   8   8   8   8
#     4  11  21  37  62  95 129 171 224 278 326 389
#     4  11  23  39  65  95 127 166 227 283 334 396
#     4  10  22  39  61  92 133 176 221 269 327 390
#     4  11  25  48  72 104 136 178 222 290 358 416
#     4  11  26  47  74 101 138 176 229 283 353 422
#     4  12  24  42  64  91 134 176 219 269 323 386
#     4  11  24  41  63  95 129 176 225 272 326 401
#     4  11  23  39  61  91 131 177 216 264 328 388
#
# _framework density 25.088101999999999
#
# number of rings (size 3 to 8) (size 9 to 14) (size 15 to 20)
#    0.000    1.000    0.000    7.500    0.000    9.000 
#    0.000    0.625    0.000    0.000    0.000    0.000 
#    0.000    0.000    0.000    0.000    0.000    0.000 
#
# Total GULP energy -178689.718859 kJ/mol
# GULP energy per Si atom -5584.053714 kJ/mol
# Density = 2.503100 g / cm^3
# Si number density = 25.088102 Si / 1000 Ang^3
#
#
#
# Elastic Constant Matrix: (Units=GPa)
#
#
# Indices 1 2 3 4 5 6 
#
# 1 68.1917 14.9101 13.9135 0.0000 0.0000 0.0000
# 2 14.9101 92.0126 -7.5175 0.0000 0.0000 0.0000
# 3 13.9135 -7.5175 72.7753 0.0000 0.0000 0.0000
# 4 0.0000 0.0000 0.0000 40.3678 0.0000 0.0000
# 5 0.0000 0.0000 0.0000 0.0000 30.2008 0.0000
# 6 0.0000 0.0000 0.0000 0.0000 0.0000 35.2949
#
#
#
# Elastic Compliance Matrix: (Units=1/GPa)
#
#
# Indices 1 2 3 4 5 6 
#
# 1 0.015974 -0.002862 -0.003350 0.000000 0.000000 0.000000
# 2 -0.002862 0.011473 0.001732 0.000000 0.000000 0.000000
# 3 -0.003350 0.001732 0.014560 0.000000 0.000000 0.000000
# 4 0.000000 0.000000 0.000000 0.024772 0.000000 0.000000
# 5 0.000000 0.000000 0.000000 0.000000 0.033112 0.000000
# 6 0.000000 0.000000 0.000000 0.000000 0.000000 0.028333
#
#
# Mechanical properties :
#
#
# Convention : Reuss Voigt Hill
#
# Bulk Modulus (GPa) = 30.25834 30.62133 30.43984
# Shear Modulus (GPa) = 33.73839 35.28424 34.51132
#
# Velocity S-wave (km/s) = 3.67112 3.75429 3.71294
# Velocity P-wave (km/s) = 5.48239 5.57000 5.52637
#
# Compressibility (1/GPa) = 0.03304873
#
# Stress axis : x y z
#
# Youngs Moduli (GPa) = 62.60255 87.15807 68.68004
#
# Poissons Ratio (x) = 0.24946 0.23005
# Poissons Ratio (y) = 0.17918 -0.11898
# Poissons Ratio (z) = 0.20969 -0.15099
#
# Static dielectric constant tensor:
#      x y z
#    x 2.431810 0.000000 0.000000 
#    y 0.000000 1.959060 0.000000 
#    z 0.000000 0.000000 2.126270 
# 
# From -- ./inp_files/2212.got.cif
#   From: 2010.05.17/outbox.cif.g08.bks.cpg/sg41_2_cif.got.tgz:2212.got - 2010.06.03 18:54:24.
