data_PCOD9367644
_publ_section_title
;
Structure prediction by ZEFSAII (Michael W. Deem and Ramdas Pophale) SiO2 
 PCOD9367644
Probable space group: A B A 2
;
_chemical_formula_sum "Si O2"
_cell_formula_units_Z 36
_cell_length_a 14.136457
_cell_length_b 19.456624
_cell_length_c 5.088961
_cell_angle_alpha 90.000000
_cell_angle_beta 90.000000
_cell_angle_gamma 90.000000
_cell_volume 1399.707164
_symmetry_space_group_name_H-M "A B A 2"
_symmetry_group_IT_number 41
_symmetry_cell_setting 'orthorhombic'
loop_
_space_group_symop_operation_xyz
x,y,z
-x,-y,z
1/2-x,y,1/2+z
1/2+x,-y,1/2+z
x,1/2+y,1/2+z
-x,1/2-y,1/2+z
1/2-x,1/2+y,z
1/2+x,1/2-y,z
loop_
_atom_site_type_symbol
_atom_site_label
_atom_site_fract_x
_atom_site_fract_y
_atom_site_fract_z
Si Si1 0.984783 0.144345 0.912210
Si Si2 0.130621 0.332655 0.916615
Si Si3 0.803697 0.312510 0.279529
Si Si4 0.307301 0.489229 0.394359
Si Si5 0.500000 0.000000 0.163265
O O1 0.092065 0.163780 0.855658
O O2 0.915190 0.180840 0.701560
O O3 0.973202 0.064241 0.842968
O O4 0.954204 0.159911 0.206472
O O5 0.192295 0.270102 0.812055
O O6 0.182750 0.405920 0.911345
O O7 0.726777 0.335463 0.492408
O O8 0.271744 0.508947 0.107944
O O9 0.409358 0.516579 0.483095
#
# Coordination Sequence:
#
# PCOD9367644 Si02
#       5
#     8   8   8   8   4
#     4  11  24  42  65  92 129 176 218 265 331 398
#     4  11  22  42  66  93 126 168 221 271 328 396
#     4  12  24  40  65  97 131 163 209 274 337 399
#     4  11  23  40  65  94 126 170 220 270 325 388
#     4  10  26  44  66  96 136 178 224 276 326 398
#
# _framework density 25.719667000000001
#
# number of rings (size 3 to 8) (size 9 to 14) (size 15 to 20)
#    0.000    0.889    0.000    8.000    0.000    9.778 
#    0.000    0.000    0.000    0.000    0.000    0.000 
#    0.000    0.000    0.000    0.000    0.000    0.000 
#
# Total GULP energy -101100.338141 kJ/mol
# GULP energy per Si atom -5616.685452 kJ/mol
# Density = 2.566113 g / cm^3
# Si number density = 25.719667 Si / 1000 Ang^3
#
#
#
# Elastic Constant Matrix: (Units=GPa)
#
#
# Indices 1 2 3 4 5 6 
#
# 1 101.0657 1.2642 8.3922 0.0000 0.0000 0.0000
# 2 1.2642 67.1943 1.9239 0.0000 0.0000 0.0000
# 3 8.3922 1.9239 63.0107 0.0000 0.0000 0.0000
# 4 0.0000 0.0000 0.0000 11.9393 0.0000 0.0000
# 5 0.0000 0.0000 0.0000 0.0000 59.7892 0.0000
# 6 0.0000 0.0000 0.0000 0.0000 0.0000 44.2283
#
#
#
# Elastic Compliance Matrix: (Units=1/GPa)
#
#
# Indices 1 2 3 4 5 6 
#
# 1 0.010007 -0.000150 -0.001328 0.000000 0.000000 0.000000
# 2 -0.000150 0.014897 -0.000435 0.000000 0.000000 0.000000
# 3 -0.001328 -0.000435 0.016060 0.000000 0.000000 0.000000
# 4 0.000000 0.000000 0.000000 0.083757 0.000000 0.000000
# 5 0.000000 0.000000 0.000000 0.000000 0.016725 0.000000
# 6 0.000000 0.000000 0.000000 0.000000 0.000000 0.022610
#
#
# Mechanical properties :
#
#
# Convention : Reuss Voigt Hill
#
# Bulk Modulus (GPa) = 26.92648 28.27015 27.59831
# Shear Modulus (GPa) = 27.73723 37.83739 32.78731
#
# Velocity S-wave (km/s) = 3.28753 3.83971 3.57430
# Velocity P-wave (km/s) = 4.99023 5.53835 5.27142
#
# Compressibility (1/GPa) = 0.03713817
#
# Stress axis : x y z
#
# Youngs Moduli (GPa) = 99.93283 67.12541 62.26460
#
# Poissons Ratio (x) = 0.01009 0.08270
# Poissons Ratio (y) = 0.01501 0.02708
# Poissons Ratio (z) = 0.13273 0.02919
#
# Static dielectric constant tensor:
#      x y z
#    x 1.962730 0.000000 0.000000 
#    y 0.000000 2.076730 0.000000 
#    z 0.000000 0.000000 1.961690 
# 
# From -- ./inp_files/105.got.cif
#   From: 2010.05.17/outbox.cif.g08.bks.cpg/sg41_1_cif.got.tgz:105.got - 2010.06.03 18:54:24.
