data_PCOD9367516
_publ_section_title
;
Structure prediction by ZEFSAII (Michael W. Deem and Ramdas Pophale) SiO2 
 PCOD9367516
Probable space group: A B A 2
;
_chemical_formula_sum "Si O2"
_cell_formula_units_Z 44
_cell_length_a 13.336186
_cell_length_b 10.474312
_cell_length_c 13.904046
_cell_angle_alpha 90.000000
_cell_angle_beta 90.000000
_cell_angle_gamma 90.000000
_cell_volume 1942.219661
_symmetry_space_group_name_H-M "A B A 2"
_symmetry_group_IT_number 41
_symmetry_cell_setting 'orthorhombic'
loop_
_space_group_symop_operation_xyz
x,y,z
-x,-y,z
1/2-x,y,1/2+z
1/2+x,-y,1/2+z
x,1/2+y,1/2+z
-x,1/2-y,1/2+z
1/2-x,1/2+y,z
1/2+x,1/2-y,z
loop_
_atom_site_type_symbol
_atom_site_label
_atom_site_fract_x
_atom_site_fract_y
_atom_site_fract_z
Si Si1 0.516754 0.175764 0.366460
Si Si2 0.860125 0.180135 0.496148
Si Si3 0.829760 0.520353 0.483545
Si Si4 0.872864 0.391608 0.969892
Si Si5 0.500000 0.000000 0.638008
Si Si6 0.991193 0.286799 0.155989
O O1 0.420976 0.215743 0.432517
O O2 0.409426 0.935598 0.403939
O O3 0.586477 0.301702 0.385417
O O4 0.484395 0.148589 0.258505
O O5 0.747647 0.410031 0.469498
O O6 0.901607 0.194622 0.604256
O O7 0.742539 0.144856 0.497224
O O8 0.598371 0.541320 0.460401
O O9 0.899664 0.490013 0.573610
O O10 0.915573 0.335640 0.071970
O O11 0.482981 0.862546 0.683531
#
# Coordination Sequence:
#
# PCOD9367516 Si02
#       6
#     8   8   8   8   4   8
#     4  11  21  44  71 101 133 182 245 280 351 433
#     4   9  22  46  70  88 144 188 219 291 363 408
#     4  10  24  43  71  95 140 188 229 291 356 422
#     4   9  22  46  71  93 143 191 220 297 368 408
#     4  12  24  40  66 100 140 182 234 292 350 422
#     4  11  23  41  70 103 138 182 236 298 344 431
#
# _framework density 22.654492000000001
#
# number of rings (size 3 to 8) (size 9 to 14) (size 15 to 20)
#    1.091    0.727    3.636    2.182    5.091    0.000 
#   13.091    0.000    0.000    0.000    0.000    0.000 
#    0.000    0.000    0.000    0.000    0.000    0.000 
#
# Total GULP energy -122476.867055 kJ/mol
# GULP energy per Si atom -5567.130321 kJ/mol
# Density = 2.260293 g / cm^3
# Si number density = 22.654492 Si / 1000 Ang^3
#
#
#
# Elastic Constant Matrix: (Units=GPa)
#
#
# Indices 1 2 3 4 5 6 
#
# 1 166.7555 23.1756 36.6314 0.0000 0.0000 0.0000
# 2 23.1756 129.9597 16.9947 0.0000 0.0000 0.0000
# 3 36.6314 16.9947 99.4430 0.0000 0.0000 0.0000
# 4 0.0000 0.0000 0.0000 21.7253 0.0000 0.0000
# 5 0.0000 0.0000 0.0000 0.0000 0.8811 0.0000
# 6 0.0000 0.0000 0.0000 0.0000 0.0000 52.3317
#
#
#
# Elastic Compliance Matrix: (Units=1/GPa)
#
#
# Indices 1 2 3 4 5 6 
#
# 1 0.006622 -0.000882 -0.002289 0.000000 0.000000 0.000000
# 2 -0.000882 0.007988 -0.001040 0.000000 0.000000 0.000000
# 3 -0.002289 -0.001040 0.011077 0.000000 0.000000 0.000000
# 4 0.000000 0.000000 0.000000 0.046029 0.000000 0.000000
# 5 0.000000 0.000000 0.000000 0.000000 1.134909 0.000000
# 6 0.000000 0.000000 0.000000 0.000000 0.000000 0.019109
#
#
# Mechanical properties :
#
#
# Convention : Reuss Voigt Hill
#
# Bulk Modulus (GPa) = 57.91872 61.08462 59.50167
# Shear Modulus (GPa) = 4.03255 36.27806 20.15530
#
# Velocity S-wave (km/s) = 1.33562 4.00604 2.98599
# Velocity P-wave (km/s) = 5.29151 6.95845 6.18143
#
# Compressibility (1/GPa) = 0.01726557
#
# Stress axis : x y z
#
# Youngs Moduli (GPa) = 151.00979 125.18835 90.27808
#
# Poissons Ratio (x) = 0.11037 0.20662
# Poissons Ratio (y) = 0.13313 0.09392
# Poissons Ratio (z) = 0.34561 0.13024
#
# Static dielectric constant tensor:
#      x y z
#    x 1.902780 0.000000 0.000000 
#    y 0.000000 2.090960 0.000000 
#    z 0.000000 0.000000 1.766990 
# 
# From -- ./inp_files/7831.got.cif
#   From: 2010.05.17/outbox.cif.g08.bks.cpg/sg41_4_cif.got.tgz:7831.got - 2010.06.03 18:54:24.
