data_PCOD9367128
_publ_section_title
;
Structure prediction by ZEFSAII (Michael W. Deem and Ramdas Pophale) SiO2 
 PCOD9367128
Probable space group: A B A 2
;
_chemical_formula_sum "Si O2"
_cell_formula_units_Z 44
_cell_length_a 7.249153
_cell_length_b 19.296318
_cell_length_c 11.704751
_cell_angle_alpha 90.000000
_cell_angle_beta 90.000000
_cell_angle_gamma 90.000000
_cell_volume 1637.283529
_symmetry_space_group_name_H-M "A B A 2"
_symmetry_group_IT_number 41
_symmetry_cell_setting 'orthorhombic'
loop_
_space_group_symop_operation_xyz
x,y,z
-x,-y,z
1/2-x,y,1/2+z
1/2+x,-y,1/2+z
x,1/2+y,1/2+z
-x,1/2-y,1/2+z
1/2-x,1/2+y,z
1/2+x,1/2-y,z
loop_
_atom_site_type_symbol
_atom_site_label
_atom_site_fract_x
_atom_site_fract_y
_atom_site_fract_z
Si Si1 0.500000 0.500000 0.217680
Si Si2 0.461887 0.352688 0.205345
Si Si3 0.233407 0.568277 0.547111
Si Si4 0.058588 0.637560 0.363001
Si Si5 0.056201 0.355047 0.105675
Si Si6 0.596485 0.264455 0.410165
O O1 0.472723 0.426161 0.275479
O O2 0.325536 0.506621 0.130541
O O3 0.622120 0.368319 0.112445
O O4 0.499334 0.290824 0.292023
O O5 0.268489 0.348684 0.140417
O O6 0.126614 0.568832 0.426401
O O7 0.449112 0.583525 0.537946
O O8 0.039155 0.632752 0.228943
O O9 0.216268 0.692404 0.398094
O O10 0.880931 0.681474 0.403166
O O11 0.995857 0.289487 0.028497
#
# Coordination Sequence:
#
# PCOD9367128 Si02
#       6
#     4   8   8   8   8   8
#     4   8  20  42  70  88 132 168 214 274 300 386
#     4  10  22  42  64  91 128 166 215 264 314 372
#     4   9  22  43  60  96 124 167 216 264 309 380
#     4  11  23  40  64  92 136 169 214 266 318 380
#     4  11  24  40  65  93 130 169 211 264 329 375
#     4  11  25  40  64  97 131 169 218 264 315 392
#
# _framework density 26.873781999999999
#
# number of rings (size 3 to 8) (size 9 to 14) (size 15 to 20)
#    1.091    0.727    1.818    1.091    7.636    2.182 
#    0.000   10.909    0.000    0.000    0.000    0.000 
#    0.000    0.000    0.000    0.000    0.000    0.000 
#
# Total GULP energy -122703.076391 kJ/mol
# GULP energy per Si atom -5577.412563 kJ/mol
# Density = 2.681262 g / cm^3
# Si number density = 26.873782 Si / 1000 Ang^3
#
#
#
# Elastic Constant Matrix: (Units=GPa)
#
#
# Indices 1 2 3 4 5 6 
#
# 1 101.0587 -25.9899 24.6303 0.0000 0.0000 0.0000
# 2 -25.9899 56.2012 11.0253 0.0000 0.0000 0.0000
# 3 24.6303 11.0253 164.6822 0.0000 0.0000 0.0000
# 4 0.0000 0.0000 0.0000 18.6537 0.0000 0.0000
# 5 0.0000 0.0000 0.0000 0.0000 44.7896 0.0000
# 6 0.0000 0.0000 0.0000 0.0000 0.0000 26.2683
#
#
#
# Elastic Compliance Matrix: (Units=1/GPa)
#
#
# Indices 1 2 3 4 5 6 
#
# 1 0.011961 0.005961 -0.002188 0.000000 0.000000 0.000000
# 2 0.005961 0.021000 -0.002297 0.000000 0.000000 0.000000
# 3 -0.002188 -0.002297 0.006553 0.000000 0.000000 0.000000
# 4 0.000000 0.000000 0.000000 0.053609 0.000000 0.000000
# 5 0.000000 0.000000 0.000000 0.000000 0.022327 0.000000
# 6 0.000000 0.000000 0.000000 0.000000 0.000000 0.038069
#
#
# Mechanical properties :
#
#
# Convention : Reuss Voigt Hill
#
# Bulk Modulus (GPa) = 23.54840 37.91928 30.73384
# Shear Modulus (GPa) = 30.35379 38.76076 34.55727
#
# Velocity S-wave (km/s) = 3.36444 3.80192 3.58985
# Velocity P-wave (km/s) = 4.88613 5.78044 5.35200
#
# Compressibility (1/GPa) = 0.04246573
#
# Stress axis : x y z
#
# Youngs Moduli (GPa) = 83.60175 47.61809 152.59343
#
# Poissons Ratio (x) = -0.28384 0.33388
# Poissons Ratio (y) = -0.49833 0.35058
# Poissons Ratio (z) = 0.18292 0.10940
#
# Static dielectric constant tensor:
#      x y z
#    x 2.333750 0.000000 0.000000 
#    y 0.000000 2.153740 0.000000 
#    z 0.000000 0.000000 2.110190 
# 
# From -- ./inp_files/4464.got.cif
#   From: 2010.05.17/outbox.cif.g08.bks.cpg/sg41_3_cif.got.tgz:4464.got - 2010.06.03 18:54:24.
