data_PCOD9367574
_publ_section_title
;
Structure prediction by ZEFSAII (Michael W. Deem and Ramdas Pophale) SiO2 
 PCOD9367574
Probable space group: A B A 2
;
_chemical_formula_sum "Si O2"
_cell_formula_units_Z 36
_cell_length_a 21.157860
_cell_length_b 13.916788
_cell_length_c 4.829780
_cell_angle_alpha 90.000000
_cell_angle_beta 90.000000
_cell_angle_gamma 90.000000
_cell_volume 1422.126075
_symmetry_space_group_name_H-M "A B A 2"
_symmetry_group_IT_number 41
_symmetry_cell_setting 'orthorhombic'
loop_
_space_group_symop_operation_xyz
x,y,z
-x,-y,z
1/2-x,y,1/2+z
1/2+x,-y,1/2+z
x,1/2+y,1/2+z
-x,1/2-y,1/2+z
1/2-x,1/2+y,z
1/2+x,1/2-y,z
loop_
_atom_site_type_symbol
_atom_site_label
_atom_site_fract_x
_atom_site_fract_y
_atom_site_fract_z
Si Si1 0.516366 0.811710 0.536350
Si Si2 0.884150 0.921525 0.367237
Si Si3 0.500000 0.000000 0.219890
Si Si4 0.706867 0.791061 0.209314
Si Si5 0.793467 0.573398 0.592477
O O1 0.521931 0.737086 0.285212
O O2 0.582419 0.844102 0.667803
O O3 0.513959 0.592306 0.909701
O O4 0.841688 0.866893 0.590833
O O5 0.843966 0.997011 0.192247
O O6 0.940759 0.973795 0.529744
O O7 0.770681 0.802477 0.023258
O O8 0.684785 0.682317 0.150407
O O9 0.769954 0.561808 0.279658
#
# Coordination Sequence:
#
# PCOD9367574 Si02
#       5
#     8   8   4   8   8
#     4  12  29  53  74 112 163 210 267 326 389 471
#     4  12  27  49  84 110 158 210 266 324 393 475
#     4  12  30  52  76 122 158 218 274 326 396 472
#     4  10  24  46  75 116 152 196 258 328 402 470
#     4  10  24  47  78 119 153 193 257 333 397 466
#
# _framework density 25.314214
#
# number of rings (size 3 to 8) (size 9 to 14) (size 15 to 20)
#    0.000    0.889    2.222    2.000    6.222    5.333 
#    4.000    0.000    0.000    0.000    0.000    0.000 
#    0.000    0.000    0.000    0.000    0.000    0.000 
#
# Total GULP energy -101149.140129 kJ/mol
# GULP energy per Si atom -5619.396674 kJ/mol
# Density = 2.525660 g / cm^3
# Si number density = 25.314214 Si / 1000 Ang^3
#
#
#
# Elastic Constant Matrix: (Units=GPa)
#
#
# Indices 1 2 3 4 5 6 
#
# 1 81.3236 77.7058 10.4660 0.0000 0.0000 0.0000
# 2 77.7058 157.5778 43.1356 0.0000 0.0000 0.0000
# 3 10.4660 43.1356 109.6408 0.0000 0.0000 0.0000
# 4 0.0000 0.0000 0.0000 57.7949 0.0000 0.0000
# 5 0.0000 0.0000 0.0000 0.0000 29.5422 0.0000
# 6 0.0000 0.0000 0.0000 0.0000 0.0000 33.0795
#
#
#
# Elastic Compliance Matrix: (Units=1/GPa)
#
#
# Indices 1 2 3 4 5 6 
#
# 1 0.023917 -0.012517 0.002642 0.000000 0.000000 0.000000
# 2 -0.012517 0.013663 -0.004181 0.000000 0.000000 0.000000
# 3 0.002642 -0.004181 0.010513 0.000000 0.000000 0.000000
# 4 0.000000 0.000000 0.000000 0.017303 0.000000 0.000000
# 5 0.000000 0.000000 0.000000 0.000000 0.033850 0.000000
# 6 0.000000 0.000000 0.000000 0.000000 0.000000 0.030230
#
#
# Mechanical properties :
#
#
# Convention : Reuss Voigt Hill
#
# Bulk Modulus (GPa) = 50.04786 67.90635 58.97710
# Shear Modulus (GPa) = 30.44170 38.56565 34.50367
#
# Velocity S-wave (km/s) = 3.47155 3.90741 3.69591
# Velocity P-wave (km/s) = 5.99019 6.87319 6.44683
#
# Compressibility (1/GPa) = 0.01998088
#
# Stress axis : x y z
#
# Youngs Moduli (GPa) = 41.81143 73.19036 95.11788
#
# Poissons Ratio (x) = 0.91614 -0.25126
# Poissons Ratio (y) = 0.52336 0.39764
# Poissons Ratio (z) = -0.11045 0.30598
#
# Static dielectric constant tensor:
#      x y z
#    x 2.003350 0.000000 0.000000 
#    y 0.000000 1.977180 0.000000 
#    z 0.000000 0.000000 1.953850 
# 
# From -- ./inp_files/638.got.cif
#   From: 2010.05.17/outbox.cif.g08.bks.cpg/sg41_1_cif.got.tgz:638.got - 2010.06.03 18:54:24.
