data_PCOD9367363
_publ_section_title
;
Structure prediction by ZEFSAII (Michael W. Deem and Ramdas Pophale) SiO2 
 PCOD9367363
Probable space group: A B A 2
;
_chemical_formula_sum "Si O2"
_cell_formula_units_Z 28
_cell_length_a 7.488610
_cell_length_b 16.897757
_cell_length_c 9.091407
_cell_angle_alpha 90.000000
_cell_angle_beta 90.000000
_cell_angle_gamma 90.000000
_cell_volume 1150.433115
_symmetry_space_group_name_H-M "A B A 2"
_symmetry_group_IT_number 41
_symmetry_cell_setting 'orthorhombic'
loop_
_space_group_symop_operation_xyz
x,y,z
-x,-y,z
1/2-x,y,1/2+z
1/2+x,-y,1/2+z
x,1/2+y,1/2+z
-x,1/2-y,1/2+z
1/2-x,1/2+y,z
1/2+x,1/2-y,z
loop_
_atom_site_type_symbol
_atom_site_label
_atom_site_fract_x
_atom_site_fract_y
_atom_site_fract_z
Si Si1 0.500000 0.000000 0.182881
Si Si2 0.838958 0.388125 0.981355
Si Si3 0.557160 0.830013 0.689840
Si Si4 0.139705 0.842985 0.691735
O O1 0.652991 0.971042 0.068053
O O2 0.430228 0.923502 0.269224
O O3 0.673597 0.339000 0.043269
O O4 0.022520 0.348225 0.041994
O O5 0.855903 0.389400 0.808361
O O6 0.349735 0.845185 0.669092
O O7 0.587853 0.742018 0.755278
#
# Coordination Sequence:
#
# PCOD9367363 Si02
#       4
#     4   8   8   8
#     4   8  22  50  60 108 138 168 242 270 360 396
#     4  10  26  44  67 107 131 186 228 284 345 411
#     4  12  24  43  76  95 148 175 240 277 348 405
#     4  10  23  43  67 104 137 183 224 289 335 420
#
# _framework density 24.338657000000001
#
# number of rings (size 3 to 8) (size 9 to 14) (size 15 to 20)
#    1.714    0.000    2.857    0.000    4.000    5.714 
#    0.000    0.000    0.000    0.000    0.000    0.000 
#    0.000    0.000    0.000    0.000    0.000    0.000 
#
# Total GULP energy -78110.558975 kJ/mol
# GULP energy per Si atom -5579.325641 kJ/mol
# Density = 2.428326 g / cm^3
# Si number density = 24.338657 Si / 1000 Ang^3
#
#
#
# Elastic Constant Matrix: (Units=GPa)
#
#
# Indices 1 2 3 4 5 6 
#
# 1 194.6987 46.6218 36.8590 0.0000 0.0000 0.0000
# 2 46.6218 105.7027 -7.5964 0.0000 0.0000 0.0000
# 3 36.8590 -7.5964 65.7598 0.0000 0.0000 0.0000
# 4 0.0000 0.0000 0.0000 18.5397 0.0000 0.0000
# 5 0.0000 0.0000 0.0000 0.0000 13.7030 0.0000
# 6 0.0000 0.0000 0.0000 0.0000 0.0000 31.8558
#
#
#
# Elastic Compliance Matrix: (Units=1/GPa)
#
#
# Indices 1 2 3 4 5 6 
#
# 1 0.006696 -0.003250 -0.004129 0.000000 0.000000 0.000000
# 2 -0.003250 0.011117 0.003106 0.000000 0.000000 0.000000
# 3 -0.004129 0.003106 0.017880 0.000000 0.000000 0.000000
# 4 0.000000 0.000000 0.000000 0.053938 0.000000 0.000000
# 5 0.000000 0.000000 0.000000 0.000000 0.072977 0.000000
# 6 0.000000 0.000000 0.000000 0.000000 0.000000 0.031391
#
#
# Mechanical properties :
#
#
# Convention : Reuss Voigt Hill
#
# Bulk Modulus (GPa) = 36.83586 57.54777 47.19182
# Shear Modulus (GPa) = 23.63017 32.17149 27.90083
#
# Velocity S-wave (km/s) = 3.11929 3.63964 3.38947
# Velocity P-wave (km/s) = 5.30480 6.43106 5.89489
#
# Compressibility (1/GPa) = 0.02714746
#
# Stress axis : x y z
#
# Youngs Moduli (GPa) = 149.34310 89.95065 55.92912
#
# Poissons Ratio (x) = 0.29235 0.23091
# Poissons Ratio (y) = 0.48538 -0.17371
# Poissons Ratio (z) = 0.61658 -0.27938
#
# Static dielectric constant tensor:
#      x y z
#    x 1.897560 0.000000 0.000000 
#    y 0.000000 2.038090 0.000000 
#    z 0.000000 0.000000 1.859100 
# 
# From -- ./inp_files/1598.got.cif
#   From: 2010.05.17/outbox.cif.g08.bks.cpg/sg41_1_cif.got.tgz:1598.got - 2010.06.03 18:54:24.
