data_PCOD9367351
_publ_section_title
;
Structure prediction by ZEFSAII (Michael W. Deem and Ramdas Pophale) SiO2 
 PCOD9367351
Probable space group: A B A 2
;
_chemical_formula_sum "Si O2"
_cell_formula_units_Z 56
_cell_length_a 15.137366
_cell_length_b 13.692532
_cell_length_c 11.236238
_cell_angle_alpha 90.000000
_cell_angle_beta 90.000000
_cell_angle_gamma 90.000000
_cell_volume 2328.922335
_symmetry_space_group_name_H-M "A B A 2"
_symmetry_group_IT_number 41
_symmetry_cell_setting 'orthorhombic'
loop_
_space_group_symop_operation_xyz
x,y,z
-x,-y,z
1/2-x,y,1/2+z
1/2+x,-y,1/2+z
x,1/2+y,1/2+z
-x,1/2-y,1/2+z
1/2-x,1/2+y,z
1/2+x,1/2-y,z
loop_
_atom_site_type_symbol
_atom_site_label
_atom_site_fract_x
_atom_site_fract_y
_atom_site_fract_z
Si Si1 0.000000 0.500000 0.074270
Si Si2 0.760864 0.115490 0.890059
Si Si3 0.433736 0.824260 0.239405
Si Si4 0.153948 0.067363 0.395093
Si Si5 0.082913 0.807417 0.262823
Si Si6 0.865086 0.869102 0.130618
Si Si7 0.307684 0.230113 0.055320
Si Si8 0.000000 0.500000 0.638050
O O1 0.972950 0.588349 0.160776
O O2 0.919674 0.474707 0.984358
O O3 0.847513 0.137235 0.810590
O O4 0.670836 0.165114 0.836818
O O5 0.738616 0.002085 0.901921
O O6 0.772981 0.163912 0.019130
O O7 0.508379 0.764911 0.316990
O O8 0.405347 0.738172 0.148189
O O9 0.133217 0.075861 0.256948
O O10 0.164689 0.178785 0.434009
O O11 0.117819 0.745874 0.150849
O O12 0.041289 0.908524 0.213197
O O13 0.765386 0.845638 0.099640
O O14 0.926273 0.943944 0.058276
#
# Coordination Sequence:
#
# PCOD9367351 Si02
#       8
#     4   8   8   8   8   8   8   4
#     4  12  27  44  73 110 142 208 253 320 387 474
#     4  12  27  45  76 110 149 196 256 311 384 472
#     4  11  25  48  71 104 151 191 255 312 385 450
#     4  12  26  42  74 105 145 194 255 302 390 458
#     4  11  24  49  73 104 148 197 246 322 379 457
#     4  11  23  47  70 106 147 194 243 317 375 460
#     4  12  25  46  71 107 147 196 242 313 384 453
#     4  10  23  42  71 102 142 190 245 300 379 438
#
# _framework density 24.045456000000001
#
# number of rings (size 3 to 8) (size 9 to 14) (size 15 to 20)
#    0.000    0.571    5.714    1.286    6.000    1.143 
#    5.143    0.714    0.000    0.000    0.000    0.000 
#    0.000    0.000    0.000    0.000    0.000    0.000 
#
# Total GULP energy -156404.512208 kJ/mol
# GULP energy per Si atom -5585.875436 kJ/mol
# Density = 2.399073 g / cm^3
# Si number density = 24.045456 Si / 1000 Ang^3
#
#
#
# Elastic Constant Matrix: (Units=GPa)
#
#
# Indices 1 2 3 4 5 6 
#
# 1 141.7875 53.6742 39.3328 0.0000 0.0000 0.0000
# 2 53.6742 142.6461 26.6906 0.0000 0.0000 0.0000
# 3 39.3328 26.6906 37.3413 0.0000 0.0000 0.0000
# 4 0.0000 0.0000 0.0000 31.2995 0.0000 0.0000
# 5 0.0000 0.0000 0.0000 0.0000 18.1950 0.0000
# 6 0.0000 0.0000 0.0000 0.0000 0.0000 51.1744
#
#
#
# Elastic Compliance Matrix: (Units=1/GPa)
#
#
# Indices 1 2 3 4 5 6 
#
# 1 0.010519 -0.002176 -0.009524 0.000000 0.000000 0.000000
# 2 -0.002176 0.008543 -0.003814 0.000000 0.000000 0.000000
# 3 -0.009524 -0.003814 0.039539 0.000000 0.000000 0.000000
# 4 0.000000 0.000000 0.000000 0.031949 0.000000 0.000000
# 5 0.000000 0.000000 0.000000 0.000000 0.054960 0.000000
# 6 0.000000 0.000000 0.000000 0.000000 0.000000 0.019541
#
#
# Mechanical properties :
#
#
# Convention : Reuss Voigt Hill
#
# Bulk Modulus (GPa) = 36.26985 62.35221 49.31103
# Shear Modulus (GPa) = 24.35818 33.60559 28.98188
#
# Velocity S-wave (km/s) = 3.18623 3.74249 3.47550
# Velocity P-wave (km/s) = 5.35282 6.68298 6.05454
#
# Compressibility (1/GPa) = 0.02757111
#
# Stress axis : x y z
#
# Youngs Moduli (GPa) = 95.06990 117.05832 25.29167
#
# Poissons Ratio (x) = 0.25469 0.24089
# Poissons Ratio (y) = 0.20685 0.09647
# Poissons Ratio (z) = 0.90548 0.44650
#
# Static dielectric constant tensor:
#      x y z
#    x 2.146000 0.000000 0.000000 
#    y 0.000000 1.912380 0.000000 
#    z 0.000000 0.000000 1.917440 
# 
# From -- ./inp_files/5624.got.cif
#   From: 2010.05.17/outbox.cif.g08.bks.cpg/sg41_3_cif.got.tgz:5624.got - 2010.06.03 18:54:24.
