data_PCOD9367470
_publ_section_title
;
Structure prediction by ZEFSAII (Michael W. Deem and Ramdas Pophale) SiO2 
 PCOD9367470
Probable space group: A B A 2
;
_chemical_formula_sum "Si O2"
_cell_formula_units_Z 48
_cell_length_a 11.159904
_cell_length_b 19.453868
_cell_length_c 9.193021
_cell_angle_alpha 90.000000
_cell_angle_beta 90.000000
_cell_angle_gamma 90.000000
_cell_volume 1995.835190
_symmetry_space_group_name_H-M "A B A 2"
_symmetry_group_IT_number 41
_symmetry_cell_setting 'orthorhombic'
loop_
_space_group_symop_operation_xyz
x,y,z
-x,-y,z
1/2-x,y,1/2+z
1/2+x,-y,1/2+z
x,1/2+y,1/2+z
-x,1/2-y,1/2+z
1/2-x,1/2+y,z
1/2+x,1/2-y,z
loop_
_atom_site_type_symbol
_atom_site_label
_atom_site_fract_x
_atom_site_fract_y
_atom_site_fract_z
Si Si1 0.726110 0.649371 0.926550
Si Si2 0.602853 0.762280 0.763095
Si Si3 0.805345 0.993303 0.893512
Si Si4 0.000000 0.500000 0.145172
Si Si5 0.654690 0.721836 0.198536
Si Si6 0.564836 0.904636 0.897768
Si Si7 0.500000 0.000000 0.644653
O O1 0.618630 0.688712 0.841765
O O2 0.739036 0.571306 0.888772
O O3 0.835205 0.694480 0.864334
O O4 0.697827 0.661165 0.093480
O O5 0.732502 0.773897 0.685605
O O6 0.481561 0.759175 0.670957
O O7 0.589381 0.824651 0.875972
O O8 0.888528 0.985746 0.751473
O O9 0.694160 0.942430 0.901111
O O10 0.888102 0.989771 0.037082
O O11 0.006063 0.434100 0.037440
O O12 0.500672 0.934916 0.753025
#
# Coordination Sequence:
#
# PCOD9367470 Si02
#       7
#     8   8   8   4   8   8   4
#     4  10  26  42  73  97 140 179 235 288 355 423
#     4  10  26  43  70 102 141 181 236 286 361 419
#     4  11  24  44  65 104 135 183 232 298 349 429
#     4  10  26  40  70 100 138 186 242 290 358 428
#     4  10  25  44  71 103 138 184 231 289 355 424
#     4  11  24  43  71  98 141 188 233 293 357 427
#     4  10  24  40  66  98 138 170 240 286 352 416
#
# _framework density 24.050080999999999
#
# number of rings (size 3 to 8) (size 9 to 14) (size 15 to 20)
#    1.000    0.667    0.000    2.000   11.667    6.667 
#    0.000    0.000    0.000    0.000    0.000    0.000 
#    0.000    0.000    0.000    0.000    0.000    0.000 
#
# Total GULP energy -134028.426604 kJ/mol
# GULP energy per Si atom -5584.517775 kJ/mol
# Density = 2.399534 g / cm^3
# Si number density = 24.050081 Si / 1000 Ang^3
#
#
#
# Elastic Constant Matrix: (Units=GPa)
#
#
# Indices 1 2 3 4 5 6 
#
# 1 140.7425 47.8215 50.2421 0.0000 0.0000 0.0000
# 2 47.8215 40.1321 14.0413 0.0000 0.0000 0.0000
# 3 50.2421 14.0413 109.6745 0.0000 0.0000 0.0000
# 4 0.0000 0.0000 0.0000 25.5771 0.0000 0.0000
# 5 0.0000 0.0000 0.0000 0.0000 20.5410 0.0000
# 6 0.0000 0.0000 0.0000 0.0000 0.0000 28.5184
#
#
#
# Elastic Compliance Matrix: (Units=1/GPa)
#
#
# Indices 1 2 3 4 5 6 
#
# 1 0.013691 -0.014782 -0.004379 0.000000 0.000000 0.000000
# 2 -0.014782 0.042047 0.001389 0.000000 0.000000 0.000000
# 3 -0.004379 0.001389 0.010946 0.000000 0.000000 0.000000
# 4 0.000000 0.000000 0.000000 0.039098 0.000000 0.000000
# 5 0.000000 0.000000 0.000000 0.000000 0.048683 0.000000
# 6 0.000000 0.000000 0.000000 0.000000 0.000000 0.035065
#
#
# Mechanical properties :
#
#
# Convention : Reuss Voigt Hill
#
# Bulk Modulus (GPa) = 32.11509 57.19542 44.65526
# Shear Modulus (GPa) = 21.23544 26.82357 24.02951
#
# Velocity S-wave (km/s) = 2.97470 3.34327 3.16435
# Velocity P-wave (km/s) = 5.01805 6.22388 5.65321
#
# Compressibility (1/GPa) = 0.03113801
#
# Stress axis : x y z
#
# Youngs Moduli (GPa) = 73.03910 23.78317 91.35472
#
# Poissons Ratio (x) = 0.35157 0.40008
# Poissons Ratio (y) = 1.07969 -0.12686
# Poissons Ratio (z) = 0.31987 -0.03303
#
# Static dielectric constant tensor:
#      x y z
#    x 2.019300 0.000000 0.000000 
#    y 0.000000 1.898670 0.000000 
#    z 0.000000 0.000000 1.936250 
# 
# From -- ./inp_files/2123.got.cif
#   From: 2010.05.17/outbox.cif.g08.bks.cpg/sg41_2_cif.got.tgz:2123.got - 2010.06.03 18:54:24.
