data_PCOD9367549
_publ_section_title
;
Structure prediction by ZEFSAII (Michael W. Deem and Ramdas Pophale) SiO2 
 PCOD9367549
Probable space group: A B A 2
;
_chemical_formula_sum "Si O2"
_cell_formula_units_Z 52
_cell_length_a 9.373739
_cell_length_b 11.408962
_cell_length_c 25.420954
_cell_angle_alpha 90.000000
_cell_angle_beta 90.000000
_cell_angle_gamma 90.000000
_cell_volume 2718.634572
_symmetry_space_group_name_H-M "A B A 2"
_symmetry_group_IT_number 41
_symmetry_cell_setting 'orthorhombic'
loop_
_space_group_symop_operation_xyz
x,y,z
-x,-y,z
1/2-x,y,1/2+z
1/2+x,-y,1/2+z
x,1/2+y,1/2+z
-x,1/2-y,1/2+z
1/2-x,1/2+y,z
1/2+x,1/2-y,z
loop_
_atom_site_type_symbol
_atom_site_label
_atom_site_fract_x
_atom_site_fract_y
_atom_site_fract_z
Si Si1 0.501318 0.373392 0.011790
Si Si2 0.861398 0.206345 0.256065
Si Si3 0.500000 0.500000 0.186624
Si Si4 0.500000 0.500000 0.909482
Si Si5 0.732997 0.847641 0.156887
Si Si6 0.000000 0.000000 0.601506
Si Si7 0.075607 0.384632 0.306858
Si Si8 0.291582 0.813921 0.060465
O O1 0.500000 0.500000 0.039360
O O2 0.607788 0.284671 0.037131
O O3 0.342287 0.328338 0.022047
O O4 0.550152 0.403773 0.952214
O O5 0.794074 0.298867 0.214952
O O6 0.729189 0.146483 0.285076
O O7 0.969235 0.276728 0.294345
O O8 0.939604 0.105458 0.222614
O O9 0.632098 0.436905 0.156161
O O10 0.408194 0.425398 0.867753
O O11 0.590886 0.911865 0.136976
O O12 0.751148 0.736375 0.117963
O O13 0.115940 0.930714 0.567191
O O14 0.000000 0.500000 0.281733
#
# Coordination Sequence:
#
# PCOD9367549 Si02
#       8
#     8   8   4   4   8   4   8   8
#     4  10  24  45  68  99 131 176 225 289 336 407
#     4  12  24  43  68  97 140 179 229 271 343 409
#     4  12  26  39  64  99 138 189 223 276 332 404
#     4   8  24  46  72  96 132 168 226 304 344 394
#     4  12  26  42  62 102 142 186 220 274 332 422
#     4  12  26  39  64  99 138 189 223 276 332 404
#     4  10  24  45  68  99 131 176 225 289 336 407
#     4  12  24  43  68  97 140 179 229 271 343 409
#
# _framework density 19.127248999999999
#
# number of rings (size 3 to 8) (size 9 to 14) (size 15 to 20)
#    0.923    0.000    3.077    3.692    6.462    1.231 
#    0.000    0.000    0.000    3.692    0.000    0.000 
#    0.000    0.000    0.000    0.000    0.000    0.000 
#
# Total GULP energy -144927.048907 kJ/mol
# GULP energy per Si atom -5574.117266 kJ/mol
# Density = 1.908371 g / cm^3
# Si number density = 19.127249 Si / 1000 Ang^3
#
#
#
# Elastic Constant Matrix: (Units=GPa)
#
#
# Indices 1 2 3 4 5 6 
#
# 1 91.2241 23.9218 15.5799 0.0000 0.0000 0.0000
# 2 23.9218 72.6950 8.5411 0.0000 0.0000 0.0000
# 3 15.5799 8.5411 78.6736 0.0000 0.0000 0.0000
# 4 0.0000 0.0000 0.0000 43.3658 0.0000 0.0000
# 5 0.0000 0.0000 0.0000 0.0000 23.1691 0.0000
# 6 0.0000 0.0000 0.0000 0.0000 0.0000 46.3362
#
#
#
# Elastic Compliance Matrix: (Units=1/GPa)
#
#
# Indices 1 2 3 4 5 6 
#
# 1 0.012307 -0.003812 -0.002023 0.000000 0.000000 0.000000
# 2 -0.003812 0.015115 -0.000886 0.000000 0.000000 0.000000
# 3 -0.002023 -0.000886 0.013208 0.000000 0.000000 0.000000
# 4 0.000000 0.000000 0.000000 0.023060 0.000000 0.000000
# 5 0.000000 0.000000 0.000000 0.000000 0.043161 0.000000
# 6 0.000000 0.000000 0.000000 0.000000 0.000000 0.021581
#
#
# Mechanical properties :
#
#
# Convention : Reuss Voigt Hill
#
# Bulk Modulus (GPa) = 36.78303 37.63093 37.20698
# Shear Modulus (GPa) = 33.12643 35.54421 34.33532
#
# Velocity S-wave (km/s) = 4.16612 4.31548 4.24146
# Velocity P-wave (km/s) = 6.51264 6.67442 6.59403
#
# Compressibility (1/GPa) = 0.02718645
#
# Stress axis : x y z
#
# Youngs Moduli (GPa) = 81.25281 66.16080 75.71388
#
# Poissons Ratio (x) = 0.25222 0.15320
# Poissons Ratio (y) = 0.30975 0.06708
# Poissons Ratio (z) = 0.16440 0.05862
#
# Static dielectric constant tensor:
#      x y z
#    x 1.594530 0.000000 0.000000 
#    y 0.000000 1.637490 0.000000 
#    z 0.000000 0.000000 1.686980 
# 
# From -- ./inp_files/12443.got.cif
#   From: 2010.05.17/outbox.cif.g08.bks.cpg/sg41_7_cif.got.tgz:12443.got - 2010.06.03 18:54:24.
