data_PCOD9367421
_publ_section_title
;
Structure prediction by ZEFSAII (Michael W. Deem and Ramdas Pophale) SiO2 
 PCOD9367421
Probable space group: A B A 2
;
_chemical_formula_sum "Si O2"
_cell_formula_units_Z 40
_cell_length_a 9.955031
_cell_length_b 10.090725
_cell_length_c 16.924414
_cell_angle_alpha 90.000000
_cell_angle_beta 90.000000
_cell_angle_gamma 90.000000
_cell_volume 1700.116286
_symmetry_space_group_name_H-M "A B A 2"
_symmetry_group_IT_number 41
_symmetry_cell_setting 'orthorhombic'
loop_
_space_group_symop_operation_xyz
x,y,z
-x,-y,z
1/2-x,y,1/2+z
1/2+x,-y,1/2+z
x,1/2+y,1/2+z
-x,1/2-y,1/2+z
1/2-x,1/2+y,z
1/2+x,1/2-y,z
loop_
_atom_site_type_symbol
_atom_site_label
_atom_site_fract_x
_atom_site_fract_y
_atom_site_fract_z
Si Si1 0.263153 0.495324 0.021520
Si Si2 0.484886 0.853727 0.207906
Si Si3 0.935992 0.630101 0.911493
Si Si4 0.771521 0.746554 0.623765
Si Si5 0.860982 0.144937 0.880771
O O1 0.319492 0.391261 0.084895
O O2 0.758744 0.361687 0.058017
O O3 0.124212 0.426602 0.993146
O O4 0.348842 0.480824 0.940307
O O5 0.627056 0.787025 0.192863
O O6 0.373672 0.773794 0.160776
O O7 0.429888 0.871545 0.296434
O O8 0.500000 0.000000 0.173083
O O9 0.797707 0.681219 0.871502
O O10 0.000000 0.500000 0.869786
O O11 0.050776 0.738733 0.919706
#
# Coordination Sequence:
#
# PCOD9367421 Si02
#       5
#     8   8   8   8   8
#     4  10  26  45  81 110 148 210 265 325 380 485
#     4  12  28  51  73 112 163 208 252 333 398 480
#     4  10  23  45  76 112 157 197 273 330 381 460
#     4  12  26  50  78 109 161 201 260 325 408 455
#     4  10  25  45  77 111 155 211 267 320 399 468
#
# _framework density 23.527801
#
# number of rings (size 3 to 8) (size 9 to 14) (size 15 to 20)
#    1.200    0.000    2.000    2.400    5.600    5.600 
#    3.600    0.000    0.000    0.000    0.000    0.000 
#    0.000    0.000    0.000    0.000    0.000    0.000 
#
# Total GULP energy -111705.242489 kJ/mol
# GULP energy per Si atom -5585.262124 kJ/mol
# Density = 2.347425 g / cm^3
# Si number density = 23.527801 Si / 1000 Ang^3
#
#
#
# Elastic Constant Matrix: (Units=GPa)
#
#
# Indices 1 2 3 4 5 6 
#
# 1 168.6835 68.0778 40.3639 0.0000 0.0000 0.0000
# 2 68.0778 75.5032 43.4496 0.0000 0.0000 0.0000
# 3 40.3639 43.4496 103.5791 0.0000 0.0000 0.0000
# 4 0.0000 0.0000 0.0000 6.2076 0.0000 0.0000
# 5 0.0000 0.0000 0.0000 0.0000 40.0670 0.0000
# 6 0.0000 0.0000 0.0000 0.0000 0.0000 43.5317
#
#
#
# Elastic Compliance Matrix: (Units=1/GPa)
#
#
# Indices 1 2 3 4 5 6 
#
# 1 0.009321 -0.008323 -0.000141 0.000000 0.000000 0.000000
# 2 -0.008323 0.024891 -0.007198 0.000000 0.000000 0.000000
# 3 -0.000141 -0.007198 0.012729 0.000000 0.000000 0.000000
# 4 0.000000 0.000000 0.000000 0.161094 0.000000 0.000000
# 5 0.000000 0.000000 0.000000 0.000000 0.024958 0.000000
# 6 0.000000 0.000000 0.000000 0.000000 0.000000 0.022972
#
#
# Mechanical properties :
#
#
# Convention : Reuss Voigt Hill
#
# Bulk Modulus (GPa) = 64.03300 72.39427 68.21363
# Shear Modulus (GPa) = 17.09430 31.01957 24.05693
#
# Velocity S-wave (km/s) = 2.69840 3.63495 3.20111
# Velocity P-wave (km/s) = 6.08140 6.96086 6.53594
#
# Compressibility (1/GPa) = 0.01561695
#
# Stress axis : x y z
#
# Youngs Moduli (GPa) = 107.28302 40.17444 78.56218
#
# Poissons Ratio (x) = 0.33439 0.01107
# Poissons Ratio (y) = 0.89296 0.56549
# Poissons Ratio (z) = 0.01511 0.28917
#
# Static dielectric constant tensor:
#      x y z
#    x 1.908830 0.000000 0.000000 
#    y 0.000000 1.905320 0.000000 
#    z 0.000000 0.000000 1.940140 
# 
# From -- ./inp_files/9547.got.cif
#   From: 2010.05.17/outbox.cif.g08.bks.cpg/sg41_5_cif.got.tgz:9547.got - 2010.06.03 18:54:24.
