data_PCOD9367208
_publ_section_title
;
Structure prediction by ZEFSAII (Michael W. Deem and Ramdas Pophale) SiO2 
 PCOD9367208
Probable space group: A B A 2
;
_chemical_formula_sum "Si O2"
_cell_formula_units_Z 60
_cell_length_a 8.013331
_cell_length_b 24.100563
_cell_length_c 15.790992
_cell_angle_alpha 90.000000
_cell_angle_beta 90.000000
_cell_angle_gamma 90.000000
_cell_volume 3049.647783
_symmetry_space_group_name_H-M "A B A 2"
_symmetry_group_IT_number 41
_symmetry_cell_setting 'orthorhombic'
loop_
_space_group_symop_operation_xyz
x,y,z
-x,-y,z
1/2-x,y,1/2+z
1/2+x,-y,1/2+z
x,1/2+y,1/2+z
-x,1/2-y,1/2+z
1/2-x,1/2+y,z
1/2+x,1/2-y,z
loop_
_atom_site_type_symbol
_atom_site_label
_atom_site_fract_x
_atom_site_fract_y
_atom_site_fract_z
Si Si1 0.500000 0.000000 0.904191
Si Si2 0.135498 0.864837 0.607992
Si Si3 0.225855 0.292396 0.460963
Si Si4 0.850388 0.420942 0.020682
Si Si5 0.673126 0.522730 0.803470
Si Si6 0.634562 0.826078 0.437085
Si Si7 0.308472 0.481424 0.121211
Si Si8 0.877612 0.653261 0.300100
O O1 0.332942 0.000028 0.850672
O O2 0.507067 0.943843 0.958369
O O3 0.161858 0.822030 0.531181
O O4 0.269078 0.916326 0.602871
O O5 0.142570 0.836269 0.700374
O O6 0.951875 0.891685 0.595991
O O7 0.248597 0.226879 0.451603
O O8 0.245727 0.315285 0.364912
O O9 0.037627 0.310457 0.484574
O O10 0.724769 0.379714 0.974141
O O11 0.759083 0.476783 0.050507
O O12 0.500000 0.500000 0.837587
O O13 0.701127 0.507471 0.705607
O O14 0.661879 0.588596 0.810209
O O15 0.560886 0.834732 0.341627
O O16 0.500000 0.500000 0.135783
#
# Coordination Sequence:
#
# PCOD9367208 Si02
#       8
#     4   8   8   8   8   8   8   8
#     4  12  24  38  64 104 128 186 220 272 352 412
#     4  11  21  43  68  95 137 177 226 283 354 413
#     4  10  22  44  65  95 125 176 225 290 341 413
#     4  12  23  38  64  96 131 176 224 276 345 416
#     4  11  22  41  65  96 140 175 224 281 338 413
#     4  10  23  44  66  92 132 174 228 293 346 409
#     4  11  22  39  63  99 137 178 226 276 342 424
#     4   9  23  41  66  95 131 176 221 287 340 405
#
# _framework density 19.674403000000002
#
# number of rings (size 3 to 8) (size 9 to 14) (size 15 to 20)
#    0.800    0.533    2.000    4.800    0.000    0.533 
#    4.800    0.000    2.933    0.000    0.000    0.000 
#    0.000    0.000    0.000    0.000    0.000    0.000 
#
# Total GULP energy -167212.017072 kJ/mol
# GULP energy per Si atom -5573.733902 kJ/mol
# Density = 1.962962 g / cm^3
# Si number density = 19.674403 Si / 1000 Ang^3
#
#
#
# Elastic Constant Matrix: (Units=GPa)
#
#
# Indices 1 2 3 4 5 6 
#
# 1 86.3776 21.3831 23.2297 0.0000 0.0000 0.0000
# 2 21.3831 96.4258 53.6456 0.0000 0.0000 0.0000
# 3 23.2297 53.6456 109.9716 0.0000 0.0000 0.0000
# 4 0.0000 0.0000 0.0000 22.1922 0.0000 0.0000
# 5 0.0000 0.0000 0.0000 0.0000 10.3178 0.0000
# 6 0.0000 0.0000 0.0000 0.0000 0.0000 31.7005
#
#
#
# Elastic Compliance Matrix: (Units=1/GPa)
#
#
# Indices 1 2 3 4 5 6 
#
# 1 0.012495 -0.001788 -0.001767 0.000000 0.000000 0.000000
# 2 -0.001788 0.014489 -0.006690 0.000000 0.000000 0.000000
# 3 -0.001767 -0.006690 0.012730 0.000000 0.000000 0.000000
# 4 0.000000 0.000000 0.000000 0.045061 0.000000 0.000000
# 5 0.000000 0.000000 0.000000 0.000000 0.096919 0.000000
# 6 0.000000 0.000000 0.000000 0.000000 0.000000 0.031545
#
#
# Mechanical properties :
#
#
# Convention : Reuss Voigt Hill
#
# Bulk Modulus (GPa) = 52.01922 54.36576 53.19249
# Shear Modulus (GPa) = 20.82131 25.80988 23.31559
#
# Velocity S-wave (km/s) = 3.25667 3.62588 3.44622
# Velocity P-wave (km/s) = 6.37485 6.72473 6.55213
#
# Compressibility (1/GPa) = 0.01922366
#
# Stress axis : x y z
#
# Youngs Moduli (GPa) = 80.03274 69.01667 78.55291
#
# Poissons Ratio (x) = 0.12337 0.13883
# Poissons Ratio (y) = 0.14307 0.52555
# Poissons Ratio (z) = 0.14144 0.46175
#
# Static dielectric constant tensor:
#      x y z
#    x 1.770420 0.000000 0.000000 
#    y 0.000000 1.664560 0.000000 
#    z 0.000000 0.000000 1.731910 
# 
# From -- ./inp_files/7552.got.cif
#   From: 2010.05.17/outbox.cif.g08.bks.cpg/sg41_4_cif.got.tgz:7552.got - 2010.06.03 18:54:24.
