data_PCOD9367551
_publ_section_title
;
Structure prediction by ZEFSAII (Michael W. Deem and Ramdas Pophale) SiO2 
 PCOD9367551
Probable space group: A B A 2
;
_chemical_formula_sum "Si O2"
_cell_formula_units_Z 32
_cell_length_a 18.786079
_cell_length_b 7.691436
_cell_length_c 7.700739
_cell_angle_alpha 90.000000
_cell_angle_beta 90.000000
_cell_angle_gamma 90.000000
_cell_volume 1112.694597
_symmetry_space_group_name_H-M "A B A 2"
_symmetry_group_IT_number 41
_symmetry_cell_setting 'orthorhombic'
loop_
_space_group_symop_operation_xyz
x,y,z
-x,-y,z
1/2-x,y,1/2+z
1/2+x,-y,1/2+z
x,1/2+y,1/2+z
-x,1/2-y,1/2+z
1/2-x,1/2+y,z
1/2+x,1/2-y,z
loop_
_atom_site_type_symbol
_atom_site_label
_atom_site_fract_x
_atom_site_fract_y
_atom_site_fract_z
Si Si1 0.966851 0.220428 0.759180
Si Si2 0.712205 0.222610 0.066405
Si Si3 0.588531 0.093707 0.886168
Si Si4 0.656807 0.592759 0.938015
O O1 0.946175 0.137813 0.575149
O O2 0.932988 0.410936 0.801399
O O3 0.927351 0.109305 0.908846
O O4 0.050760 0.255578 0.773501
O O5 0.672006 0.104747 0.921998
O O6 0.680486 0.409782 0.016968
O O7 0.797209 0.225116 0.054619
O O8 0.687437 0.142990 0.248287
#
# Coordination Sequence:
#
# PCOD9367551 Si02
#       4
#     8   8   8   8
#     4  10  24  45  70 101 137 178 225 277 335 399
#     4  11  24  42  67  99 135 176 224 276 334 398
#     4  10  24  45  70 101 137 178 225 277 335 399
#     4  11  24  42  67  99 135 176 224 276 334 398
#
# _framework density 28.759014000000001
#
# number of rings (size 3 to 8) (size 9 to 14) (size 15 to 20)
#    0.000    1.500    0.000    3.000    0.000   23.000 
#    0.000    0.000    0.000    0.000    0.000    0.000 
#    0.000    0.000    0.000    0.000    0.000    0.000 
#
# Total GULP energy -89576.662157 kJ/mol
# GULP energy per Si atom -5598.541385 kJ/mol
# Density = 2.869356 g / cm^3
# Si number density = 28.759014 Si / 1000 Ang^3
#
#
#
# Elastic Constant Matrix: (Units=GPa)
#
#
# Indices 1 2 3 4 5 6 
#
# 1 115.0104 15.7796 38.0030 0.0000 0.0000 0.0000
# 2 15.7796 188.7315 37.7649 0.0000 0.0000 0.0000
# 3 38.0030 37.7649 195.3626 0.0000 0.0000 0.0000
# 4 0.0000 0.0000 0.0000 40.7738 0.0000 0.0000
# 5 0.0000 0.0000 0.0000 0.0000 56.7490 0.0000
# 6 0.0000 0.0000 0.0000 0.0000 0.0000 45.0956
#
#
#
# Elastic Compliance Matrix: (Units=1/GPa)
#
#
# Indices 1 2 3 4 5 6 
#
# 1 0.009326 -0.000433 -0.001730 0.000000 0.000000 0.000000
# 2 -0.000433 0.005532 -0.000985 0.000000 0.000000 0.000000
# 3 -0.001730 -0.000985 0.005646 0.000000 0.000000 0.000000
# 4 0.000000 0.000000 0.000000 0.024526 0.000000 0.000000
# 5 0.000000 0.000000 0.000000 0.000000 0.017621 0.000000
# 6 0.000000 0.000000 0.000000 0.000000 0.000000 0.022175
#
#
# Mechanical properties :
#
#
# Convention : Reuss Voigt Hill
#
# Bulk Modulus (GPa) = 70.39324 75.79993 73.09658
# Shear Modulus (GPa) = 52.16002 55.69416 53.92709
#
# Velocity S-wave (km/s) = 4.26337 4.40543 4.33498
# Velocity P-wave (km/s) = 6.98320 7.23127 7.10832
#
# Compressibility (1/GPa) = 0.01420591
#
# Stress axis : x y z
#
# Youngs Moduli (GPa) = 107.22586 180.77039 177.12596
#
# Poissons Ratio (x) = 0.07836 0.30649
# Poissons Ratio (y) = 0.04648 0.17447
# Poissons Ratio (z) = 0.18554 0.17806
#
# Static dielectric constant tensor:
#      x y z
#    x 2.347710 0.000000 0.000000 
#    y 0.000000 2.287320 0.000000 
#    z 0.000000 0.000000 2.267560 
# 
# From -- ./inp_files/3282.got.cif
#   From: 2010.05.17/outbox.cif.g08.bks.cpg/sg41_2_cif.got.tgz:3282.got - 2010.06.03 18:54:24.
