data_PCOD9367301
_publ_section_title
;
Structure prediction by ZEFSAII (Michael W. Deem and Ramdas Pophale) SiO2 
 PCOD9367301
Probable space group: A B A 2
;
_chemical_formula_sum "Si O2"
_cell_formula_units_Z 56
_cell_length_a 11.985585
_cell_length_b 19.641988
_cell_length_c 12.010807
_cell_angle_alpha 90.000000
_cell_angle_beta 90.000000
_cell_angle_gamma 90.000000
_cell_volume 2827.592793
_symmetry_space_group_name_H-M "A B A 2"
_symmetry_group_IT_number 41
_symmetry_cell_setting 'orthorhombic'
loop_
_space_group_symop_operation_xyz
x,y,z
-x,-y,z
1/2-x,y,1/2+z
1/2+x,-y,1/2+z
x,1/2+y,1/2+z
-x,1/2-y,1/2+z
1/2-x,1/2+y,z
1/2+x,1/2-y,z
loop_
_atom_site_type_symbol
_atom_site_label
_atom_site_fract_x
_atom_site_fract_y
_atom_site_fract_z
Si Si1 0.944255 0.564530 0.796000
Si Si2 0.908266 0.328420 0.689883
Si Si3 0.659890 0.838547 0.093742
Si Si4 0.401106 0.810246 0.506530
Si Si5 0.755085 0.596889 0.138985
Si Si6 0.617587 0.487787 0.526613
Si Si7 0.046860 0.324880 0.253435
O O1 0.836380 0.592693 0.735028
O O2 0.000000 0.500000 0.734381
O O3 0.039958 0.621828 0.784314
O O4 0.902838 0.532020 0.913304
O O5 0.785172 0.342363 0.642457
O O6 0.911710 0.251735 0.732768
O O7 0.998323 0.328662 0.590039
O O8 0.633275 0.769156 0.024859
O O9 0.636782 0.907157 0.023231
O O10 0.574071 0.835224 0.198218
O O11 0.294386 0.854143 0.544312
O O12 0.442337 0.831782 0.385247
O O13 0.781587 0.523081 0.090264
O O14 0.867800 0.627093 0.188418
O O15 0.500000 0.500000 0.589034
#
# Coordination Sequence:
#
# PCOD9367301 Si02
#       7
#     8   8   8   8   8   8   8
#     4  10  23  40  66  93 123 177 218 270 337 402
#     4  10  23  43  64  98 131 170 231 278 324 416
#     4  11  23  45  66 101 134 171 232 286 328 421
#     4  10  24  42  67  98 135 176 222 283 348 397
#     4  11  21  45  64  93 136 171 222 275 341 408
#     4  11  23  40  65  94 132 170 218 277 337 407
#     4  11  23  40  67  97 133 176 217 282 346 394
#
# _framework density 19.804832000000001
#
# number of rings (size 3 to 8) (size 9 to 14) (size 15 to 20)
#    0.000    1.429    2.857    1.714    4.000    1.143 
#    2.571    0.000    6.286    0.000    0.000    0.000 
#    0.000    0.000    0.000    0.000    0.000    0.000 
#
# Total GULP energy -156122.265444 kJ/mol
# GULP energy per Si atom -5575.795194 kJ/mol
# Density = 1.975976 g / cm^3
# Si number density = 19.804832 Si / 1000 Ang^3
#
#
#
# Elastic Constant Matrix: (Units=GPa)
#
#
# Indices 1 2 3 4 5 6 
#
# 1 119.2196 37.5175 24.7769 0.0000 0.0000 0.0000
# 2 37.5175 120.8237 26.1074 0.0000 0.0000 0.0000
# 3 24.7769 26.1074 95.3004 0.0000 0.0000 0.0000
# 4 0.0000 0.0000 0.0000 19.6355 0.0000 0.0000
# 5 0.0000 0.0000 0.0000 0.0000 11.6538 0.0000
# 6 0.0000 0.0000 0.0000 0.0000 0.0000 31.0980
#
#
#
# Elastic Compliance Matrix: (Units=1/GPa)
#
#
# Indices 1 2 3 4 5 6 
#
# 1 0.009572 -0.002588 -0.001780 0.000000 0.000000 0.000000
# 2 -0.002588 0.009497 -0.001929 0.000000 0.000000 0.000000
# 3 -0.001780 -0.001929 0.011484 0.000000 0.000000 0.000000
# 4 0.000000 0.000000 0.000000 0.050928 0.000000 0.000000
# 5 0.000000 0.000000 0.000000 0.000000 0.085809 0.000000
# 6 0.000000 0.000000 0.000000 0.000000 0.000000 0.032156
#
#
# Mechanical properties :
#
#
# Convention : Reuss Voigt Hill
#
# Bulk Modulus (GPa) = 55.67753 56.90524 56.29139
# Shear Modulus (GPa) = 22.93307 28.94028 25.93668
#
# Velocity S-wave (km/s) = 3.40656 3.82681 3.62278
# Velocity P-wave (km/s) = 6.60659 6.95135 6.78116
#
# Compressibility (1/GPa) = 0.01796057
#
# Stress axis : x y z
#
# Youngs Moduli (GPa) = 104.47042 105.29836 87.07578
#
# Poissons Ratio (x) = 0.27248 0.15497
# Poissons Ratio (y) = 0.27034 0.16796
# Poissons Ratio (z) = 0.18593 0.20311
#
# Static dielectric constant tensor:
#      x y z
#    x 1.662180 0.000000 0.000000 
#    y 0.000000 1.713750 0.000000 
#    z 0.000000 0.000000 1.725180 
# 
# From -- ./inp_files/5067.got.cif
#   From: 2010.05.17/outbox.cif.g08.bks.cpg/sg41_3_cif.got.tgz:5067.got - 2010.06.03 18:54:24.
