data_PCOD9367045
_publ_section_title
;
Structure prediction by ZEFSAII (Michael W. Deem and Ramdas Pophale) SiO2 
 PCOD9367045
Probable space group: A B A 2
;
_chemical_formula_sum "Si O2"
_cell_formula_units_Z 36
_cell_length_a 21.721504
_cell_length_b 13.954118
_cell_length_c 4.794551
_cell_angle_alpha 90.000000
_cell_angle_beta 90.000000
_cell_angle_gamma 90.000000
_cell_volume 1453.249648
_symmetry_space_group_name_H-M "A B A 2"
_symmetry_group_IT_number 41
_symmetry_cell_setting 'orthorhombic'
loop_
_space_group_symop_operation_xyz
x,y,z
-x,-y,z
1/2-x,y,1/2+z
1/2+x,-y,1/2+z
x,1/2+y,1/2+z
-x,1/2-y,1/2+z
1/2-x,1/2+y,z
1/2+x,1/2-y,z
loop_
_atom_site_type_symbol
_atom_site_label
_atom_site_fract_x
_atom_site_fract_y
_atom_site_fract_z
Si Si1 0.293679 0.783972 0.475310
Si Si2 0.881999 0.595525 0.846439
Si Si3 0.707297 0.934311 0.957755
Si Si4 0.500000 0.500000 0.403546
Si Si5 0.481948 0.808996 0.177450
O O1 0.231754 0.796523 0.664319
O O2 0.343176 0.853926 0.607870
O O3 0.315512 0.673824 0.505772
O O4 0.840806 0.517796 0.007061
O O5 0.913525 0.671677 0.057225
O O6 0.940379 0.533862 0.735333
O O7 0.731687 0.944351 0.643701
O O8 0.514963 0.408426 0.597599
O O9 0.488195 0.775482 0.492072
#
# Coordination Sequence:
#
# PCOD9367045 Si02
#       5
#     8   8   8   4   8
#     4  10  22  40  63  94 126 167 216 269 330 386
#     4  10  22  41  68  92 131 173 215 272 324 395
#     4  10  22  41  64  96 127 165 217 270 323 386
#     4   8  24  44  64 102 124 180 220 270 330 392
#     4  10  24  44  63  94 132 170 220 267 322 392
#
# _framework density 24.772071
#
# number of rings (size 3 to 8) (size 9 to 14) (size 15 to 20)
#    1.333    0.889    0.000    1.333    3.111    4.444 
#    8.000    0.000    0.000    0.000    0.000    0.000 
#    0.000    0.000    0.000    0.000    0.000    0.000 
#
# Total GULP energy -100690.220974 kJ/mol
# GULP energy per Si atom -5593.901165 kJ/mol
# Density = 2.471569 g / cm^3
# Si number density = 24.772071 Si / 1000 Ang^3
#
#
#
# Elastic Constant Matrix: (Units=GPa)
#
#
# Indices 1 2 3 4 5 6 
#
# 1 84.3402 67.2276 2.1875 0.0000 0.0000 0.0000
# 2 67.2276 160.1174 18.9988 0.0000 0.0000 0.0000
# 3 2.1875 18.9988 68.6784 0.0000 0.0000 0.0000
# 4 0.0000 0.0000 0.0000 14.4671 0.0000 0.0000
# 5 0.0000 0.0000 0.0000 0.0000 13.0228 0.0000
# 6 0.0000 0.0000 0.0000 0.0000 0.0000 60.0088
#
#
#
# Elastic Compliance Matrix: (Units=1/GPa)
#
#
# Indices 1 2 3 4 5 6 
#
# 1 0.017983 -0.007736 0.001567 0.000000 0.000000 0.000000
# 2 -0.007736 0.009786 -0.002461 0.000000 0.000000 0.000000
# 3 0.001567 -0.002461 0.015191 0.000000 0.000000 0.000000
# 4 0.000000 0.000000 0.000000 0.069122 0.000000 0.000000
# 5 0.000000 0.000000 0.000000 0.000000 0.076789 0.000000
# 6 0.000000 0.000000 0.000000 0.000000 0.000000 0.016664
#
#
# Mechanical properties :
#
#
# Convention : Reuss Voigt Hill
#
# Bulk Modulus (GPa) = 38.90964 54.44040 46.67502
# Shear Modulus (GPa) = 21.61126 32.48120 27.04623
#
# Velocity S-wave (km/s) = 2.95685 3.62498 3.30783
# Velocity P-wave (km/s) = 5.23435 6.28847 5.78547
#
# Compressibility (1/GPa) = 0.02570058
#
# Stress axis : x y z
#
# Youngs Moduli (GPa) = 55.60911 102.19140 65.82677
#
# Poissons Ratio (x) = 0.79058 -0.10317
# Poissons Ratio (y) = 0.43021 0.16197
# Poissons Ratio (z) = -0.08716 0.25145
#
# Static dielectric constant tensor:
#      x y z
#    x 2.008870 0.000000 0.000000 
#    y 0.000000 1.939520 0.000000 
#    z 0.000000 0.000000 1.919430 
# 
# From -- ./inp_files/623.got.cif
#   From: 2010.05.17/outbox.cif.g08.bks.cpg/sg41_1_cif.got.tgz:623.got - 2010.06.03 18:54:24.
