data_PCOD9367861
_publ_section_title
;
Structure prediction by ZEFSAII (Michael W. Deem and Ramdas Pophale) SiO2 
 PCOD9367861
Probable space group: A B A 2
;
_chemical_formula_sum "Si O2"
_cell_formula_units_Z 40
_cell_length_a 9.208422
_cell_length_b 9.526375
_cell_length_c 19.596412
_cell_angle_alpha 90.000000
_cell_angle_beta 90.000000
_cell_angle_gamma 90.000000
_cell_volume 1719.053720
_symmetry_space_group_name_H-M "A B A 2"
_symmetry_group_IT_number 41
_symmetry_cell_setting 'orthorhombic'
loop_
_space_group_symop_operation_xyz
x,y,z
-x,-y,z
1/2-x,y,1/2+z
1/2+x,-y,1/2+z
x,1/2+y,1/2+z
-x,1/2-y,1/2+z
1/2-x,1/2+y,z
1/2+x,1/2-y,z
loop_
_atom_site_type_symbol
_atom_site_label
_atom_site_fract_x
_atom_site_fract_y
_atom_site_fract_z
Si Si1 0.450296 0.664065 0.794270
Si Si2 0.325963 0.179046 0.706337
Si Si3 0.334136 0.454130 0.626744
Si Si4 0.939767 0.844620 0.949822
Si Si5 0.116469 0.100340 0.484699
O O1 0.500000 0.500000 0.789061
O O2 0.529443 0.770209 0.742927
O O3 0.286124 0.678576 0.769525
O O4 0.478398 0.701430 0.872779
O O5 0.307609 0.293638 0.645828
O O6 0.289371 0.034692 0.669297
O O7 0.500000 0.500000 0.647657
O O8 0.332401 0.507797 0.549365
O O9 0.765851 0.849266 0.952199
O O10 0.020105 0.737765 0.000612
O O11 0.000000 0.000000 0.961355
O O12 0.000000 0.000000 0.446369
#
# Coordination Sequence:
#
# PCOD9367861 Si02
#       5
#     8   8   8   8   8
#     4  11  24  45  67 104 142 177 237 291 347 434
#     4  12  21  46  68  97 141 180 223 299 352 413
#     4  11  26  44  68 102 144 177 238 294 351 435
#     4  11  25  46  74 101 144 194 238 298 362 431
#     4  11  26  47  69 108 141 186 246 298 358 433
#
# _framework density 23.268616000000002
#
# number of rings (size 3 to 8) (size 9 to 14) (size 15 to 20)
#    0.000    0.800    4.000    2.400    8.400    2.400 
#    3.600    0.000    0.000    0.000    0.000    0.000 
#    0.000    0.000    0.000    0.000    0.000    0.000 
#
# Total GULP energy -111628.709350 kJ/mol
# GULP energy per Si atom -5581.435468 kJ/mol
# Density = 2.321566 g / cm^3
# Si number density = 23.268616 Si / 1000 Ang^3
#
#
#
# Elastic Constant Matrix: (Units=GPa)
#
#
# Indices 1 2 3 4 5 6 
#
# 1 95.0059 26.4492 -4.6846 0.0000 0.0000 0.0000
# 2 26.4492 78.4694 5.3148 0.0000 0.0000 0.0000
# 3 -4.6846 5.3148 68.3815 0.0000 0.0000 0.0000
# 4 0.0000 0.0000 0.0000 37.4104 0.0000 0.0000
# 5 0.0000 0.0000 0.0000 0.0000 34.9854 0.0000
# 6 0.0000 0.0000 0.0000 0.0000 0.0000 37.1163
#
#
#
# Elastic Compliance Matrix: (Units=1/GPa)
#
#
# Indices 1 2 3 4 5 6 
#
# 1 0.011699 -0.004019 0.001114 0.000000 0.000000 0.000000
# 2 -0.004019 0.014192 -0.001378 0.000000 0.000000 0.000000
# 3 0.001114 -0.001378 0.014807 0.000000 0.000000 0.000000
# 4 0.000000 0.000000 0.000000 0.026731 0.000000 0.000000
# 5 0.000000 0.000000 0.000000 0.000000 0.028583 0.000000
# 6 0.000000 0.000000 0.000000 0.000000 0.000000 0.026942
#
#
# Mechanical properties :
#
#
# Convention : Reuss Voigt Hill
#
# Bulk Modulus (GPa) = 31.12193 32.89065 32.00629
# Shear Modulus (GPa) = 35.15382 36.22092 35.68737
#
# Velocity S-wave (km/s) = 3.89110 3.94971 3.92051
# Velocity P-wave (km/s) = 5.79583 5.91322 5.85482
#
# Compressibility (1/GPa) = 0.03213168
#
# Stress axis : x y z
#
# Youngs Moduli (GPa) = 85.47431 70.46324 67.53442
#
# Poissons Ratio (x) = 0.28318 -0.07522
# Poissons Ratio (y) = 0.34351 0.09309
# Poissons Ratio (z) = -0.09521 0.09712
#
# Static dielectric constant tensor:
#      x y z
#    x 1.853410 0.000000 0.000000 
#    y 0.000000 1.835590 0.000000 
#    z 0.000000 0.000000 1.899300 
# 
# From -- ./inp_files/11916.got.cif
#   From: 2010.05.17/outbox.cif.g08.bks.cpg/sg41_6_cif.got.tgz:11916.got - 2010.06.03 18:54:24.
