data_PCOD9367138
_publ_section_title
;
Structure prediction by ZEFSAII (Michael W. Deem and Ramdas Pophale) SiO2 
 PCOD9367138
Probable space group: A B A 2
;
_chemical_formula_sum "Si O2"
_cell_formula_units_Z 40
_cell_length_a 10.893032
_cell_length_b 15.748885
_cell_length_c 9.578146
_cell_angle_alpha 90.000000
_cell_angle_beta 90.000000
_cell_angle_gamma 90.000000
_cell_volume 1643.160718
_symmetry_space_group_name_H-M "A B A 2"
_symmetry_group_IT_number 41
_symmetry_cell_setting 'orthorhombic'
loop_
_space_group_symop_operation_xyz
x,y,z
-x,-y,z
1/2-x,y,1/2+z
1/2+x,-y,1/2+z
x,1/2+y,1/2+z
-x,1/2-y,1/2+z
1/2-x,1/2+y,z
1/2+x,1/2-y,z
loop_
_atom_site_type_symbol
_atom_site_label
_atom_site_fract_x
_atom_site_fract_y
_atom_site_fract_z
Si Si1 0.662043 0.111755 0.798120
Si Si2 0.095956 0.713409 0.161643
Si Si3 0.000000 0.500000 0.964259
Si Si4 0.803834 0.958992 0.695846
Si Si5 0.000000 0.000000 0.932701
Si Si6 0.583094 0.173737 0.415276
O O1 0.639564 0.195877 0.713165
O O2 0.541969 0.080850 0.878236
O O3 0.776831 0.143152 0.893827
O O4 0.696044 0.026390 0.710678
O O5 0.202286 0.642675 0.184578
O O6 0.983376 0.682870 0.262149
O O7 0.067895 0.739332 0.001772
O O8 0.115561 0.519392 0.061159
O O9 0.884657 0.982725 0.830920
O O10 0.981335 0.093644 0.994503
#
# Coordination Sequence:
#
# PCOD9367138 Si02
#       6
#     8   8   4   8   4   8
#     4  11  24  42  66 101 139 182 232 289 348 415
#     4  11  23  40  67  97 134 182 230 285 349 417
#     4  11  22  43  70  96 132 184 234 280 344 422
#     4   9  20  40  63  94 137 179 223 286 349 406
#     4   7  16  37  62  86 130 180 222 280 350 408
#     4  10  22  42  66  98 135 180 233 291 349 414
#
# _framework density 24.343328
#
# number of rings (size 3 to 8) (size 9 to 14) (size 15 to 20)
#    0.000    2.000    0.000    3.600    0.000    5.600 
#    0.000    8.000    0.000    0.000    0.000    0.000 
#    0.000    0.000    0.000    0.000    0.000    0.000 
#
# Total GULP energy -111563.110545 kJ/mol
# GULP energy per Si atom -5578.155527 kJ/mol
# Density = 2.428792 g / cm^3
# Si number density = 24.343328 Si / 1000 Ang^3
#
#
#
# Elastic Constant Matrix: (Units=GPa)
#
#
# Indices 1 2 3 4 5 6 
#
# 1 42.5661 33.0018 18.5915 0.0000 0.0000 0.0000
# 2 33.0018 223.9212 50.4294 0.0000 0.0000 0.0000
# 3 18.5915 50.4294 57.9690 0.0000 0.0000 0.0000
# 4 0.0000 0.0000 0.0000 19.2082 0.0000 0.0000
# 5 0.0000 0.0000 0.0000 0.0000 10.4999 0.0000
# 6 0.0000 0.0000 0.0000 0.0000 0.0000 46.2532
#
#
#
# Elastic Compliance Matrix: (Units=1/GPa)
#
#
# Indices 1 2 3 4 5 6 
#
# 1 0.028546 -0.002668 -0.006834 0.000000 0.000000 0.000000
# 2 -0.002668 0.005803 -0.004193 0.000000 0.000000 0.000000
# 3 -0.006834 -0.004193 0.023090 0.000000 0.000000 0.000000
# 4 0.000000 0.000000 0.000000 0.052061 0.000000 0.000000
# 5 0.000000 0.000000 0.000000 0.000000 0.095239 0.000000
# 6 0.000000 0.000000 0.000000 0.000000 0.000000 0.021620
#
#
# Mechanical properties :
#
#
# Convention : Reuss Voigt Hill
#
# Bulk Modulus (GPa) = 33.27851 58.72243 46.00047
# Shear Modulus (GPa) = 18.95617 30.02116 24.48866
#
# Velocity S-wave (km/s) = 2.79355 3.51556 3.17514
# Velocity P-wave (km/s) = 4.90972 6.37604 5.69031
#
# Compressibility (1/GPa) = 0.03004942
#
# Stress axis : x y z
#
# Youngs Moduli (GPa) = 35.03071 172.31397 43.30891
#
# Poissons Ratio (x) = 0.45975 0.29598
# Poissons Ratio (y) = 0.09346 0.18159
# Poissons Ratio (z) = 0.23941 0.72249
#
# Static dielectric constant tensor:
#      x y z
#    x 1.972110 0.000000 0.000000 
#    y 0.000000 2.019010 0.000000 
#    z 0.000000 0.000000 2.073690 
# 
# From -- ./inp_files/4898.got.cif
#   From: 2010.05.17/outbox.cif.g08.bks.cpg/sg41_3_cif.got.tgz:4898.got - 2010.06.03 18:54:24.
