data_PCOD9367808
_publ_section_title
;
Structure prediction by ZEFSAII (Michael W. Deem and Ramdas Pophale) SiO2 
 PCOD9367808
Probable space group: A B A 2
;
_chemical_formula_sum "Si O2"
_cell_formula_units_Z 64
_cell_length_a 18.135545
_cell_length_b 15.830201
_cell_length_c 11.330275
_cell_angle_alpha 90.000000
_cell_angle_beta 90.000000
_cell_angle_gamma 90.000000
_cell_volume 3252.800975
_symmetry_space_group_name_H-M "A B A 2"
_symmetry_group_IT_number 41
_symmetry_cell_setting 'orthorhombic'
loop_
_space_group_symop_operation_xyz
x,y,z
-x,-y,z
1/2-x,y,1/2+z
1/2+x,-y,1/2+z
x,1/2+y,1/2+z
-x,1/2-y,1/2+z
1/2-x,1/2+y,z
1/2+x,1/2-y,z
loop_
_atom_site_type_symbol
_atom_site_label
_atom_site_fract_x
_atom_site_fract_y
_atom_site_fract_z
Si Si1 0.830328 0.152427 0.548240
Si Si2 0.846409 0.830080 0.404845
Si Si3 0.667245 0.681604 0.091854
Si Si4 0.520192 0.594099 0.035881
Si Si5 0.420009 0.520817 0.550341
Si Si6 0.959549 0.375799 0.284702
Si Si7 0.936861 0.270477 0.689033
Si Si8 0.816310 0.782018 0.834878
O O1 0.745205 0.136076 0.575891
O O2 0.869310 0.214628 0.641134
O O3 0.829387 0.206448 0.427822
O O4 0.876017 0.066610 0.550894
O O5 0.849281 0.747169 0.486680
O O6 0.871410 0.910156 0.481551
O O7 0.905633 0.819705 0.301234
O O8 0.762426 0.827073 0.356561
O O9 0.600173 0.617212 0.086433
O O10 0.676692 0.738640 0.207609
O O11 0.500000 0.500000 0.073087
O O12 0.466869 0.664885 0.091816
O O13 0.512550 0.597541 0.892986
O O14 0.500000 0.500000 0.494426
O O15 0.439447 0.559233 0.679905
O O16 0.882491 0.348394 0.342772
O O17 0.998456 0.294542 0.224659
#
# Coordination Sequence:
#
# PCOD9367808 Si02
#       8
#     8   8   8   8   8   8   8   8
#     4  11  26  45  69 103 136 184 236 282 350 427
#     4  11  25  43  72 101 140 185 235 286 351 419
#     4  11  23  48  70  99 143 186 232 286 358 420
#     4  12  27  43  69 107 139 180 235 300 349 416
#     4  12  26  44  70 105 138 180 233 294 348 414
#     4  12  24  45  74  99 139 185 235 284 352 429
#     4  12  23  43  71  98 133 187 231 279 345 426
#     4  11  23  44  74  97 133 190 233 283 348 423
#
# _framework density 19.675350999999999
#
# number of rings (size 3 to 8) (size 9 to 14) (size 15 to 20)
#    0.000    0.500    7.500    0.375    1.750    2.500 
#    4.500    0.000    0.000    0.000    0.000    0.000 
#    0.000    0.000    0.000    0.000    0.000    0.000 
#
# Total GULP energy -178784.043842 kJ/mol
# GULP energy per Si atom -5587.001370 kJ/mol
# Density = 1.963057 g / cm^3
# Si number density = 19.675351 Si / 1000 Ang^3
#
#
#
# Elastic Constant Matrix: (Units=GPa)
#
#
# Indices 1 2 3 4 5 6 
#
# 1 129.3173 58.4035 33.3146 0.0000 0.0000 0.0000
# 2 58.4035 105.4183 19.5523 0.0000 0.0000 0.0000
# 3 33.3146 19.5523 77.5677 0.0000 0.0000 0.0000
# 4 0.0000 0.0000 0.0000 13.0360 0.0000 0.0000
# 5 0.0000 0.0000 0.0000 0.0000 25.7453 0.0000
# 6 0.0000 0.0000 0.0000 0.0000 0.0000 35.0033
#
#
#
# Elastic Compliance Matrix: (Units=1/GPa)
#
#
# Indices 1 2 3 4 5 6 
#
# 1 0.011096 -0.005521 -0.003374 0.000000 0.000000 0.000000
# 2 -0.005521 0.012699 -0.000830 0.000000 0.000000 0.000000
# 3 -0.003374 -0.000830 0.014550 0.000000 0.000000 0.000000
# 4 0.000000 0.000000 0.000000 0.076711 0.000000 0.000000
# 5 0.000000 0.000000 0.000000 0.000000 0.038842 0.000000
# 6 0.000000 0.000000 0.000000 0.000000 0.000000 0.028569
#
#
# Mechanical properties :
#
#
# Convention : Reuss Voigt Hill
#
# Bulk Modulus (GPa) = 52.92366 59.42712 56.17539
# Shear Modulus (GPa) = 24.01375 28.15911 26.08643
#
# Velocity S-wave (km/s) = 3.49735 3.78721 3.64516
# Velocity P-wave (km/s) = 6.57765 7.02804 6.80657
#
# Compressibility (1/GPa) = 0.01889514
#
# Stress axis : x y z
#
# Youngs Moduli (GPa) = 90.12492 78.74721 68.72825
#
# Poissons Ratio (x) = 0.43480 0.23187
# Poissons Ratio (y) = 0.49762 0.05701
# Poissons Ratio (z) = 0.30406 0.06533
#
# Static dielectric constant tensor:
#      x y z
#    x 1.683470 0.000000 0.000000 
#    y 0.000000 1.647920 0.000000 
#    z 0.000000 0.000000 1.717530 
# 
# From -- ./inp_files/6039.got.cif
#   From: 2010.05.17/outbox.cif.g08.bks.cpg/sg41_4_cif.got.tgz:6039.got - 2010.06.03 18:54:24.
