data_PCOD9367952
_publ_section_title
;
Structure prediction by ZEFSAII (Michael W. Deem and Ramdas Pophale) SiO2 
 PCOD9367952
Probable space group: A B A 2
;
_chemical_formula_sum "Si O2"
_cell_formula_units_Z 48
_cell_length_a 22.117699
_cell_length_b 10.002847
_cell_length_c 9.619290
_cell_angle_alpha 90.000000
_cell_angle_beta 90.000000
_cell_angle_gamma 90.000000
_cell_volume 2128.171326
_symmetry_space_group_name_H-M "A B A 2"
_symmetry_group_IT_number 41
_symmetry_cell_setting 'orthorhombic'
loop_
_space_group_symop_operation_xyz
x,y,z
-x,-y,z
1/2-x,y,1/2+z
1/2+x,-y,1/2+z
x,1/2+y,1/2+z
-x,1/2-y,1/2+z
1/2-x,1/2+y,z
1/2+x,1/2-y,z
loop_
_atom_site_type_symbol
_atom_site_label
_atom_site_fract_x
_atom_site_fract_y
_atom_site_fract_z
Si Si1 0.303170 0.948675 0.969260
Si Si2 0.934954 0.751475 0.453047
Si Si3 0.500000 0.000000 0.855518
Si Si4 0.000000 0.500000 0.343554
Si Si5 0.382413 0.600694 0.685682
Si Si6 0.689587 0.861601 0.465715
Si Si7 0.379705 0.069414 0.733484
O O1 0.291033 0.792206 0.981907
O O2 0.328295 0.990371 0.817674
O O3 0.244684 0.038891 0.993558
O O4 0.355097 0.992515 0.078479
O O5 0.894737 0.770579 0.589037
O O6 0.985317 0.870124 0.447234
O O7 0.968623 0.614587 0.433360
O O8 0.893434 0.792877 0.320160
O O9 0.441183 0.987732 0.759874
O O10 0.053663 0.559713 0.250426
O O11 0.336571 0.621090 0.811490
O O12 0.638324 0.897010 0.578390
#
# Coordination Sequence:
#
# PCOD9367952 Si02
#       7
#     8   8   4   4   8   8   8
#     4  11  27  49  73 102 150 191 247 309 365 426
#     4   9  22  45  71 106 147 191 230 294 366 433
#     4   8  19  45  78 100 149 191 220 296 371 427
#     4  12  25  41  74 116 143 185 248 292 373 451
#     4  11  27  45  75 107 149 191 243 306 365 440
#     4  12  27  47  75 107 141 196 252 305 362 437
#     4   9  22  44  77 100 146 194 237 295 371 428
#
# _framework density 22.554575
#
# number of rings (size 3 to 8) (size 9 to 14) (size 15 to 20)
#    1.000    0.667    0.000    2.500    2.333   11.333 
#    0.000    1.667    0.000    1.000    0.000    0.000 
#    0.000    0.000    0.000    0.000    0.000    0.000 
#
# Total GULP energy -134230.673685 kJ/mol
# GULP energy per Si atom -5592.944737 kJ/mol
# Density = 2.250324 g / cm^3
# Si number density = 22.554575 Si / 1000 Ang^3
#
#
#
# Elastic Constant Matrix: (Units=GPa)
#
#
# Indices 1 2 3 4 5 6 
#
# 1 72.5049 9.5953 12.6806 0.0000 0.0000 0.0000
# 2 9.5953 68.3568 28.2546 0.0000 0.0000 0.0000
# 3 12.6806 28.2546 109.4353 0.0000 0.0000 0.0000
# 4 0.0000 0.0000 0.0000 12.6059 0.0000 0.0000
# 5 0.0000 0.0000 0.0000 0.0000 -149.8194 0.0000
# 6 0.0000 0.0000 0.0000 0.0000 0.0000 34.0083
#
#
#
# Elastic Compliance Matrix: (Units=1/GPa)
#
#
# Indices 1 2 3 4 5 6 
#
# 1 0.014208 -0.001471 -0.001267 0.000000 0.000000 0.000000
# 2 -0.001471 0.016529 -0.004097 0.000000 0.000000 0.000000
# 3 -0.001267 -0.004097 0.010342 0.000000 0.000000 0.000000
# 4 0.000000 0.000000 0.000000 0.079328 0.000000 0.000000
# 5 0.000000 0.000000 0.000000 0.000000 -0.006675 0.000000
# 6 0.000000 0.000000 0.000000 0.000000 0.000000 0.029405
#
#
# Mechanical properties :
#
#
# Convention : Reuss Voigt Hill
#
# Bulk Modulus (GPa) = 36.48225 39.03976 37.76101
# Shear Modulus (GPa) = 30.13068 -7.32327 11.40371
#
# Velocity S-wave (km/s) = 3.65896 -1.80387 2.25101
# Velocity P-wave (km/s) = 5.83617 3.60666 4.85123
#
# Compressibility (1/GPa) = 0.02741059
#
# Stress axis : x y z
#
# Youngs Moduli (GPa) = 70.38118 60.49938 96.68929
#
# Poissons Ratio (x) = 0.08899 0.12247
# Poissons Ratio (y) = 0.10352 0.39615
# Poissons Ratio (z) = 0.08914 0.24787
#
# Static dielectric constant tensor:
#      x y z
#    x 2.039240 0.000000 0.000000 
#    y 0.000000 1.840180 0.000000 
#    z 0.000000 0.000000 1.837730 
# 
# From -- ./inp_files/6419.got.cif
#   From: 2010.05.17/outbox.cif.g08.bks.cpg/sg41_4_cif.got.tgz:6419.got - 2010.06.03 18:54:24.
