data_PCOD9367784
_publ_section_title
;
Structure prediction by ZEFSAII (Michael W. Deem and Ramdas Pophale) SiO2 
 PCOD9367784
Probable space group: A B A 2
;
_chemical_formula_sum "Si O2"
_cell_formula_units_Z 44
_cell_length_a 9.799954
_cell_length_b 14.710755
_cell_length_c 12.073081
_cell_angle_alpha 90.000000
_cell_angle_beta 90.000000
_cell_angle_gamma 90.000000
_cell_volume 1740.512370
_symmetry_space_group_name_H-M "A B A 2"
_symmetry_group_IT_number 41
_symmetry_cell_setting 'orthorhombic'
loop_
_space_group_symop_operation_xyz
x,y,z
-x,-y,z
1/2-x,y,1/2+z
1/2+x,-y,1/2+z
x,1/2+y,1/2+z
-x,1/2-y,1/2+z
1/2-x,1/2+y,z
1/2+x,1/2-y,z
loop_
_atom_site_type_symbol
_atom_site_label
_atom_site_fract_x
_atom_site_fract_y
_atom_site_fract_z
Si Si1 0.269998 0.799152 0.990070
Si Si2 0.000000 0.000000 0.978735
Si Si3 0.957226 0.155548 0.309042
Si Si4 0.738439 0.559610 0.666079
Si Si5 0.691001 0.380062 0.139191
Si Si6 0.547053 0.663905 0.811962
O O1 0.413837 0.834129 0.937421
O O2 0.163771 0.785982 0.888564
O O3 0.213480 0.885194 0.057773
O O4 0.282215 0.709937 0.067100
O O5 0.007055 0.917235 0.891052
O O6 0.895744 0.950865 0.063892
O O7 0.854052 0.081844 0.258268
O O8 0.100974 0.136665 0.249153
O O9 0.935442 0.262010 0.276643
O O10 0.693588 0.454595 0.666684
O O11 0.614731 0.622613 0.704786
#
# Coordination Sequence:
#
# PCOD9367784 Si02
#       6
#     8   4   8   8   8   8
#     4  11  24  42  69 103 136 177 233 286 336 406
#     4  12  22  42  70  94 134 180 220 272 344 398
#     4  11  23  41  69  98 136 180 222 280 348 406
#     4  11  24  43  67 102 138 173 234 281 337 414
#     4  12  22  43  70  94 136 185 217 282 346 396
#     4  11  24  42  69 101 135 177 232 277 339 410
#
# _framework density 25.279911999999999
#
# number of rings (size 3 to 8) (size 9 to 14) (size 15 to 20)
#    0.000    0.727    7.273    0.000    0.000    2.909 
#    3.273    0.000    0.000    0.000    0.000    0.000 
#    0.000    0.000    0.000    0.000    0.000    0.000 
#
# Total GULP energy -122543.599456 kJ/mol
# GULP energy per Si atom -5570.163612 kJ/mol
# Density = 2.522237 g / cm^3
# Si number density = 25.279912 Si / 1000 Ang^3
#
#
#
# Elastic Constant Matrix: (Units=GPa)
#
#
# Indices 1 2 3 4 5 6 
#
# 1 29.4993 15.7053 7.1752 0.0000 0.0000 0.0000
# 2 15.7053 208.2668 56.4410 0.0000 0.0000 0.0000
# 3 7.1752 56.4410 85.6977 0.0000 0.0000 0.0000
# 4 0.0000 0.0000 0.0000 16.7806 0.0000 0.0000
# 5 0.0000 0.0000 0.0000 0.0000 18.8465 0.0000
# 6 0.0000 0.0000 0.0000 0.0000 0.0000 68.6062
#
#
#
# Elastic Compliance Matrix: (Units=1/GPa)
#
#
# Indices 1 2 3 4 5 6 
#
# 1 0.035469 -0.002276 -0.001471 0.000000 0.000000 0.000000
# 2 -0.002276 0.005991 -0.003755 0.000000 0.000000 0.000000
# 3 -0.001471 -0.003755 0.014265 0.000000 0.000000 0.000000
# 4 0.000000 0.000000 0.000000 0.059593 0.000000 0.000000
# 5 0.000000 0.000000 0.000000 0.000000 0.053060 0.000000
# 6 0.000000 0.000000 0.000000 0.000000 0.000000 0.014576
#
#
# Mechanical properties :
#
#
# Convention : Reuss Voigt Hill
#
# Bulk Modulus (GPa) = 24.55731 53.56744 39.06238
# Shear Modulus (GPa) = 23.63726 37.12282 30.38004
#
# Velocity S-wave (km/s) = 3.06113 3.83622 3.47038
# Velocity P-wave (km/s) = 4.71479 6.39201 5.61636
#
# Compressibility (1/GPa) = 0.04072106
#
# Stress axis : x y z
#
# Youngs Moduli (GPa) = 28.19394 166.92276 70.10106
#
# Poissons Ratio (x) = 0.37994 0.10309
# Poissons Ratio (y) = 0.06417 0.26323
# Poissons Ratio (z) = 0.04146 0.62680
#
# Static dielectric constant tensor:
#      x y z
#    x 0.785670 0.000000 0.000000 
#    y 0.000000 2.421940 0.000000 
#    z 0.000000 0.000000 2.195980 
# 
# From -- ./inp_files/5494.got.cif
#   From: 2010.05.17/outbox.cif.g08.bks.cpg/sg41_3_cif.got.tgz:5494.got - 2010.06.03 18:54:24.
