data_PCOD9367298
_publ_section_title
;
Structure prediction by ZEFSAII (Michael W. Deem and Ramdas Pophale) SiO2 
 PCOD9367298
Probable space group: A B A 2
;
_chemical_formula_sum "Si O2"
_cell_formula_units_Z 56
_cell_length_a 31.979274
_cell_length_b 14.870658
_cell_length_c 5.133992
_cell_angle_alpha 90.000000
_cell_angle_beta 90.000000
_cell_angle_gamma 90.000000
_cell_volume 2441.484511
_symmetry_space_group_name_H-M "A B A 2"
_symmetry_group_IT_number 41
_symmetry_cell_setting 'orthorhombic'
loop_
_space_group_symop_operation_xyz
x,y,z
-x,-y,z
1/2-x,y,1/2+z
1/2+x,-y,1/2+z
x,1/2+y,1/2+z
-x,1/2-y,1/2+z
1/2-x,1/2+y,z
1/2+x,1/2-y,z
loop_
_atom_site_type_symbol
_atom_site_label
_atom_site_fract_x
_atom_site_fract_y
_atom_site_fract_z
Si Si1 0.724755 0.944596 0.277090
Si Si2 0.916256 0.101083 0.827354
Si Si3 0.908736 0.893405 0.776593
Si Si4 0.654886 0.435940 0.400088
Si Si5 0.324959 0.201301 0.490365
Si Si6 0.135424 0.372937 0.805586
Si Si7 0.496677 0.694687 0.898029
O O1 0.743361 0.973213 0.552071
O O2 0.713953 0.839312 0.330121
O O3 0.679672 0.969562 0.159082
O O4 0.898351 0.118052 0.538557
O O5 0.964037 0.130061 0.852722
O O6 0.913199 0.994727 0.879939
O O7 0.888212 0.154645 0.040206
O O8 0.891354 0.905629 0.482530
O O9 0.952438 0.845546 0.812520
O O10 0.870661 0.837601 0.903578
O O11 0.677738 0.350761 0.268444
O O12 0.653597 0.528300 0.243861
O O13 0.330319 0.305251 0.423939
O O14 0.504557 0.777125 0.699504
#
# Coordination Sequence:
#
# PCOD9367298 Si02
#       7
#     8   8   8   8   8   8   8
#     4  11  23  42  70  99 135 173 213 262 335 403
#     4  11  23  43  61  94 130 175 222 283 328 394
#     4  10  23  40  65  92 130 174 226 270 339 393
#     4  10  23  44  69  98 129 178 219 273 332 399
#     4  11  22  42  71  95 131 174 212 277 325 394
#     4  11  25  41  68  99 129 167 233 267 327 399
#     4  12  26  40  60  93 131 174 226 279 338 391
#
# _framework density 22.936865000000001
#
# number of rings (size 3 to 8) (size 9 to 14) (size 15 to 20)
#    0.000    1.143    2.857    3.000    8.000    0.000 
#    0.000    4.286    0.000    0.000    0.000    0.000 
#    0.000    0.000    0.000    0.000    0.000    0.000 
#
# Total GULP energy -156110.942621 kJ/mol
# GULP energy per Si atom -5575.390808 kJ/mol
# Density = 2.288466 g / cm^3
# Si number density = 22.936865 Si / 1000 Ang^3
#
#
#
# Elastic Constant Matrix: (Units=GPa)
#
#
# Indices 1 2 3 4 5 6 
#
# 1 80.0905 -9.0064 20.2149 0.0000 0.0000 0.0000
# 2 -9.0064 46.7745 1.5540 0.0000 0.0000 0.0000
# 3 20.2149 1.5540 105.3795 0.0000 0.0000 0.0000
# 4 0.0000 0.0000 0.0000 22.4104 0.0000 0.0000
# 5 0.0000 0.0000 0.0000 0.0000 30.6377 0.0000
# 6 0.0000 0.0000 0.0000 0.0000 0.0000 24.2562
#
#
#
# Elastic Compliance Matrix: (Units=1/GPa)
#
#
# Indices 1 2 3 4 5 6 
#
# 1 0.013448 0.002676 -0.002619 0.000000 0.000000 0.000000
# 2 0.002676 0.021922 -0.000837 0.000000 0.000000 0.000000
# 3 -0.002619 -0.000837 0.010004 0.000000 0.000000 0.000000
# 4 0.000000 0.000000 0.000000 0.044622 0.000000 0.000000
# 5 0.000000 0.000000 0.000000 0.000000 0.032639 0.000000
# 6 0.000000 0.000000 0.000000 0.000000 0.000000 0.041227
#
#
# Mechanical properties :
#
#
# Convention : Reuss Voigt Hill
#
# Bulk Modulus (GPa) = 22.82295 28.64107 25.73201
# Shear Modulus (GPa) = 27.77364 30.09300 28.93332
#
# Velocity S-wave (km/s) = 3.48354 3.62607 3.55552
# Velocity P-wave (km/s) = 5.11390 5.48135 5.30081
#
# Compressibility (1/GPa) = 0.04381554
#
# Stress axis : x y z
#
# Youngs Moduli (GPa) = 74.36095 45.61567 99.95722
#
# Poissons Ratio (x) = -0.12209 0.26181
# Poissons Ratio (y) = -0.19902 0.08363
# Poissons Ratio (z) = 0.19476 0.03817
#
# Static dielectric constant tensor:
#      x y z
#    x 1.868270 0.000000 0.000000 
#    y 0.000000 1.917200 0.000000 
#    z 0.000000 0.000000 1.992550 
# 
# From -- ./inp_files/1332.got.cif
#   From: 2010.05.17/outbox.cif.g08.bks.cpg/sg41_1_cif.got.tgz:1332.got - 2010.06.03 18:54:24.
