data_PCOD9367599
_publ_section_title
;
Structure prediction by ZEFSAII (Michael W. Deem and Ramdas Pophale) SiO2 
 PCOD9367599
Probable space group: A B A 2
;
_chemical_formula_sum "Si O2"
_cell_formula_units_Z 40
_cell_length_a 9.225232
_cell_length_b 18.411556
_cell_length_c 8.405462
_cell_angle_alpha 90.000000
_cell_angle_beta 90.000000
_cell_angle_gamma 90.000000
_cell_volume 1427.675080
_symmetry_space_group_name_H-M "A B A 2"
_symmetry_group_IT_number 41
_symmetry_cell_setting 'orthorhombic'
loop_
_space_group_symop_operation_xyz
x,y,z
-x,-y,z
1/2-x,y,1/2+z
1/2+x,-y,1/2+z
x,1/2+y,1/2+z
-x,1/2-y,1/2+z
1/2-x,1/2+y,z
1/2+x,1/2-y,z
loop_
_atom_site_type_symbol
_atom_site_label
_atom_site_fract_x
_atom_site_fract_y
_atom_site_fract_z
Si Si1 0.578405 0.905146 0.612500
Si Si2 0.899662 0.718410 0.973300
Si Si3 0.727935 0.123133 0.705030
Si Si4 0.305079 0.031794 0.291851
Si Si5 0.162655 0.682578 0.168369
O O1 0.666108 0.828713 0.625563
O O2 0.410250 0.893372 0.594182
O O3 0.640586 0.951237 0.466795
O O4 0.635110 0.947195 0.768585
O O5 0.067920 0.716858 0.027762
O O6 0.852656 0.648579 0.864926
O O7 0.872217 0.779315 0.835626
O O8 0.816087 0.190267 0.633338
O O9 0.817315 0.050102 0.735484
O O10 0.375252 0.096786 0.187714
#
# Coordination Sequence:
#
# PCOD9367599 Si02
#       5
#     8   8   8   8   8
#     4  10  24  49  83 117 165 222 276 356 427 521
#     4  12  30  51  83 125 173 225 297 365 431 540
#     4  12  28  49  84 129 166 219 300 361 434 523
#     4  10  24  50  83 116 169 217 275 348 437 517
#     4  10  29  52  81 118 175 228 284 356 456 509
#
# _framework density 28.017579000000001
#
# number of rings (size 3 to 8) (size 9 to 14) (size 15 to 20)
#    1.200    0.000    0.000    3.000    8.400    0.800 
#    0.000    0.000    0.000    0.000    0.000    0.000 
#    0.000    0.000    0.000    0.000    0.000    0.000 
#
# Total GULP energy -111846.822997 kJ/mol
# GULP energy per Si atom -5592.341150 kJ/mol
# Density = 2.795381 g / cm^3
# Si number density = 28.017579 Si / 1000 Ang^3
#
#
#
# Elastic Constant Matrix: (Units=GPa)
#
#
# Indices 1 2 3 4 5 6 
#
# 1 121.4564 53.6902 31.1561 0.0000 0.0000 0.0000
# 2 53.6902 195.3468 60.3052 0.0000 0.0000 0.0000
# 3 31.1561 60.3052 129.5557 0.0000 0.0000 0.0000
# 4 0.0000 0.0000 0.0000 36.7057 0.0000 0.0000
# 5 0.0000 0.0000 0.0000 0.0000 50.9269 0.0000
# 6 0.0000 0.0000 0.0000 0.0000 0.0000 41.0722
#
#
#
# Elastic Compliance Matrix: (Units=1/GPa)
#
#
# Indices 1 2 3 4 5 6 
#
# 1 0.009544 -0.002236 -0.001254 0.000000 0.000000 0.000000
# 2 -0.002236 0.006502 -0.002489 0.000000 0.000000 0.000000
# 3 -0.001254 -0.002489 0.009179 0.000000 0.000000 0.000000
# 4 0.000000 0.000000 0.000000 0.027244 0.000000 0.000000
# 5 0.000000 0.000000 0.000000 0.000000 0.019636 0.000000
# 6 0.000000 0.000000 0.000000 0.000000 0.000000 0.024347
#
#
# Mechanical properties :
#
#
# Convention : Reuss Voigt Hill
#
# Bulk Modulus (GPa) = 75.37872 81.85133 78.61502
# Shear Modulus (GPa) = 44.31392 45.82145 45.06768
#
# Velocity S-wave (km/s) = 3.98131 4.04846 4.01502
# Velocity P-wave (km/s) = 6.93519 7.15060 7.04372
#
# Compressibility (1/GPa) = 0.01326634
#
# Stress axis : x y z
#
# Youngs Moduli (GPa) = 104.78335 153.80101 108.94624
#
# Poissons Ratio (x) = 0.34386 0.13666
# Poissons Ratio (y) = 0.23427 0.27115
# Poissons Ratio (z) = 0.13144 0.38278
#
# Static dielectric constant tensor:
#      x y z
#    x 2.351590 0.000000 0.000000 
#    y 0.000000 2.493930 0.000000 
#    z 0.000000 0.000000 2.251060 
# 
# From -- ./inp_files/2055.got.cif
#   From: 2010.05.17/outbox.cif.g08.bks.cpg/sg41_2_cif.got.tgz:2055.got - 2010.06.03 18:54:24.
