data_PCOD9368308
_publ_section_title
;
Structure prediction by ZEFSAII (Michael W. Deem and Ramdas Pophale) SiO2 
 PCOD9368308
Probable space group: F M M 2
;
_chemical_formula_sum "Si O2"
_cell_formula_units_Z 88
_cell_length_a 9.148927
_cell_length_b 24.873839
_cell_length_c 20.829626
_cell_angle_alpha 90.000000
_cell_angle_beta 90.000000
_cell_angle_gamma 90.000000
_cell_volume 4740.175852
_symmetry_space_group_name_H-M "F M M 2"
_symmetry_group_IT_number 42
_symmetry_cell_setting 'orthorhombic'
loop_
_space_group_symop_operation_xyz
x,y,z
-x,-y,z
-x,y,z
x,-y,z
x,1/2+y,1/2+z
-x,1/2-y,1/2+z
-x,1/2+y,1/2+z
x,1/2-y,1/2+z
1/2+x,y,1/2+z
1/2-x,-y,1/2+z
1/2-x,y,1/2+z
1/2+x,-y,1/2+z
1/2+x,1/2+y,z
1/2-x,1/2-y,z
1/2-x,1/2+y,z
1/2+x,1/2-y,z
loop_
_atom_site_type_symbol
_atom_site_label
_atom_site_fract_x
_atom_site_fract_y
_atom_site_fract_z
Si Si1 0.164318 0.000000 0.694450
Si Si2 0.825864 0.693205 0.925820
Si Si3 0.262934 0.000000 0.339868
Si Si4 0.673605 0.891128 0.040328
Si Si5 0.170101 0.500000 0.490737
Si Si6 0.323796 0.110090 0.668728
Si Si7 0.327933 0.121354 0.810962
O O1 0.151239 0.000000 0.772033
O O2 0.259275 0.050204 0.672768
O O3 0.000000 0.000000 0.667726
O O4 0.750000 0.750000 0.935093
O O5 0.764741 0.661432 0.863661
O O6 0.000000 0.701680 0.918470
O O7 0.806347 0.652529 0.984683
O O8 0.186793 0.941315 0.332390
O O9 0.324313 0.000000 0.412354
O O10 0.500000 0.899977 0.049928
O O11 0.749102 0.868394 0.104672
O O12 0.749486 0.946802 0.017656
O O13 0.000000 0.500000 0.510479
O O14 0.500000 0.110772 0.664438
O O15 0.275439 0.132227 0.738463
O O16 0.500000 0.131134 0.808959
#
# Coordination Sequence:
#
# PCOD9368308 Si02
#       7
#     8  16   8  16   8  16  16
#     4  10  19  32  50  78 119 157 187 224 278 339
#     4  10  22  41  62  85 110 147 193 239 288 339
#     4  10  18  32  54  86 119 148 187 232 281 332
#     4  11  23  39  59  83 117 156 192 231 283 343
#     4  12  23  34  54  88 123 151 189 234 284 337
#     4  10  20  35  56  82 113 149 190 233 279 334
#     4   9  18  35  60  86 114 149 187 229 281 341
#
# _framework density 18.564713000000001
#
# number of rings (size 3 to 8) (size 9 to 14) (size 15 to 20)
#    0.000    1.818    1.818    2.727    0.000    4.364 
#    0.000    2.727    0.000    4.364    0.000    0.000 
#    0.000    0.000    0.000    0.000    0.000    0.000 
#
# Total GULP energy -122560.212478 kJ/mol
# GULP energy per Si atom -5570.918749 kJ/mol
# Density = 1.852246 g / cm^3
# Si number density = 18.564713 Si / 1000 Ang^3
#
#
#
# Elastic Constant Matrix: (Units=GPa)
#
#
# Indices 1 2 3 4 5 6 
#
# 1 81.9609 44.9546 64.7630 0.0000 0.0000 0.0000
# 2 44.9546 95.8432 45.4744 0.0000 0.0000 0.0000
# 3 64.7630 45.4744 137.8574 0.0000 0.0000 0.0000
# 4 0.0000 0.0000 0.0000 1.3058 0.0000 0.0000
# 5 0.0000 0.0000 0.0000 0.0000 23.2729 0.0000
# 6 0.0000 0.0000 0.0000 0.0000 0.0000 5.3430
#
#
#
# Elastic Compliance Matrix: (Units=1/GPa)
#
#
# Indices 1 2 3 4 5 6 
#
# 1 0.022395 -0.006535 -0.008365 0.000000 0.000000 0.000000
# 2 -0.006535 0.014277 -0.001639 0.000000 0.000000 0.000000
# 3 -0.008365 -0.001639 0.011724 0.000000 0.000000 0.000000
# 4 0.000000 0.000000 0.000000 0.765819 0.000000 0.000000
# 5 0.000000 0.000000 0.000000 0.000000 0.042968 0.000000
# 6 0.000000 0.000000 0.000000 0.000000 0.000000 0.187161
#
#
# Mechanical properties :
#
#
# Convention : Reuss Voigt Hill
#
# Bulk Modulus (GPa) = 65.28661 69.56060 67.42361
# Shear Modulus (GPa) = 4.61881 16.68231 10.65056
#
# Velocity S-wave (km/s) = 1.57904 3.00092 2.39780
# Velocity P-wave (km/s) = 6.21030 7.03974 6.63799
#
# Compressibility (1/GPa) = 0.01531708
#
# Stress axis : x y z
#
# Youngs Moduli (GPa) = 44.65199 70.04343 85.29222
#
# Poissons Ratio (x) = 0.45776 0.71348
# Poissons Ratio (y) = 0.29182 0.13981
# Poissons Ratio (z) = 0.37352 0.11482
#
# Static dielectric constant tensor:
#      x y z
#    x 1.631310 0.000000 0.000000 
#    y 0.000000 1.507970 0.000000 
#    z 0.000000 0.000000 1.713070 
# 
# From -- ./inp_files/23591.got.cif
#   From: 2010.05.17/outbox.cif.g08.bks.cpg/sg42_12_cif.got.tgz:23591.got - 2010.06.03 19:03:34.
