data_PCOD9368856
_publ_section_title
;
Structure prediction by ZEFSAII (Michael W. Deem and Ramdas Pophale) SiO2 
 PCOD9368856
Probable space group: F M M 2
;
_chemical_formula_sum "Si O2"
_cell_formula_units_Z 104
_cell_length_a 10.266884
_cell_length_b 24.611103
_cell_length_c 23.456864
_cell_angle_alpha 90.000000
_cell_angle_beta 90.000000
_cell_angle_gamma 90.000000
_cell_volume 5927.064905
_symmetry_space_group_name_H-M "F M M 2"
_symmetry_group_IT_number 42
_symmetry_cell_setting 'orthorhombic'
loop_
_space_group_symop_operation_xyz
x,y,z
-x,-y,z
-x,y,z
x,-y,z
x,1/2+y,1/2+z
-x,1/2-y,1/2+z
-x,1/2+y,1/2+z
x,1/2-y,1/2+z
1/2+x,y,1/2+z
1/2-x,-y,1/2+z
1/2-x,y,1/2+z
1/2+x,-y,1/2+z
1/2+x,1/2+y,z
1/2-x,1/2-y,z
1/2-x,1/2+y,z
1/2+x,1/2-y,z
loop_
_atom_site_type_symbol
_atom_site_label
_atom_site_fract_x
_atom_site_fract_y
_atom_site_fract_z
Si Si1 0.147130 0.440225 0.677410
Si Si2 0.646292 0.435300 0.991866
Si Si3 0.151224 0.137486 0.284606
Si Si4 0.151671 0.063857 0.855627
Si Si5 0.650337 0.592281 0.584183
Si Si6 0.250000 0.750000 0.741582
Si Si7 0.136872 0.714849 0.127256
O O1 0.153316 0.500000 0.705581
O O2 0.162036 0.392415 0.723111
O O3 0.259143 0.437721 0.630396
O O4 0.000000 0.435334 0.652646
O O5 0.500000 0.415733 0.007887
O O6 0.649432 0.500000 0.003500
O O7 0.660169 0.428743 0.923895
O O8 0.765943 0.410095 0.026393
O O9 0.250188 0.104630 0.324687
O O10 0.187765 0.200844 0.276864
O O11 0.000000 0.132313 0.302576
O O12 0.000000 0.073395 0.839024
O O13 0.180570 0.000000 0.843429
O O14 0.500000 0.572916 0.578803
O O15 0.644323 0.653494 0.607684
O O16 0.153002 0.778325 0.695591
O O17 0.250000 0.750000 0.100660
O O18 0.000000 0.739209 0.110364
#
# Coordination Sequence:
#
# PCOD9368856 Si02
#       7
#    16  16  16  16  16   8  16
#     4  10  20  34  51  76 113 152 184 216 267 337
#     4   9  19  37  58  79 107 147 186 217 265 335
#     4  11  22  36  58  84 110 146 190 234 278 330
#     4   9  20  39  61  84 112 147 186 229 281 338
#     4  11  21  32  51  82 113 141 180 231 278 320
#     4  10  20  36  58  74 108 148 192 222 274 324
#     4   9  19  34  52  74 104 141 181 222 267 321
#
# _framework density 17.546627000000001
#
# number of rings (size 3 to 8) (size 9 to 14) (size 15 to 20)
#    0.462    1.692    1.538    2.769    0.000    7.077 
#    0.000    1.538    1.692    0.000    0.000    0.000 
#    0.000    0.000    0.000    0.000    0.000    0.000 
#
# Total GULP energy -144773.082759 kJ/mol
# GULP energy per Si atom -5568.195491 kJ/mol
# Density = 1.750669 g / cm^3
# Si number density = 17.546627 Si / 1000 Ang^3
#
#
#
# Elastic Constant Matrix: (Units=GPa)
#
#
# Indices 1 2 3 4 5 6 
#
# 1 172.3528 62.8307 58.5065 0.0000 0.0000 0.0000
# 2 62.8307 90.6033 33.0022 0.0000 0.0000 0.0000
# 3 58.5065 33.0022 57.0765 0.0000 0.0000 0.0000
# 4 0.0000 0.0000 0.0000 20.0520 0.0000 0.0000
# 5 0.0000 0.0000 0.0000 0.0000 15.1770 0.0000
# 6 0.0000 0.0000 0.0000 0.0000 0.0000 13.3739
#
#
#
# Elastic Compliance Matrix: (Units=1/GPa)
#
#
# Indices 1 2 3 4 5 6 
#
# 1 0.009938 -0.004030 -0.007857 0.000000 0.000000 0.000000
# 2 -0.004030 0.015616 -0.004898 0.000000 0.000000 0.000000
# 3 -0.007857 -0.004898 0.028407 0.000000 0.000000 0.000000
# 4 0.000000 0.000000 0.000000 0.049870 0.000000 0.000000
# 5 0.000000 0.000000 0.000000 0.000000 0.065889 0.000000
# 6 0.000000 0.000000 0.000000 0.000000 0.000000 0.074773
#
#
# Mechanical properties :
#
#
# Convention : Reuss Voigt Hill
#
# Bulk Modulus (GPa) = 49.04376 69.85683 59.45029
# Shear Modulus (GPa) = 17.55243 20.76679 19.15961
#
# Velocity S-wave (km/s) = 3.16623 3.44397 3.30801
# Velocity P-wave (km/s) = 6.43257 7.46412 6.96746
#
# Compressibility (1/GPa) = 0.02038996
#
# Stress axis : x y z
#
# Youngs Moduli (GPa) = 100.62037 64.03674 35.20301
#
# Poissons Ratio (x) = 0.25807 0.27660
# Poissons Ratio (y) = 0.40550 0.17244
# Poissons Ratio (z) = 0.79059 0.31368
#
# Static dielectric constant tensor:
#      x y z
#    x 1.630290 0.000000 0.000000 
#    y 0.000000 1.610080 0.000000 
#    z 0.000000 0.000000 1.588830 
# 
# From -- ./inp_files/28269.got.cif
#   From: 2010.05.17/outbox.cif.g08.bks.cpg/sg42_15_cif.got.tgz:28269.got - 2010.06.03 19:03:34.
