data_PCOD9368865
_publ_section_title
;
Structure prediction by ZEFSAII (Michael W. Deem and Ramdas Pophale) SiO2 
 PCOD9368865
Probable space group: F M M 2
;
_chemical_formula_sum "Si O2"
_cell_formula_units_Z 80
_cell_length_a 10.212189
_cell_length_b 22.039327
_cell_length_c 20.709379
_cell_angle_alpha 90.000000
_cell_angle_beta 90.000000
_cell_angle_gamma 90.000000
_cell_volume 4661.055225
_symmetry_space_group_name_H-M "F M M 2"
_symmetry_group_IT_number 42
_symmetry_cell_setting 'orthorhombic'
loop_
_space_group_symop_operation_xyz
x,y,z
-x,-y,z
-x,y,z
x,-y,z
x,1/2+y,1/2+z
-x,1/2-y,1/2+z
-x,1/2+y,1/2+z
x,1/2-y,1/2+z
1/2+x,y,1/2+z
1/2-x,-y,1/2+z
1/2-x,y,1/2+z
1/2+x,-y,1/2+z
1/2+x,1/2+y,z
1/2-x,1/2-y,z
1/2-x,1/2+y,z
1/2+x,1/2-y,z
loop_
_atom_site_type_symbol
_atom_site_label
_atom_site_fract_x
_atom_site_fract_y
_atom_site_fract_z
Si Si1 0.500000 0.844944 0.258780
Si Si2 0.657441 0.864733 0.051132
Si Si3 0.345972 0.000000 0.048981
Si Si4 0.250000 0.250000 0.968057
Si Si5 0.356831 0.000000 0.664694
Si Si6 0.733215 0.625758 0.196681
Si Si7 0.000000 0.267171 0.378332
Si Si8 0.000000 0.708726 0.744976
O O1 0.633372 0.875857 0.237276
O O2 0.500000 0.827371 0.334023
O O3 0.500000 0.778909 0.223536
O O4 0.500000 0.856947 0.057595
O O5 0.724190 0.864837 0.122002
O O6 0.679162 0.932495 0.020125
O O7 0.716001 0.809125 0.010767
O O8 0.500000 0.000000 0.065619
O O9 0.258018 0.000000 0.112587
O O10 0.126531 0.237018 0.922504
O O11 0.339295 0.938371 0.703458
O O12 0.500000 0.000000 0.633038
O O13 0.630974 0.676451 0.219982
O O14 0.000000 0.214650 0.323053
#
# Coordination Sequence:
#
# PCOD9368865 Si02
#       8
#     8  16   8   8   8  16   8   8
#     4  10  22  36  59  80 111 158 188 232 276 362
#     4  10  21  35  59  89 120 144 188 236 286 350
#     4   8  18  38  58  79 112 162 184 217 291 356
#     4  12  22  38  60  86 114 154 192 254 272 334
#     4  10  20  34  52  85 124 148 178 229 283 358
#     4  11  20  36  59  88 120 148 185 231 298 341
#     4  10  24  40  56  80 114 156 200 228 294 324
#     4  10  22  36  59  82 115 154 180 246 278 354
#
# _framework density 17.163495000000001
#
# number of rings (size 3 to 8) (size 9 to 14) (size 15 to 20)
#    0.600    1.200    3.000    1.800    4.200    0.800 
#    1.800    0.000    0.000    7.200    0.000    0.000 
#    0.000    0.000    0.000    0.000    0.000    0.000 
#
# Total GULP energy -111358.677404 kJ/mol
# GULP energy per Si atom -5567.933870 kJ/mol
# Density = 1.712443 g / cm^3
# Si number density = 17.163495 Si / 1000 Ang^3
#
#
#
# Elastic Constant Matrix: (Units=GPa)
#
#
# Indices 1 2 3 4 5 6 
#
# 1 96.6926 31.2516 39.9446 0.0000 0.0000 0.0000
# 2 31.2516 104.9188 39.2286 0.0000 0.0000 0.0000
# 3 39.9446 39.2286 84.9085 0.0000 0.0000 0.0000
# 4 0.0000 0.0000 0.0000 0.1629 0.0000 0.0000
# 5 0.0000 0.0000 0.0000 0.0000 32.4706 0.0000
# 6 0.0000 0.0000 0.0000 0.0000 0.0000 33.6346
#
#
#
# Elastic Compliance Matrix: (Units=1/GPa)
#
#
# Indices 1 2 3 4 5 6 
#
# 1 0.013155 -0.001940 -0.005293 0.000000 0.000000 0.000000
# 2 -0.001940 0.011807 -0.004543 0.000000 0.000000 0.000000
# 3 -0.005293 -0.004543 0.016366 0.000000 0.000000 0.000000
# 4 0.000000 0.000000 0.000000 6.140097 0.000000 0.000000
# 5 0.000000 0.000000 0.000000 0.000000 0.030797 0.000000
# 6 0.000000 0.000000 0.000000 0.000000 0.000000 0.029731
#
#
# Mechanical properties :
#
#
# Convention : Reuss Voigt Hill
#
# Bulk Modulus (GPa) = 56.24658 56.37437 56.31047
# Shear Modulus (GPa) = 0.79727 24.99328 12.89527
#
# Velocity S-wave (km/s) = 0.68229 3.82014 2.74399
# Velocity P-wave (km/s) = 5.78471 7.23704 6.55125
#
# Compressibility (1/GPa) = 0.01777886
#
# Stress axis : x y z
#
# Youngs Moduli (GPa) = 76.01420 84.69271 61.10194
#
# Poissons Ratio (x) = 0.16427 0.32340
# Poissons Ratio (y) = 0.14744 0.27757
# Poissons Ratio (z) = 0.40233 0.38473
#
# Static dielectric constant tensor:
#      x y z
#    x 1.563180 0.000000 0.000000 
#    y 0.000000 1.628610 0.000000 
#    z 0.000000 0.000000 1.556960 
# 
# From -- ./inp_files/27876.got.cif
#   From: 2010.05.17/outbox.cif.g08.bks.cpg/sg42_14_cif.got.tgz:27876.got - 2010.06.03 19:03:34.
