data_PCOD9368922
_publ_section_title
;
Structure prediction by ZEFSAII (Michael W. Deem and Ramdas Pophale) SiO2 
 PCOD9368922
Probable space group: F M M 2
;
_chemical_formula_sum "Si O2"
_cell_formula_units_Z 80
_cell_length_a 8.558507
_cell_length_b 16.099694
_cell_length_c 29.601800
_cell_angle_alpha 90.000000
_cell_angle_beta 90.000000
_cell_angle_gamma 90.000000
_cell_volume 4078.812597
_symmetry_space_group_name_H-M "F M M 2"
_symmetry_group_IT_number 42
_symmetry_cell_setting 'orthorhombic'
loop_
_space_group_symop_operation_xyz
x,y,z
-x,-y,z
-x,y,z
x,-y,z
x,1/2+y,1/2+z
-x,1/2-y,1/2+z
-x,1/2+y,1/2+z
x,1/2-y,1/2+z
1/2+x,y,1/2+z
1/2-x,-y,1/2+z
1/2-x,y,1/2+z
1/2+x,-y,1/2+z
1/2+x,1/2+y,z
1/2-x,1/2-y,z
1/2-x,1/2+y,z
1/2+x,1/2-y,z
loop_
_atom_site_type_symbol
_atom_site_label
_atom_site_fract_x
_atom_site_fract_y
_atom_site_fract_z
Si Si1 0.310222 0.500000 0.418250
Si Si2 0.814013 0.836490 0.472663
Si Si3 0.313496 0.500000 0.816545
Si Si4 0.688268 0.157232 0.657726
Si Si5 0.811573 0.844412 0.259703
Si Si6 0.688338 0.406788 0.061690
O O1 0.500000 0.500000 0.416802
O O2 0.259355 0.417023 0.444794
O O3 0.244939 0.500000 0.367951
O O4 0.750000 0.750000 0.454029
O O5 0.759228 0.846986 0.524363
O O6 0.000000 0.834855 0.471545
O O7 0.500000 0.500000 0.814619
O O8 0.250767 0.583716 0.792322
O O9 0.500000 0.156555 0.657626
O O10 0.750000 0.250000 0.651870
O O11 0.736117 0.130899 0.708155
O O12 0.739843 0.108186 0.613258
O O13 0.750000 0.750000 0.268040
O O14 0.000000 0.842146 0.262151
O O15 0.500000 0.399506 0.060442
O O16 0.732825 0.500000 0.048473
#
# Coordination Sequence:
#
# PCOD9368922 Si02
#       6
#     8  16   8  16  16  16
#     4  10  24  46  65  86 119 155 198 253 309 366
#     4  11  23  41  64  90 121 158 200 246 300 359
#     4  12  26  42  65  94 123 157 202 253 313 374
#     4   9  19  34  55  83 118 160 202 244 291 348
#     4  10  21  40  65  91 126 165 206 254 304 360
#     4  10  20  34  56  87 124 162 203 246 292 350
#
# _framework density 19.613551999999999
#
# number of rings (size 3 to 8) (size 9 to 14) (size 15 to 20)
#    0.000    1.800    1.000    2.700    1.400    5.600 
#    0.000    2.000    0.000    0.000    0.000    0.000 
#    0.000    0.000    0.000    0.000    0.000    0.000 
#
# Total GULP energy -111662.109702 kJ/mol
# GULP energy per Si atom -5583.105485 kJ/mol
# Density = 1.956891 g / cm^3
# Si number density = 19.613552 Si / 1000 Ang^3
#
#
#
# Elastic Constant Matrix: (Units=GPa)
#
#
# Indices 1 2 3 4 5 6 
#
# 1 33.9207 38.6183 30.7389 0.0000 0.0000 0.0000
# 2 38.6183 150.2128 87.1527 0.0000 0.0000 0.0000
# 3 30.7389 87.1527 134.7820 0.0000 0.0000 0.0000
# 4 0.0000 0.0000 0.0000 16.8162 0.0000 0.0000
# 5 0.0000 0.0000 0.0000 0.0000 26.4468 0.0000
# 6 0.0000 0.0000 0.0000 0.0000 0.0000 32.3076
#
#
#
# Elastic Compliance Matrix: (Units=1/GPa)
#
#
# Indices 1 2 3 4 5 6 
#
# 1 0.043163 -0.008619 -0.004271 0.000000 0.000000 0.000000
# 2 -0.008619 0.012375 -0.006037 0.000000 0.000000 0.000000
# 3 -0.004271 -0.006037 0.012297 0.000000 0.000000 0.000000
# 4 0.000000 0.000000 0.000000 0.059467 0.000000 0.000000
# 5 0.000000 0.000000 0.000000 0.000000 0.037812 0.000000
# 6 0.000000 0.000000 0.000000 0.000000 0.000000 0.030952
#
#
# Mechanical properties :
#
#
# Convention : Reuss Voigt Hill
#
# Bulk Modulus (GPa) = 33.35233 70.21502 51.78367
# Shear Modulus (GPa) = 20.49908 25.94114 23.22011
#
# Velocity S-wave (km/s) = 3.23638 3.64072 3.44449
# Velocity P-wave (km/s) = 5.56841 7.31779 6.50220
#
# Compressibility (1/GPa) = 0.02998292
#
# Stress axis : x y z
#
# Youngs Moduli (GPa) = 23.16780 80.80507 81.32236
#
# Poissons Ratio (x) = 0.69646 0.34731
# Poissons Ratio (y) = 0.19968 0.49091
# Poissons Ratio (z) = 0.09894 0.48778
#
# Static dielectric constant tensor:
#      x y z
#    x 1.662070 0.000000 0.000000 
#    y 0.000000 1.677170 0.000000 
#    z 0.000000 0.000000 1.688250 
# 
# From -- ./inp_files/31298.got.cif
#   From: 2010.05.17/outbox.cif.g08.bks.cpg/sg42_16_cif.got.tgz:31298.got - 2010.06.03 19:03:34.
