data_PCOD9368370
_publ_section_title
;
Structure prediction by ZEFSAII (Michael W. Deem and Ramdas Pophale) SiO2 
 PCOD9368370
Probable space group: F M M 2
;
_chemical_formula_sum "Si O2"
_cell_formula_units_Z 116
_cell_length_a 25.870592
_cell_length_b 7.621003
_cell_length_c 27.506553
_cell_angle_alpha 90.000000
_cell_angle_beta 90.000000
_cell_angle_gamma 90.000000
_cell_volume 5423.188118
_symmetry_space_group_name_H-M "F M M 2"
_symmetry_group_IT_number 42
_symmetry_cell_setting 'orthorhombic'
loop_
_space_group_symop_operation_xyz
x,y,z
-x,-y,z
-x,y,z
x,-y,z
x,1/2+y,1/2+z
-x,1/2-y,1/2+z
-x,1/2+y,1/2+z
x,1/2-y,1/2+z
1/2+x,y,1/2+z
1/2-x,-y,1/2+z
1/2-x,y,1/2+z
1/2+x,-y,1/2+z
1/2+x,1/2+y,z
1/2-x,1/2-y,z
1/2-x,1/2+y,z
1/2+x,1/2-y,z
loop_
_atom_site_type_symbol
_atom_site_label
_atom_site_fract_x
_atom_site_fract_y
_atom_site_fract_z
Si Si1 0.056833 0.287244 0.877700
Si Si2 0.415896 0.798475 0.769832
Si Si3 0.693228 0.290633 0.802706
Si Si4 0.584662 0.806114 0.059707
Si Si5 0.168321 0.794815 0.909393
Si Si6 0.438989 0.295974 0.164396
Si Si7 0.193280 0.290501 0.514254
Si Si8 0.000000 0.500000 0.539190
O O1 0.059242 0.500000 0.877446
O O2 0.064068 0.225845 0.821455
O O3 0.106027 0.222316 0.907586
O O4 0.000000 0.233555 0.895317
O O5 0.354098 0.791597 0.773771
O O6 0.431472 0.719278 0.718270
O O7 0.434718 0.000000 0.768754
O O8 0.684990 0.500000 0.803108
O O9 0.750000 0.250000 0.783935
O O10 0.688428 0.220491 0.858240
O O11 0.586005 0.795278 0.118437
O O12 0.642901 0.779649 0.041118
O O13 0.545735 0.654480 0.042047
O O14 0.566628 0.000000 0.044703
O O15 0.181677 0.000000 0.908522
O O16 0.190360 0.718405 0.958829
O O17 0.500000 0.298381 0.154171
O O18 0.421283 0.500000 0.165099
O O19 0.187625 0.500000 0.512487
O O20 0.250000 0.250000 0.534751
#
# Coordination Sequence:
#
# PCOD9368370 Si02
#       8
#    16  16  16  16  16  16  16   4
#     4   9  17  31  49  78 116 154 195 241 288 355
#     4   9  18  31  53  79 111 152 191 233 292 353
#     4  10  19  33  52  77 108 145 191 242 293 350
#     4  12  24  42  69  99 130 168 212 263 327 384
#     4   9  20  36  56  80 111 151 195 246 306 363
#     4  10  18  35  59  87 119 155 197 247 301 365
#     4  11  23  43  65  91 125 163 213 268 323 388
#     4  12  22  48  68  98 136 164 206 274 320 390
#
# _framework density 21.389631999999999
#
# number of rings (size 3 to 8) (size 9 to 14) (size 15 to 20)
#    0.000    1.931    2.069    1.862    0.000    4.138 
#    1.241    0.690    0.000    5.793    0.000    0.000 
#    0.000    0.000    0.000    0.000    0.000    0.000 
#
# Total GULP energy -161689.217290 kJ/mol
# GULP energy per Si atom -5575.490251 kJ/mol
# Density = 2.134095 g / cm^3
# Si number density = 21.389632 Si / 1000 Ang^3
#
#
#
# Elastic Constant Matrix: (Units=GPa)
#
#
# Indices 1 2 3 4 5 6 
#
# 1 128.0118 13.4559 26.2000 0.0000 0.0000 -0.0001
# 2 13.4559 105.3899 9.7621 -0.0001 0.0000 -0.0004
# 3 26.2000 9.7621 48.2025 0.0000 0.0000 0.0000
# 4 0.0000 -0.0001 0.0000 1.9129 0.0000 0.0000
# 5 0.0000 0.0000 0.0000 0.0000 14.9790 0.0000
# 6 -0.0001 -0.0004 0.0000 0.0000 0.0000 25.8764
#
#
#
# Elastic Compliance Matrix: (Units=1/GPa)
#
#
# Indices 1 2 3 4 5 6 
#
# 1 0.008839 -0.000697 -0.004664 0.000000 0.000000 0.000000
# 2 -0.000697 0.009725 -0.001591 0.000000 0.000000 0.000000
# 3 -0.004664 -0.001591 0.023603 0.000000 0.000000 0.000000
# 4 0.000000 0.000000 0.000000 0.522755 0.000001 0.000000
# 5 0.000000 0.000000 0.000000 0.000001 0.066760 0.000000
# 6 0.000000 0.000000 0.000000 0.000000 0.000000 0.038645
#
#
# Mechanical properties :
#
#
# Convention : Reuss Voigt Hill
#
# Bulk Modulus (GPa) = 35.37929 42.27114 38.82521
# Shear Modulus (GPa) = 7.20823 24.03273 15.62048
#
# Velocity S-wave (km/s) = 1.83774 3.35560 2.70531
# Velocity P-wave (km/s) = 4.59122 5.90074 5.28669
#
# Compressibility (1/GPa) = 0.02826513
#
# Stress axis : x y z
#
# Youngs Moduli (GPa) = 113.12871 102.82901 42.36781
#
# Poissons Ratio (x) = 0.07163 0.19758
# Poissons Ratio (y) = 0.07881 0.06740
# Poissons Ratio (z) = 0.52758 0.16359
#
# Static dielectric constant tensor:
#      x y z
#    x 1.763820 0.000000 0.000000 
#    y 0.000000 1.814170 0.000000 
#    z 0.000000 0.000000 1.798540 
# 
# From -- ./inp_files/34809.got.cif
#   From: 2010.05.17/outbox.cif.g08.bks.cpg/sg42_18_cif.got.tgz:34809.got - 2010.06.03 19:03:34.
