data_PCOD9368810
_publ_section_title
;
Structure prediction by ZEFSAII (Michael W. Deem and Ramdas Pophale) SiO2 
 PCOD9368810
Probable space group: F M M 2
;
_chemical_formula_sum "Si O2"
_cell_formula_units_Z 96
_cell_length_a 14.163087
_cell_length_b 15.400234
_cell_length_c 23.762201
_cell_angle_alpha 90.000000
_cell_angle_beta 90.000000
_cell_angle_gamma 90.000000
_cell_volume 5182.889001
_symmetry_space_group_name_H-M "F M M 2"
_symmetry_group_IT_number 42
_symmetry_cell_setting 'orthorhombic'
loop_
_space_group_symop_operation_xyz
x,y,z
-x,-y,z
-x,y,z
x,-y,z
x,1/2+y,1/2+z
-x,1/2-y,1/2+z
-x,1/2+y,1/2+z
x,1/2-y,1/2+z
1/2+x,y,1/2+z
1/2-x,-y,1/2+z
1/2-x,y,1/2+z
1/2+x,-y,1/2+z
1/2+x,1/2+y,z
1/2-x,1/2-y,z
1/2-x,1/2+y,z
1/2+x,1/2-y,z
loop_
_atom_site_type_symbol
_atom_site_label
_atom_site_fract_x
_atom_site_fract_y
_atom_site_fract_z
Si Si1 0.891710 0.604616 0.818540
Si Si2 0.607864 0.596764 0.647836
Si Si3 0.222272 0.349475 0.708939
Si Si4 0.885800 0.902043 0.096655
Si Si5 0.384752 0.400032 0.445663
Si Si6 0.385342 0.276767 0.545804
O O1 0.893814 0.500000 0.815451
O O2 0.826616 0.637447 0.768565
O O3 0.858674 0.625283 0.881875
O O4 0.000000 0.635479 0.811192
O O5 0.500000 0.615081 0.664408
O O6 0.610522 0.500000 0.622613
O O7 0.679605 0.600772 0.699215
O O8 0.637512 0.666045 0.600887
O O9 0.250000 0.250000 0.701460
O O10 0.154062 0.381639 0.658757
O O11 0.854825 0.822406 0.056505
O O12 0.000000 0.900677 0.098836
O O13 0.856248 0.000000 0.080306
O O14 0.500000 0.401810 0.446673
O O15 0.354705 0.500000 0.457314
O O16 0.352562 0.329856 0.491355
O O17 0.500000 0.275302 0.542874
#
# Coordination Sequence:
#
# PCOD9368810 Si02
#       6
#    16  16  16  16  16  16
#     4   9  18  33  55  83 110 138 177 224 273 321
#     4  10  20  33  50  75 109 145 178 216 265 321
#     4  12  22  33  51  74 110 148 179 223 269 315
#     4  10  20  34  53  79 112 146 179 220 271 324
#     4   8  14  27  51  82 112 141 174 217 269 320
#     4   9  16  29  50  79 111 138 172 215 265 322
#
# _framework density 18.522487999999999
#
# number of rings (size 3 to 8) (size 9 to 14) (size 15 to 20)
#    0.000    2.333    1.667    3.500    0.000    4.000 
#    0.000    0.000    3.667    0.000    0.000    2.333 
#    0.000    5.333    0.000    0.333    0.000    0.333 
#
# Total GULP energy -133861.493389 kJ/mol
# GULP energy per Si atom -5577.562225 kJ/mol
# Density = 1.848033 g / cm^3
# Si number density = 18.522488 Si / 1000 Ang^3
#
#
#
# Elastic Constant Matrix: (Units=GPa)
#
#
# Indices 1 2 3 4 5 6 
#
# 1 64.4180 27.3896 47.0346 0.0000 0.0000 0.0000
# 2 27.3896 137.9938 74.8295 0.0000 0.0000 0.0000
# 3 47.0346 74.8295 130.9284 0.0000 0.0000 0.0000
# 4 0.0000 0.0000 0.0000 20.1048 0.0000 0.0000
# 5 0.0000 0.0000 0.0000 0.0000 15.3591 0.0000
# 6 0.0000 0.0000 0.0000 0.0000 0.0000 15.5035
#
#
#
# Elastic Compliance Matrix: (Units=1/GPa)
#
#
# Indices 1 2 3 4 5 6 
#
# 1 0.021044 -0.000112 -0.007496 0.000000 0.000000 0.000000
# 2 -0.000112 0.010502 -0.005962 0.000000 0.000000 0.000000
# 3 -0.007496 -0.005962 0.013738 0.000000 0.000000 0.000000
# 4 0.000000 0.000000 0.000000 0.049739 0.000000 0.000000
# 5 0.000000 0.000000 0.000000 0.000000 0.065108 0.000000
# 6 0.000000 0.000000 0.000000 0.000000 0.000000 0.064502
#
#
# Mechanical properties :
#
#
# Convention : Reuss Voigt Hill
#
# Bulk Modulus (GPa) = 55.11340 70.20529 62.65934
# Shear Modulus (GPa) = 19.39328 22.46590 20.92959
#
# Velocity S-wave (km/s) = 3.23927 3.48645 3.36513
# Velocity P-wave (km/s) = 6.61891 7.36153 7.00007
#
# Compressibility (1/GPa) = 0.01814441
#
# Stress axis : x y z
#
# Youngs Moduli (GPa) = 47.51867 95.22109 72.79136
#
# Poissons Ratio (x) = 0.01069 0.54563
# Poissons Ratio (y) = 0.00533 0.43397
# Poissons Ratio (z) = 0.35619 0.56769
#
# Static dielectric constant tensor:
#      x y z
#    x 1.662530 0.000000 0.000000 
#    y 0.000000 1.746310 0.000000 
#    z 0.000000 0.000000 1.622630 
# 
# From -- ./inp_files/25094.got.cif
#   From: 2010.05.17/outbox.cif.g08.bks.cpg/sg42_13_cif.got.tgz:25094.got - 2010.06.03 19:03:34.
