data_PCOD9368819
_publ_section_title
;
Structure prediction by ZEFSAII (Michael W. Deem and Ramdas Pophale) SiO2 
 PCOD9368819
Probable space group: F M M 2
;
_chemical_formula_sum "Si O2"
_cell_formula_units_Z 128
_cell_length_a 20.450839
_cell_length_b 19.637361
_cell_length_c 18.195623
_cell_angle_alpha 90.000000
_cell_angle_beta 90.000000
_cell_angle_gamma 90.000000
_cell_volume 7307.371444
_symmetry_space_group_name_H-M "F M M 2"
_symmetry_group_IT_number 42
_symmetry_cell_setting 'orthorhombic'
loop_
_space_group_symop_operation_xyz
x,y,z
-x,-y,z
-x,y,z
x,-y,z
x,1/2+y,1/2+z
-x,1/2-y,1/2+z
-x,1/2+y,1/2+z
x,1/2-y,1/2+z
1/2+x,y,1/2+z
1/2-x,-y,1/2+z
1/2-x,y,1/2+z
1/2+x,-y,1/2+z
1/2+x,1/2+y,z
1/2-x,1/2-y,z
1/2-x,1/2+y,z
1/2+x,1/2-y,z
loop_
_atom_site_type_symbol
_atom_site_label
_atom_site_fract_x
_atom_site_fract_y
_atom_site_fract_z
Si Si1 0.245785 0.076534 0.507060
Si Si2 0.076687 0.700557 0.339607
Si Si3 0.386248 0.926381 0.909035
Si Si4 0.802389 0.923014 0.264501
Si Si5 0.695449 0.799850 0.083745
Si Si6 0.071112 0.208582 0.480567
Si Si7 0.827324 0.420252 0.365700
Si Si8 0.818391 0.228756 0.239484
O O1 0.179338 0.074063 0.458839
O O2 0.227914 0.126302 0.573360
O O3 0.299852 0.099182 0.447037
O O4 0.261573 0.000000 0.531164
O O5 0.079761 0.731806 0.421421
O O6 0.114567 0.628766 0.340931
O O7 0.119562 0.750234 0.287790
O O8 0.000000 0.696237 0.318800
O O9 0.359083 0.922080 0.826584
O O10 0.426038 0.861314 0.933939
O O11 0.418530 0.000000 0.919697
O O12 0.733667 0.915714 0.308791
O O13 0.814034 0.851938 0.222249
O O14 0.802952 0.000000 0.231251
O O15 0.750000 0.750000 0.050249
O O16 0.682276 0.773912 0.165732
O O17 0.629218 0.794422 0.038271
O O18 0.000000 0.214994 0.516215
O O19 0.845723 0.500000 0.368821
O O20 0.750000 0.250000 0.279372
#
# Coordination Sequence:
#
# PCOD9368819 Si02
#       8
#    16  16  16  16  16  16  16  16
#     4   8  15  30  52  77 103 132 175 226 270 316
#     4  11  22  34  52  80 111 145 184 227 278 333
#     4   8  14  26  48  78 105 131 167 214 267 322
#     4   9  16  30  54  81 108 137 175 222 273 325
#     4  10  21  34  51  77 105 139 185 226 275 326
#     4  10  20  33  51  76 105 141 179 220 272 325
#     4   9  17  31  55  82 105 139 179 223 278 324
#     4  11  21  35  54  79 110 146 185 228 282 331
#
# _framework density 17.516558
#
# number of rings (size 3 to 8) (size 9 to 14) (size 15 to 20)
#    0.000    2.500    2.500    2.250    0.000    1.500 
#    0.000    3.125    0.000    1.125    0.000    1.750 
#    0.000    0.000    0.000    0.000    0.000    0.000 
#
# Total GULP energy -178168.083678 kJ/mol
# GULP energy per Si atom -5567.752615 kJ/mol
# Density = 1.747669 g / cm^3
# Si number density = 17.516558 Si / 1000 Ang^3
#
#
#
# Elastic Constant Matrix: (Units=GPa)
#
#
# Indices 1 2 3 4 5 6 
#
# 1 116.3056 33.4095 24.8815 0.0000 0.0000 0.0000
# 2 33.4095 102.7277 25.2123 0.0000 0.0000 0.0000
# 3 24.8815 25.2123 42.6470 0.0000 0.0000 0.0000
# 4 0.0000 0.0000 0.0000 24.5770 0.0000 0.0000
# 5 0.0000 0.0000 0.0000 0.0000 16.3419 0.0000
# 6 0.0000 0.0000 0.0000 0.0000 0.0000 10.8068
#
#
#
# Elastic Compliance Matrix: (Units=1/GPa)
#
#
# Indices 1 2 3 4 5 6 
#
# 1 0.010224 -0.002177 -0.004678 0.000000 0.000000 0.000000
# 2 -0.002177 0.011850 -0.005736 0.000000 0.000000 0.000000
# 3 -0.004678 -0.005736 0.029568 0.000000 0.000000 0.000000
# 4 0.000000 0.000000 0.000000 0.040688 0.000000 0.000000
# 5 0.000000 0.000000 0.000000 0.000000 0.061192 0.000000
# 6 0.000000 0.000000 0.000000 0.000000 0.000000 0.092534
#
#
# Mechanical properties :
#
#
# Convention : Reuss Voigt Hill
#
# Bulk Modulus (GPa) = 37.79069 47.63189 42.71129
# Shear Modulus (GPa) = 17.85337 22.22362 20.03849
#
# Velocity S-wave (km/s) = 3.19600 3.56577 3.38594
# Velocity P-wave (km/s) = 5.93636 6.64865 6.30257
#
# Compressibility (1/GPa) = 0.02646154
#
# Stress axis : x y z
#
# Youngs Moduli (GPa) = 97.80727 84.38713 33.81987
#
# Poissons Ratio (x) = 0.18371 0.15821
# Poissons Ratio (y) = 0.21293 0.19397
# Poissons Ratio (z) = 0.45755 0.48400
#
# Static dielectric constant tensor:
#      x y z
#    x 1.590640 0.000000 0.000000 
#    y 0.000000 1.649110 0.000000 
#    z 0.000000 0.000000 1.596780 
# 
# From -- ./inp_files/26207.got.cif
#   From: 2010.05.17/outbox.cif.g08.bks.cpg/sg42_14_cif.got.tgz:26207.got - 2010.06.03 19:03:34.
