data_PCOD9368586
_publ_section_title
;
Structure prediction by ZEFSAII (Michael W. Deem and Ramdas Pophale) SiO2 
 PCOD9368586
Probable space group: F M M 2
;
_chemical_formula_sum "Si O2"
_cell_formula_units_Z 48
_cell_length_a 15.060147
_cell_length_b 24.871416
_cell_length_c 5.032290
_cell_angle_alpha 90.000000
_cell_angle_beta 90.000000
_cell_angle_gamma 90.000000
_cell_volume 1884.930680
_symmetry_space_group_name_H-M "F M M 2"
_symmetry_group_IT_number 42
_symmetry_cell_setting 'orthorhombic'
loop_
_space_group_symop_operation_xyz
x,y,z
-x,-y,z
-x,y,z
x,-y,z
x,1/2+y,1/2+z
-x,1/2-y,1/2+z
-x,1/2+y,1/2+z
x,1/2-y,1/2+z
1/2+x,y,1/2+z
1/2-x,-y,1/2+z
1/2-x,y,1/2+z
1/2+x,-y,1/2+z
1/2+x,1/2+y,z
1/2-x,1/2-y,z
1/2-x,1/2+y,z
1/2+x,1/2-y,z
loop_
_atom_site_type_symbol
_atom_site_label
_atom_site_fract_x
_atom_site_fract_y
_atom_site_fract_z
Si Si1 0.184869 0.000000 0.726550
Si Si2 0.000000 0.718195 0.670381
Si Si3 0.190275 0.835394 0.289813
Si Si4 0.098631 0.061631 0.116354
O O1 0.124086 0.051130 0.805932
O O2 0.246649 0.000000 0.476420
O O3 0.094360 0.691490 0.746276
O O4 0.000000 0.771552 0.855079
O O5 0.263201 0.821924 0.066054
O O6 0.167956 0.898663 0.248219
O O7 0.000000 0.084224 0.134772
O O8 0.093720 0.000000 0.224363
#
# Coordination Sequence:
#
# PCOD9368586 Si02
#       4
#     8   8  16  16
#     4  10  19  34  55  86 126 174 220 265 322 387
#     4  12  28  52  77 106 141 178 236 304 362 420
#     4  12  26  46  75 108 143 186 235 286 355 427
#     4   9  20  41  64  99 143 187 231 279 337 410
#
# _framework density 25.465126999999999
#
# number of rings (size 3 to 8) (size 9 to 14) (size 15 to 20)
#    1.000    0.333    1.667    4.000    0.000    4.000 
#    0.000    6.667    0.000    0.000    0.000    0.000 
#    0.000    0.000    0.000    0.000    0.000    0.000 
#
# Total GULP energy -67048.274094 kJ/mol
# GULP energy per Si atom -5587.356175 kJ/mol
# Density = 2.540717 g / cm^3
# Si number density = 25.465127 Si / 1000 Ang^3
#
#
#
# Elastic Constant Matrix: (Units=GPa)
#
#
# Indices 1 2 3 4 5 6 
#
# 1 158.9047 18.2479 -5.2918 0.0022 -0.0120 -0.0018
# 2 18.2479 48.3137 -8.6458 0.0009 -0.0024 -0.0002
# 3 -5.2918 -8.6458 58.1496 0.0114 -0.0292 -0.0027
# 4 0.0022 0.0009 0.0114 23.4193 -0.0058 -0.0005
# 5 -0.0120 -0.0024 -0.0292 -0.0058 32.4707 0.0031
# 6 -0.0018 -0.0002 -0.0027 -0.0005 0.0031 48.6912
#
#
#
# Elastic Compliance Matrix: (Units=1/GPa)
#
#
# Indices 1 2 3 4 5 6 
#
# 1 0.006582 -0.002444 0.000236 -0.000001 0.000002 0.000000
# 2 -0.002444 0.022171 0.003074 -0.000002 0.000004 0.000000
# 3 0.000236 0.003074 0.017676 -0.000009 0.000016 0.000001
# 4 -0.000001 -0.000002 -0.000009 0.042700 0.000008 0.000000
# 5 0.000002 0.000004 0.000016 0.000008 0.030797 -0.000002
# 6 0.000000 0.000000 0.000001 0.000000 -0.000002 0.020538
#
#
# Mechanical properties :
#
#
# Convention : Reuss Voigt Hill
#
# Bulk Modulus (GPa) = 20.76401 30.44319 25.60360
# Shear Modulus (GPa) = 32.30308 38.32008 35.31158
#
# Velocity S-wave (km/s) = 3.56550 3.88339 3.72783
# Velocity P-wave (km/s) = 5.01218 5.66467 5.34838
#
# Compressibility (1/GPa) = 0.04816025
#
# Stress axis : x y z
#
# Youngs Moduli (GPa) = 151.93999 45.10367 56.57539
#
# Poissons Ratio (x) = 0.11022 -0.01333
# Poissons Ratio (y) = 0.37129 -0.17392
# Poissons Ratio (z) = -0.03580 -0.13865
#
# Static dielectric constant tensor:
#      x y z
#    x 2.026440 0.000000 0.000000 
#    y 0.000000 2.107060 0.000000 
#    z 0.000000 0.000000 2.134360 
# 
# From -- ./inp_files/302.got.cif
#   From: 2010.05.17/outbox.cif.g08.bks.cpg/sg42_1_cif.got.tgz:302.got - 2010.06.03 19:03:34.
