data_PCOD9368621
_publ_section_title
;
Structure prediction by ZEFSAII (Michael W. Deem and Ramdas Pophale) SiO2 
 PCOD9368621
Probable space group: F M M 2
;
_chemical_formula_sum "Si O2"
_cell_formula_units_Z 96
_cell_length_a 18.083229
_cell_length_b 17.455341
_cell_length_c 13.723183
_cell_angle_alpha 90.000000
_cell_angle_beta 90.000000
_cell_angle_gamma 90.000000
_cell_volume 4331.708011
_symmetry_space_group_name_H-M "F M M 2"
_symmetry_group_IT_number 42
_symmetry_cell_setting 'orthorhombic'
loop_
_space_group_symop_operation_xyz
x,y,z
-x,-y,z
-x,y,z
x,-y,z
x,1/2+y,1/2+z
-x,1/2-y,1/2+z
-x,1/2+y,1/2+z
x,1/2-y,1/2+z
1/2+x,y,1/2+z
1/2-x,-y,1/2+z
1/2-x,y,1/2+z
1/2+x,-y,1/2+z
1/2+x,1/2+y,z
1/2-x,1/2-y,z
1/2-x,1/2+y,z
1/2+x,1/2-y,z
loop_
_atom_site_type_symbol
_atom_site_label
_atom_site_fract_x
_atom_site_fract_y
_atom_site_fract_z
Si Si1 0.633942 0.411829 0.396660
Si Si2 0.819395 0.200373 0.930914
Si Si3 0.086065 0.174677 0.208340
Si Si4 0.087828 0.693902 0.062258
Si Si5 0.204396 0.084312 0.793979
Si Si6 0.788983 0.088615 0.101197
O O1 0.605983 0.500000 0.388097
O O2 0.597857 0.350257 0.321172
O O3 0.621901 0.381938 0.507845
O O4 0.718193 0.415730 0.355224
O O5 0.750000 0.250000 0.893027
O O6 0.884870 0.244531 0.982393
O O7 0.783844 0.148968 0.015930
O O8 0.845775 0.146238 0.845138
O O9 0.108951 0.258411 0.162419
O O10 0.133761 0.110303 0.152554
O O11 0.000000 0.167980 0.186124
O O12 0.000000 0.681731 0.066319
O O13 0.228031 0.101150 0.684296
O O14 0.172045 0.000000 0.799070
O O15 0.786863 0.000000 0.070183
#
# Coordination Sequence:
#
# PCOD9368621 Si02
#       6
#    16  16  16  16  16  16
#     4  10  19  34  58  85 110 143 186 231 279 329
#     4  11  20  34  53  77 105 145 176 215 277 330
#     4   9  18  32  52  78 111 144 178 225 281 329
#     4  10  21  36  52  81 116 144 181 229 279 329
#     4   9  18  34  54  78 106 136 179 229 270 316
#     4   9  19  33  51  76 104 135 178 227 270 319
#
# _framework density 22.16216
#
# number of rings (size 3 to 8) (size 9 to 14) (size 15 to 20)
#    0.000    2.333    1.667    2.500    0.000    3.000 
#    3.000    0.000    0.000    1.500    0.000    2.333 
#    0.000   11.667    0.000    0.000    0.000    0.000 
#
# Total GULP energy -133676.594869 kJ/mol
# GULP energy per Si atom -5569.858120 kJ/mol
# Density = 2.211172 g / cm^3
# Si number density = 22.162160 Si / 1000 Ang^3
#
#
#
# Elastic Constant Matrix: (Units=GPa)
#
#
# Indices 1 2 3 4 5 6 
#
# 1 17.4219 -6.5444 3.8521 0.0000 0.0000 0.0000
# 2 -6.5444 105.8730 63.8221 0.0000 0.0000 0.0000
# 3 3.8521 63.8221 89.6267 0.0000 0.0000 0.0000
# 4 0.0000 0.0000 0.0000 30.0885 0.0000 0.0000
# 5 0.0000 0.0000 0.0000 0.0000 19.0988 0.0000
# 6 0.0000 0.0000 0.0000 0.0000 0.0000 18.2640
#
#
#
# Elastic Compliance Matrix: (Units=1/GPa)
#
#
# Indices 1 2 3 4 5 6 
#
# 1 0.063176 0.009710 -0.009630 0.000000 0.000000 0.000000
# 2 0.009710 0.018042 -0.013265 0.000000 0.000000 0.000000
# 3 -0.009630 -0.013265 0.021017 0.000000 0.000000 0.000000
# 4 0.000000 0.000000 0.000000 0.033235 0.000000 0.000000
# 5 0.000000 0.000000 0.000000 0.000000 0.052359 0.000000
# 6 0.000000 0.000000 0.000000 0.000000 0.000000 0.054752
#
#
# Mechanical properties :
#
#
# Convention : Reuss Voigt Hill
#
# Bulk Modulus (GPa) = 13.18118 37.24235 25.21176
# Shear Modulus (GPa) = 16.99306 23.60972 20.30139
#
# Velocity S-wave (km/s) = 2.77205 3.26746 3.02990
# Velocity P-wave (km/s) = 4.02569 5.57459 4.86221
#
# Compressibility (1/GPa) = 0.07586572
#
# Stress axis : x y z
#
# Youngs Moduli (GPa) = 15.82890 55.42753 47.58107
#
# Poissons Ratio (x) = -0.53820 0.45819
# Poissons Ratio (y) = -0.15370 0.63114
# Poissons Ratio (z) = 0.15243 0.73522
#
# Static dielectric constant tensor:
#      x y z
#    x 1.800670 0.000000 0.000000 
#    y 0.000000 1.873070 0.000000 
#    z 0.000000 0.000000 1.878670 
# 
# From -- ./inp_files/8818.got.cif
#   From: 2010.05.17/outbox.cif.g08.bks.cpg/sg42_5_cif.got.tgz:8818.got - 2010.06.03 19:03:34.
