data_PCOD9368427
_publ_section_title
;
Structure prediction by ZEFSAII (Michael W. Deem and Ramdas Pophale) SiO2 
 PCOD9368427
Probable space group: F M M 2
;
_chemical_formula_sum "Si O2"
_cell_formula_units_Z 96
_cell_length_a 18.641968
_cell_length_b 7.609602
_cell_length_c 32.665528
_cell_angle_alpha 90.000000
_cell_angle_beta 90.000000
_cell_angle_gamma 90.000000
_cell_volume 4633.865066
_symmetry_space_group_name_H-M "F M M 2"
_symmetry_group_IT_number 42
_symmetry_cell_setting 'orthorhombic'
loop_
_space_group_symop_operation_xyz
x,y,z
-x,-y,z
-x,y,z
x,-y,z
x,1/2+y,1/2+z
-x,1/2-y,1/2+z
-x,1/2+y,1/2+z
x,1/2-y,1/2+z
1/2+x,y,1/2+z
1/2-x,-y,1/2+z
1/2-x,y,1/2+z
1/2+x,-y,1/2+z
1/2+x,1/2+y,z
1/2-x,1/2-y,z
1/2-x,1/2+y,z
1/2+x,1/2-y,z
loop_
_atom_site_type_symbol
_atom_site_label
_atom_site_fract_x
_atom_site_fract_y
_atom_site_fract_z
Si Si1 0.581290 0.289944 0.290380
Si Si2 0.833829 0.789277 0.032725
Si Si3 0.166337 0.292274 0.371896
Si Si4 0.416550 0.284547 0.112877
Si Si5 0.087408 0.796147 0.202088
Si Si6 0.582931 0.284483 0.951846
O O1 0.500000 0.224093 0.298438
O O2 0.575882 0.500000 0.285050
O O3 0.631754 0.260542 0.328847
O O4 0.608042 0.219050 0.246273
O O5 0.750000 0.750000 0.030201
O O6 0.875734 0.725081 0.992568
O O7 0.842301 0.000000 0.033157
O O8 0.868949 0.724029 0.074936
O O9 0.159036 0.500000 0.374104
O O10 0.250000 0.250000 0.374234
O O11 0.123010 0.220632 0.410974
O O12 0.500000 0.236040 0.106757
O O13 0.415143 0.500000 0.114078
O O14 0.391885 0.220827 0.157869
O O15 0.000000 0.794955 0.202292
O O16 0.110862 0.000000 0.201578
O O17 0.500000 0.231582 0.952163
O O18 0.584119 0.500000 0.951858
#
# Coordination Sequence:
#
# PCOD9368427 Si02
#       6
#    16  16  16  16  16  16
#     4   9  17  31  52  76 101 129 163 204 247 291
#     4  10  19  31  49  72  99 128 156 191 235 284
#     4  11  22  35  51  71  99 132 164 201 245 293
#     4   8  13  24  46  73  95 121 162 202 232 271
#     4   7  11  22  43  71  98 122 154 199 242 276
#     4   9  18  33  53  75  95 119 157 202 242 282
#
# _framework density 20.717047999999998
#
# number of rings (size 3 to 8) (size 9 to 14) (size 15 to 20)
#    0.000    3.000    0.000    4.000    0.000    3.000 
#    0.000    1.667    0.000    7.000    0.000    2.333 
#    0.000    0.000    0.000    0.000    0.000    0.000 
#
# Total GULP energy -133845.342472 kJ/mol
# GULP energy per Si atom -5576.889270 kJ/mol
# Density = 2.066990 g / cm^3
# Si number density = 20.717048 Si / 1000 Ang^3
#
#
#
# Elastic Constant Matrix: (Units=GPa)
#
#
# Indices 1 2 3 4 5 6 
#
# 1 139.5291 -1.2597 127.4219 0.0000 0.0000 0.0000
# 2 -1.2597 42.9647 10.3126 0.0000 0.0000 0.0000
# 3 127.4219 10.3126 262.9742 0.0000 0.0000 0.0000
# 4 0.0000 0.0000 0.0000 5.3473 0.0000 0.0000
# 5 0.0000 0.0000 0.0000 0.0000 -7.2348 0.0000
# 6 0.0000 0.0000 0.0000 0.0000 0.0000 -2.6891
#
#
#
# Elastic Compliance Matrix: (Units=1/GPa)
#
#
# Indices 1 2 3 4 5 6 
#
# 1 0.013009 0.001912 -0.006379 0.000000 0.000000 0.000000
# 2 0.001912 0.023777 -0.001859 0.000000 0.000000 0.000000
# 3 -0.006379 -0.001859 0.006966 0.000000 0.000000 0.000000
# 4 0.000000 0.000000 0.000000 0.187009 0.000000 0.000000
# 5 0.000000 0.000000 0.000000 0.000000 -0.138221 0.000000
# 6 0.000000 0.000000 0.000000 0.000000 0.000000 -0.371875
#
#
# Mechanical properties :
#
#
# Convention : Reuss Voigt Hill
#
# Bulk Modulus (GPa) = 32.15189 79.82417 55.98803
# Shear Modulus (GPa) = -19.50707 19.68425 0.08859
#
# Velocity S-wave (km/s) = -3.07187 3.08579 0.20701
# Velocity P-wave (km/s) = 1.72377 7.16313 5.20969
#
# Compressibility (1/GPa) = 0.03110237
#
# Stress axis : x y z
#
# Youngs Moduli (GPa) = 76.86816 42.05706 143.54983
#
# Poissons Ratio (x) = -0.08043 0.91564
# Poissons Ratio (y) = -0.14701 0.26687
# Poissons Ratio (z) = 0.49031 0.07819
#
# Static dielectric constant tensor:
#      x y z
#    x 1.670350 0.000000 0.000000 
#    y 0.000000 1.814790 0.000000 
#    z 0.000000 0.000000 1.784590 
# 
# From -- ./inp_files/31442.got.cif
#   From: 2010.05.17/outbox.cif.g08.bks.cpg/sg42_16_cif.got.tgz:31442.got - 2010.06.03 19:03:34.
