data_PCOD9368644
_publ_section_title
;
Structure prediction by ZEFSAII (Michael W. Deem and Ramdas Pophale) SiO2 
 PCOD9368644
Probable space group: F M M 2
;
_chemical_formula_sum "Si O2"
_cell_formula_units_Z 116
_cell_length_a 7.935603
_cell_length_b 30.214471
_cell_length_c 25.764995
_cell_angle_alpha 90.000000
_cell_angle_beta 90.000000
_cell_angle_gamma 90.000000
_cell_volume 6177.674055
_symmetry_space_group_name_H-M "F M M 2"
_symmetry_group_IT_number 42
_symmetry_cell_setting 'orthorhombic'
loop_
_space_group_symop_operation_xyz
x,y,z
-x,-y,z
-x,y,z
x,-y,z
x,1/2+y,1/2+z
-x,1/2-y,1/2+z
-x,1/2+y,1/2+z
x,1/2-y,1/2+z
1/2+x,y,1/2+z
1/2-x,-y,1/2+z
1/2-x,y,1/2+z
1/2+x,-y,1/2+z
1/2+x,1/2+y,z
1/2-x,1/2-y,z
1/2-x,1/2+y,z
1/2+x,1/2-y,z
loop_
_atom_site_type_symbol
_atom_site_label
_atom_site_fract_x
_atom_site_fract_y
_atom_site_fract_z
Si Si1 0.204539 0.051424 0.938520
Si Si2 0.301667 0.702880 0.525924
Si Si3 0.799488 0.449081 0.137204
Si Si4 0.201073 0.883561 0.347245
Si Si5 0.695148 0.568483 0.753499
Si Si6 0.695978 0.605974 0.038645
Si Si7 0.202892 0.702297 0.908255
Si Si8 0.000000 0.000000 0.274497
O O1 0.261404 0.075262 0.885788
O O2 0.000000 0.050954 0.939496
O O3 0.260077 0.000000 0.941647
O O4 0.267566 0.080816 0.987573
O O5 0.500000 0.705593 0.521101
O O6 0.250000 0.750000 0.550267
O O7 0.263504 0.655095 0.549822
O O8 0.228139 0.700813 0.467255
O O9 0.739398 0.500000 0.142824
O O10 0.771932 0.425316 0.192258
O O11 0.719740 0.425063 0.088365
O O12 0.000000 0.450232 0.128211
O O13 0.289355 0.890554 0.292239
O O14 0.263985 0.839667 0.376319
O O15 0.000000 0.880118 0.340640
O O16 0.500000 0.551521 0.757152
O O17 0.848108 0.537530 0.772338
O O18 0.500000 0.611608 0.027992
O O19 0.250000 0.750000 0.886011
O O20 0.000000 0.699168 0.910639
#
# Coordination Sequence:
#
# PCOD9368644 Si02
#       8
#    16  16  16  16  16  16  16   4
#     4  10  22  36  49  75 114 155 191 232 285 348
#     4  10  19  35  56  81 113 146 187 237 287 346
#     4  10  22  39  59  82 113 151 198 246 291 339
#     4  11  22  37  56  84 117 153 195 242 296 353
#     4  11  24  40  60  88 118 156 202 250 298 344
#     4  11  22  35  56  83 114 152 193 238 292 347
#     4   9  19  34  56  82 112 148 191 238 290 349
#     4  12  22  40  64  86 116 156 202 256 292 344
#
# _framework density 18.777293
#
# number of rings (size 3 to 8) (size 9 to 14) (size 15 to 20)
#    0.000    1.655    2.759    1.862    1.931    3.310 
#    0.000    0.000    0.000    0.828    0.000    1.931 
#    0.000    0.000    0.000    0.000    0.000    0.000 
#
# Total GULP energy -161472.872857 kJ/mol
# GULP energy per Si atom -5568.030099 kJ/mol
# Density = 1.873455 g / cm^3
# Si number density = 18.777293 Si / 1000 Ang^3
#
#
#
# Elastic Constant Matrix: (Units=GPa)
#
#
# Indices 1 2 3 4 5 6 
#
# 1 55.7522 6.8239 4.1309 0.0000 0.0000 0.0000
# 2 6.8239 86.0957 27.5449 0.0000 0.0000 0.0000
# 3 4.1309 27.5449 73.8310 0.0000 0.0000 0.0000
# 4 0.0000 0.0000 0.0000 26.9031 0.0000 0.0000
# 5 0.0000 0.0000 0.0000 0.0000 23.0309 0.0000
# 6 0.0000 0.0000 0.0000 0.0000 0.0000 25.4323
#
#
#
# Elastic Compliance Matrix: (Units=1/GPa)
#
#
# Indices 1 2 3 4 5 6 
#
# 1 0.018131 -0.001263 -0.000543 0.000000 0.000000 0.000000
# 2 -0.001263 0.013277 -0.004883 0.000000 0.000000 0.000000
# 3 -0.000543 -0.004883 0.015397 0.000000 0.000000 0.000000
# 4 0.000000 0.000000 0.000000 0.037170 0.000000 0.000000
# 5 0.000000 0.000000 0.000000 0.000000 0.043420 0.000000
# 6 0.000000 0.000000 0.000000 0.000000 0.000000 0.039320
#
#
# Mechanical properties :
#
#
# Convention : Reuss Voigt Hill
#
# Bulk Modulus (GPa) = 29.91625 32.51982 31.21803
# Shear Modulus (GPa) = 26.14565 26.88521 26.51543
#
# Velocity S-wave (km/s) = 3.73555 3.78801 3.76187
# Velocity P-wave (km/s) = 5.87984 6.04056 5.96074
#
# Compressibility (1/GPa) = 0.03342665
#
# Stress axis : x y z
#
# Youngs Moduli (GPa) = 55.15296 75.31661 64.94977
#
# Poissons Ratio (x) = 0.09515 0.03528
# Poissons Ratio (y) = 0.06967 0.31714
# Poissons Ratio (z) = 0.02996 0.36776
#
# Static dielectric constant tensor:
#      x y z
#    x 1.663010 0.000000 0.000000 
#    y 0.000000 1.673920 0.000000 
#    z 0.000000 0.000000 1.645590 
# 
# From -- ./inp_files/28508.got.cif
#   From: 2010.05.17/outbox.cif.g08.bks.cpg/sg42_15_cif.got.tgz:28508.got - 2010.06.03 19:03:34.
