data_PCOD9368119
_publ_section_title
;
Structure prediction by ZEFSAII (Michael W. Deem and Ramdas Pophale) SiO2 
 PCOD9368119
Probable space group: F M M 2
;
_chemical_formula_sum "Si O2"
_cell_formula_units_Z 84
_cell_length_a 25.403831
_cell_length_b 20.124765
_cell_length_c 7.882606
_cell_angle_alpha 90.000000
_cell_angle_beta 90.000000
_cell_angle_gamma 90.000000
_cell_volume 4029.951804
_symmetry_space_group_name_H-M "F M M 2"
_symmetry_group_IT_number 42
_symmetry_cell_setting 'orthorhombic'
loop_
_space_group_symop_operation_xyz
x,y,z
-x,-y,z
-x,y,z
x,-y,z
x,1/2+y,1/2+z
-x,1/2-y,1/2+z
-x,1/2+y,1/2+z
x,1/2-y,1/2+z
1/2+x,y,1/2+z
1/2-x,-y,1/2+z
1/2-x,y,1/2+z
1/2+x,-y,1/2+z
1/2+x,1/2+y,z
1/2-x,1/2-y,z
1/2-x,1/2+y,z
1/2+x,1/2-y,z
loop_
_atom_site_type_symbol
_atom_site_label
_atom_site_fract_x
_atom_site_fract_y
_atom_site_fract_z
Si Si1 0.500000 0.286736 0.143031
Si Si2 0.917725 0.112178 0.266188
Si Si3 0.000000 0.000000 0.374185
Si Si4 0.186912 0.674510 0.808273
Si Si5 0.694765 0.172171 0.406379
Si Si6 0.896672 0.423379 0.369345
Si Si7 0.000000 0.147086 0.771448
O O1 0.550641 0.318881 0.235023
O O2 0.500000 0.207583 0.141429
O O3 0.500000 0.315360 0.953367
O O4 0.863285 0.130579 0.359175
O O5 0.954208 0.058647 0.357528
O O6 0.908111 0.084780 0.072942
O O7 0.244734 0.654269 0.870384
O O8 0.182595 0.752335 0.852798
O O9 0.187503 0.669849 0.606502
O O10 0.652941 0.122361 0.326112
O O11 0.886976 0.500000 0.334013
O O12 0.948319 0.397862 0.272094
#
# Coordination Sequence:
#
# PCOD9368119 Si02
#       7
#     8  16   4  16  16  16   8
#     4   9  18  31  50  87 102 132 175 227 274 311
#     4   9  18  30  54  77 110 134 181 222 271 312
#     4  10  16  32  52  78 104 146 174 230 258 326
#     4  10  19  35  54  84 108 145 181 227 278 317
#     4  10  20  34  56  81 112 140 183 227 276 320
#     4  10  19  32  51  81 108 144 178 222 265 333
#     4  10  19  32  55  81 106 138 175 227 277 314
#
# _framework density 20.843921999999999
#
# number of rings (size 3 to 8) (size 9 to 14) (size 15 to 20)
#    0.000    2.286    0.952    4.286    0.000    0.000 
#    1.714    1.905    0.000    0.000   32.190    0.000 
#    0.000    0.000    0.000    0.000    0.000    0.000 
#
# Total GULP energy -117066.727719 kJ/mol
# GULP energy per Si atom -5574.606082 kJ/mol
# Density = 2.079648 g / cm^3
# Si number density = 20.843922 Si / 1000 Ang^3
#
#
#
# Elastic Constant Matrix: (Units=GPa)
#
#
# Indices 1 2 3 4 5 6 
#
# 1 191.0534 94.7705 10.7328 -0.0001 0.0258 0.0001
# 2 94.7705 108.0969 2.9016 0.0007 0.0027 -0.0001
# 3 10.7328 2.9016 29.2641 0.0021 -0.0631 -0.0004
# 4 -0.0001 0.0007 0.0021 9.2233 -0.0318 -0.0003
# 5 0.0258 0.0027 -0.0631 -0.0318 2574.2206 0.0035
# 6 0.0001 -0.0001 -0.0004 -0.0003 0.0035 37.2215
#
#
#
# Elastic Compliance Matrix: (Units=1/GPa)
#
#
# Indices 1 2 3 4 5 6 
#
# 1 0.009464 -0.008226 -0.002655 0.000001 0.000000 0.000000
# 2 -0.008226 0.016425 0.001388 -0.000002 0.000000 0.000000
# 3 -0.002655 0.001388 0.035008 -0.000008 0.000001 0.000000
# 4 0.000001 -0.000002 -0.000008 0.108421 0.000001 0.000001
# 5 0.000000 0.000000 0.000001 0.000001 0.000388 0.000000
# 6 0.000000 0.000000 0.000000 0.000001 0.000000 0.026866
#
#
# Mechanical properties :
#
#
# Convention : Reuss Voigt Hill
#
# Bulk Modulus (GPa) = 23.85996 60.58047 42.22021
# Shear Modulus (GPa) = 21.78388 538.80037 280.29213
#
# Velocity S-wave (km/s) = 3.23630 16.09515 11.60878
# Velocity P-wave (km/s) = 5.04348 19.35284 14.14159
#
# Compressibility (1/GPa) = 0.04191122
#
# Stress axis : x y z
#
# Youngs Moduli (GPa) = 105.66873 60.88196 28.56512
#
# Poissons Ratio (x) = 0.50079 0.07585
# Poissons Ratio (y) = 0.86919 -0.03965
# Poissons Ratio (z) = 0.28057 -0.08451
#
# Static dielectric constant tensor:
#      x y z
#    x 1.734910 0.000000 0.000000 
#    y 0.000000 1.714440 0.000000 
#    z 0.000000 0.000000 1.786400 
# 
# From -- ./inp_files/4015.got.cif
#   From: 2010.05.17/outbox.cif.g08.bks.cpg/sg42_3_cif.got.tgz:4015.got - 2010.06.03 19:03:34.
