data_PCOD9368475
_publ_section_title
;
Structure prediction by ZEFSAII (Michael W. Deem and Ramdas Pophale) SiO2 
 PCOD9368475
Probable space group: F M M 2
;
_chemical_formula_sum "Si O2"
_cell_formula_units_Z 116
_cell_length_a 7.953182
_cell_length_b 31.306798
_cell_length_c 25.368245
_cell_angle_alpha 90.000000
_cell_angle_beta 90.000000
_cell_angle_gamma 90.000000
_cell_volume 6316.405388
_symmetry_space_group_name_H-M "F M M 2"
_symmetry_group_IT_number 42
_symmetry_cell_setting 'orthorhombic'
loop_
_space_group_symop_operation_xyz
x,y,z
-x,-y,z
-x,y,z
x,-y,z
x,1/2+y,1/2+z
-x,1/2-y,1/2+z
-x,1/2+y,1/2+z
x,1/2-y,1/2+z
1/2+x,y,1/2+z
1/2-x,-y,1/2+z
1/2-x,y,1/2+z
1/2+x,-y,1/2+z
1/2+x,1/2+y,z
1/2-x,1/2-y,z
1/2-x,1/2+y,z
1/2+x,1/2-y,z
loop_
_atom_site_type_symbol
_atom_site_label
_atom_site_fract_x
_atom_site_fract_y
_atom_site_fract_z
Si Si1 0.500000 0.000000 0.454536
Si Si2 0.299348 0.797944 0.523125
Si Si3 0.201941 0.547834 0.656938
Si Si4 0.802268 0.615240 0.365326
Si Si5 0.202622 0.047804 0.778659
Si Si6 0.205180 0.885670 0.069686
Si Si7 0.189478 0.433284 0.964173
Si Si8 0.196956 0.201670 0.400975
O O1 0.348809 0.963905 0.455627
O O2 0.500000 0.799478 0.520180
O O3 0.250000 0.750000 0.539191
O O4 0.243922 0.836197 0.561837
O O5 0.237118 0.805350 0.463190
O O6 0.263947 0.500000 0.640879
O O7 0.244799 0.553708 0.718208
O O8 0.260690 0.586913 0.620520
O O9 0.000000 0.546580 0.652069
O O10 0.741793 0.586163 0.316511
O O11 0.702598 0.600106 0.416566
O O12 0.782335 0.666067 0.364492
O O13 0.000000 0.605981 0.372239
O O14 0.000000 0.047097 0.780143
O O15 0.260049 0.000000 0.796086
O O16 0.000000 0.887140 0.067910
O O17 0.277419 0.910153 0.019366
O O18 0.000000 0.451471 0.964108
O O19 0.250000 0.250000 0.388996
O O20 0.000000 0.197641 0.393910
#
# Coordination Sequence:
#
# PCOD9368475 Si02
#       8
#     4  16  16  16  16  16  16  16
#     4  12  26  44  52  74 132 156 190 244 292 340
#     4  10  19  32  52  78 111 149 186 228 286 345
#     4   9  19  35  57  80 108 147 192 241 294 340
#     4  11  21  37  59  81 118 154 188 244 295 342
#     4   9  20  37  58  80 109 150 193 238 293 339
#     4  10  20  36  57  81 117 155 188 240 295 341
#     4  12  25  38  58  85 113 160 201 231 289 355
#     4  11  21  34  54  82 113 148 190 234 287 354
#
# _framework density 18.364875999999999
#
# number of rings (size 3 to 8) (size 9 to 14) (size 15 to 20)
#    0.000    1.655    2.759    3.103    1.931    2.207 
#    0.000    0.000    0.000    0.828    0.000    3.862 
#    0.000    0.000    0.000    0.000    0.000    0.000 
#
# Total GULP energy -161484.643412 kJ/mol
# GULP energy per Si atom -5568.435980 kJ/mol
# Density = 1.832308 g / cm^3
# Si number density = 18.364876 Si / 1000 Ang^3
#
#
#
# Elastic Constant Matrix: (Units=GPa)
#
#
# Indices 1 2 3 4 5 6 
#
# 1 71.3921 24.6376 3.7374 0.0000 0.0000 0.0000
# 2 24.6376 170.7936 72.3347 0.0000 0.0000 0.0000
# 3 3.7374 72.3347 75.7945 0.0000 0.0000 0.0000
# 4 0.0000 0.0000 0.0000 28.3321 0.0000 0.0000
# 5 0.0000 0.0000 0.0000 0.0000 17.4757 0.0000
# 6 0.0000 0.0000 0.0000 0.0000 0.0000 16.3625
#
#
#
# Elastic Compliance Matrix: (Units=1/GPa)
#
#
# Indices 1 2 3 4 5 6 
#
# 1 0.014960 -0.003098 0.002219 0.000000 0.000000 0.000000
# 2 -0.003098 0.010468 -0.009838 0.000000 0.000000 0.000000
# 3 0.002219 -0.009838 0.022473 0.000000 0.000000 0.000000
# 4 0.000000 0.000000 0.000000 0.035296 0.000000 0.000000
# 5 0.000000 0.000000 0.000000 0.000000 0.057222 0.000000
# 6 0.000000 0.000000 0.000000 0.000000 0.000000 0.061115
#
#
# Mechanical properties :
#
#
# Convention : Reuss Voigt Hill
#
# Bulk Modulus (GPa) = 37.78209 57.71107 47.74658
# Shear Modulus (GPa) = 21.57118 26.91876 24.24497
#
# Velocity S-wave (km/s) = 3.43095 3.83270 3.63737
# Velocity P-wave (km/s) = 6.02602 7.14696 6.61029
#
# Compressibility (1/GPa) = 0.02646757
#
# Stress axis : x y z
#
# Youngs Moduli (GPa) = 66.84485 95.52581 44.49807
#
# Poissons Ratio (x) = 0.29591 -0.09872
# Poissons Ratio (y) = 0.20706 0.43776
# Poissons Ratio (z) = -0.14830 0.93976
#
# Static dielectric constant tensor:
#      x y z
#    x 1.655640 0.000000 0.000000 
#    y 0.000000 1.714420 0.000000 
#    z 0.000000 0.000000 1.605400 
# 
# From -- ./inp_files/28483.got.cif
#   From: 2010.05.17/outbox.cif.g08.bks.cpg/sg42_15_cif.got.tgz:28483.got - 2010.06.03 19:03:34.
