data_PCOD9368191
_publ_section_title
;
Structure prediction by ZEFSAII (Michael W. Deem and Ramdas Pophale) SiO2 
 PCOD9368191
Probable space group: F M M 2
;
_chemical_formula_sum "Si O2"
_cell_formula_units_Z 116
_cell_length_a 22.789749
_cell_length_b 27.464854
_cell_length_c 8.803517
_cell_angle_alpha 90.000000
_cell_angle_beta 90.000000
_cell_angle_gamma 90.000000
_cell_volume 5510.272086
_symmetry_space_group_name_H-M "F M M 2"
_symmetry_group_IT_number 42
_symmetry_cell_setting 'orthorhombic'
loop_
_space_group_symop_operation_xyz
x,y,z
-x,-y,z
-x,y,z
x,-y,z
x,1/2+y,1/2+z
-x,1/2-y,1/2+z
-x,1/2+y,1/2+z
x,1/2-y,1/2+z
1/2+x,y,1/2+z
1/2-x,-y,1/2+z
1/2-x,y,1/2+z
1/2+x,-y,1/2+z
1/2+x,1/2+y,z
1/2-x,1/2-y,z
1/2-x,1/2+y,z
1/2+x,1/2-y,z
loop_
_atom_site_type_symbol
_atom_site_label
_atom_site_fract_x
_atom_site_fract_y
_atom_site_fract_z
Si Si1 0.596547 0.926632 0.887800
Si Si2 0.932548 0.442063 0.530428
Si Si3 0.378862 0.749171 0.143039
Si Si4 0.188558 0.899660 0.956929
Si Si5 0.718151 0.553491 0.265693
Si Si6 0.567578 0.316662 0.408508
Si Si7 0.500000 0.500000 0.502604
Si Si8 0.700538 0.291467 0.884085
O O1 0.574305 0.935183 0.713001
O O2 0.664189 0.942769 0.883819
O O3 0.595465 0.869630 0.924362
O O4 0.552027 0.957644 0.989089
O O5 0.923509 0.500000 0.499880
O O6 0.881610 0.409492 0.454202
O O7 0.000000 0.430060 0.488345
O O8 0.404219 0.713661 0.270579
O O9 0.329605 0.782060 0.222849
O O10 0.424223 0.784393 0.059229
O O11 0.347661 0.718109 0.013449
O O12 0.206590 0.908596 0.131242
O O13 0.221410 0.937913 0.850416
O O14 0.214285 0.847873 0.903751
O O15 0.715168 0.500000 0.194857
O O16 0.500000 0.324397 0.373431
O O17 0.750000 0.250000 0.901262
#
# Coordination Sequence:
#
# PCOD9368191 Si02
#       8
#    16  16  16  16  16  16   4  16
#     4  11  19  32  62  91 128 167 215 273 322 379
#     4  10  17  35  63  96 131 171 219 271 321 389
#     4  10  24  42  62  91 129 164 219 271 326 394
#     4  11  25  38  65  95 129 173 212 268 335 390
#     4  11  23  40  60  95 132 171 214 267 328 390
#     4  11  22  39  64  95 131 172 212 269 333 392
#     4  12  16  36  56 100 124 170 226 272 320 380
#     4  11  25  42  66  91 124 167 222 276 328 395
#
# _framework density 21.051593
#
# number of rings (size 3 to 8) (size 9 to 14) (size 15 to 20)
#    0.000    1.241    2.759    4.552    7.724    0.000 
#    0.000    3.448    0.000    0.000    0.000    0.000 
#    0.000    3.310    0.000    0.000    0.000    0.000 
#
# Total GULP energy -161720.539013 kJ/mol
# GULP energy per Si atom -5576.570311 kJ/mol
# Density = 2.100368 g / cm^3
# Si number density = 21.051593 Si / 1000 Ang^3
#
#
#
# Elastic Constant Matrix: (Units=GPa)
#
#
# Indices 1 2 3 4 5 6 
#
# 1 92.7219 12.6072 4.4752 0.0007 -0.0012 0.0009
# 2 12.6072 116.2251 4.4620 0.0017 -0.0013 -0.0001
# 3 4.4752 4.4620 20.7671 0.0015 -0.0041 0.0044
# 4 0.0007 0.0017 0.0015 -8.3028 0.0004 0.0005
# 5 -0.0012 -0.0013 -0.0041 0.0004 21.0820 -0.0023
# 6 0.0009 -0.0001 0.0044 0.0005 -0.0023 16.8012
#
#
#
# Elastic Compliance Matrix: (Units=1/GPa)
#
#
# Indices 1 2 3 4 5 6 
#
# 1 0.011040 -0.001115 -0.002139 0.000000 0.000000 0.000000
# 2 -0.001115 0.008788 -0.001648 0.000001 0.000000 0.000001
# 3 -0.002139 -0.001648 0.048968 0.000008 0.000009 -0.000013
# 4 0.000000 0.000001 0.000008 -0.120441 0.000002 0.000003
# 5 0.000000 0.000000 0.000009 0.000002 0.047434 0.000006
# 6 0.000000 0.000001 -0.000013 0.000003 0.000006 0.059520
#
#
# Mechanical properties :
#
#
# Convention : Reuss Voigt Hill
#
# Bulk Modulus (GPa) = 16.95175 30.31143 23.63159
# Shear Modulus (GPa) = 58.97811 19.79406 39.38608
#
# Velocity S-wave (km/s) = 5.29876 3.06970 4.33012
# Velocity P-wave (km/s) = 6.74579 5.19557 6.02078
#
# Compressibility (1/GPa) = 0.05899096
#
# Stress axis : x y z
#
# Youngs Moduli (GPa) = 90.58093 113.78835 20.42143
#
# Poissons Ratio (x) = 0.12692 0.04369
# Poissons Ratio (y) = 0.10103 0.03365
# Poissons Ratio (z) = 0.19379 0.18751
#
# Static dielectric constant tensor:
#      x y z
#    x 1.769240 0.000000 0.000000 
#    y 0.000000 1.842070 0.000000 
#    z 0.000000 0.000000 1.746590 
# 
# From -- ./inp_files/4871.got.cif
#   From: 2010.05.17/outbox.cif.g08.bks.cpg/sg42_3_cif.got.tgz:4871.got - 2010.06.03 19:03:34.
