data_PCOD9368992
_publ_section_title
;
Structure prediction by ZEFSAII (Michael W. Deem and Ramdas Pophale) SiO2 
 PCOD9368992
Probable space group: F M M 2
;
_chemical_formula_sum "Si O2"
_cell_formula_units_Z 64
_cell_length_a 21.539693
_cell_length_b 18.377417
_cell_length_c 8.312014
_cell_angle_alpha 90.000000
_cell_angle_beta 90.000000
_cell_angle_gamma 90.000000
_cell_volume 3290.260207
_symmetry_space_group_name_H-M "F M M 2"
_symmetry_group_IT_number 42
_symmetry_cell_setting 'orthorhombic'
loop_
_space_group_symop_operation_xyz
x,y,z
-x,-y,z
-x,y,z
x,-y,z
x,1/2+y,1/2+z
-x,1/2-y,1/2+z
-x,1/2+y,1/2+z
x,1/2-y,1/2+z
1/2+x,y,1/2+z
1/2-x,-y,1/2+z
1/2-x,y,1/2+z
1/2+x,-y,1/2+z
1/2+x,1/2+y,z
1/2-x,1/2-y,z
1/2-x,1/2+y,z
1/2+x,1/2-y,z
loop_
_atom_site_type_symbol
_atom_site_label
_atom_site_fract_x
_atom_site_fract_y
_atom_site_fract_z
Si Si1 0.371235 0.724119 0.722590
Si Si2 0.571048 0.646682 0.427648
Si Si3 0.797227 0.336080 0.514852
Si Si4 0.307156 0.419324 0.334704
O O1 0.413834 0.679055 0.602593
O O2 0.410895 0.788139 0.804884
O O3 0.316377 0.764608 0.620811
O O4 0.342055 0.673882 0.861149
O O5 0.500000 0.625176 0.410220
O O6 0.622315 0.585920 0.393655
O O7 0.732138 0.357947 0.430807
O O8 0.806703 0.398882 0.646623
O O9 0.281353 0.500000 0.360969
#
# Coordination Sequence:
#
# PCOD9368992 Si02
#       4
#    16  16  16  16
#     4   9  20  36  57  87 114 136 175 233 292 335
#     4  10  20  35  57  82 111 146 182 225 275 330
#     4  10  21  36  57  84 113 141 177 231 287 330
#     4  11  23  37  55  79 112 152 188 222 264 327
#
# _framework density 19.451350000000001
#
# number of rings (size 3 to 8) (size 9 to 14) (size 15 to 20)
#    0.000    2.000    0.000    3.000    0.000   17.500 
#    0.000    2.500    0.000    0.000    0.000    0.000 
#    0.000    0.000    0.000    0.000    0.000    0.000 
#
# Total GULP energy -89191.907267 kJ/mol
# GULP energy per Si atom -5574.494204 kJ/mol
# Density = 1.940708 g / cm^3
# Si number density = 19.451350 Si / 1000 Ang^3
#
#
#
# Elastic Constant Matrix: (Units=GPa)
#
#
# Indices 1 2 3 4 5 6 
#
# 1 95.8908 -14.5943 23.8379 0.0001 0.0000 0.0000
# 2 -14.5943 31.5171 18.0043 0.0001 -0.0001 0.0000
# 3 23.8379 18.0043 115.9113 0.0000 0.0000 0.0000
# 4 0.0001 0.0001 0.0000 19.4812 0.0000 0.0000
# 5 0.0000 -0.0001 0.0000 0.0000 17.0209 0.0000
# 6 0.0000 0.0000 0.0000 0.0000 0.0000 10.8087
#
#
#
# Elastic Compliance Matrix: (Units=1/GPa)
#
#
# Indices 1 2 3 4 5 6 
#
# 1 0.012605 0.008030 -0.003840 0.000000 0.000000 0.000000
# 2 0.008030 0.039934 -0.007854 0.000000 0.000000 0.000000
# 3 -0.003840 -0.007854 0.010637 0.000000 0.000000 0.000000
# 4 0.000000 0.000000 0.000000 0.051332 0.000000 0.000000
# 5 0.000000 0.000000 0.000000 0.000000 0.058751 0.000000
# 6 0.000000 0.000000 0.000000 0.000000 0.000000 0.092518
#
#
# Mechanical properties :
#
#
# Convention : Reuss Voigt Hill
#
# Bulk Modulus (GPa) = 17.90535 33.09054 25.49795
# Shear Modulus (GPa) = 17.13965 23.86691 20.50328
#
# Velocity S-wave (km/s) = 2.97165 3.50666 3.25018
# Velocity P-wave (km/s) = 4.58251 5.78312 5.21747
#
# Compressibility (1/GPa) = 0.05584922
#
# Stress axis : x y z
#
# Youngs Moduli (GPa) = 79.33185 25.04109 94.01173
#
# Poissons Ratio (x) = -0.20109 0.36098
# Poissons Ratio (y) = -0.63707 0.73841
# Poissons Ratio (z) = 0.30461 0.19668
#
# Static dielectric constant tensor:
#      x y z
#    x 1.689900 0.000000 0.000000 
#    y 0.000000 1.730380 0.000000 
#    z 0.000000 0.000000 1.685280 
# 
# From -- ./inp_files/3218.got.cif
#   From: 2010.05.17/outbox.cif.g08.bks.cpg/sg42_2_cif.got.tgz:3218.got - 2010.06.03 19:03:34.
