data_PCOD9368639
_publ_section_title
;
Structure prediction by ZEFSAII (Michael W. Deem and Ramdas Pophale) SiO2 
 PCOD9368639
Probable space group: F M M 2
;
_chemical_formula_sum "Si O2"
_cell_formula_units_Z 96
_cell_length_a 22.548720
_cell_length_b 28.759837
_cell_length_c 6.928623
_cell_angle_alpha 90.000000
_cell_angle_beta 90.000000
_cell_angle_gamma 90.000000
_cell_volume 4493.194775
_symmetry_space_group_name_H-M "F M M 2"
_symmetry_group_IT_number 42
_symmetry_cell_setting 'orthorhombic'
loop_
_space_group_symop_operation_xyz
x,y,z
-x,-y,z
-x,y,z
x,-y,z
x,1/2+y,1/2+z
-x,1/2-y,1/2+z
-x,1/2+y,1/2+z
x,1/2-y,1/2+z
1/2+x,y,1/2+z
1/2-x,-y,1/2+z
1/2-x,y,1/2+z
1/2+x,-y,1/2+z
1/2+x,1/2+y,z
1/2-x,1/2-y,z
1/2-x,1/2+y,z
1/2+x,1/2-y,z
loop_
_atom_site_type_symbol
_atom_site_label
_atom_site_fract_x
_atom_site_fract_y
_atom_site_fract_z
Si Si1 0.755029 0.405305 0.783840
Si Si2 0.126077 0.806278 0.024366
Si Si3 0.253332 0.332346 0.532007
Si Si4 0.933442 0.370966 0.229159
Si Si5 0.347831 0.446394 0.555212
Si Si6 0.112369 0.201603 0.457958
O O1 0.762819 0.391205 0.532301
O O2 0.700732 0.439093 0.727662
O O3 0.751897 0.345937 0.781127
O O4 0.816537 0.428380 0.856292
O O5 0.196867 0.799122 0.024140
O O6 0.107562 0.815329 0.241228
O O7 0.106569 0.850532 0.901451
O O8 0.101856 0.756640 0.957512
O O9 0.321030 0.312657 0.532218
O O10 0.900706 0.412477 0.117712
O O11 0.000000 0.382644 0.288805
O O12 0.932458 0.326710 0.087821
O O13 0.363728 0.500000 0.538336
#
# Coordination Sequence:
#
# PCOD9368639 Si02
#       6
#    16  16  16  16  16  16
#     4  10  19  34  63  95 131 161 197 265 333 390
#     4  12  24  40  64  99 131 173 225 271 337 392
#     4  11  18  35  62  93 135 165 202 259 335 398
#     4  12  27  46  64  90 132 181 230 277 323 390
#     4  11  22  41  67 100 130 166 215 272 340 399
#     4  12  24  40  65  96 133 178 218 277 327 398
#
# _framework density 21.365645000000001
#
# number of rings (size 3 to 8) (size 9 to 14) (size 15 to 20)
#    0.000    0.667    8.333    1.000    0.000    3.000 
#    0.000    0.000    0.000    0.000    0.000    2.333 
#    0.000    0.000    0.000    0.000    0.000    0.000 
#
# Total GULP energy -133694.106183 kJ/mol
# GULP energy per Si atom -5570.587758 kJ/mol
# Density = 2.131702 g / cm^3
# Si number density = 21.365645 Si / 1000 Ang^3
#
#
#
# Elastic Constant Matrix: (Units=GPa)
#
#
# Indices 1 2 3 4 5 6 
#
# 1 89.2884 26.8077 8.7601 -0.0102 0.0314 0.0141
# 2 26.8077 115.1325 20.5132 -0.0025 0.0181 0.0063
# 3 8.7601 20.5132 124.0294 -0.0097 0.0225 0.0132
# 4 -0.0102 -0.0025 -0.0097 26.8061 0.0169 0.0071
# 5 0.0314 0.0181 0.0225 0.0169 8.7446 -0.0218
# 6 0.0141 0.0063 0.0132 0.0071 -0.0218 5.5394
#
#
#
# Elastic Compliance Matrix: (Units=1/GPa)
#
#
# Indices 1 2 3 4 5 6 
#
# 1 0.012061 -0.002737 -0.000399 0.000004 -0.000037 -0.000027
# 2 -0.002737 0.009571 -0.001390 -0.000001 -0.000006 -0.000001
# 3 -0.000399 -0.001390 0.008321 0.000003 -0.000017 -0.000017
# 4 0.000004 -0.000001 0.000003 0.037305 -0.000072 -0.000048
# 5 -0.000037 -0.000006 -0.000017 -0.000072 0.114358 0.000451
# 6 -0.000027 -0.000001 -0.000017 -0.000048 0.000451 0.180527
#
#
# Mechanical properties :
#
#
# Convention : Reuss Voigt Hill
#
# Bulk Modulus (GPa) = 47.84642 48.95693 48.40168
# Shear Modulus (GPa) = 13.22192 26.37597 19.79895
#
# Velocity S-wave (km/s) = 2.49035 3.51736 3.04743
# Velocity P-wave (km/s) = 5.54182 6.28167 5.92331
#
# Compressibility (1/GPa) = 0.02090021
#
# Stress axis : x y z
#
# Youngs Moduli (GPa) = 82.91448 104.48743 120.18342
#
# Poissons Ratio (x) = 0.28599 0.04797
# Poissons Ratio (y) = 0.22694 0.16700
# Poissons Ratio (z) = 0.03309 0.14519
#
# Static dielectric constant tensor:
#      x y z
#    x 1.697800 0.000000 0.000000 
#    y 0.000000 1.754640 0.000000 
#    z 0.000000 0.000000 2.110440 
# 
# From -- ./inp_files/4798.got.cif
#   From: 2010.05.17/outbox.cif.g08.bks.cpg/sg42_3_cif.got.tgz:4798.got - 2010.06.03 19:03:34.
