data_PCOD9368980
_publ_section_title
;
Structure prediction by ZEFSAII (Michael W. Deem and Ramdas Pophale) SiO2 
 PCOD9368980
Probable space group: F M M 2
;
_chemical_formula_sum "Si O2"
_cell_formula_units_Z 80
_cell_length_a 17.702822
_cell_length_b 25.003809
_cell_length_c 10.454300
_cell_angle_alpha 90.000000
_cell_angle_beta 90.000000
_cell_angle_gamma 90.000000
_cell_volume 4627.470235
_symmetry_space_group_name_H-M "F M M 2"
_symmetry_group_IT_number 42
_symmetry_cell_setting 'orthorhombic'
loop_
_space_group_symop_operation_xyz
x,y,z
-x,-y,z
-x,y,z
x,-y,z
x,1/2+y,1/2+z
-x,1/2-y,1/2+z
-x,1/2+y,1/2+z
x,1/2-y,1/2+z
1/2+x,y,1/2+z
1/2-x,-y,1/2+z
1/2-x,y,1/2+z
1/2+x,-y,1/2+z
1/2+x,1/2+y,z
1/2-x,1/2-y,z
1/2-x,1/2+y,z
1/2+x,1/2-y,z
loop_
_atom_site_type_symbol
_atom_site_label
_atom_site_fract_x
_atom_site_fract_y
_atom_site_fract_z
Si Si1 0.915820 0.500000 0.607450
Si Si2 0.914317 0.000000 0.798492
Si Si3 0.680714 0.898111 0.600599
Si Si4 0.337082 0.771075 0.326847
Si Si5 0.186114 0.103935 0.804791
Si Si6 0.909863 0.287498 0.589721
O O1 0.919859 0.500000 0.452853
O O2 0.870241 0.552382 0.642296
O O3 0.000000 0.500000 0.659603
O O4 0.869887 0.944921 0.767543
O O5 0.000000 0.000000 0.747375
O O6 0.747213 0.894192 0.702273
O O7 0.708771 0.906445 0.453774
O O8 0.628567 0.845732 0.598238
O O9 0.250000 0.750000 0.321119
O O10 0.344013 0.835134 0.306697
O O11 0.384986 0.743086 0.216838
O O12 0.371908 0.759703 0.466199
O O13 0.000000 0.290853 0.575881
#
# Coordination Sequence:
#
# PCOD9368980 Si02
#       6
#     8   8  16  16  16  16
#     4   9  17  32  55  79 108 141 178 230 284 327
#     4   9  19  36  57  85 114 143 188 242 288 335
#     4  10  20  35  56  82 110 143 190 232 280 342
#     4  11  22  38  59  83 116 156 194 233 287 346
#     4  10  21  35  60  82 109 147 188 233 283 344
#     4  11  23  37  57  85 116 150 193 241 287 338
#
# _framework density 17.288063000000001
#
# number of rings (size 3 to 8) (size 9 to 14) (size 15 to 20)
#    0.000    1.800    2.000    2.400    2.800    5.600 
#    0.000    0.000    0.000    3.600    0.000    0.000 
#    0.000    0.000    0.000    0.000    0.000    0.000 
#
# Total GULP energy -111494.997655 kJ/mol
# GULP energy per Si atom -5574.749883 kJ/mol
# Density = 1.724871 g / cm^3
# Si number density = 17.288063 Si / 1000 Ang^3
#
#
#
# Elastic Constant Matrix: (Units=GPa)
#
#
# Indices 1 2 3 4 5 6 
#
# 1 110.1774 30.6265 48.0435 0.0000 0.0000 0.0000
# 2 30.6265 95.5910 35.2113 0.0000 0.0000 0.0000
# 3 48.0435 35.2113 87.8115 0.0000 0.0000 0.0000
# 4 0.0000 0.0000 0.0000 32.6641 0.0000 0.0000
# 5 0.0000 0.0000 0.0000 0.0000 15.5880 0.0000
# 6 0.0000 0.0000 0.0000 0.0000 0.0000 1.8274
#
#
#
# Elastic Compliance Matrix: (Units=1/GPa)
#
#
# Indices 1 2 3 4 5 6 
#
# 1 0.012150 -0.001694 -0.005968 0.000000 0.000000 0.000000
# 2 -0.001694 0.012510 -0.004090 0.000000 0.000000 0.000000
# 3 -0.005968 -0.004090 0.016293 0.000000 0.000000 0.000000
# 4 0.000000 0.000000 0.000000 0.030615 0.000000 0.000000
# 5 0.000000 0.000000 0.000000 0.000000 0.064152 0.000000
# 6 0.000000 0.000000 0.000000 0.000000 0.000000 0.547238
#
#
# Mechanical properties :
#
#
# Convention : Reuss Voigt Hill
#
# Bulk Modulus (GPa) = 57.30791 57.92693 57.61742
# Shear Modulus (GPa) = 7.01974 21.99580 14.50777
#
# Velocity S-wave (km/s) = 2.01724 3.57082 2.90000
# Velocity P-wave (km/s) = 6.21663 7.11201 6.67934
#
# Compressibility (1/GPa) = 0.01744960
#
# Stress axis : x y z
#
# Youngs Moduli (GPa) = 82.30742 79.93294 61.37587
#
# Poissons Ratio (x) = 0.13543 0.36628
# Poissons Ratio (y) = 0.13945 0.25100
# Poissons Ratio (z) = 0.49120 0.32689
#
# Static dielectric constant tensor:
#      x y z
#    x 1.571290 0.000000 0.000000 
#    y 0.000000 1.591560 0.000000 
#    z 0.000000 0.000000 1.572620 
# 
# From -- ./inp_files/3514.got.cif
#   From: 2010.05.17/outbox.cif.g08.bks.cpg/sg42_2_cif.got.tgz:3514.got - 2010.06.03 19:03:34.
