data_PCOD9368849
_publ_section_title
;
Structure prediction by ZEFSAII (Michael W. Deem and Ramdas Pophale) SiO2 
 PCOD9368849
Probable space group: F M M 2
;
_chemical_formula_sum "Si O2"
_cell_formula_units_Z 112
_cell_length_a 13.973358
_cell_length_b 17.092233
_cell_length_c 30.104904
_cell_angle_alpha 90.000000
_cell_angle_beta 90.000000
_cell_angle_gamma 90.000000
_cell_volume 7190.131562
_symmetry_space_group_name_H-M "F M M 2"
_symmetry_group_IT_number 42
_symmetry_cell_setting 'orthorhombic'
loop_
_space_group_symop_operation_xyz
x,y,z
-x,-y,z
-x,y,z
x,-y,z
x,1/2+y,1/2+z
-x,1/2-y,1/2+z
-x,1/2+y,1/2+z
x,1/2-y,1/2+z
1/2+x,y,1/2+z
1/2-x,-y,1/2+z
1/2-x,y,1/2+z
1/2+x,-y,1/2+z
1/2+x,1/2+y,z
1/2-x,1/2-y,z
1/2-x,1/2+y,z
1/2+x,1/2-y,z
loop_
_atom_site_type_symbol
_atom_site_label
_atom_site_fract_x
_atom_site_fract_y
_atom_site_fract_z
Si Si1 0.389411 0.407685 0.476560
Si Si2 0.387222 0.405104 0.838097
Si Si3 0.610589 0.907685 0.504310
Si Si4 0.112778 0.405104 0.142773
Si Si5 0.276299 0.159141 0.058684
Si Si6 0.776299 0.159141 0.922186
Si Si7 0.383877 0.909608 0.240435
O O1 0.500000 0.389965 0.467646
O O2 0.380954 0.500000 0.487104
O O3 0.350137 0.359673 0.518695
O O4 0.319657 0.387336 0.435936
O O5 0.500000 0.386439 0.844814
O O6 0.380477 0.500000 0.839003
O O7 0.323441 0.369472 0.876771
O O8 0.356972 0.376753 0.788644
O O9 0.500000 0.889965 0.513224
O O10 0.680342 0.887336 0.544934
O O11 0.649863 0.859673 0.462175
O O12 0.619046 0.000000 0.493766
O O13 0.119523 0.500000 0.141867
O O14 0.176559 0.369471 0.104099
O O15 0.143028 0.376753 0.192226
O O16 0.000000 0.386439 0.136056
O O17 0.250000 0.250000 0.059771
O O18 0.750000 0.250000 0.921098
O O19 0.500000 0.910926 0.240435
O O20 0.351788 0.000000 0.240435
#
# Coordination Sequence:
#
# PCOD9368849 Si02
#       7
#    16  16  16  16  16  16  16
#     4  10  20  34  50  65  85 117 156 194 224 256
#     4   9  16  29  50  72  93 117 148 187 226 264
#     4  10  20  34  50  65  85 117 156 194 224 256
#     4   9  16  29  50  72  93 117 148 187 226 264
#     4  11  21  30  44  68  95 122 148 178 224 276
#     4  11  21  30  44  68  95 122 148 178 224 276
#     4   7  12  24  45  72  93 111 143 187 228 259
#
# _framework density 15.576905
#
# number of rings (size 3 to 8) (size 9 to 14) (size 15 to 20)
#    0.000    2.429    0.000    7.714    0.000    5.714 
#    0.000    0.714    0.000    0.000    0.000    1.000 
#    0.000    5.714    0.000    0.000    0.000    0.857 
#
# Total GULP energy -156000.963037 kJ/mol
# GULP energy per Si atom -5571.462966 kJ/mol
# Density = 1.554145 g / cm^3
# Si number density = 15.576905 Si / 1000 Ang^3
#
#
#
# Elastic Constant Matrix: (Units=GPa)
#
#
# Indices 1 2 3 4 5 6 
#
# 1 104.9307 33.8849 71.8350 0.0000 0.0000 0.0000
# 2 33.8849 56.7056 41.5882 0.0000 0.0000 0.0000
# 3 71.8350 41.5882 161.0355 0.0000 0.0000 0.0000
# 4 0.0000 0.0000 0.0000 18.3971 0.0000 0.0000
# 5 0.0000 0.0000 0.0000 0.0000 25.2897 0.0000
# 6 0.0000 0.0000 0.0000 0.0000 0.0000 -38.1423
#
#
#
# Elastic Compliance Matrix: (Units=1/GPa)
#
#
# Indices 1 2 3 4 5 6 
#
# 1 0.014755 -0.004922 -0.005311 0.000000 0.000000 0.000000
# 2 -0.004922 0.023397 -0.003847 0.000000 0.000000 0.000000
# 3 -0.005311 -0.003847 0.009572 0.000000 0.000000 0.000000
# 4 0.000000 0.000000 0.000000 0.054357 0.000000 0.000000
# 5 0.000000 0.000000 0.000000 0.000000 0.039542 0.000000
# 6 0.000000 0.000000 0.000000 0.000000 0.000000 -0.026218
#
#
# Mechanical properties :
#
#
# Convention : Reuss Voigt Hill
#
# Bulk Modulus (GPa) = 51.11054 68.58756 59.84905
# Shear Modulus (GPa) = 33.31383 12.79980 23.05681
#
# Velocity S-wave (km/s) = 4.62959 2.86967 3.85150
# Velocity P-wave (km/s) = 7.83967 7.42342 7.63438
#
# Compressibility (1/GPa) = 0.01956544
#
# Stress axis : x y z
#
# Youngs Moduli (GPa) = 67.77154 42.73961 104.46695
#
# Poissons Ratio (x) = 0.21037 0.55482
# Poissons Ratio (y) = 0.33358 0.40187
# Poissons Ratio (z) = 0.35993 0.16441
#
# Static dielectric constant tensor:
#      x y z
#    x 1.510920 0.000000 0.000000 
#    y 0.000000 1.512930 0.000000 
#    z 0.000000 0.000000 1.538840 
# 
# From -- ./inp_files/32627.got.cif
#   From: 2010.05.17/outbox.cif.g08.bks.cpg/sg42_17_cif.got.tgz:32627.got - 2010.06.03 19:03:34.
