data_PCOD9368149
_publ_section_title
;
Structure prediction by ZEFSAII (Michael W. Deem and Ramdas Pophale) SiO2 
 PCOD9368149
Probable space group: F M M 2
;
_chemical_formula_sum "Si O2"
_cell_formula_units_Z 80
_cell_length_a 31.500936
_cell_length_b 8.144271
_cell_length_c 14.823130
_cell_angle_alpha 90.000000
_cell_angle_beta 90.000000
_cell_angle_gamma 90.000000
_cell_volume 3802.906013
_symmetry_space_group_name_H-M "F M M 2"
_symmetry_group_IT_number 42
_symmetry_cell_setting 'orthorhombic'
loop_
_space_group_symop_operation_xyz
x,y,z
-x,-y,z
-x,y,z
x,-y,z
x,1/2+y,1/2+z
-x,1/2-y,1/2+z
-x,1/2+y,1/2+z
x,1/2-y,1/2+z
1/2+x,y,1/2+z
1/2-x,-y,1/2+z
1/2-x,y,1/2+z
1/2+x,-y,1/2+z
1/2+x,1/2+y,z
1/2-x,1/2-y,z
1/2-x,1/2+y,z
1/2+x,1/2-y,z
loop_
_atom_site_type_symbol
_atom_site_label
_atom_site_fract_x
_atom_site_fract_y
_atom_site_fract_z
Si Si1 0.548087 0.197498 0.187880
Si Si2 0.883156 0.801479 0.544518
Si Si3 0.795877 0.689394 0.818247
Si Si4 0.112557 0.301114 0.835584
Si Si5 0.706512 0.693035 0.023353
O O1 0.500000 0.260902 0.184543
O O2 0.578610 0.256551 0.107292
O O3 0.572807 0.241719 0.278834
O O4 0.546160 0.000000 0.180898
O O5 0.890114 0.751850 0.440398
O O6 0.837205 0.733173 0.572912
O O7 0.881088 0.000000 0.547704
O O8 0.797542 0.500000 0.793352
O O9 0.750000 0.750000 0.786457
O O10 0.842222 0.763116 0.795836
O O11 0.795050 0.710232 0.927770
O O12 0.113691 0.500000 0.833256
O O13 0.708676 0.500000 0.004145
O O14 0.750000 0.750000 0.069539
#
# Coordination Sequence:
#
# PCOD9368149 Si02
#       5
#    16  16  16  16  16
#     4  10  22  39  58  80 106 137 177 226 276 324
#     4   9  19  37  57  78 108 145 181 217 264 321
#     4   9  16  28  48  76 109 144 180 215 258 312
#     4   9  19  35  56  81 109 142 179 218 262 318
#     4  10  17  27  48  78 110 143 179 217 260 310
#
# _framework density 21.036542000000001
#
# number of rings (size 3 to 8) (size 9 to 14) (size 15 to 20)
#    0.000    2.600    0.000    4.800    0.000    6.000 
#    0.000    3.000    0.000    2.400    0.000    0.000 
#    0.000    0.000    0.000    0.000    0.000    0.000 
#
# Total GULP energy -111582.137309 kJ/mol
# GULP energy per Si atom -5579.106865 kJ/mol
# Density = 2.098866 g / cm^3
# Si number density = 21.036542 Si / 1000 Ang^3
#
#
#
# Elastic Constant Matrix: (Units=GPa)
#
#
# Indices 1 2 3 4 5 6 
#
# 1 241.7555 15.6091 63.4403 0.0000 0.0000 0.0000
# 2 15.6091 14.3505 -2.1130 0.0000 0.0000 0.0000
# 3 63.4403 -2.1130 76.8722 0.0000 0.0000 0.0000
# 4 0.0000 0.0000 0.0000 16.1687 0.0000 0.0000
# 5 0.0000 0.0000 0.0000 0.0000 37.2454 0.0000
# 6 0.0000 0.0000 0.0000 0.0000 0.0000 30.7808
#
#
#
# Elastic Compliance Matrix: (Units=1/GPa)
#
#
# Indices 1 2 3 4 5 6 
#
# 1 0.005941 -0.007213 -0.005101 0.000000 0.000000 0.000000
# 2 -0.007213 0.078725 0.008116 0.000000 0.000000 0.000000
# 3 -0.005101 0.008116 0.017441 0.000000 0.000000 0.000000
# 4 0.000000 0.000000 0.000000 0.061848 0.000000 0.000000
# 5 0.000000 0.000000 0.000000 0.000000 0.026849 0.000000
# 6 0.000000 0.000000 0.000000 0.000000 0.000000 0.032488
#
#
# Mechanical properties :
#
#
# Convention : Reuss Voigt Hill
#
# Bulk Modulus (GPa) = 10.67100 54.09457 32.38278
# Shear Modulus (GPa) = 19.01697 33.90843 26.46270
#
# Velocity S-wave (km/s) = 3.00992 4.01918 3.55059
# Velocity P-wave (km/s) = 4.14283 6.87814 5.67767
#
# Compressibility (1/GPa) = 0.09371194
#
# Stress axis : x y z
#
# Youngs Moduli (GPa) = 168.33133 12.70252 57.33508
#
# Poissons Ratio (x) = 0.09162 0.29246
# Poissons Ratio (y) = 1.21414 -0.46535
# Poissons Ratio (z) = 0.85864 -0.10310
#
# Static dielectric constant tensor:
#      x y z
#    x 1.797000 0.000000 0.000000 
#    y 0.000000 1.733490 0.000000 
#    z 0.000000 0.000000 1.777340 
# 
# From -- ./inp_files/18215.got.cif
#   From: 2010.05.17/outbox.cif.g08.bks.cpg/sg42_10_cif.got.tgz:18215.got - 2010.06.03 19:03:34.
