data_PCOD9368463
_publ_section_title
;
Structure prediction by ZEFSAII (Michael W. Deem and Ramdas Pophale) SiO2 
 PCOD9368463
Probable space group: F M M 2
;
_chemical_formula_sum "Si O2"
_cell_formula_units_Z 96
_cell_length_a 26.286383
_cell_length_b 7.928047
_cell_length_c 24.429393
_cell_angle_alpha 90.000000
_cell_angle_beta 90.000000
_cell_angle_gamma 90.000000
_cell_volume 5091.077681
_symmetry_space_group_name_H-M "F M M 2"
_symmetry_group_IT_number 42
_symmetry_cell_setting 'orthorhombic'
loop_
_space_group_symop_operation_xyz
x,y,z
-x,-y,z
-x,y,z
x,-y,z
x,1/2+y,1/2+z
-x,1/2-y,1/2+z
-x,1/2+y,1/2+z
x,1/2-y,1/2+z
1/2+x,y,1/2+z
1/2-x,-y,1/2+z
1/2-x,y,1/2+z
1/2+x,-y,1/2+z
1/2+x,1/2+y,z
1/2-x,1/2-y,z
1/2-x,1/2+y,z
1/2+x,1/2-y,z
loop_
_atom_site_type_symbol
_atom_site_label
_atom_site_fract_x
_atom_site_fract_y
_atom_site_fract_z
Si Si1 0.559317 0.206402 0.475520
Si Si2 0.692050 0.200720 0.663232
Si Si3 0.000000 0.205788 0.785773
Si Si4 0.400728 0.702354 0.091564
Si Si5 0.097137 0.706639 0.357261
Si Si6 0.000000 0.702629 0.160307
Si Si7 0.307800 0.299594 0.788838
O O1 0.500000 0.257618 0.476293
O O2 0.587428 0.265600 0.530446
O O3 0.585823 0.260585 0.419224
O O4 0.559268 0.000000 0.475918
O O5 0.750000 0.250000 0.650267
O O6 0.649529 0.270137 0.621861
O O7 0.681081 0.250655 0.726008
O O8 0.689613 0.000000 0.661240
O O9 0.050194 0.258165 0.818649
O O10 0.000000 0.262962 0.723083
O O11 0.000000 0.000000 0.785226
O O12 0.395285 0.500000 0.087257
O O13 0.449891 0.737726 0.128698
O O14 0.097635 0.500000 0.357717
O O15 0.149628 0.767170 0.330352
O O16 0.000000 0.500000 0.160662
O O17 0.310259 0.500000 0.791030
O O18 0.250000 0.250000 0.801723
#
# Coordination Sequence:
#
# PCOD9368463 Si02
#       7
#    16  16   8  16  16   8  16
#     4   9  15  28  51  73  96 129 167 207 244 290
#     4  10  20  34  53  75 102 135 172 210 255 306
#     4   9  16  26  41  69 101 123 150 197 252 292
#     4  10  20  34  52  75 101 132 171 211 253 303
#     4   9  16  27  47  74  98 123 162 207 246 288
#     4  11  21  30  47  75 107 135 162 205 256 306
#     4  10  19  32  51  75 103 132 167 206 250 303
#
# _framework density 18.856518000000001
#
# number of rings (size 3 to 8) (size 9 to 14) (size 15 to 20)
#    0.000    2.333    1.667    3.250    0.000    2.667 
#    0.000    0.833    0.000    2.000    0.000    2.333 
#    0.000    0.000    0.000    0.000    0.000    0.000 
#
# Total GULP energy -133940.351598 kJ/mol
# GULP energy per Si atom -5580.847983 kJ/mol
# Density = 1.881360 g / cm^3
# Si number density = 18.856518 Si / 1000 Ang^3
#
#
#
# Elastic Constant Matrix: (Units=GPa)
#
#
# Indices 1 2 3 4 5 6 
#
# 1 170.5430 6.2300 130.9297 0.0000 0.0000 0.0000
# 2 6.2300 20.6281 5.9767 -0.0001 0.0000 0.0000
# 3 130.9297 5.9767 203.1040 0.0000 0.0000 0.0000
# 4 0.0000 -0.0001 0.0000 9.5102 0.0000 0.0000
# 5 0.0000 0.0000 0.0000 0.0000 6.3223 0.0000
# 6 0.0000 0.0000 0.0000 0.0000 0.0000 7.3713
#
#
#
# Elastic Compliance Matrix: (Units=1/GPa)
#
#
# Indices 1 2 3 4 5 6 
#
# 1 0.011646 -0.001354 -0.007468 0.000000 0.000000 0.000000
# 2 -0.001354 0.049052 -0.000571 0.000001 0.000000 0.000000
# 3 -0.007468 -0.000571 0.009755 0.000000 0.000000 0.000000
# 4 0.000000 0.000001 0.000000 0.105151 0.000000 0.000000
# 5 0.000000 0.000000 0.000000 0.000000 0.158171 0.000001
# 6 0.000000 0.000000 0.000000 0.000000 0.000001 0.135662
#
#
# Mechanical properties :
#
#
# Convention : Reuss Voigt Hill
#
# Bulk Modulus (GPa) = 19.35436 75.61642 47.48539
# Shear Modulus (GPa) = 9.89230 21.38332 15.63781
#
# Velocity S-wave (km/s) = 2.29292 3.37115 2.88289
# Velocity P-wave (km/s) = 4.15888 7.43914 6.02649
#
# Compressibility (1/GPa) = 0.05166793
#
# Stress axis : x y z
#
# Youngs Moduli (GPa) = 85.86373 20.38661 102.51652
#
# Poissons Ratio (x) = 0.02760 0.76558
# Poissons Ratio (y) = 0.11623 0.05852
# Poissons Ratio (z) = 0.64122 0.01164
#
# Static dielectric constant tensor:
#      x y z
#    x 1.652070 0.000000 0.000000 
#    y 0.000000 1.678500 0.000000 
#    z 0.000000 0.000000 1.647960 
# 
# From -- ./inp_files/30465.got.cif
#   From: 2010.05.17/outbox.cif.g08.bks.cpg/sg42_16_cif.got.tgz:30465.got - 2010.06.03 19:03:34.
