data_PCOD9368564
_publ_section_title
;
Structure prediction by ZEFSAII (Michael W. Deem and Ramdas Pophale) SiO2 
 PCOD9368564
Probable space group: F M M 2
;
_chemical_formula_sum "Si O2"
_cell_formula_units_Z 96
_cell_length_a 14.777648
_cell_length_b 11.703623
_cell_length_c 26.125137
_cell_angle_alpha 90.000000
_cell_angle_beta 90.000000
_cell_angle_gamma 90.000000
_cell_volume 4518.395244
_symmetry_space_group_name_H-M "F M M 2"
_symmetry_group_IT_number 42
_symmetry_cell_setting 'orthorhombic'
loop_
_space_group_symop_operation_xyz
x,y,z
-x,-y,z
-x,y,z
x,-y,z
x,1/2+y,1/2+z
-x,1/2-y,1/2+z
-x,1/2+y,1/2+z
x,1/2-y,1/2+z
1/2+x,y,1/2+z
1/2-x,-y,1/2+z
1/2-x,y,1/2+z
1/2+x,-y,1/2+z
1/2+x,1/2+y,z
1/2-x,1/2-y,z
1/2-x,1/2+y,z
1/2+x,1/2-y,z
loop_
_atom_site_type_symbol
_atom_site_label
_atom_site_fract_x
_atom_site_fract_y
_atom_site_fract_z
Si Si1 0.389979 0.000000 0.675241
Si Si2 0.389252 0.371660 0.702847
Si Si3 0.389434 0.223081 0.611848
Si Si4 0.803596 0.369448 0.396880
Si Si5 0.893678 0.130910 0.008069
Si Si6 0.608268 0.247456 0.305606
Si Si7 0.610493 0.500000 0.294552
O O1 0.362387 0.112287 0.644626
O O2 0.500000 0.000000 0.675870
O O3 0.364055 0.000000 0.734604
O O4 0.500000 0.369528 0.703210
O O5 0.359390 0.500000 0.712480
O O6 0.360931 0.328475 0.646969
O O7 0.359772 0.291284 0.749478
O O8 0.500000 0.222890 0.609704
O O9 0.358197 0.211802 0.553432
O O10 0.766140 0.500000 0.394026
O O11 0.750000 0.250000 0.396302
O O12 0.851180 0.363603 0.452324
O O13 0.866818 0.346618 0.347668
O O14 0.000000 0.153952 0.001642
O O15 0.884681 0.000000 0.027157
O O16 0.500000 0.254225 0.303544
O O17 0.641378 0.377355 0.316710
O O18 0.500000 0.500000 0.298043
#
# Coordination Sequence:
#
# PCOD9368564 Si02
#       7
#     8  16  16  16  16  16   8
#     4   9  12  20  40  75 112 136 158 201 266 320
#     4   9  16  25  42  74 114 147 172 208 265 326
#     4   9  14  23  44  76 110 135 163 212 267 317
#     4  11  25  42  59  78 106 146 190 234 282 333
#     4   9  17  32  57  85 107 133 179 232 273 318
#     4  10  19  33  57  85 113 143 182 228 274 325
#     4   9  16  26  48  85 118 144 171 215 278 334
#
# _framework density 21.246480999999999
#
# number of rings (size 3 to 8) (size 9 to 14) (size 15 to 20)
#    0.000    2.500    2.500    1.000    1.167    1.667 
#    0.000    0.833    0.000    2.000    0.000    2.333 
#    0.000    0.000    0.000    0.000    0.000    0.000 
#
# Total GULP energy -133826.894905 kJ/mol
# GULP energy per Si atom -5576.120621 kJ/mol
# Density = 2.119812 g / cm^3
# Si number density = 21.246481 Si / 1000 Ang^3
#
#
#
# Elastic Constant Matrix: (Units=GPa)
#
#
# Indices 1 2 3 4 5 6 
#
# 1 38.1618 28.7681 16.7880 0.0000 0.0000 0.0000
# 2 28.7681 143.3037 51.8028 0.0000 0.0000 0.0000
# 3 16.7880 51.8028 122.2091 0.0000 0.0000 0.0000
# 4 0.0000 0.0000 0.0000 37.3784 0.0000 0.0000
# 5 0.0000 0.0000 0.0000 0.0000 253.4330 0.0000
# 6 0.0000 0.0000 0.0000 0.0000 0.0000 16.2666
#
#
#
# Elastic Compliance Matrix: (Units=1/GPa)
#
#
# Indices 1 2 3 4 5 6 
#
# 1 0.031258 -0.005577 -0.001930 0.000000 0.000000 0.000000
# 2 -0.005577 0.009236 -0.003149 0.000000 0.000000 0.000000
# 3 -0.001930 -0.003149 0.009783 0.000000 0.000000 0.000000
# 4 0.000000 0.000000 0.000000 0.026753 0.000000 0.000000
# 5 0.000000 0.000000 0.000000 0.000000 0.003946 0.000000
# 6 0.000000 0.000000 0.000000 0.000000 0.000000 0.061476
#
#
# Mechanical properties :
#
#
# Convention : Reuss Voigt Hill
#
# Bulk Modulus (GPa) = 34.52525 55.37696 44.95110
# Shear Modulus (GPa) = 28.83205 75.16998 52.00101
#
# Velocity S-wave (km/s) = 3.68778 5.95456 4.95260
# Velocity P-wave (km/s) = 5.86670 8.56717 7.34215
#
# Compressibility (1/GPa) = 0.02896431
#
# Stress axis : x y z
#
# Youngs Moduli (GPa) = 31.99218 108.27034 102.22267
#
# Poissons Ratio (x) = 0.60386 0.19726
# Poissons Ratio (y) = 0.17843 0.32189
# Poissons Ratio (z) = 0.06174 0.34093
#
# Static dielectric constant tensor:
#      x y z
#    x 1.786220 0.000000 0.000000 
#    y 0.000000 1.755100 0.000000 
#    z 0.000000 0.000000 1.758440 
# 
# From -- ./inp_files/28865.got.cif
#   From: 2010.05.17/outbox.cif.g08.bks.cpg/sg42_15_cif.got.tgz:28865.got - 2010.06.03 19:03:34.
