data_PCOD9368600
_publ_section_title
;
Structure prediction by ZEFSAII (Michael W. Deem and Ramdas Pophale) SiO2 
 PCOD9368600
Probable space group: F M M 2
;
_chemical_formula_sum "Si O2"
_cell_formula_units_Z 96
_cell_length_a 18.900969
_cell_length_b 11.729754
_cell_length_c 20.467369
_cell_angle_alpha 90.000000
_cell_angle_beta 90.000000
_cell_angle_gamma 90.000000
_cell_volume 4537.691779
_symmetry_space_group_name_H-M "F M M 2"
_symmetry_group_IT_number 42
_symmetry_cell_setting 'orthorhombic'
loop_
_space_group_symop_operation_xyz
x,y,z
-x,-y,z
-x,y,z
x,-y,z
x,1/2+y,1/2+z
-x,1/2-y,1/2+z
-x,1/2+y,1/2+z
x,1/2-y,1/2+z
1/2+x,y,1/2+z
1/2-x,-y,1/2+z
1/2-x,y,1/2+z
1/2+x,-y,1/2+z
1/2+x,1/2+y,z
1/2-x,1/2-y,z
1/2-x,1/2+y,z
1/2+x,1/2-y,z
loop_
_atom_site_type_symbol
_atom_site_label
_atom_site_fract_x
_atom_site_fract_y
_atom_site_fract_z
Si Si1 0.583956 0.793856 0.586660
Si Si2 0.584211 0.123723 0.979411
Si Si3 0.584175 0.276805 0.856313
Si Si4 0.414923 0.628617 0.228165
Si Si5 0.275806 0.376657 0.871610
Si Si6 0.720828 0.875396 0.528315
O O1 0.500000 0.822025 0.579332
O O2 0.595223 0.672517 0.551492
O O3 0.604556 0.804168 0.662289
O O4 0.637702 0.872094 0.546522
O O5 0.500000 0.115323 0.971333
O O6 0.604912 0.209392 0.922485
O O7 0.615778 0.000000 0.969656
O O8 0.500000 0.304596 0.857914
O O9 0.598231 0.194208 0.795029
O O10 0.640925 0.376135 0.853675
O O11 0.500000 0.619369 0.225150
O O12 0.386007 0.500000 0.226691
O O13 0.245180 0.500000 0.848776
O O14 0.250000 0.250000 0.848616
O O15 0.268551 0.375810 0.950342
O O16 0.750000 0.750000 0.551342
O O17 0.747602 0.000000 0.553230
#
# Coordination Sequence:
#
# PCOD9368600 Si02
#       6
#    16  16  16  16  16  16
#     4  10  19  34  56  86 116 148 194 246 294 343
#     4   9  17  29  49  80 114 147 187 238 292 344
#     4  10  19  35  58  87 117 148 192 245 296 350
#     4   9  18  32  53  83 119 156 192 237 295 354
#     4  10  22  39  58  86 120 157 197 240 298 356
#     4  10  21  37  56  82 116 152 190 236 291 349
#
# _framework density 21.156130999999998
#
# number of rings (size 3 to 8) (size 9 to 14) (size 15 to 20)
#    0.000    2.333    1.667    1.000    0.000    5.333 
#    0.000    3.333    0.000    5.000    0.000    0.000 
#    0.000    0.000    0.000    0.000    0.000    0.000 
#
# Total GULP energy -133618.645900 kJ/mol
# GULP energy per Si atom -5567.443579 kJ/mol
# Density = 2.110798 g / cm^3
# Si number density = 21.156131 Si / 1000 Ang^3
#
#
#
# Elastic Constant Matrix: (Units=GPa)
#
#
# Indices 1 2 3 4 5 6 
#
# 1 85.3337 34.4922 8.6323 0.0000 0.0000 0.0000
# 2 34.4922 164.0484 28.6082 0.0000 0.0000 0.0000
# 3 8.6323 28.6082 80.7303 0.0000 0.0000 0.0000
# 4 0.0000 0.0000 0.0000 5.0447 0.0000 0.0000
# 5 0.0000 0.0000 0.0000 0.0000 16.8077 0.0000
# 6 0.0000 0.0000 0.0000 0.0000 0.0000 17.4878
#
#
#
# Elastic Compliance Matrix: (Units=1/GPa)
#
#
# Indices 1 2 3 4 5 6 
#
# 1 0.012822 -0.002619 -0.000443 0.000000 0.000000 0.000000
# 2 -0.002619 0.007032 -0.002212 0.000000 0.000000 0.000000
# 3 -0.000443 -0.002212 0.013218 0.000000 0.000000 0.000000
# 4 0.000000 0.000000 0.000000 0.198229 0.000000 0.000000
# 5 0.000000 0.000000 0.000000 0.000000 0.059497 0.000000
# 6 0.000000 0.000000 0.000000 0.000000 0.000000 0.057183
#
#
# Mechanical properties :
#
#
# Convention : Reuss Voigt Hill
#
# Bulk Modulus (GPa) = 44.39525 52.61976 48.50750
# Shear Modulus (GPa) = 13.65985 25.09334 19.37660
#
# Velocity S-wave (km/s) = 2.54376 3.44772 3.02964
# Velocity P-wave (km/s) = 5.44589 6.38554 5.93434
#
# Compressibility (1/GPa) = 0.02252493
#
# Stress axis : x y z
#
# Youngs Moduli (GPa) = 77.99111 142.20531 75.65362
#
# Poissons Ratio (x) = 0.37238 0.03352
# Poissons Ratio (y) = 0.20423 0.16734
# Poissons Ratio (z) = 0.03455 0.31455
#
# Static dielectric constant tensor:
#      x y z
#    x 1.842250 0.000000 0.000000 
#    y 0.000000 1.826140 0.000000 
#    z 0.000000 0.000000 1.714960 
# 
# From -- ./inp_files/24447.got.cif
#   From: 2010.05.17/outbox.cif.g08.bks.cpg/sg42_13_cif.got.tgz:24447.got - 2010.06.03 19:03:34.
