data_PCOD9368966
_publ_section_title
;
Structure prediction by ZEFSAII (Michael W. Deem and Ramdas Pophale) SiO2 
 PCOD9368966
Probable space group: F M M 2
;
_chemical_formula_sum "Si O2"
_cell_formula_units_Z 96
_cell_length_a 18.933303
_cell_length_b 8.574818
_cell_length_c 31.948042
_cell_angle_alpha 90.000000
_cell_angle_beta 90.000000
_cell_angle_gamma 90.000000
_cell_volume 5186.752714
_symmetry_space_group_name_H-M "F M M 2"
_symmetry_group_IT_number 42
_symmetry_cell_setting 'orthorhombic'
loop_
_space_group_symop_operation_xyz
x,y,z
-x,-y,z
-x,y,z
x,-y,z
x,1/2+y,1/2+z
-x,1/2-y,1/2+z
-x,1/2+y,1/2+z
x,1/2-y,1/2+z
1/2+x,y,1/2+z
1/2-x,-y,1/2+z
1/2-x,y,1/2+z
1/2+x,-y,1/2+z
1/2+x,1/2+y,z
1/2-x,1/2-y,z
1/2-x,1/2+y,z
1/2+x,1/2-y,z
loop_
_atom_site_type_symbol
_atom_site_label
_atom_site_fract_x
_atom_site_fract_y
_atom_site_fract_z
Si Si1 0.918251 0.687955 0.417470
Si Si2 0.670543 0.311365 0.587631
Si Si3 0.917918 0.188716 0.669542
Si Si4 0.170762 0.312405 0.336947
Si Si5 0.829698 0.685876 0.747276
Si Si6 0.081920 0.311911 0.007066
O O1 0.915727 0.500000 0.419294
O O2 0.874747 0.738194 0.376890
O O3 0.892580 0.753183 0.461899
O O4 0.000000 0.735934 0.412982
O O5 0.672319 0.500000 0.587274
O O6 0.750000 0.250000 0.589776
O O7 0.625184 0.263200 0.628143
O O8 0.630492 0.259162 0.545446
O O9 0.879602 0.256456 0.710171
O O10 0.000000 0.235145 0.667002
O O11 0.915583 0.000000 0.671755
O O12 0.171361 0.500000 0.335074
O O13 0.250000 0.250000 0.342027
O O14 0.144710 0.248377 0.292350
O O15 0.826464 0.500000 0.748202
O O16 0.750000 0.750000 0.740901
O O17 0.081849 0.500000 0.006875
O O18 0.000000 0.260941 0.012661
#
# Coordination Sequence:
#
# PCOD9368966 Si02
#       6
#    16  16  16  16  16  16
#     4   9  19  35  54  77 105 138 176 217 263 315
#     4  10  21  36  55  80 108 140 178 218 262 315
#     4  10  21  38  59  81 108 143 180 220 269 322
#     4  10  20  35  55  78 106 141 179 219 265 317
#     4  11  22  37  57  81 110 142 180 224 270 321
#     4   9  18  34  55  77 103 137 177 219 262 310
#
# _framework density 18.508690000000001
#
# number of rings (size 3 to 8) (size 9 to 14) (size 15 to 20)
#    0.000    2.167    0.000    4.000    0.000    7.667 
#    0.000    5.000    0.000    3.000    0.000    0.000 
#    0.000    0.000    0.000    0.000    0.000    0.000 
#
# Total GULP energy -134003.821766 kJ/mol
# GULP energy per Si atom -5583.492574 kJ/mol
# Density = 1.846656 g / cm^3
# Si number density = 18.508690 Si / 1000 Ang^3
#
#
#
# Elastic Constant Matrix: (Units=GPa)
#
#
# Indices 1 2 3 4 5 6 
#
# 1 114.7269 32.2825 119.7880 0.0000 0.0000 0.0000
# 2 32.2825 34.8058 45.6732 0.0000 0.0000 0.0000
# 3 119.7880 45.6732 229.2056 0.0000 0.0000 0.0000
# 4 0.0000 0.0000 0.0000 30.4005 0.0000 0.0000
# 5 0.0000 0.0000 0.0000 0.0000 42.8378 0.0000
# 6 0.0000 0.0000 0.0000 0.0000 0.0000 27.6477
#
#
#
# Elastic Compliance Matrix: (Units=1/GPa)
#
#
# Indices 1 2 3 4 5 6 
#
# 1 0.020255 -0.006629 -0.009265 0.000000 0.000000 0.000000
# 2 -0.006629 0.041073 -0.004720 0.000000 0.000000 0.000000
# 3 -0.009265 -0.004720 0.010145 0.000000 0.000000 0.000000
# 4 0.000000 0.000000 0.000000 0.032894 0.000000 0.000000
# 5 0.000000 0.000000 0.000000 0.000000 0.023344 0.000000
# 6 0.000000 0.000000 0.000000 0.000000 0.000000 0.036169
#
#
# Mechanical properties :
#
#
# Convention : Reuss Voigt Hill
#
# Bulk Modulus (GPa) = 33.06244 86.02506 59.54375
# Shear Modulus (GPa) = 23.23512 32.24352 27.73932
#
# Velocity S-wave (km/s) = 3.54695 4.17834 3.87553
# Velocity P-wave (km/s) = 5.88867 8.35806 7.22958
#
# Compressibility (1/GPa) = 0.03024580
#
# Stress axis : x y z
#
# Youngs Moduli (GPa) = 49.36968 24.34680 98.56616
#
# Poissons Ratio (x) = 0.16140 0.91321
# Poissons Ratio (y) = 0.32728 0.46523
# Poissons Ratio (z) = 0.45741 0.11492
#
# Static dielectric constant tensor:
#      x y z
#    x 1.616710 0.000000 0.000000 
#    y 0.000000 1.633130 0.000000 
#    z 0.000000 0.000000 1.627880 
# 
# From -- ./inp_files/31424.got.cif
#   From: 2010.05.17/outbox.cif.g08.bks.cpg/sg42_16_cif.got.tgz:31424.got - 2010.06.03 19:03:34.
