data_PCOD9369922
_publ_section_title
;
Structure prediction by ZEFSAII (Michael W. Deem and Ramdas Pophale) SiO2 
 PCOD9369922
Probable space group: F M M 2
;
_chemical_formula_sum "Si O2"
_cell_formula_units_Z 96
_cell_length_a 17.936397
_cell_length_b 28.649208
_cell_length_c 9.779426
_cell_angle_alpha 90.000000
_cell_angle_beta 90.000000
_cell_angle_gamma 90.000000
_cell_volume 5025.290741
_symmetry_space_group_name_H-M "F M M 2"
_symmetry_group_IT_number 42
_symmetry_cell_setting 'orthorhombic'
loop_
_space_group_symop_operation_xyz
x,y,z
-x,-y,z
-x,y,z
x,-y,z
x,1/2+y,1/2+z
-x,1/2-y,1/2+z
-x,1/2+y,1/2+z
x,1/2-y,1/2+z
1/2+x,y,1/2+z
1/2-x,-y,1/2+z
1/2-x,y,1/2+z
1/2+x,-y,1/2+z
1/2+x,1/2+y,z
1/2-x,1/2-y,z
1/2-x,1/2+y,z
1/2+x,1/2-y,z
loop_
_atom_site_type_symbol
_atom_site_label
_atom_site_fract_x
_atom_site_fract_y
_atom_site_fract_z
Si Si1 0.084690 0.555679 0.492340
Si Si2 0.910019 0.945455 0.684394
Si Si3 0.819512 0.626944 0.005528
Si Si4 0.412378 0.790308 0.671670
Si Si5 0.163893 0.265725 0.942613
Si Si6 0.325317 0.614990 0.189631
O O1 0.081289 0.500000 0.487798
O O2 0.110975 0.569623 0.339664
O O3 0.137083 0.571453 0.614678
O O4 0.000000 0.573365 0.511888
O O5 0.875515 0.909367 0.577346
O O6 0.000000 0.944627 0.678228
O O7 0.887130 0.000000 0.662673
O O8 0.845512 0.680762 0.993137
O O9 0.805855 0.610425 0.849298
O O10 0.746421 0.627575 0.099706
O O11 0.500000 0.786123 0.697655
O O12 0.388372 0.767873 0.529483
O O13 0.363325 0.764691 0.786939
O O14 0.385441 0.843566 0.676948
O O15 0.250000 0.250000 0.954540
#
# Coordination Sequence:
#
# PCOD9369922 Si02
#       6
#    16  16  16  16  16  16
#     4   9  19  38  63  88 120 162 203 250 312 376
#     4   9  20  40  64  92 127 165 209 261 318 379
#     4  11  24  38  63  88 121 165 208 254 314 383
#     4  11  24  40  63  92 123 160 211 264 313 376
#     4  11  23  42  64  87 125 168 208 257 319 382
#     4  11  23  39  58  88 123 158 208 260 315 370
#
# _framework density 19.103373000000001
#
# number of rings (size 3 to 8) (size 9 to 14) (size 15 to 20)
#    0.000    1.667    1.667    3.500    2.333    6.667 
#    0.000    3.333    0.000    0.000    0.000    0.000 
#    0.000    0.000    0.000    0.000    0.000    0.000 
#
# Total GULP energy -133958.305670 kJ/mol
# GULP energy per Si atom -5581.596070 kJ/mol
# Density = 1.905989 g / cm^3
# Si number density = 19.103373 Si / 1000 Ang^3
#
#
#
# Elastic Constant Matrix: (Units=GPa)
#
#
# Indices 1 2 3 4 5 6 
#
# 1 58.3213 14.0693 13.0150 0.0000 0.0000 0.0000
# 2 14.0693 38.6790 22.9312 0.0000 0.0000 0.0000
# 3 13.0150 22.9312 97.8872 0.0000 0.0000 0.0000
# 4 0.0000 0.0000 0.0000 33.6334 0.0000 0.0000
# 5 0.0000 0.0000 0.0000 0.0000 32.3401 0.0000
# 6 0.0000 0.0000 0.0000 0.0000 0.0000 30.3256
#
#
#
# Elastic Compliance Matrix: (Units=1/GPa)
#
#
# Indices 1 2 3 4 5 6 
#
# 1 0.018888 -0.006249 -0.001047 0.000000 0.000000 0.000000
# 2 -0.006249 0.032091 -0.006687 0.000000 0.000000 0.000000
# 3 -0.001047 -0.006687 0.011922 0.000000 0.000000 0.000000
# 4 0.000000 0.000000 0.000000 0.029732 0.000000 0.000000
# 5 0.000000 0.000000 0.000000 0.000000 0.030921 0.000000
# 6 0.000000 0.000000 0.000000 0.000000 0.000000 0.032975
#
#
# Mechanical properties :
#
#
# Convention : Reuss Voigt Hill
#
# Bulk Modulus (GPa) = 28.62578 32.76872 30.69725
# Shear Modulus (GPa) = 25.49181 28.91796 27.20488
#
# Velocity S-wave (km/s) = 3.65693 3.89493 3.77780
# Velocity P-wave (km/s) = 5.73132 6.11702 5.92731
#
# Compressibility (1/GPa) = 0.03493354
#
# Stress axis : x y z
#
# Youngs Moduli (GPa) = 52.94451 31.16099 83.88160
#
# Poissons Ratio (x) = 0.19474 0.08785
# Poissons Ratio (y) = 0.33087 0.56091
# Poissons Ratio (z) = 0.05545 0.20837
#
# Static dielectric constant tensor:
#      x y z
#    x 1.647770 0.000000 0.000000 
#    y 0.000000 1.656210 0.000000 
#    z 0.000000 0.000000 1.648440 
# 
# From -- ./inp_files/4187.got.cif
#   From: 2010.05.17/outbox.cif.g08.bks.cpg/sg42_3_cif.got.tgz:4187.got - 2010.06.03 19:03:34.
