data_PCOD9369010
_publ_section_title
;
Structure prediction by ZEFSAII (Michael W. Deem and Ramdas Pophale) SiO2 
 PCOD9369010
Probable space group: F M M 2
;
_chemical_formula_sum "Si O2"
_cell_formula_units_Z 112
_cell_length_a 14.197022
_cell_length_b 28.819773
_cell_length_c 14.075330
_cell_angle_alpha 90.000000
_cell_angle_beta 90.000000
_cell_angle_gamma 90.000000
_cell_volume 5758.990961
_symmetry_space_group_name_H-M "F M M 2"
_symmetry_group_IT_number 42
_symmetry_cell_setting 'orthorhombic'
loop_
_space_group_symop_operation_xyz
x,y,z
-x,-y,z
-x,y,z
x,-y,z
x,1/2+y,1/2+z
-x,1/2-y,1/2+z
-x,1/2+y,1/2+z
x,1/2-y,1/2+z
1/2+x,y,1/2+z
1/2-x,-y,1/2+z
1/2-x,y,1/2+z
1/2+x,-y,1/2+z
1/2+x,1/2+y,z
1/2-x,1/2-y,z
1/2-x,1/2+y,z
1/2+x,1/2-y,z
loop_
_atom_site_type_symbol
_atom_site_label
_atom_site_fract_x
_atom_site_fract_y
_atom_site_fract_z
Si Si1 0.242533 0.446688 0.438020
Si Si2 0.886615 0.616360 0.308918
Si Si3 0.112929 0.780867 0.778379
Si Si4 0.252516 0.104300 0.633907
Si Si5 0.611540 0.912848 0.791825
Si Si6 0.112462 0.312847 0.878753
Si Si7 0.705981 0.798727 0.076386
O O1 0.214241 0.500000 0.448400
O O2 0.160889 0.416585 0.386860
O O3 0.266927 0.424033 0.538886
O O4 0.332761 0.443049 0.368632
O O5 0.862987 0.670626 0.330291
O O6 0.835032 0.605209 0.208339
O O7 0.000000 0.611600 0.303195
O O8 0.148170 0.733507 0.826168
O O9 0.147227 0.786495 0.670703
O O10 0.000000 0.778442 0.777273
O O11 0.339932 0.082038 0.689796
O O12 0.271591 0.158049 0.605795
O O13 0.500000 0.919908 0.791920
O O14 0.634612 0.859636 0.822174
O O15 0.000000 0.309484 0.881877
O O16 0.147727 0.315968 0.986127
O O17 0.750000 0.750000 0.046945
#
# Coordination Sequence:
#
# PCOD9369010 Si02
#       7
#    16  16  16  16  16  16  16
#     4  11  24  42  62  89 122 153 199 260 314 364
#     4   9  21  41  65  89 121 160 199 245 299 360
#     4   9  19  36  55  83 120 155 196 241 286 346
#     4  10  22  39  60  92 123 159 200 249 304 356
#     4  10  22  42  65  89 122 162 204 250 303 361
#     4  10  20  35  57  85 119 160 202 242 288 350
#     4  11  21  31  55  85 119 160 199 237 290 359
#
# _framework density 19.447852000000001
#
# number of rings (size 3 to 8) (size 9 to 14) (size 15 to 20)
#    0.000    2.000    1.429    1.286    2.000    6.286 
#    0.000    0.714    0.000    0.000    0.000    0.000 
#    0.000    0.000    0.000    0.000    0.000    0.000 
#
# Total GULP energy -156333.292228 kJ/mol
# GULP energy per Si atom -5583.331865 kJ/mol
# Density = 1.940359 g / cm^3
# Si number density = 19.447852 Si / 1000 Ang^3
#
#
#
# Elastic Constant Matrix: (Units=GPa)
#
#
# Indices 1 2 3 4 5 6 
#
# 1 57.5314 5.5927 -2.7919 0.0000 0.0000 0.0000
# 2 5.5927 76.3611 22.6942 0.0000 0.0000 0.0000
# 3 -2.7919 22.6942 83.6814 0.0000 0.0000 0.0000
# 4 0.0000 0.0000 0.0000 10.2433 0.0000 0.0000
# 5 0.0000 0.0000 0.0000 0.0000 15.3889 0.0000
# 6 0.0000 0.0000 0.0000 0.0000 0.0000 21.1058
#
#
#
# Elastic Compliance Matrix: (Units=1/GPa)
#
#
# Indices 1 2 3 4 5 6 
#
# 1 0.017586 -0.001591 0.001018 0.000000 0.000000 0.000000
# 2 -0.001591 0.014388 -0.003955 0.000000 0.000000 0.000000
# 3 0.001018 -0.003955 0.013057 0.000000 0.000000 0.000000
# 4 0.000000 0.000000 0.000000 0.097625 0.000000 0.000000
# 5 0.000000 0.000000 0.000000 0.000000 0.064982 0.000000
# 6 0.000000 0.000000 0.000000 0.000000 0.000000 0.047380
#
#
# Mechanical properties :
#
#
# Convention : Reuss Voigt Hill
#
# Bulk Modulus (GPa) = 27.79693 29.84043 28.81868
# Shear Modulus (GPa) = 18.11176 22.15286 20.13231
#
# Velocity S-wave (km/s) = 3.05503 3.37870 3.22093
# Velocity P-wave (km/s) = 5.17381 5.53154 5.35567
#
# Compressibility (1/GPa) = 0.03597519
#
# Stress axis : x y z
#
# Youngs Moduli (GPa) = 56.86388 69.50450 76.58952
#
# Poissons Ratio (x) = 0.11055 -0.07797
# Poissons Ratio (y) = 0.09045 0.30291
# Poissons Ratio (z) = -0.05789 0.27489
#
# Static dielectric constant tensor:
#      x y z
#    x 1.679050 0.000000 0.000000 
#    y 0.000000 1.699800 0.000000 
#    z 0.000000 0.000000 1.658060 
# 
# From -- ./inp_files/8114.got.cif
#   From: 2010.05.17/outbox.cif.g08.bks.cpg/sg42_5_cif.got.tgz:8114.got - 2010.06.03 19:03:34.
