data_PCOD9369749
_publ_section_title
;
Structure prediction by ZEFSAII (Michael W. Deem and Ramdas Pophale) SiO2 
 PCOD9369749
Probable space group: F M M 2
;
_chemical_formula_sum "Si O2"
_cell_formula_units_Z 100
_cell_length_a 20.373022
_cell_length_b 7.786131
_cell_length_c 31.587023
_cell_angle_alpha 90.000000
_cell_angle_beta 90.000000
_cell_angle_gamma 90.000000
_cell_volume 5010.555271
_symmetry_space_group_name_H-M "F M M 2"
_symmetry_group_IT_number 42
_symmetry_cell_setting 'orthorhombic'
loop_
_space_group_symop_operation_xyz
x,y,z
-x,-y,z
-x,y,z
x,-y,z
x,1/2+y,1/2+z
-x,1/2-y,1/2+z
-x,1/2+y,1/2+z
x,1/2-y,1/2+z
1/2+x,y,1/2+z
1/2-x,-y,1/2+z
1/2-x,y,1/2+z
1/2+x,-y,1/2+z
1/2+x,1/2+y,z
1/2-x,1/2-y,z
1/2-x,1/2+y,z
1/2+x,1/2-y,z
loop_
_atom_site_type_symbol
_atom_site_label
_atom_site_fract_x
_atom_site_fract_y
_atom_site_fract_z
Si Si1 0.889846 0.198998 0.373780
Si Si2 0.079540 0.198780 0.126397
Si Si3 0.000000 0.000000 0.864182
Si Si4 0.325712 0.205234 0.963256
Si Si5 0.424268 0.791422 0.718889
Si Si6 0.677932 0.300314 0.791421
Si Si7 0.925549 0.797119 0.533270
O O1 0.852546 0.250345 0.416891
O O2 0.840982 0.200570 0.333915
O O3 0.943503 0.345528 0.364974
O O4 0.914457 0.000000 0.378638
O O5 0.099211 0.270052 0.172319
O O6 0.098463 0.278801 0.081670
O O7 0.000000 0.205834 0.127721
O O8 0.099344 0.000000 0.124573
O O9 0.250000 0.250000 0.969269
O O10 0.329076 0.000000 0.965804
O O11 0.374606 0.276449 0.999364
O O12 0.500000 0.736315 0.726064
O O13 0.376813 0.734007 0.755957
O O14 0.424905 0.000000 0.717517
O O15 0.678114 0.500000 0.801834
O O16 0.750000 0.250000 0.775789
O O17 0.000000 0.724299 0.529852
O O18 0.931249 0.000000 0.525110
#
# Coordination Sequence:
#
# PCOD9369749 Si02
#       7
#    16  16   4  16  16  16  16
#     4  11  25  45  67  94 134 166 203 261 311 366
#     4   8  15  31  53  83 116 151 193 243 308 372
#     4  12  26  44  68 106 124 160 216 256 312 382
#     4  10  23  40  61  86 119 165 207 251 309 370
#     4   9  19  36  60  87 120 158 200 253 315 370
#     4  12  25  42  62  90 122 164 215 254 309 383
#     4   9  18  34  56  83 116 153 199 250 310 368
#
# _framework density 19.957868000000001
#
# number of rings (size 3 to 8) (size 9 to 14) (size 15 to 20)
#    0.000    2.080    0.800    3.120    3.360    2.880 
#    0.000    2.400    0.000    1.920    0.000    0.000 
#    0.000    0.000    0.000    0.000    0.000    0.000 
#
# Total GULP energy -139186.078838 kJ/mol
# GULP energy per Si atom -5567.443154 kJ/mol
# Density = 1.991244 g / cm^3
# Si number density = 19.957868 Si / 1000 Ang^3
#
#
#
# Elastic Constant Matrix: (Units=GPa)
#
#
# Indices 1 2 3 4 5 6 
#
# 1 97.3266 18.0409 57.6436 0.0000 0.0000 0.0000
# 2 18.0409 70.4844 8.3793 0.0000 0.0000 0.0000
# 3 57.6436 8.3793 139.2075 0.0000 0.0000 0.0000
# 4 0.0000 0.0000 0.0000 23.6953 0.0000 0.0000
# 5 0.0000 0.0000 0.0000 0.0000 -4.2427 0.0000
# 6 0.0000 0.0000 0.0000 0.0000 0.0000 24.3626
#
#
#
# Elastic Compliance Matrix: (Units=1/GPa)
#
#
# Indices 1 2 3 4 5 6 
#
# 1 0.014200 -0.002957 -0.005702 0.000000 0.000000 0.000000
# 2 -0.002957 0.014905 0.000327 0.000000 0.000000 0.000000
# 3 -0.005702 0.000327 0.009525 0.000000 0.000000 0.000000
# 4 0.000000 0.000000 0.000000 0.042202 0.000000 0.000000
# 5 0.000000 0.000000 0.000000 0.000000 -0.235700 0.000000
# 6 0.000000 0.000000 0.000000 0.000000 0.000000 0.041046
#
#
# Mechanical properties :
#
#
# Convention : Reuss Voigt Hill
#
# Bulk Modulus (GPa) = 45.52252 52.79402 49.15827
# Shear Modulus (GPa) = -55.65713 23.62670 -16.01521
#
# Velocity S-wave (km/s) = -5.28657 3.44441 -2.83583
# Velocity P-wave (km/s) = 3.79539 6.50606 3.73657
#
# Compressibility (1/GPa) = 0.02196715
#
# Stress axis : x y z
#
# Youngs Moduli (GPa) = 70.42334 67.08966 104.98772
#
# Poissons Ratio (x) = 0.19836 0.59864
# Poissons Ratio (y) = 0.20822 -0.03434
# Poissons Ratio (z) = 0.40155 -0.02195
#
# Static dielectric constant tensor:
#      x y z
#    x 1.691120 0.000000 0.000000 
#    y 0.000000 1.734020 0.000000 
#    z 0.000000 0.000000 1.720410 
# 
# From -- ./inp_files/33037.got.cif
#   From: 2010.05.17/outbox.cif.g08.bks.cpg/sg42_17_cif.got.tgz:33037.got - 2010.06.03 19:03:34.
