data_PCOD9369863
_publ_section_title
;
Structure prediction by ZEFSAII (Michael W. Deem and Ramdas Pophale) SiO2 
 PCOD9369863
Probable space group: F M M 2
;
_chemical_formula_sum "Si O2"
_cell_formula_units_Z 100
_cell_length_a 21.427705
_cell_length_b 17.465069
_cell_length_c 13.975335
_cell_angle_alpha 90.000000
_cell_angle_beta 90.000000
_cell_angle_gamma 90.000000
_cell_volume 5230.078309
_symmetry_space_group_name_H-M "F M M 2"
_symmetry_group_IT_number 42
_symmetry_cell_setting 'orthorhombic'
loop_
_space_group_symop_operation_xyz
x,y,z
-x,-y,z
-x,y,z
x,-y,z
x,1/2+y,1/2+z
-x,1/2-y,1/2+z
-x,1/2+y,1/2+z
x,1/2-y,1/2+z
1/2+x,y,1/2+z
1/2-x,-y,1/2+z
1/2-x,y,1/2+z
1/2+x,-y,1/2+z
1/2+x,1/2+y,z
1/2-x,1/2-y,z
1/2-x,1/2+y,z
1/2+x,1/2-y,z
loop_
_atom_site_type_symbol
_atom_site_label
_atom_site_fract_x
_atom_site_fract_y
_atom_site_fract_z
Si Si1 0.212693 0.364530 0.098780
Si Si2 0.094140 0.353414 0.782919
Si Si3 0.929147 0.800164 0.895643
Si Si4 0.349530 0.302828 0.090294
Si Si5 0.713232 0.410978 0.385947
Si Si6 0.340527 0.587811 0.797717
Si Si7 0.500000 0.000000 0.790143
O O1 0.288017 0.356599 0.098274
O O2 0.180204 0.281321 0.103311
O O3 0.185929 0.408137 0.190247
O O4 0.196539 0.400671 0.996634
O O5 0.070215 0.284325 0.849381
O O6 0.102559 0.324928 0.674259
O O7 0.163719 0.368204 0.821507
O O8 0.054109 0.430998 0.789920
O O9 0.898337 0.857379 0.818497
O O10 0.000000 0.822418 0.918840
O O11 0.885993 0.804283 0.989955
O O12 0.712519 0.500000 0.360431
O O13 0.782898 0.383103 0.363071
O O14 0.355335 0.500000 0.822723
#
# Coordination Sequence:
#
# PCOD9369863 Si02
#       7
#    16  16  16  16  16  16   4
#     4  11  21  39  70 103 135 171 229 287 344 402
#     4  12  24  45  69  97 136 176 229 282 338 407
#     4  12  26  45  69  94 139 189 229 275 337 421
#     4  11  24  39  68 104 132 177 225 277 345 406
#     4  11  22  39  67  99 136 174 222 290 347 393
#     4  11  24  43  66 100 139 180 227 284 348 401
#     4  12  28  48  68 100 130 182 234 272 344 416
#
# _framework density 19.120173000000001
#
# number of rings (size 3 to 8) (size 9 to 14) (size 15 to 20)
#    0.000    0.640    8.000    0.480    1.120    0.960 
#    2.880    0.000    1.760    0.000    0.000    0.000 
#    0.000    0.000    0.000    0.000    0.000    0.000 
#
# Total GULP energy -139325.428926 kJ/mol
# GULP energy per Si atom -5573.017157 kJ/mol
# Density = 1.907665 g / cm^3
# Si number density = 19.120173 Si / 1000 Ang^3
#
#
#
# Elastic Constant Matrix: (Units=GPa)
#
#
# Indices 1 2 3 4 5 6 
#
# 1 106.2092 53.8150 26.6789 0.0000 0.0000 0.0000
# 2 53.8150 74.0190 21.6773 0.0000 0.0000 0.0000
# 3 26.6789 21.6773 117.2737 0.0000 0.0000 0.0000
# 4 0.0000 0.0000 0.0000 -62.7299 0.0000 0.0000
# 5 0.0000 0.0000 0.0000 0.0000 6.7454 0.0000
# 6 0.0000 0.0000 0.0000 0.0000 0.0000 20.1378
#
#
#
# Elastic Compliance Matrix: (Units=1/GPa)
#
#
# Indices 1 2 3 4 5 6 
#
# 1 0.015150 -0.010578 -0.001491 0.000000 0.000000 0.000000
# 2 -0.010578 0.021669 -0.001599 0.000000 0.000000 0.000000
# 3 -0.001491 -0.001599 0.009162 0.000000 0.000000 0.000000
# 4 0.000000 0.000000 0.000000 -0.015941 0.000000 0.000000
# 5 0.000000 0.000000 0.000000 0.000000 0.148249 0.000000
# 6 0.000000 0.000000 0.000000 0.000000 0.000000 0.049658
#
#
# Mechanical properties :
#
#
# Convention : Reuss Voigt Hill
#
# Bulk Modulus (GPa) = 53.63524 55.76046 54.69785
# Shear Modulus (GPa) = 19.12075 5.85271 12.48673
#
# Velocity S-wave (km/s) = 3.16576 1.75147 2.55829
# Velocity P-wave (km/s) = 6.44013 5.77206 6.11522
#
# Compressibility (1/GPa) = 0.01864446
#
# Stress axis : x y z
#
# Youngs Moduli (GPa) = 66.00860 46.14943 109.14816
#
# Poissons Ratio (x) = 0.48815 0.16276
# Poissons Ratio (y) = 0.69822 0.17453
# Poissons Ratio (z) = 0.09843 0.07379
#
# Static dielectric constant tensor:
#      x y z
#    x 1.673660 0.000000 0.000000 
#    y 0.000000 1.651950 0.000000 
#    z 0.000000 0.000000 1.666630 
# 
# From -- ./inp_files/15985.got.cif
#   From: 2010.05.17/outbox.cif.g08.bks.cpg/sg42_8_cif.got.tgz:15985.got - 2010.06.03 19:03:34.
