data_PCOD9369324
_publ_section_title
;
Structure prediction by ZEFSAII (Michael W. Deem and Ramdas Pophale) SiO2 
 PCOD9369324
Probable space group: F M M 2
;
_chemical_formula_sum "Si O2"
_cell_formula_units_Z 84
_cell_length_a 14.620196
_cell_length_b 15.527483
_cell_length_c 17.620905
_cell_angle_alpha 90.000000
_cell_angle_beta 90.000000
_cell_angle_gamma 90.000000
_cell_volume 4000.207015
_symmetry_space_group_name_H-M "F M M 2"
_symmetry_group_IT_number 42
_symmetry_cell_setting 'orthorhombic'
loop_
_space_group_symop_operation_xyz
x,y,z
-x,-y,z
-x,y,z
x,-y,z
x,1/2+y,1/2+z
-x,1/2-y,1/2+z
-x,1/2+y,1/2+z
x,1/2-y,1/2+z
1/2+x,y,1/2+z
1/2-x,-y,1/2+z
1/2-x,y,1/2+z
1/2+x,-y,1/2+z
1/2+x,1/2+y,z
1/2-x,1/2-y,z
1/2-x,1/2+y,z
1/2+x,1/2-y,z
loop_
_atom_site_type_symbol
_atom_site_label
_atom_site_fract_x
_atom_site_fract_y
_atom_site_fract_z
Si Si1 0.500000 0.500000 0.822280
Si Si2 0.111732 0.279848 0.515162
Si Si3 0.891557 0.093704 0.142917
Si Si4 0.357794 0.655958 0.848181
Si Si5 0.644667 0.349752 0.312051
Si Si6 0.894106 0.592542 0.977646
O O1 0.420777 0.576637 0.825428
O O2 0.143304 0.329968 0.589625
O O3 0.139342 0.330970 0.439286
O O4 0.146188 0.181541 0.509462
O O5 0.000000 0.276012 0.513388
O O6 0.880534 0.111368 0.231620
O O7 0.000000 0.090019 0.127475
O O8 0.851964 0.000000 0.123514
O O9 0.386363 0.749865 0.816166
O O10 0.253849 0.644702 0.821969
O O11 0.606133 0.396163 0.386581
O O12 0.851354 0.500000 0.997201
O O13 0.000000 0.589948 0.002804
#
# Coordination Sequence:
#
# PCOD9369324 Si02
#       6
#     4  16  16  16  16  16
#     4  12  24  36  68  92 124 172 224 266 304 384
#     4   9  18  36  57  88 120 156 200 264 318 370
#     4  10  21  34  60  90 120 157 202 259 323 378
#     4  10  23  38  61  89 123 163 212 261 313 369
#     4  10  21  39  57  89 126 162 203 263 319 371
#     4   9  17  31  58  86 116 160 211 255 309 380
#
# _framework density 20.998912000000001
#
# number of rings (size 3 to 8) (size 9 to 14) (size 15 to 20)
#    0.000    2.286    0.952    1.143    6.667    1.524 
#    0.000    7.619    2.095    0.000    0.000    0.000 
#    0.000    0.381    0.000    0.000    0.000    0.000 
#
# Total GULP energy -116959.162279 kJ/mol
# GULP energy per Si atom -5569.483918 kJ/mol
# Density = 2.095112 g / cm^3
# Si number density = 20.998912 Si / 1000 Ang^3
#
#
#
# Elastic Constant Matrix: (Units=GPa)
#
#
# Indices 1 2 3 4 5 6 
#
# 1 64.3207 34.8260 -6.8236 0.0000 0.0000 0.0000
# 2 34.8260 190.4141 56.4214 0.0000 0.0000 0.0000
# 3 -6.8236 56.4214 75.0866 0.0000 0.0000 0.0000
# 4 0.0000 0.0000 0.0000 -0.1731 0.0000 0.0000
# 5 0.0000 0.0000 0.0000 0.0000 -138.1019 0.0000
# 6 0.0000 0.0000 0.0000 0.0000 0.0000 21.2735
#
#
#
# Elastic Compliance Matrix: (Units=1/GPa)
#
#
# Indices 1 2 3 4 5 6 
#
# 1 0.018898 -0.005101 0.005550 0.000000 0.000000 0.000000
# 2 -0.005101 0.008133 -0.006575 0.000000 0.000000 0.000000
# 3 0.005550 -0.006575 0.018763 0.000000 0.000000 0.000000
# 4 0.000000 0.000000 0.000000 -5.778350 0.000000 0.000000
# 5 0.000000 0.000000 0.000000 0.000000 -0.007241 0.000000
# 6 0.000000 0.000000 0.000000 0.000000 0.000000 0.047007
#
#
# Mechanical properties :
#
#
# Convention : Reuss Voigt Hill
#
# Bulk Modulus (GPa) = 29.81286 55.40767 42.61026
# Shear Modulus (GPa) = -0.88193 -7.04044 -3.96119
#
# Velocity S-wave (km/s) = -0.64877 -1.83304 -1.37494
# Velocity P-wave (km/s) = 3.69688 4.68649 4.22079
#
# Compressibility (1/GPa) = 0.03354258
#
# Stress axis : x y z
#
# Youngs Moduli (GPa) = 52.91635 122.95916 53.29732
#
# Poissons Ratio (x) = 0.62720 -0.29581
# Poissons Ratio (y) = 0.26992 0.35041
# Poissons Ratio (z) = -0.29370 0.80842
#
# Static dielectric constant tensor:
#      x y z
#    x 1.832920 0.000000 0.000000 
#    y 0.000000 1.798560 0.000000 
#    z 0.000000 0.000000 1.712490 
# 
# From -- ./inp_files/24997.got.cif
#   From: 2010.05.17/outbox.cif.g08.bks.cpg/sg42_13_cif.got.tgz:24997.got - 2010.06.03 19:03:34.
