data_PCOD9369868
_publ_section_title
;
Structure prediction by ZEFSAII (Michael W. Deem and Ramdas Pophale) SiO2 
 PCOD9369868
Probable space group: F M M 2
;
_chemical_formula_sum "Si O2"
_cell_formula_units_Z 64
_cell_length_a 15.684611
_cell_length_b 7.598001
_cell_length_c 28.180578
_cell_angle_alpha 90.000000
_cell_angle_beta 90.000000
_cell_angle_gamma 90.000000
_cell_volume 3358.327107
_symmetry_space_group_name_H-M "F M M 2"
_symmetry_group_IT_number 42
_symmetry_cell_setting 'orthorhombic'
loop_
_space_group_symop_operation_xyz
x,y,z
-x,-y,z
-x,y,z
x,-y,z
x,1/2+y,1/2+z
-x,1/2-y,1/2+z
-x,1/2+y,1/2+z
x,1/2-y,1/2+z
1/2+x,y,1/2+z
1/2-x,-y,1/2+z
1/2-x,y,1/2+z
1/2+x,-y,1/2+z
1/2+x,1/2+y,z
1/2-x,1/2-y,z
1/2-x,1/2+y,z
1/2+x,1/2-y,z
loop_
_atom_site_type_symbol
_atom_site_label
_atom_site_fract_x
_atom_site_fract_y
_atom_site_fract_z
Si Si1 0.843545 0.798716 0.579110
Si Si2 0.500000 0.787533 0.646652
Si Si3 0.654191 0.709343 0.323637
Si Si4 0.102773 0.500000 0.507305
Si Si5 0.000000 0.713122 0.754952
Si Si6 0.897203 0.000000 0.897318
O O1 0.750000 0.750000 0.598207
O O2 0.863728 0.668914 0.535736
O O3 0.916493 0.773036 0.618315
O O4 0.843539 0.000000 0.563225
O O5 0.500000 0.724511 0.700904
O O6 0.500000 0.000000 0.645965
O O7 0.645583 0.500000 0.332899
O O8 0.750000 0.750000 0.307104
O O9 0.583766 0.762926 0.284698
O O10 0.636746 0.828431 0.369740
O O11 0.127967 0.500000 0.452365
O O12 0.000000 0.500000 0.510147
O O13 0.000000 0.500000 0.752984
O O14 0.000000 0.000000 0.894629
#
# Coordination Sequence:
#
# PCOD9369868 Si02
#       6
#    16   8  16   8   8   8
#     4  12  23  42  65  92 130 168 207 263 315 372
#     4  11  21  43  67  93 129 165 211 264 315 380
#     4  11  22  42  64  93 132 166 208 264 311 373
#     4  11  24  44  66  92 128 168 210 263 316 373
#     4   9  22  40  66  93 126 168 211 261 316 374
#     4  11  24  42  68  92 124 174 210 257 322 369
#
# _framework density 19.057107999999999
#
# number of rings (size 3 to 8) (size 9 to 14) (size 15 to 20)
#    0.000    1.000    6.250    0.375    0.000    3.000 
#    4.500    5.000    0.000    0.000    0.000    0.000 
#    0.000    0.000    0.000    0.000    0.000    0.000 
#
# Total GULP energy -89428.092637 kJ/mol
# GULP energy per Si atom -5589.255790 kJ/mol
# Density = 1.901373 g / cm^3
# Si number density = 19.057108 Si / 1000 Ang^3
#
#
#
# Elastic Constant Matrix: (Units=GPa)
#
#
# Indices 1 2 3 4 5 6 
#
# 1 172.1751 38.3938 88.9556 0.0000 0.0000 0.0000
# 2 38.3938 149.9882 62.0388 0.0000 0.0000 0.0000
# 3 88.9556 62.0388 166.6857 0.0000 0.0000 0.0000
# 4 0.0000 0.0000 0.0000 -6.2308 0.0000 0.0000
# 5 0.0000 0.0000 0.0000 0.0000 -0.3931 0.0000
# 6 0.0000 0.0000 0.0000 0.0000 0.0000 27.0436
#
#
#
# Elastic Compliance Matrix: (Units=1/GPa)
#
#
# Indices 1 2 3 4 5 6 
#
# 1 0.008033 -0.000335 -0.004163 0.000000 0.000000 0.000000
# 2 -0.000335 0.007894 -0.002760 0.000000 0.000000 0.000000
# 3 -0.004163 -0.002760 0.009248 0.000000 0.000000 0.000000
# 4 0.000000 0.000000 0.000000 -0.160492 0.000000 0.000000
# 5 0.000000 0.000000 0.000000 0.000000 -2.543926 0.000000
# 6 0.000000 0.000000 0.000000 0.000000 0.000000 0.036977
#
#
# Mechanical properties :
#
#
# Convention : Reuss Voigt Hill
#
# Bulk Modulus (GPa) = 93.79256 96.40281 95.09768
# Shear Modulus (GPa) = -1.90534 24.04798 11.07132
#
# Velocity S-wave (km/s) = -1.00099 3.55616 2.41292
# Velocity P-wave (km/s) = 6.92730 8.21936 7.60083
#
# Compressibility (1/GPa) = 0.01066183
#
# Stress axis : x y z
#
# Youngs Moduli (GPa) = 124.48176 126.67390 108.13264
#
# Poissons Ratio (x) = 0.04238 0.45012
# Poissons Ratio (y) = 0.04165 0.29840
# Poissons Ratio (z) = 0.51817 0.34957
#
# Static dielectric constant tensor:
#      x y z
#    x 1.663780 0.000000 0.000000 
#    y 0.000000 1.673510 0.000000 
#    z 0.000000 0.000000 1.625690 
# 
# From -- ./inp_files/29201.got.cif
#   From: 2010.05.17/outbox.cif.g08.bks.cpg/sg42_15_cif.got.tgz:29201.got - 2010.06.03 19:03:34.
