data_PCOD9369605
_publ_section_title
;
Structure prediction by ZEFSAII (Michael W. Deem and Ramdas Pophale) SiO2 
 PCOD9369605
Probable space group: F M M 2
;
_chemical_formula_sum "Si O2"
_cell_formula_units_Z 112
_cell_length_a 35.934415
_cell_length_b 14.061737
_cell_length_c 10.340942
_cell_angle_alpha 90.000000
_cell_angle_beta 90.000000
_cell_angle_gamma 90.000000
_cell_volume 5225.281022
_symmetry_space_group_name_H-M "F M M 2"
_symmetry_group_IT_number 42
_symmetry_cell_setting 'orthorhombic'
loop_
_space_group_symop_operation_xyz
x,y,z
-x,-y,z
-x,y,z
x,-y,z
x,1/2+y,1/2+z
-x,1/2-y,1/2+z
-x,1/2+y,1/2+z
x,1/2-y,1/2+z
1/2+x,y,1/2+z
1/2-x,-y,1/2+z
1/2-x,y,1/2+z
1/2+x,-y,1/2+z
1/2+x,1/2+y,z
1/2-x,1/2-y,z
1/2-x,1/2+y,z
1/2+x,1/2-y,z
loop_
_atom_site_type_symbol
_atom_site_label
_atom_site_fract_x
_atom_site_fract_y
_atom_site_fract_z
Si Si1 0.335933 0.885911 0.078410
Si Si2 0.775690 0.884650 0.365244
Si Si3 0.602037 0.750000 0.615244
Si Si4 0.808857 0.614560 0.365244
Si Si5 0.958597 0.606352 0.211548
Si Si6 0.164067 0.885911 0.152078
Si Si7 0.458597 0.893648 0.518940
O O1 0.370813 0.821828 0.038217
O O2 0.328530 0.862727 0.229665
O O3 0.342242 0.000000 0.065983
O O4 0.300070 0.861147 0.991577
O O5 0.733521 0.848613 0.365244
O O6 0.800070 0.861147 0.238910
O O7 0.772972 0.000000 0.365244
O O8 0.574098 0.679491 0.687035
O O9 0.629187 0.821828 0.692271
O O10 0.574098 0.820509 0.543453
O O11 0.806906 0.500000 0.365244
O O12 0.828530 0.637273 0.500822
O O13 0.949799 0.500000 0.161458
O O14 0.961630 0.599389 0.365244
O O15 0.000000 0.633293 0.161751
O O16 0.157758 0.000000 0.164504
O O17 0.500000 0.866707 0.568737
O O18 0.449799 0.000000 0.569029
#
# Coordination Sequence:
#
# PCOD9369605 Si02
#       7
#    16  16  16  16  16  16  16
#     4  10  22  36  56  87 120 157 204 255 310 364
#     4   9  18  37  59  79 114 161 206 257 311 358
#     4  12  23  34  59  88 124 156 188 248 309 366
#     4   9  18  37  61  81 110 161 216 257 297 356
#     4   9  20  40  65  90 117 155 202 247 295 362
#     4  10  22  36  56  87 120 157 204 255 310 364
#     4   9  20  40  65  90 117 155 202 247 295 362
#
# _framework density 21.434252999999998
#
# number of rings (size 3 to 8) (size 9 to 14) (size 15 to 20)
#    0.000    2.286    0.000    3.000    4.000    3.429 
#    0.000    4.286    0.000    0.000    0.000    6.000 
#    0.000    0.000    0.000    0.000    0.000    0.000 
#
# Total GULP energy -156228.080386 kJ/mol
# GULP energy per Si atom -5579.574299 kJ/mol
# Density = 2.138547 g / cm^3
# Si number density = 21.434253 Si / 1000 Ang^3
#
#
#
# Elastic Constant Matrix: (Units=GPa)
#
#
# Indices 1 2 3 4 5 6 
#
# 1 135.4269 71.5397 24.7168 0.0000 0.0000 0.0000
# 2 71.5397 124.9557 17.3400 0.0000 0.0000 0.0000
# 3 24.7168 17.3400 72.5403 0.0000 0.0000 0.0000
# 4 0.0000 0.0000 0.0000 7.0575 0.0000 0.0000
# 5 0.0000 0.0000 0.0000 0.0000 32.9438 0.0000
# 6 0.0000 0.0000 0.0000 0.0000 0.0000 51.8606
#
#
#
# Elastic Compliance Matrix: (Units=1/GPa)
#
#
# Indices 1 2 3 4 5 6 
#
# 1 0.010947 -0.005947 -0.002308 0.000000 0.000000 0.000000
# 2 -0.005947 0.011508 -0.000725 0.000000 0.000000 0.000000
# 3 -0.002308 -0.000725 0.014745 0.000000 0.000000 0.000000
# 4 0.000000 0.000000 0.000000 0.141693 0.000000 0.000000
# 5 0.000000 0.000000 0.000000 0.000000 0.030355 0.000000
# 6 0.000000 0.000000 0.000000 0.000000 0.000000 0.019282
#
#
# Mechanical properties :
#
#
# Convention : Reuss Voigt Hill
#
# Bulk Modulus (GPa) = 51.97418 62.23511 57.10464
# Shear Modulus (GPa) = 19.77035 32.99414 26.38224
#
# Velocity S-wave (km/s) = 3.04035 3.92767 3.51215
# Velocity P-wave (km/s) = 6.05193 7.04749 6.56860
#
# Compressibility (1/GPa) = 0.01924032
#
# Stress axis : x y z
#
# Youngs Moduli (GPa) = 91.35026 86.89488 67.81876
#
# Poissons Ratio (x) = 0.51676 0.15655
# Poissons Ratio (y) = 0.54326 0.04914
# Poissons Ratio (z) = 0.21087 0.06296
#
# Static dielectric constant tensor:
#      x y z
#    x 1.781750 0.000000 0.000000 
#    y 0.000000 1.826520 0.000000 
#    z 0.000000 0.000000 1.756920 
# 
# From -- ./inp_files/11098.got.cif
#   From: 2010.05.17/outbox.cif.g08.bks.cpg/sg42_6_cif.got.tgz:11098.got - 2010.06.03 19:03:34.
