data_PCOD9369150
_publ_section_title
;
Structure prediction by ZEFSAII (Michael W. Deem and Ramdas Pophale) SiO2 
 PCOD9369150
Probable space group: F M M 2
;
_chemical_formula_sum "Si O2"
_cell_formula_units_Z 116
_cell_length_a 8.087245
_cell_length_b 30.744063
_cell_length_c 25.699170
_cell_angle_alpha 90.000000
_cell_angle_beta 90.000000
_cell_angle_gamma 90.000000
_cell_volume 6389.707216
_symmetry_space_group_name_H-M "F M M 2"
_symmetry_group_IT_number 42
_symmetry_cell_setting 'orthorhombic'
loop_
_space_group_symop_operation_xyz
x,y,z
-x,-y,z
-x,y,z
x,-y,z
x,1/2+y,1/2+z
-x,1/2-y,1/2+z
-x,1/2+y,1/2+z
x,1/2-y,1/2+z
1/2+x,y,1/2+z
1/2-x,-y,1/2+z
1/2-x,y,1/2+z
1/2+x,-y,1/2+z
1/2+x,1/2+y,z
1/2-x,1/2-y,z
1/2-x,1/2+y,z
1/2+x,1/2-y,z
loop_
_atom_site_type_symbol
_atom_site_label
_atom_site_fract_x
_atom_site_fract_y
_atom_site_fract_z
Si Si1 0.188880 0.847248 0.690700
Si Si2 0.807876 0.203276 0.285552
Si Si3 0.801769 0.200572 0.089610
Si Si4 0.500000 0.500000 0.693521
Si Si5 0.699321 0.799295 0.471510
Si Si6 0.808362 0.061334 0.222407
Si Si7 0.803489 0.951696 0.346325
Si Si8 0.196151 0.141552 0.876884
O O1 0.216135 0.808953 0.732424
O O2 0.230600 0.830720 0.633354
O O3 0.297587 0.888016 0.708229
O O4 0.000000 0.860949 0.693777
O O5 0.750000 0.250000 0.306338
O O6 0.775983 0.165721 0.327666
O O7 0.000000 0.205633 0.273786
O O8 0.750000 0.250000 0.101507
O O9 0.000000 0.197673 0.090792
O O10 0.743225 0.191482 0.030496
O O11 0.652018 0.537113 0.696116
O O12 0.500000 0.800503 0.472371
O O13 0.750000 0.750000 0.457707
O O14 0.756684 0.834115 0.428942
O O15 0.780236 0.054385 0.284267
O O16 0.000000 0.047481 0.211376
O O17 0.729356 0.909825 0.374611
O O18 0.000000 0.951308 0.355628
O O19 0.739119 0.000000 0.360304
O O20 0.000000 0.148522 0.872649
#
# Coordination Sequence:
#
# PCOD9369150 Si02
#       8
#    16  16  16   4  16  16  16  16
#     4  12  23  37  55  83 115 151 194 236 289 353
#     4  12  24  37  52  76 113 156 190 228 282 346
#     4  10  20  37  58  81 111 148 191 242 290 341
#     4  12  22  36  60  86 112 160 194 244 292 354
#     4   9  20  37  57  82 111 146 190 236 287 343
#     4  11  22  37  56  84 119 153 194 243 293 349
#     4  10  21  36  54  79 111 149 189 235 288 343
#     4  11  22  35  55  83 114 146 187 235 285 346
#
# _framework density 18.154197
#
# number of rings (size 3 to 8) (size 9 to 14) (size 15 to 20)
#    0.000    1.241    2.759    4.345    0.966    3.034 
#    0.000    0.000    0.000    0.000    1.793    0.000 
#    0.000    0.000    0.000    0.000    0.000    0.000 
#
# Total GULP energy -161642.773519 kJ/mol
# GULP energy per Si atom -5573.888742 kJ/mol
# Density = 1.811288 g / cm^3
# Si number density = 18.154197 Si / 1000 Ang^3
#
#
#
# Elastic Constant Matrix: (Units=GPa)
#
#
# Indices 1 2 3 4 5 6 
#
# 1 73.5300 14.5862 11.5732 0.0000 0.0000 0.0000
# 2 14.5862 115.8910 45.9741 0.0000 0.0000 0.0000
# 3 11.5732 45.9741 71.0481 0.0000 0.0000 0.0000
# 4 0.0000 0.0000 0.0000 -39.5723 0.0000 0.0000
# 5 0.0000 0.0000 0.0000 0.0000 18.4540 0.0000
# 6 0.0000 0.0000 0.0000 0.0000 0.0000 30.1714
#
#
#
# Elastic Compliance Matrix: (Units=1/GPa)
#
#
# Indices 1 2 3 4 5 6 
#
# 1 0.014073 -0.001159 -0.001542 0.000000 0.000000 0.000000
# 2 -0.001159 0.011704 -0.007385 0.000000 0.000000 0.000000
# 3 -0.001542 -0.007385 0.019105 0.000000 0.000000 0.000000
# 4 0.000000 0.000000 0.000000 -0.025270 0.000000 0.000000
# 5 0.000000 0.000000 0.000000 0.000000 0.054189 0.000000
# 6 0.000000 0.000000 0.000000 0.000000 0.000000 0.033144
#
#
# Mechanical properties :
#
#
# Convention : Reuss Voigt Hill
#
# Bulk Modulus (GPa) = 40.47105 44.97069 42.72087
# Shear Modulus (GPa) = 36.94041 14.36633 25.65337
#
# Velocity S-wave (km/s) = 4.51578 2.81615 3.76318
# Velocity P-wave (km/s) = 7.03783 5.94975 6.51654
#
# Compressibility (1/GPa) = 0.02470902
#
# Stress axis : x y z
#
# Youngs Moduli (GPa) = 71.06008 85.43879 52.34304
#
# Poissons Ratio (x) = 0.09906 0.08072
# Poissons Ratio (y) = 0.08239 0.38654
# Poissons Ratio (z) = 0.10958 0.63095
#
# Static dielectric constant tensor:
#      x y z
#    x 1.652030 0.000000 0.000000 
#    y 0.000000 1.726860 0.000000 
#    z 0.000000 0.000000 1.610410 
# 
# From -- ./inp_files/28336.got.cif
#   From: 2010.05.17/outbox.cif.g08.bks.cpg/sg42_15_cif.got.tgz:28336.got - 2010.06.03 19:03:34.
