data_PCOD9369883
_publ_section_title
;
Structure prediction by ZEFSAII (Michael W. Deem and Ramdas Pophale) SiO2 
 PCOD9369883
Probable space group: F M M 2
;
_chemical_formula_sum "Si O2"
_cell_formula_units_Z 96
_cell_length_a 29.296907
_cell_length_b 16.537360
_cell_length_c 9.878251
_cell_angle_alpha 90.000000
_cell_angle_beta 90.000000
_cell_angle_gamma 90.000000
_cell_volume 4785.948381
_symmetry_space_group_name_H-M "F M M 2"
_symmetry_group_IT_number 42
_symmetry_cell_setting 'orthorhombic'
loop_
_space_group_symop_operation_xyz
x,y,z
-x,-y,z
-x,y,z
x,-y,z
x,1/2+y,1/2+z
-x,1/2-y,1/2+z
-x,1/2+y,1/2+z
x,1/2-y,1/2+z
1/2+x,y,1/2+z
1/2-x,-y,1/2+z
1/2-x,y,1/2+z
1/2+x,-y,1/2+z
1/2+x,1/2+y,z
1/2-x,1/2-y,z
1/2-x,1/2+y,z
1/2+x,1/2-y,z
loop_
_atom_site_type_symbol
_atom_site_label
_atom_site_fract_x
_atom_site_fract_y
_atom_site_fract_z
Si Si1 0.852165 0.123347 0.937630
Si Si2 0.709403 0.094097 0.178243
Si Si3 0.854172 0.682377 0.966149
Si Si4 0.549817 0.350032 0.897156
Si Si5 0.949564 0.697007 0.088789
Si Si6 0.687718 0.908769 0.725384
O O1 0.821051 0.098888 0.812402
O O2 0.851882 0.221008 0.952821
O O3 0.904570 0.098886 0.912906
O O4 0.832592 0.089861 0.076010
O O5 0.760461 0.122496 0.213490
O O6 0.712670 0.000000 0.133701
O O7 0.684641 0.147986 0.065734
O O8 0.843747 0.645033 0.820577
O O9 0.903889 0.658292 0.025759
O O10 0.500000 0.390411 0.895751
O O11 0.554438 0.304010 0.751795
O O12 0.549696 0.285311 0.019606
O O13 0.000000 0.660791 0.057286
O O14 0.689789 0.000000 0.781096
#
# Coordination Sequence:
#
# PCOD9369883 Si02
#       6
#    16  16  16  16  16  16
#     4  11  22  37  61  91 116 147 192 247 289 328
#     4  11  23  41  60  81 114 160 199 231 288 355
#     4  11  22  37  61  91 116 147 192 247 289 328
#     4   9  18  33  56  87 119 150 186 233 289 345
#     4   9  18  33  56  87 119 150 186 233 289 345
#     4  11  25  41  58  81 118 160 195 233 290 357
#
# _framework density 20.058720000000001
#
# number of rings (size 3 to 8) (size 9 to 14) (size 15 to 20)
#    0.000    1.667    1.667    3.000    7.000    6.667 
#    0.000    0.000    0.000    6.000    0.000    0.000 
#    0.000    0.000    0.000    0.000    0.000    0.000 
#
# Total GULP energy -133976.518422 kJ/mol
# GULP energy per Si atom -5582.354934 kJ/mol
# Density = 2.001307 g / cm^3
# Si number density = 20.058720 Si / 1000 Ang^3
#
#
#
# Elastic Constant Matrix: (Units=GPa)
#
#
# Indices 1 2 3 4 5 6 
#
# 1 137.2066 9.2271 10.5792 0.0000 0.0000 0.0000
# 2 9.2271 52.1899 0.4310 0.0000 0.0000 0.0000
# 3 10.5792 0.4310 62.1641 0.0000 0.0000 0.0000
# 4 0.0000 0.0000 0.0000 25.2563 0.0000 0.0000
# 5 0.0000 0.0000 0.0000 0.0000 42.5421 0.0000
# 6 0.0000 0.0000 0.0000 0.0000 0.0000 -821.3076
#
#
#
# Elastic Compliance Matrix: (Units=1/GPa)
#
#
# Indices 1 2 3 4 5 6 
#
# 1 0.007474 -0.001311 -0.001263 0.000000 0.000000 0.000000
# 2 -0.001311 0.019392 0.000089 0.000000 0.000000 0.000000
# 3 -0.001263 0.000089 0.016301 0.000000 0.000000 0.000000
# 4 0.000000 0.000000 0.000000 0.039594 0.000000 0.000000
# 5 0.000000 0.000000 0.000000 0.000000 0.023506 0.000000
# 6 0.000000 0.000000 0.000000 0.000000 0.000000 -0.001218
#
#
# Mechanical properties :
#
#
# Convention : Reuss Voigt Hill
#
# Bulk Modulus (GPa) = 26.18063 32.44836 29.31450
# Shear Modulus (GPa) = 40.73275 -135.28030 -47.27377
#
# Velocity S-wave (km/s) = 4.51119 -8.22123 -4.85992
# Velocity P-wave (km/s) = 6.34151 8.59688 4.10436
#
# Compressibility (1/GPa) = 0.03819618
#
# Stress axis : x y z
#
# Youngs Moduli (GPa) = 133.80059 51.56809 61.34689
#
# Poissons Ratio (x) = 0.06760 0.07747
# Poissons Ratio (y) = 0.17540 -0.00544
# Poissons Ratio (z) = 0.16897 -0.00457
#
# Static dielectric constant tensor:
#      x y z
#    x 1.742380 0.000000 0.000000 
#    y 0.000000 1.685460 0.000000 
#    z 0.000000 0.000000 1.682420 
# 
# From -- ./inp_files/4185.got.cif
#   From: 2010.05.17/outbox.cif.g08.bks.cpg/sg42_3_cif.got.tgz:4185.got - 2010.06.03 19:03:34.
