data_PCOD9369474
_publ_section_title
;
Structure prediction by ZEFSAII (Michael W. Deem and Ramdas Pophale) SiO2 
 PCOD9369474
Probable space group: F M M 2
;
_chemical_formula_sum "Si O2"
_cell_formula_units_Z 80
_cell_length_a 15.727312
_cell_length_b 10.303125
_cell_length_c 26.057427
_cell_angle_alpha 90.000000
_cell_angle_beta 90.000000
_cell_angle_gamma 90.000000
_cell_volume 4222.357495
_symmetry_space_group_name_H-M "F M M 2"
_symmetry_group_IT_number 42
_symmetry_cell_setting 'orthorhombic'
loop_
_space_group_symop_operation_xyz
x,y,z
-x,-y,z
-x,y,z
x,-y,z
x,1/2+y,1/2+z
-x,1/2-y,1/2+z
-x,1/2+y,1/2+z
x,1/2-y,1/2+z
1/2+x,y,1/2+z
1/2-x,-y,1/2+z
1/2-x,y,1/2+z
1/2+x,-y,1/2+z
1/2+x,1/2+y,z
1/2-x,1/2-y,z
1/2-x,1/2+y,z
1/2+x,1/2-y,z
loop_
_atom_site_type_symbol
_atom_site_label
_atom_site_fract_x
_atom_site_fract_y
_atom_site_fract_z
Si Si1 0.257295 0.000000 0.125000
Si Si2 0.750000 0.250000 0.197091
Si Si3 0.103834 0.000000 0.536015
Si Si4 0.903048 0.000000 0.050725
Si Si5 0.904073 0.152696 0.760293
Si Si6 0.176165 0.848141 0.867083
Si Si7 0.400725 0.758046 0.474263
O O1 0.254254 0.125611 0.160719
O O2 0.172062 0.000000 0.091129
O O3 0.340120 0.000000 0.087747
O O4 0.833598 0.260582 0.232551
O O5 0.127239 0.126336 0.502313
O O6 0.000000 0.000000 0.544985
O O7 0.893755 0.874266 0.014817
O O8 0.000000 0.000000 0.071796
O O9 0.892925 0.160729 0.821783
O O10 0.000000 0.186683 0.745348
O O11 0.889353 0.000000 0.747167
O O12 0.250000 0.750000 0.851067
O O13 0.145375 0.798936 0.922317
O O14 0.202087 0.000000 0.870425
O O15 0.500000 0.741195 0.461444
#
# Coordination Sequence:
#
# PCOD9369474 Si02
#       7
#     8   8   8   8  16  16  16
#     4  12  26  40  66  88 126 168 212 274 330 372
#     4  12  24  44  64  98 126 158 226 280 318 378
#     4  10  24  42  61  91 130 171 217 262 311 378
#     4  10  22  40  59  87 122 161 213 260 311 382
#     4  10  22  44  71  95 129 172 213 259 324 393
#     4  11  23  37  64  97 131 167 207 254 314 387
#     4  10  21  38  60  90 128 167 210 255 305 378
#
# _framework density 18.946760999999999
#
# number of rings (size 3 to 8) (size 9 to 14) (size 15 to 20)
#    0.000    1.400    3.000    1.800    4.200    2.400 
#    0.000    0.000    0.000    0.000    0.000    0.000 
#    0.000    0.000    0.000    0.000    0.000    0.000 
#
# Total GULP energy -111682.324711 kJ/mol
# GULP energy per Si atom -5584.116236 kJ/mol
# Density = 1.890364 g / cm^3
# Si number density = 18.946761 Si / 1000 Ang^3
#
#
#
# Elastic Constant Matrix: (Units=GPa)
#
#
# Indices 1 2 3 4 5 6 
#
# 1 106.3408 42.8087 60.5049 0.0000 0.0000 0.0000
# 2 42.8087 146.6025 51.3139 0.0000 0.0000 0.0000
# 3 60.5049 51.3139 99.2659 0.0000 0.0000 0.0000
# 4 0.0000 0.0000 0.0000 27.2589 0.0000 0.0000
# 5 0.0000 0.0000 0.0000 0.0000 11.3256 0.0000
# 6 0.0000 0.0000 0.0000 0.0000 0.0000-2594.7697
#
#
#
# Elastic Compliance Matrix: (Units=1/GPa)
#
#
# Indices 1 2 3 4 5 6 
#
# 1 0.014630 -0.001405 -0.008191 0.000000 0.000000 0.000000
# 2 -0.001405 0.008463 -0.003518 0.000000 0.000000 0.000000
# 3 -0.008191 -0.003518 0.016885 0.000000 0.000000 0.000000
# 4 0.000000 0.000000 0.000000 0.036685 0.000000 0.000000
# 5 0.000000 0.000000 0.000000 0.000000 0.088295 0.000000
# 6 0.000000 0.000000 0.000000 0.000000 0.000000 -0.000385
#
#
# Mechanical properties :
#
#
# Convention : Reuss Voigt Hill
#
# Bulk Modulus (GPa) = 72.73048 73.49601 73.11324
# Shear Modulus (GPa) = 25.59052 -498.06493 -236.23720
#
# Velocity S-wave (km/s) = 3.67911 -16.23104 -11.17835
# Velocity P-wave (km/s) = 7.51784 17.67448 11.31082
#
# Compressibility (1/GPa) = 0.01374939
#
# Stress axis : x y z
#
# Youngs Moduli (GPa) = 68.35419 118.16216 59.22324
#
# Poissons Ratio (x) = 0.16601 0.48509
# Poissons Ratio (y) = 0.09604 0.20837
# Poissons Ratio (z) = 0.55988 0.41574
#
# Static dielectric constant tensor:
#      x y z
#    x 1.672150 0.000000 0.000000 
#    y 0.000000 1.635640 0.000000 
#    z 0.000000 0.000000 1.640380 
# 
# From -- ./inp_files/29292.got.cif
#   From: 2010.05.17/outbox.cif.g08.bks.cpg/sg42_15_cif.got.tgz:29292.got - 2010.06.03 19:03:34.
