data_PCOD9369859
_publ_section_title
;
Structure prediction by ZEFSAII (Michael W. Deem and Ramdas Pophale) SiO2 
 PCOD9369859
Probable space group: F M M 2
;
_chemical_formula_sum "Si O2"
_cell_formula_units_Z 116
_cell_length_a 18.117896
_cell_length_b 21.436503
_cell_length_c 15.111801
_cell_angle_alpha 90.000000
_cell_angle_beta 90.000000
_cell_angle_gamma 90.000000
_cell_volume 5869.186736
_symmetry_space_group_name_H-M "F M M 2"
_symmetry_group_IT_number 42
_symmetry_cell_setting 'orthorhombic'
loop_
_space_group_symop_operation_xyz
x,y,z
-x,-y,z
-x,y,z
x,-y,z
x,1/2+y,1/2+z
-x,1/2-y,1/2+z
-x,1/2+y,1/2+z
x,1/2-y,1/2+z
1/2+x,y,1/2+z
1/2-x,-y,1/2+z
1/2-x,y,1/2+z
1/2+x,-y,1/2+z
1/2+x,1/2+y,z
1/2-x,1/2-y,z
1/2-x,1/2+y,z
1/2+x,1/2-y,z
loop_
_atom_site_type_symbol
_atom_site_label
_atom_site_fract_x
_atom_site_fract_y
_atom_site_fract_z
Si Si1 0.836040 0.743055 0.347640
Si Si2 0.877486 0.597140 0.627359
Si Si3 0.586008 0.372963 0.930965
Si Si4 0.712627 0.927441 0.109826
Si Si5 0.684986 0.196787 0.014413
Si Si6 0.912706 0.241243 0.163194
Si Si7 0.080092 0.573652 0.238586
Si Si8 0.000000 0.500000 0.683105
O O1 0.750000 0.750000 0.321327
O O2 0.859319 0.683724 0.407529
O O3 0.848271 0.799559 0.415936
O O4 0.884661 0.739891 0.260314
O O5 0.891701 0.592476 0.521011
O O6 0.794516 0.577224 0.648857
O O7 0.889323 0.669521 0.649082
O O8 0.935906 0.554239 0.675843
O O9 0.500000 0.351896 0.941822
O O10 0.588918 0.414131 0.842599
O O11 0.710462 0.873119 0.036164
O O12 0.650507 0.907681 0.181157
O O13 0.699975 0.000000 0.082363
O O14 0.750000 0.250000 0.018166
O O15 0.626822 0.218771 0.087588
O O16 0.000000 0.246136 0.156668
O O17 0.075540 0.500000 0.225264
O O18 0.000000 0.601634 0.211797
#
# Coordination Sequence:
#
# PCOD9369859 Si02
#       8
#    16  16  16  16  16  16  16   4
#     4  11  24  39  60  90 127 165 206 269 319 376
#     4  12  23  39  65  94 129 169 211 261 322 386
#     4  11  21  38  63  94 124 155 211 273 330 375
#     4  11  23  41  65  94 129 172 215 256 324 394
#     4  11  22  42  66  92 126 166 212 273 319 371
#     4  12  24  40  65  96 128 168 214 264 322 380
#     4   9  21  38  61  93 128 162 207 269 327 383
#     4  12  24  40  64  92 134 176 204 268 320 376
#
# _framework density 19.764237000000001
#
# number of rings (size 3 to 8) (size 9 to 14) (size 15 to 20)
#    0.000    0.966    4.828    2.483    2.897    2.207 
#    0.000    0.000    1.517    0.000    0.000    0.000 
#    0.000    0.000    0.000    0.000    0.000    0.000 
#
# Total GULP energy -161633.907059 kJ/mol
# GULP energy per Si atom -5573.583002 kJ/mol
# Density = 1.971925 g / cm^3
# Si number density = 19.764237 Si / 1000 Ang^3
#
#
#
# Elastic Constant Matrix: (Units=GPa)
#
#
# Indices 1 2 3 4 5 6 
#
# 1 133.0229 13.9618 26.5471 0.0000 0.0000 0.0000
# 2 13.9618 79.1874 -2.2432 0.0000 0.0000 0.0000
# 3 26.5471 -2.2432 66.3132 0.0000 0.0000 0.0000
# 4 0.0000 0.0000 0.0000 18.1941 0.0000 0.0000
# 5 0.0000 0.0000 0.0000 0.0000 13.0298 0.0000
# 6 0.0000 0.0000 0.0000 0.0000 0.0000 30.4282
#
#
#
# Elastic Compliance Matrix: (Units=1/GPa)
#
#
# Indices 1 2 3 4 5 6 
#
# 1 0.008361 -0.001570 -0.003400 0.000000 0.000000 0.000000
# 2 -0.001570 0.012935 0.001066 0.000000 0.000000 0.000000
# 3 -0.003400 0.001066 0.016477 0.000000 0.000000 0.000000
# 4 0.000000 0.000000 0.000000 0.054963 0.000000 0.000000
# 5 0.000000 0.000000 0.000000 0.000000 0.076747 0.000000
# 6 0.000000 0.000000 0.000000 0.000000 0.000000 0.032864
#
#
# Mechanical properties :
#
#
# Convention : Reuss Voigt Hill
#
# Bulk Modulus (GPa) = 33.37265 39.45055 36.41160
# Shear Modulus (GPa) = 22.71233 28.34762 25.52998
#
# Velocity S-wave (km/s) = 3.39361 3.79131 3.59796
# Velocity P-wave (km/s) = 5.68133 6.25854 5.97690
#
# Compressibility (1/GPa) = 0.02996466
#
# Stress axis : x y z
#
# Youngs Moduli (GPa) = 119.60416 77.30744 60.68980
#
# Poissons Ratio (x) = 0.12141 0.20636
# Poissons Ratio (y) = 0.18783 -0.06471
# Poissons Ratio (z) = 0.40668 -0.08243
#
# Static dielectric constant tensor:
#      x y z
#    x 1.724470 0.000000 0.000000 
#    y 0.000000 1.731340 0.000000 
#    z 0.000000 0.000000 1.700740 
# 
# From -- ./inp_files/15409.got.cif
#   From: 2010.05.17/outbox.cif.g08.bks.cpg/sg42_8_cif.got.tgz:15409.got - 2010.06.03 19:03:34.
