data_PCOD9369333
_publ_section_title
;
Structure prediction by ZEFSAII (Michael W. Deem and Ramdas Pophale) SiO2 
 PCOD9369333
Probable space group: F M M 2
;
_chemical_formula_sum "Si O2"
_cell_formula_units_Z 116
_cell_length_a 15.993065
_cell_length_b 17.412002
_cell_length_c 23.040377
_cell_angle_alpha 90.000000
_cell_angle_beta 90.000000
_cell_angle_gamma 90.000000
_cell_volume 6416.083269
_symmetry_space_group_name_H-M "F M M 2"
_symmetry_group_IT_number 42
_symmetry_cell_setting 'orthorhombic'
loop_
_space_group_symop_operation_xyz
x,y,z
-x,-y,z
-x,y,z
x,-y,z
x,1/2+y,1/2+z
-x,1/2-y,1/2+z
-x,1/2+y,1/2+z
x,1/2-y,1/2+z
1/2+x,y,1/2+z
1/2-x,-y,1/2+z
1/2-x,y,1/2+z
1/2+x,-y,1/2+z
1/2+x,1/2+y,z
1/2-x,1/2-y,z
1/2-x,1/2+y,z
1/2+x,1/2-y,z
loop_
_atom_site_type_symbol
_atom_site_label
_atom_site_fract_x
_atom_site_fract_y
_atom_site_fract_z
Si Si1 0.906977 0.658124 0.087930
Si Si2 0.677564 0.414047 0.794081
Si Si3 0.500000 0.500000 0.231026
Si Si4 0.161581 0.387960 0.729415
Si Si5 0.901068 0.411573 0.419404
Si Si6 0.336390 0.290844 0.013122
Si Si7 0.096749 0.780657 0.718289
Si Si8 0.767553 0.414490 0.601514
O O1 0.892811 0.722126 0.038254
O O2 0.899669 0.700842 0.149926
O O3 0.830357 0.598945 0.088665
O O4 0.000000 0.624804 0.083427
O O5 0.648614 0.500000 0.778002
O O6 0.776352 0.409743 0.781542
O O7 0.651179 0.401410 0.860401
O O8 0.635242 0.350751 0.753787
O O9 0.574697 0.433649 0.230171
O O10 0.144928 0.297531 0.730600
O O11 0.209966 0.406710 0.669283
O O12 0.886326 0.500000 0.440254
O O13 0.875678 0.346032 0.464903
O O14 0.000000 0.405545 0.406690
O O15 0.250000 0.250000 0.993579
O O16 0.313956 0.347399 0.066605
O O17 0.000000 0.771448 0.734530
O O18 0.793074 0.500000 0.582850
#
# Coordination Sequence:
#
# PCOD9369333 Si02
#       8
#    16  16   4  16  16  16  16  16
#     4  10  21  35  55  85 120 160 199 249 296 360
#     4  11  23  39  62  87 122 165 203 257 309 371
#     4  12  24  40  60  88 124 164 204 268 312 378
#     4  12  22  39  58  87 124 162 203 255 315 367
#     4  10  22  42  63  89 121 159 207 259 306 360
#     4  10  21  37  61  88 120 159 204 253 307 363
#     4  11  22  35  57  87 121 160 205 247 304 368
#     4  11  21  36  57  85 121 160 201 247 302 366
#
# _framework density 18.079566
#
# number of rings (size 3 to 8) (size 9 to 14) (size 15 to 20)
#    0.000    1.241    4.828    1.655    0.000    2.207 
#    1.241    1.379    0.000    0.000    1.793    0.000 
#    0.000    0.000    0.000    0.000    0.000    0.000 
#
# Total GULP energy -161612.769525 kJ/mol
# GULP energy per Si atom -5572.854122 kJ/mol
# Density = 1.803842 g / cm^3
# Si number density = 18.079566 Si / 1000 Ang^3
#
#
#
# Elastic Constant Matrix: (Units=GPa)
#
#
# Indices 1 2 3 4 5 6 
#
# 1 77.4268 8.4561 37.3207 0.0000 0.0000 0.0000
# 2 8.4561 86.0314 27.0600 0.0000 0.0000 0.0000
# 3 37.3207 27.0600 68.6763 0.0000 0.0000 0.0000
# 4 0.0000 0.0000 0.0000 25.3907 0.0000 0.0000
# 5 0.0000 0.0000 0.0000 0.0000 14.6385 0.0000
# 6 0.0000 0.0000 0.0000 0.0000 0.0000 32.8035
#
#
#
# Elastic Compliance Matrix: (Units=1/GPa)
#
#
# Indices 1 2 3 4 5 6 
#
# 1 0.017659 0.001464 -0.010173 0.000000 0.000000 0.000000
# 2 0.001464 0.013389 -0.006071 0.000000 0.000000 0.000000
# 3 -0.010173 -0.006071 0.022482 0.000000 0.000000 0.000000
# 4 0.000000 0.000000 0.000000 0.039384 0.000000 0.000000
# 5 0.000000 0.000000 0.000000 0.000000 0.068313 0.000000
# 6 0.000000 0.000000 0.000000 0.000000 0.000000 0.030485
#
#
# Mechanical properties :
#
#
# Convention : Reuss Voigt Hill
#
# Bulk Modulus (GPa) = 41.72024 41.97867 41.84946
# Shear Modulus (GPa) = 21.80895 25.18640 23.49767
#
# Velocity S-wave (km/s) = 3.47692 3.73646 3.60902
# Velocity P-wave (km/s) = 6.26455 6.47179 6.36901
#
# Compressibility (1/GPa) = 0.02396918
#
# Stress axis : x y z
#
# Youngs Moduli (GPa) = 56.62745 74.68585 44.48021
#
# Poissons Ratio (x) = -0.10935 0.45252
# Poissons Ratio (y) = -0.08291 0.27006
# Poissons Ratio (z) = 0.57610 0.45345
#
# Static dielectric constant tensor:
#      x y z
#    x 1.631540 0.000000 0.000000 
#    y 0.000000 1.611120 0.000000 
#    z 0.000000 0.000000 1.596800 
# 
# From -- ./inp_files/29621.got.cif
#   From: 2010.05.17/outbox.cif.g08.bks.cpg/sg42_15_cif.got.tgz:29621.got - 2010.06.03 19:03:34.
