data_PCOD9369341
_publ_section_title
;
Structure prediction by ZEFSAII (Michael W. Deem and Ramdas Pophale) SiO2 
 PCOD9369341
Probable space group: F M M 2
;
_chemical_formula_sum "Si O2"
_cell_formula_units_Z 112
_cell_length_a 16.979340
_cell_length_b 23.168036
_cell_length_c 13.383495
_cell_angle_alpha 90.000000
_cell_angle_beta 90.000000
_cell_angle_gamma 90.000000
_cell_volume 5264.771966
_symmetry_space_group_name_H-M "F M M 2"
_symmetry_group_IT_number 42
_symmetry_cell_setting 'orthorhombic'
loop_
_space_group_symop_operation_xyz
x,y,z
-x,-y,z
-x,y,z
x,-y,z
x,1/2+y,1/2+z
-x,1/2-y,1/2+z
-x,1/2+y,1/2+z
x,1/2-y,1/2+z
1/2+x,y,1/2+z
1/2-x,-y,1/2+z
1/2-x,y,1/2+z
1/2+x,-y,1/2+z
1/2+x,1/2+y,z
1/2-x,1/2-y,z
1/2-x,1/2+y,z
1/2+x,1/2-y,z
loop_
_atom_site_type_symbol
_atom_site_label
_atom_site_fract_x
_atom_site_fract_y
_atom_site_fract_z
Si Si1 0.186237 0.932417 0.046070
Si Si2 0.686496 0.365068 0.419857
Si Si3 0.908187 0.107072 0.243330
Si Si4 0.093415 0.064971 0.840751
Si Si5 0.328605 0.824169 0.288419
Si Si6 0.911484 0.735811 0.674909
Si Si7 0.909808 0.752776 0.455416
O O1 0.145166 0.914011 0.150122
O O2 0.207180 0.000000 0.053604
O O3 0.260881 0.896165 0.004334
O O4 0.124140 0.926488 0.954158
O O5 0.631377 0.406003 0.350885
O O6 0.745143 0.336309 0.337653
O O7 0.637232 0.312189 0.463475
O O8 0.908457 0.177105 0.236777
O O9 0.000000 0.088327 0.234874
O O10 0.132966 0.113557 0.773091
O O11 0.000000 0.070600 0.838547
O O12 0.115856 0.000000 0.810800
O O13 0.342539 0.781099 0.197624
O O14 0.377255 0.789158 0.371757
O O15 0.905067 0.719323 0.559566
O O16 0.000000 0.761857 0.688381
O O17 0.000000 0.766765 0.434583
#
# Coordination Sequence:
#
# PCOD9369341 Si02
#       7
#    16  16  16  16  16  16  16
#     4  10  23  42  63  90 125 164 212 273 338 395
#     4  11  24  39  61  93 131 167 209 275 335 399
#     4  11  23  41  66  99 133 170 223 277 332 402
#     4   9  17  32  57  86 119 160 207 259 314 377
#     4  11  21  36  56  89 125 165 209 260 321 390
#     4  10  21  35  58  88 125 166 209 262 322 393
#     4  11  22  38  59  86 126 172 213 263 330 397
#
# _framework density 21.273475000000001
#
# number of rings (size 3 to 8) (size 9 to 14) (size 15 to 20)
#    0.000    1.571    1.429    4.286    2.000    2.571 
#    0.000    0.000    0.000    1.286    0.000    0.000 
#    0.000    0.000    0.000    0.000    0.000    0.000 
#
# Total GULP energy -156380.370554 kJ/mol
# GULP energy per Si atom -5585.013234 kJ/mol
# Density = 2.122506 g / cm^3
# Si number density = 21.273475 Si / 1000 Ang^3
#
#
#
# Elastic Constant Matrix: (Units=GPa)
#
#
# Indices 1 2 3 4 5 6 
#
# 1 111.5530 38.4667 21.2809 0.0000 0.0000 0.0000
# 2 38.4667 64.0715 4.3348 0.0000 0.0000 0.0000
# 3 21.2809 4.3348 54.7691 0.0000 0.0000 0.0000
# 4 0.0000 0.0000 0.0000 29.7384 0.0000 0.0000
# 5 0.0000 0.0000 0.0000 0.0000 27.9966 0.0000
# 6 0.0000 0.0000 0.0000 0.0000 0.0000 -2.8475
#
#
#
# Elastic Compliance Matrix: (Units=1/GPa)
#
#
# Indices 1 2 3 4 5 6 
#
# 1 0.012187 -0.007034 -0.004179 0.000000 0.000000 0.000000
# 2 -0.007034 0.019751 0.001170 0.000000 0.000000 0.000000
# 3 -0.004179 0.001170 0.019790 0.000000 0.000000 0.000000
# 4 0.000000 0.000000 0.000000 0.033627 0.000000 0.000000
# 5 0.000000 0.000000 0.000000 0.000000 0.035719 0.000000
# 6 0.000000 0.000000 0.000000 0.000000 0.000000 -0.351180
#
#
# Mechanical properties :
#
#
# Convention : Reuss Voigt Hill
#
# Bulk Modulus (GPa) = 31.60320 39.83983 35.72151
# Shear Modulus (GPa) = -25.06602 22.06491 -1.50056
#
# Velocity S-wave (km/s) = -3.43633 3.22406 -0.84077
# Velocity P-wave (km/s) = 0.92548 5.71205 3.98566
#
# Compressibility (1/GPa) = 0.03164237
#
# Stress axis : x y z
#
# Youngs Moduli (GPa) = 82.05431 50.62916 50.53181
#
# Poissons Ratio (x) = 0.35613 0.21115
# Poissons Ratio (y) = 0.57717 -0.05911
# Poissons Ratio (z) = 0.34287 -0.05923
#
# Static dielectric constant tensor:
#      x y z
#    x 1.793600 0.000000 0.000000 
#    y 0.000000 1.792210 0.000000 
#    z 0.000000 0.000000 1.787800 
# 
# From -- ./inp_files/14262.got.cif
#   From: 2010.05.17/outbox.cif.g08.bks.cpg/sg42_8_cif.got.tgz:14262.got - 2010.06.03 19:03:34.
