data_PCOD9369591
_publ_section_title
;
Structure prediction by ZEFSAII (Michael W. Deem and Ramdas Pophale) SiO2 
 PCOD9369591
Probable space group: F M M 2
;
_chemical_formula_sum "Si O2"
_cell_formula_units_Z 100
_cell_length_a 9.169533
_cell_length_b 22.969416
_cell_length_c 25.055091
_cell_angle_alpha 90.000000
_cell_angle_beta 90.000000
_cell_angle_gamma 90.000000
_cell_volume 5277.073651
_symmetry_space_group_name_H-M "F M M 2"
_symmetry_group_IT_number 42
_symmetry_cell_setting 'orthorhombic'
loop_
_space_group_symop_operation_xyz
x,y,z
-x,-y,z
-x,y,z
x,-y,z
x,1/2+y,1/2+z
-x,1/2-y,1/2+z
-x,1/2+y,1/2+z
x,1/2-y,1/2+z
1/2+x,y,1/2+z
1/2-x,-y,1/2+z
1/2-x,y,1/2+z
1/2+x,-y,1/2+z
1/2+x,1/2+y,z
1/2-x,1/2-y,z
1/2-x,1/2+y,z
1/2+x,1/2-y,z
loop_
_atom_site_type_symbol
_atom_site_label
_atom_site_fract_x
_atom_site_fract_y
_atom_site_fract_z
Si Si1 0.829785 0.810665 0.526370
Si Si2 0.149721 0.500000 0.496124
Si Si3 0.670722 0.689284 0.842297
Si Si4 0.823679 0.879273 0.123293
Si Si5 0.324287 0.312763 0.718734
Si Si6 0.172865 0.000000 0.594701
Si Si7 0.266051 0.600003 0.431888
Si Si8 0.500000 0.000000 0.907956
O O1 0.750000 0.750000 0.512711
O O2 0.742049 0.839652 0.575513
O O3 0.824713 0.855464 0.476901
O O4 0.000000 0.801005 0.540794
O O5 0.296511 0.500000 0.531061
O O6 0.151967 0.558654 0.462233
O O7 0.000000 0.500000 0.529760
O O8 0.500000 0.701022 0.845920
O O9 0.750000 0.750000 0.854208
O O10 0.701897 0.672015 0.780872
O O11 0.711237 0.639286 0.883556
O O12 0.757793 0.854995 0.178288
O O13 0.754200 0.942865 0.115283
O O14 0.000000 0.879071 0.122462
O O15 0.500000 0.311145 0.709459
O O16 0.250000 0.250000 0.710233
O O17 0.000000 0.000000 0.605324
O O18 0.376527 0.551712 0.410620
#
# Coordination Sequence:
#
# PCOD9369591 Si02
#       8
#    16   8  16  16  16   8  16   4
#     4  12  25  40  61  93 132 172 213 270 330 392
#     4  11  23  38  63  90 126 171 215 261 314 379
#     4  10  23  41  67  98 132 172 215 269 332 394
#     4  12  25  42  65  94 127 169 220 270 324 390
#     4  10  21  42  67  94 127 169 213 265 328 392
#     4  12  25  41  65  91 126 172 219 267 324 387
#     4  11  23  39  65  91 132 168 221 265 322 388
#     4  10  24  42  62  98 124 182 222 270 324 386
#
# _framework density 18.949895999999999
#
# number of rings (size 3 to 8) (size 9 to 14) (size 15 to 20)
#    0.000    0.960    2.400    4.560    3.360    3.840 
#    0.000    1.600    0.000    4.800    0.000    0.000 
#    0.000    0.000    0.000    0.000    0.000    0.000 
#
# Total GULP energy -139344.678346 kJ/mol
# GULP energy per Si atom -5573.787134 kJ/mol
# Density = 1.890677 g / cm^3
# Si number density = 18.949896 Si / 1000 Ang^3
#
#
#
# Elastic Constant Matrix: (Units=GPa)
#
#
# Indices 1 2 3 4 5 6 
#
# 1 152.2748 64.1319 55.4436 0.0000 0.0000 0.0000
# 2 64.1319 153.6548 81.2570 0.0000 0.0000 0.0000
# 3 55.4436 81.2570 98.4927 0.0000 0.0000 0.0000
# 4 0.0000 0.0000 0.0000 44.6026 0.0000 0.0000
# 5 0.0000 0.0000 0.0000 0.0000 174.4444 0.0000
# 6 0.0000 0.0000 0.0000 0.0000 0.0000 69.2029
#
#
#
# Elastic Compliance Matrix: (Units=1/GPa)
#
#
# Indices 1 2 3 4 5 6 
#
# 1 0.008535 -0.001812 -0.003310 0.000000 0.000000 0.000000
# 2 -0.001812 0.011930 -0.008822 0.000000 0.000000 0.000000
# 3 -0.003310 -0.008822 0.019294 0.000000 0.000000 0.000000
# 4 0.000000 0.000000 0.000000 0.022420 0.000000 0.000000
# 5 0.000000 0.000000 0.000000 0.000000 0.005732 0.000000
# 6 0.000000 0.000000 0.000000 0.000000 0.000000 0.014450
#
#
# Mechanical properties :
#
#
# Convention : Reuss Voigt Hill
#
# Bulk Modulus (GPa) = 84.23382 89.56526 86.89954
# Shear Modulus (GPa) = 43.78001 71.22262 57.50131
#
# Velocity S-wave (km/s) = 4.81178 6.13729 5.51450
# Velocity P-wave (km/s) = 8.68437 9.87869 9.30072
#
# Compressibility (1/GPa) = 0.01187172
#
# Stress axis : x y z
#
# Youngs Moduli (GPa) = 117.15973 83.82370 51.82882
#
# Poissons Ratio (x) = 0.15191 0.17153
# Poissons Ratio (y) = 0.21232 0.45723
# Poissons Ratio (z) = 0.38776 0.73949
#
# Static dielectric constant tensor:
#      x y z
#    x 1.661350 0.000000 0.000000 
#    y 0.000000 1.577450 0.000000 
#    z 0.000000 0.000000 1.676590 
# 
# From -- ./inp_files/31576.got.cif
#   From: 2010.05.17/outbox.cif.g08.bks.cpg/sg42_16_cif.got.tgz:31576.got - 2010.06.03 19:03:34.
