data_PCOD9369213
_publ_section_title
;
Structure prediction by ZEFSAII (Michael W. Deem and Ramdas Pophale) SiO2 
 PCOD9369213
Probable space group: F M M 2
;
_chemical_formula_sum "Si O2"
_cell_formula_units_Z 80
_cell_length_a 29.198532
_cell_length_b 10.793119
_cell_length_c 13.631164
_cell_angle_alpha 90.000000
_cell_angle_beta 90.000000
_cell_angle_gamma 90.000000
_cell_volume 4295.769058
_symmetry_space_group_name_H-M "F M M 2"
_symmetry_group_IT_number 42
_symmetry_cell_setting 'orthorhombic'
loop_
_space_group_symop_operation_xyz
x,y,z
-x,-y,z
-x,y,z
x,-y,z
x,1/2+y,1/2+z
-x,1/2-y,1/2+z
-x,1/2+y,1/2+z
x,1/2-y,1/2+z
1/2+x,y,1/2+z
1/2-x,-y,1/2+z
1/2-x,y,1/2+z
1/2+x,-y,1/2+z
1/2+x,1/2+y,z
1/2-x,1/2-y,z
1/2-x,1/2+y,z
1/2+x,1/2-y,z
loop_
_atom_site_type_symbol
_atom_site_label
_atom_site_fract_x
_atom_site_fract_y
_atom_site_fract_z
Si Si1 0.795610 0.500000 0.887521
Si Si2 0.334021 0.247478 0.427354
Si Si3 0.424291 0.856728 0.493816
Si Si4 0.189626 0.000000 0.816790
Si Si5 0.000000 0.141799 0.824764
Si Si6 0.500000 0.146151 0.660060
Si Si7 0.750000 0.250000 0.077922
Si Si8 0.278889 0.000000 0.122323
O O1 0.823204 0.373478 0.868263
O O2 0.744459 0.500000 0.842877
O O3 0.789860 0.500000 0.007020
O O4 0.382639 0.237853 0.480957
O O5 0.330128 0.125257 0.361567
O O6 0.293886 0.238241 0.508082
O O7 0.456535 0.847915 0.397870
O O8 0.456082 0.836179 0.588727
O O9 0.407479 0.000000 0.499817
O O10 0.181002 0.000000 0.700540
O O11 0.000000 0.251640 0.745486
O O12 0.000000 0.000000 0.784085
O O13 0.500000 0.000000 0.691729
O O14 0.752288 0.373528 0.140674
#
# Coordination Sequence:
#
# PCOD9369213 Si02
#       8
#     8  16  16   8   8   8   8   8
#     4  10  22  40  50  81 121 148 188 245 274 324
#     4  11  19  38  60  79 114 156 191 229 283 331
#     4   9  19  37  64  82 111 153 191 222 282 357
#     4  12  20  36  62  77 108 163 195 232 280 334
#     4   9  19  41  60  88 114 141 187 239 282 344
#     4   9  19  41  64  86 112 145 183 235 290 342
#     4  10  20  38  54  76 118 150 186 240 272 328
#     4  10  22  34  52  78 103 149 193 233 278 314
#
# _framework density 18.622975
#
# number of rings (size 3 to 8) (size 9 to 14) (size 15 to 20)
#    0.000    2.000    5.000    1.200    2.800    0.000 
#   10.800    1.000    0.000    0.000    0.000    0.000 
#    0.000    0.000    0.000    0.000    0.000    0.000 
#
# Total GULP energy -111438.447203 kJ/mol
# GULP energy per Si atom -5571.922360 kJ/mol
# Density = 1.858059 g / cm^3
# Si number density = 18.622975 Si / 1000 Ang^3
#
#
#
# Elastic Constant Matrix: (Units=GPa)
#
#
# Indices 1 2 3 4 5 6 
#
# 1 71.4796 4.7982 -1.8927 0.0000 0.0000 0.0000
# 2 4.7982 134.9451 28.6589 0.0000 0.0000 0.0000
# 3 -1.8927 28.6589 70.2669 0.0000 0.0000 0.0000
# 4 0.0000 0.0000 0.0000 2.3705 0.0000 0.0000
# 5 0.0000 0.0000 0.0000 0.0000 34.5434 0.0000
# 6 0.0000 0.0000 0.0000 0.0000 0.0000 23.4214
#
#
#
# Elastic Compliance Matrix: (Units=1/GPa)
#
#
# Indices 1 2 3 4 5 6 
#
# 1 0.014050 -0.000635 0.000637 0.000000 0.000000 0.000000
# 2 -0.000635 0.008142 -0.003338 0.000000 0.000000 0.000000
# 3 0.000637 -0.003338 0.015610 0.000000 0.000000 0.000000
# 4 0.000000 0.000000 0.000000 0.421859 0.000000 0.000000
# 5 0.000000 0.000000 0.000000 0.000000 0.028949 0.000000
# 6 0.000000 0.000000 0.000000 0.000000 0.000000 0.042696
#
#
# Mechanical properties :
#
#
# Convention : Reuss Voigt Hill
#
# Bulk Modulus (GPa) = 32.12271 37.75785 34.94028
# Shear Modulus (GPa) = 9.11821 28.40885 18.76353
#
# Velocity S-wave (km/s) = 2.21514 3.90997 3.17763
# Velocity P-wave (km/s) = 4.88148 6.37987 5.68030
#
# Compressibility (1/GPa) = 0.03113062
#
# Stress axis : x y z
#
# Youngs Moduli (GPa) = 71.17689 122.82195 64.06157
#
# Poissons Ratio (x) = 0.07798 -0.04083
# Poissons Ratio (y) = 0.04519 0.21383
# Poissons Ratio (z) = -0.04537 0.40996
#
# Static dielectric constant tensor:
#      x y z
#    x 1.620060 0.000000 0.000000 
#    y 0.000000 1.700380 0.000000 
#    z 0.000000 0.000000 1.637020 
# 
# From -- ./inp_files/10970.got.cif
#   From: 2010.05.17/outbox.cif.g08.bks.cpg/sg42_6_cif.got.tgz:10970.got - 2010.06.03 19:03:34.
