data_PCOD9369002
_publ_section_title
;
Structure prediction by ZEFSAII (Michael W. Deem and Ramdas Pophale) SiO2 
 PCOD9369002
Probable space group: F M M 2
;
_chemical_formula_sum "Si O2"
_cell_formula_units_Z 100
_cell_length_a 21.374657
_cell_length_b 7.814999
_cell_length_c 30.075860
_cell_angle_alpha 90.000000
_cell_angle_beta 90.000000
_cell_angle_gamma 90.000000
_cell_volume 5023.959569
_symmetry_space_group_name_H-M "F M M 2"
_symmetry_group_IT_number 42
_symmetry_cell_setting 'orthorhombic'
loop_
_space_group_symop_operation_xyz
x,y,z
-x,-y,z
-x,y,z
x,-y,z
x,1/2+y,1/2+z
-x,1/2-y,1/2+z
-x,1/2+y,1/2+z
x,1/2-y,1/2+z
1/2+x,y,1/2+z
1/2-x,-y,1/2+z
1/2-x,y,1/2+z
1/2+x,-y,1/2+z
1/2+x,1/2+y,z
1/2-x,1/2-y,z
1/2-x,1/2+y,z
1/2+x,1/2-y,z
loop_
_atom_site_type_symbol
_atom_site_label
_atom_site_fract_x
_atom_site_fract_y
_atom_site_fract_z
Si Si1 0.500000 0.500000 0.815825
Si Si2 0.430440 0.794255 0.955829
Si Si3 0.178769 0.704974 0.624780
Si Si4 0.570265 0.793409 0.558925
Si Si5 0.603547 0.696506 0.308218
Si Si6 0.178225 0.301320 0.226883
Si Si7 0.679273 0.202615 0.893412
O O1 0.553692 0.346340 0.814345
O O2 0.500000 0.728067 0.943471
O O3 0.374749 0.723727 0.925466
O O4 0.432589 0.000000 0.950946
O O5 0.419613 0.755883 0.007652
O O6 0.175211 0.500000 0.626879
O O7 0.250000 0.750000 0.611604
O O8 0.125903 0.768557 0.590694
O O9 0.167340 0.772485 0.674506
O O10 0.500000 0.734175 0.571611
O O11 0.570100 0.000000 0.561146
O O12 0.581853 0.500000 0.318021
O O13 0.631268 0.701443 0.258628
O O14 0.659419 0.737535 0.342845
O O15 0.170435 0.500000 0.237120
O O16 0.250000 0.250000 0.235463
O O17 0.750000 0.250000 0.903654
O O18 0.676321 0.000000 0.899233
#
# Coordination Sequence:
#
# PCOD9369002 Si02
#       7
#     4  16  16  16  16  16  16
#     4  12  26  44  64  98 124 168 216 252 308 390
#     4   9  19  37  59  82 113 154 199 242 306 373
#     4  10  20  35  57  84 115 154 199 248 306 365
#     4   9  19  37  56  81 112 150 197 246 304 368
#     4  11  24  44  65  91 131 167 207 261 308 364
#     4  11  21  38  62  91 121 159 210 255 310 378
#     4  10  23  39  61  90 121 159 203 254 308 364
#
# _framework density 19.904619
#
# number of rings (size 3 to 8) (size 9 to 14) (size 15 to 20)
#    0.000    1.920    0.800    3.600    2.240    3.840 
#    1.440    3.200    0.000    0.000    0.000    0.000 
#    0.000    0.000    0.000    0.000    0.000    0.000 
#
# Total GULP energy -139280.495579 kJ/mol
# GULP energy per Si atom -5571.219823 kJ/mol
# Density = 1.985932 g / cm^3
# Si number density = 19.904619 Si / 1000 Ang^3
#
#
#
# Elastic Constant Matrix: (Units=GPa)
#
#
# Indices 1 2 3 4 5 6 
#
# 1 160.3276 25.8797 81.6511 0.0000 -0.0004 0.0003
# 2 25.8797 83.7436 7.1466 0.0000 -0.0006 0.0008
# 3 81.6511 7.1466 74.1254 0.0000 0.0001 -0.0002
# 4 0.0000 0.0000 0.0000 20.0458 0.0004 0.0000
# 5 -0.0004 -0.0006 0.0001 0.0004 -248.4278 0.0003
# 6 0.0003 0.0008 -0.0002 0.0000 0.0003 32.4259
#
#
#
# Elastic Compliance Matrix: (Units=1/GPa)
#
#
# Indices 1 2 3 4 5 6 
#
# 1 0.015042 -0.003261 -0.016254 0.000000 0.000000 0.000000
# 2 -0.003261 0.012747 0.002363 0.000000 0.000000 0.000000
# 3 -0.016254 0.002363 0.031167 0.000000 0.000000 0.000000
# 4 0.000000 0.000000 0.000000 0.049886 0.000000 0.000000
# 5 0.000000 0.000000 0.000000 0.000000 -0.004025 0.000000
# 6 0.000000 0.000000 0.000000 0.000000 0.000000 0.030840
#
#
# Mechanical properties :
#
#
# Convention : Reuss Voigt Hill
#
# Bulk Modulus (GPa) = 40.56480 60.83903 50.70192
# Shear Modulus (GPa) = 28.06184 -25.62327 1.21929
#
# Velocity S-wave (km/s) = 3.75882 -3.59179 0.78351
# Velocity P-wave (km/s) = 6.26595 3.66474 5.13286
#
# Compressibility (1/GPa) = 0.02465191
#
# Stress axis : x y z
#
# Youngs Moduli (GPa) = 66.48244 78.44755 32.08491
#
# Poissons Ratio (x) = 0.25584 0.52152
# Poissons Ratio (y) = 0.21682 -0.07583
# Poissons Ratio (z) = 1.08062 -0.18540
#
# Static dielectric constant tensor:
#      x y z
#    x 1.720840 0.000000 0.000000 
#    y 0.000000 1.723510 0.000000 
#    z 0.000000 0.000000 1.686560 
# 
# From -- ./inp_files/34694.got.cif
#   From: 2010.05.17/outbox.cif.g08.bks.cpg/sg42_18_cif.got.tgz:34694.got - 2010.06.03 19:03:34.
