data_PCOD9369256
_publ_section_title
;
Structure prediction by ZEFSAII (Michael W. Deem and Ramdas Pophale) SiO2 
 PCOD9369256
Probable space group: F M M 2
;
_chemical_formula_sum "Si O2"
_cell_formula_units_Z 96
_cell_length_a 27.538556
_cell_length_b 17.277808
_cell_length_c 8.873531
_cell_angle_alpha 90.000000
_cell_angle_beta 90.000000
_cell_angle_gamma 90.000000
_cell_volume 4222.078254
_symmetry_space_group_name_H-M "F M M 2"
_symmetry_group_IT_number 42
_symmetry_cell_setting 'orthorhombic'
loop_
_space_group_symop_operation_xyz
x,y,z
-x,-y,z
-x,y,z
x,-y,z
x,1/2+y,1/2+z
-x,1/2-y,1/2+z
-x,1/2+y,1/2+z
x,1/2-y,1/2+z
1/2+x,y,1/2+z
1/2-x,-y,1/2+z
1/2-x,y,1/2+z
1/2+x,-y,1/2+z
1/2+x,1/2+y,z
1/2-x,1/2-y,z
1/2-x,1/2+y,z
1/2+x,1/2-y,z
loop_
_atom_site_type_symbol
_atom_site_label
_atom_site_fract_x
_atom_site_fract_y
_atom_site_fract_z
Si Si1 0.554544 0.337676 0.340390
Si Si2 0.727099 0.585758 0.672170
Si Si3 0.554013 0.335972 0.974189
Si Si4 0.148436 0.087226 0.937300
Si Si5 0.653492 0.153245 0.983004
Si Si6 0.688004 0.206210 0.671897
O O1 0.500000 0.369099 0.370028
O O2 0.555551 0.250692 0.408173
O O3 0.600597 0.373939 0.428679
O O4 0.560454 0.336108 0.157741
O O5 0.751900 0.500000 0.675108
O O6 0.692009 0.589882 0.817326
O O7 0.691110 0.587201 0.529181
O O8 0.757780 0.666438 0.663149
O O9 0.500000 0.367296 0.946235
O O10 0.595811 0.382694 0.888170
O O11 0.142759 0.000000 0.987672
O O12 0.161674 0.141159 0.074702
O O13 0.675666 0.200875 0.845228
O O14 0.661318 0.215708 0.115736
#
# Coordination Sequence:
#
# PCOD9369256 Si02
#       6
#    16  16  16  16  16  16
#     4  10  20  38  64  96 129 161 204 260 323 379
#     4  11  27  45  62  89 130 173 215 263 322 382
#     4  10  21  39  63  94 126 163 209 265 326 384
#     4  11  23  41  64  90 126 172 217 265 321 381
#     4  12  23  41  67  97 126 165 215 264 319 375
#     4  12  24  42  65  94 127 167 215 266 313 379
#
# _framework density 22.737617
#
# number of rings (size 3 to 8) (size 9 to 14) (size 15 to 20)
#    0.000    1.000    3.333    3.000    2.333    4.333 
#    0.000    0.000    0.000    1.500    0.000    0.000 
#    0.000    0.000    0.000    0.000    0.000    0.000 
#
# Total GULP energy -133762.501242 kJ/mol
# GULP energy per Si atom -5573.437552 kJ/mol
# Density = 2.268587 g / cm^3
# Si number density = 22.737617 Si / 1000 Ang^3
#
#
#
# Elastic Constant Matrix: (Units=GPa)
#
#
# Indices 1 2 3 4 5 6 
#
# 1 143.1391 -7.9166 -7.7720 0.0000 0.0000 0.0000
# 2 -7.9166 57.5240 7.5173 0.0000 0.0000 0.0000
# 3 -7.7720 7.5173 25.3173 0.0000 0.0000 0.0000
# 4 0.0000 0.0000 0.0000 12.8983 0.0000 0.0000
# 5 0.0000 0.0000 0.0000 0.0000 15.0852 0.0000
# 6 0.0000 0.0000 0.0000 0.0000 0.0000 58.9062
#
#
#
# Elastic Compliance Matrix: (Units=1/GPa)
#
#
# Indices 1 2 3 4 5 6 
#
# 1 0.007133 0.000724 0.001975 0.000000 0.000000 0.000000
# 2 0.000724 0.018159 -0.005170 0.000000 0.000000 0.000000
# 3 0.001975 -0.005170 0.041640 0.000000 0.000000 0.000000
# 4 0.000000 0.000000 0.000000 0.077530 0.000000 0.000000
# 5 0.000000 0.000000 0.000000 0.000000 0.066290 0.000000
# 6 0.000000 0.000000 0.000000 0.000000 0.000000 0.016976
#
#
# Mechanical properties :
#
#
# Convention : Reuss Voigt Hill
#
# Bulk Modulus (GPa) = 16.13153 23.29311 19.71232
# Shear Modulus (GPa) = 19.73672 32.98802 26.36237
#
# Velocity S-wave (km/s) = 2.94942 3.81309 3.40871
# Velocity P-wave (km/s) = 4.32536 5.44543 4.91739
#
# Compressibility (1/GPa) = 0.06199038
#
# Stress axis : x y z
#
# Youngs Moduli (GPa) = 140.18427 55.06836 24.01534
#
# Poissons Ratio (x) = -0.03985 -0.04743
# Poissons Ratio (y) = -0.10144 0.12415
# Poissons Ratio (z) = -0.27686 0.28469
#
# Static dielectric constant tensor:
#      x y z
#    x 2.034790 0.000000 0.000000 
#    y 0.000000 1.862240 0.000000 
#    z 0.000000 0.000000 1.891980 
# 
# From -- ./inp_files/5171.got.cif
#   From: 2010.05.17/outbox.cif.g08.bks.cpg/sg42_3_cif.got.tgz:5171.got - 2010.06.03 19:03:34.
