data_PCOD9369992
_publ_section_title
;
Structure prediction by ZEFSAII (Michael W. Deem and Ramdas Pophale) SiO2 
 PCOD9369992
Probable space group: F M M 2
;
_chemical_formula_sum "Si O2"
_cell_formula_units_Z 24
_cell_length_a 27.000000
_cell_length_b 9.000000
_cell_length_c 24.000000
_cell_angle_alpha 90.000000
_cell_angle_beta 90.000000
_cell_angle_gamma 90.000000
_cell_volume 5832.000000
_symmetry_space_group_name_H-M "F M M 2"
_symmetry_group_IT_number 42
_symmetry_cell_setting 'orthorhombic'
loop_
_space_group_symop_operation_xyz
x,y,z
-x,-y,z
-x,y,z
x,-y,z
x,1/2+y,1/2+z
-x,1/2-y,1/2+z
-x,1/2+y,1/2+z
x,1/2-y,1/2+z
1/2+x,y,1/2+z
1/2-x,-y,1/2+z
1/2-x,y,1/2+z
1/2+x,-y,1/2+z
1/2+x,1/2+y,z
1/2-x,1/2-y,z
1/2-x,1/2+y,z
1/2+x,1/2-y,z
loop_
_atom_site_type_symbol
_atom_site_label
_atom_site_fract_x
_atom_site_fract_y
_atom_site_fract_z
Si Si1 0.500000 0.320410 0.659631
Si Si2 0.695819 0.675508 0.232434
Si Si3 0.194387 0.320882 0.470780
Si Si4 0.895952 0.174514 0.534464
Si Si5 0.500000 0.178256 0.537775
Si Si6 0.804264 0.822276 0.357414
Si Si7 0.108555 0.170996 0.668809
O O1 0.500000 0.500000 0.646219
O O2 0.500000 0.225550 0.602980
O O3 0.447337 0.289552 0.688833
O O4 0.703205 0.500000 0.226570
O O5 0.750000 0.750000 0.225174
O O6 0.675588 0.702983 0.295419
O O7 0.653713 0.732914 0.191192
O O8 0.198321 0.500000 0.472156
O O9 0.250000 0.250000 0.479099
O O10 0.152981 0.259116 0.512933
O O11 0.174546 0.262161 0.410744
O O12 0.948114 0.250483 0.516125
O O13 0.894317 0.179167 0.601771
O O14 0.895021 0.000000 0.517979
O O15 0.500000 0.000000 0.531394
O O16 0.750000 0.750000 0.353714
O O17 0.801939 0.000000 0.367705
O O18 0.118236 0.000000 0.684573
#
# Coordination Sequence:
#
# PCOD9369992 Si02
#       7
#     8  16  16  16   8  16  16
#     4   8  16  32  50  69  94 129 166 198 238 288
#     4  10  20  32  49  72  99 129 162 199 242 289
#     4  11  21  33  51  75 100 129 163 203 247 294
#     4  10  20  35  52  72 100 134 166 201 244 291
#     4  10  18  30  50  75  98 125 164 206 242 286
#     4   9  17  31  49  69  93 125 163 201 240 288
#     4   9  18  32  51  72  97 128 162 198 240 287
#
# _framework density 4.1152259999999998
#
# number of rings (size 3 to 8) (size 9 to 14) (size 15 to 20)
#    0.000    2.333    0.000    5.750    0.000    6.000 
#    0.000    0.000    0.000    1.000    0.000    2.333 
#    0.000    0.000    0.000    0.000    0.000    0.000 
#
# Total GULP energy -133601.469567 kJ/mol
# GULP energy per Si atom -5566.727899 kJ/mol
# Density = 0.410586 g / cm^3
# Si number density = 4.115226 Si / 1000 Ang^3
#
#
#
# Elastic Constant Matrix: (Units=GPa)
#
#
# Indices 1 2 3 4 5 6 
#
# 1 123.1579 60.7657 31.6794 0.0000 0.0000 0.0000
# 2 60.7657 120.2692 27.8745 0.0000 0.0000 0.0000
# 3 31.6794 27.8745 31.7475 0.0000 0.0000 0.0000
# 4 0.0000 0.0000 0.0000 21.3862 0.0000 0.0000
# 5 0.0000 0.0000 0.0000 0.0000 2.6749 0.0000
# 6 0.0000 0.0000 0.0000 0.0000 0.0000 31.5328
#
#
#
# Elastic Compliance Matrix: (Units=1/GPa)
#
#
# Indices 1 2 3 4 5 6 
#
# 1 0.012467 -0.004288 -0.008675 0.000000 0.000000 0.000000
# 2 -0.004288 0.011914 -0.006181 0.000000 0.000000 0.000000
# 3 -0.008675 -0.006181 0.045582 0.000000 0.000000 0.000000
# 4 0.000000 0.000000 0.000000 0.046759 0.000000 0.000000
# 5 0.000000 0.000000 0.000000 0.000000 0.373845 0.000000
# 6 0.000000 0.000000 0.000000 0.000000 0.000000 0.031713
#
#
# Mechanical properties :
#
#
# Convention : Reuss Voigt Hill
#
# Bulk Modulus (GPa) = 31.57194 57.31262 44.44228
# Shear Modulus (GPa) = 8.75461 21.44246 15.09854
#
# Velocity S-wave (km/s) = 2.30867 3.61311 3.03188
# Velocity P-wave (km/s) = 5.13110 7.23181 6.27006
#
# Compressibility (1/GPa) = 0.03167370
#
# Stress axis : x y z
#
# Youngs Moduli (GPa) = 80.21214 83.93489 21.93831
#
# Poissons Ratio (x) = 0.35994 0.19032
# Poissons Ratio (y) = 0.34397 0.13561
# Poissons Ratio (z) = 0.69584 0.51884
#
# Static dielectric constant tensor:
#      x y z
#    x 1.529690 0.000000 0.000000 
#    y 0.000000 1.558850 0.000000 
#    z 0.000000 0.000000 1.597130 
# 
# From -- ./inp_files/30623.got.cif
#   From: 2010.05.17/outbox.ucp.g08.bks.cvg/sg42_16_cif.got.tgz:30623.got - 2010.06.11 16:29:10.
