data_PCOD9369425
_publ_section_title
;
Structure prediction by ZEFSAII (Michael W. Deem and Ramdas Pophale) SiO2 
 PCOD9369425
Probable space group: F M M 2
;
_chemical_formula_sum "Si O2"
_cell_formula_units_Z 80
_cell_length_a 18.572557
_cell_length_b 8.865826
_cell_length_c 26.240664
_cell_angle_alpha 90.000000
_cell_angle_beta 90.000000
_cell_angle_gamma 90.000000
_cell_volume 4320.815516
_symmetry_space_group_name_H-M "F M M 2"
_symmetry_group_IT_number 42
_symmetry_cell_setting 'orthorhombic'
loop_
_space_group_symop_operation_xyz
x,y,z
-x,-y,z
-x,y,z
x,-y,z
x,1/2+y,1/2+z
-x,1/2-y,1/2+z
-x,1/2+y,1/2+z
x,1/2-y,1/2+z
1/2+x,y,1/2+z
1/2-x,-y,1/2+z
1/2-x,y,1/2+z
1/2+x,-y,1/2+z
1/2+x,1/2+y,z
1/2-x,1/2-y,z
1/2-x,1/2+y,z
1/2+x,1/2-y,z
loop_
_atom_site_type_symbol
_atom_site_label
_atom_site_fract_x
_atom_site_fract_y
_atom_site_fract_z
Si Si1 0.584156 0.180843 0.631030
Si Si2 0.084024 0.181560 0.826346
Si Si3 0.829317 0.181029 0.232358
Si Si4 0.084848 0.679923 0.022441
Si Si5 0.170796 0.680786 0.428685
O O1 0.500000 0.216501 0.641425
O O2 0.632440 0.224320 0.679169
O O3 0.605258 0.261208 0.578562
O O4 0.589343 0.000000 0.624121
O O5 0.123187 0.259170 0.779078
O O6 0.124117 0.221681 0.878841
O O7 0.000000 0.223131 0.828605
O O8 0.088671 0.000000 0.820462
O O9 0.750000 0.250000 0.235422
O O10 0.825418 0.000000 0.234513
O O11 0.092990 0.500000 0.019975
O O12 0.000000 0.716876 0.015193
O O13 0.131404 0.757249 0.978765
O O14 0.175440 0.500000 0.431318
O O15 0.250000 0.750000 0.424353
#
# Coordination Sequence:
#
# PCOD9369425 Si02
#       5
#    16  16  16  16  16
#     4   9  19  37  59  82 111 150 194 237 283 336
#     4  10  22  40  62  87 114 147 188 233 283 339
#     4  11  23  38  58  85 117 153 191 233 283 336
#     4  10  21  37  59  87 116 149 191 236 282 334
#     4  11  23  39  59  84 116 152 189 232 284 339
#
# _framework density 18.515021999999998
#
# number of rings (size 3 to 8) (size 9 to 14) (size 15 to 20)
#    0.000    1.800    0.000    3.600    0.000    8.800 
#    0.000    4.000    0.000    0.000    0.000    0.000 
#    0.000    0.000    0.000    0.000    0.000    0.000 
#
# Total GULP energy -111793.759494 kJ/mol
# GULP energy per Si atom -5589.687975 kJ/mol
# Density = 1.847288 g / cm^3
# Si number density = 18.515022 Si / 1000 Ang^3
#
#
#
# Elastic Constant Matrix: (Units=GPa)
#
#
# Indices 1 2 3 4 5 6 
#
# 1 165.9972 68.3385 133.0314 0.0000 0.0000 0.0000
# 2 68.3385 48.5837 74.2518 0.0000 0.0000 0.0000
# 3 133.0314 74.2518 196.6522 0.0000 0.0000 0.0000
# 4 0.0000 0.0000 0.0000 31.2457 0.0000 0.0000
# 5 0.0000 0.0000 0.0000 0.0000 -76.9456 0.0000
# 6 0.0000 0.0000 0.0000 0.0000 0.0000 26.6719
#
#
#
# Elastic Compliance Matrix: (Units=1/GPa)
#
#
# Indices 1 2 3 4 5 6 
#
# 1 0.016654 -0.014677 -0.005724 0.000000 0.000000 0.000000
# 2 -0.014677 0.061602 -0.013331 0.000000 0.000000 0.000000
# 3 -0.005724 -0.013331 0.013991 0.000000 0.000000 0.000000
# 4 0.000000 0.000000 0.000000 0.032004 0.000000 0.000000
# 5 0.000000 0.000000 0.000000 0.000000 -0.012996 0.000000
# 6 0.000000 0.000000 0.000000 0.000000 0.000000 0.037493
#
#
# Mechanical properties :
#
#
# Convention : Reuss Voigt Hill
#
# Bulk Modulus (GPa) = 40.35117 106.94183 73.64650
# Shear Modulus (GPa) = 22.27427 5.23514 13.75471
#
# Velocity S-wave (km/s) = 3.47225 1.68334 2.72857
# Velocity P-wave (km/s) = 6.15763 7.85258 7.05618
#
# Compressibility (1/GPa) = 0.02478243
#
# Stress axis : x y z
#
# Youngs Moduli (GPa) = 60.04502 16.23316 71.47438
#
# Poissons Ratio (x) = 0.23826 0.40915
# Poissons Ratio (y) = 0.88130 0.95282
# Poissons Ratio (z) = 0.34372 0.21640
#
# Static dielectric constant tensor:
#      x y z
#    x 1.613470 0.000000 0.000000 
#    y 0.000000 1.615150 0.000000 
#    z 0.000000 0.000000 1.602440 
# 
# From -- ./inp_files/31261.got.cif
#   From: 2010.05.17/outbox.cif.g08.bks.cpg/sg42_16_cif.got.tgz:31261.got - 2010.06.03 19:03:34.
