data_PCOD9369796
_publ_section_title
;
Structure prediction by ZEFSAII (Michael W. Deem and Ramdas Pophale) SiO2 
 PCOD9369796
Probable space group: F M M 2
;
_chemical_formula_sum "Si O2"
_cell_formula_units_Z 72
_cell_length_a 9.873393
_cell_length_b 15.449030
_cell_length_c 23.704272
_cell_angle_alpha 90.000000
_cell_angle_beta 90.000000
_cell_angle_gamma 90.000000
_cell_volume 3615.715595
_symmetry_space_group_name_H-M "F M M 2"
_symmetry_group_IT_number 42
_symmetry_cell_setting 'orthorhombic'
loop_
_space_group_symop_operation_xyz
x,y,z
-x,-y,z
-x,y,z
x,-y,z
x,1/2+y,1/2+z
-x,1/2-y,1/2+z
-x,1/2+y,1/2+z
x,1/2-y,1/2+z
1/2+x,y,1/2+z
1/2-x,-y,1/2+z
1/2-x,y,1/2+z
1/2+x,-y,1/2+z
1/2+x,1/2+y,z
1/2-x,1/2-y,z
1/2-x,1/2+y,z
1/2+x,1/2-y,z
loop_
_atom_site_type_symbol
_atom_site_label
_atom_site_fract_x
_atom_site_fract_y
_atom_site_fract_z
Si Si1 0.500000 0.103518 0.254980
Si Si2 0.655995 0.673390 0.055535
Si Si3 0.500000 0.707541 0.870128
Si Si4 0.650367 0.602798 0.646905
Si Si5 0.500000 0.597713 0.397567
Si Si6 0.797555 0.904543 0.941044
O O1 0.500000 0.160178 0.310164
O O2 0.627380 0.122521 0.213133
O O3 0.500000 0.000000 0.266415
O O4 0.500000 0.696286 0.064013
O O5 0.750000 0.750000 0.032317
O O6 0.729443 0.646470 0.113295
O O7 0.664112 0.602608 0.006455
O O8 0.500000 0.811451 0.863691
O O9 0.626622 0.669974 0.906064
O O10 0.500000 0.623285 0.621885
O O11 0.667358 0.500000 0.642296
O O12 0.500000 0.500000 0.370267
O O13 0.363396 0.601886 0.433887
O O14 0.837671 0.000000 0.919137
#
# Coordination Sequence:
#
# PCOD9369796 Si02
#       6
#     8  16   8  16   8  16
#     4   8  18  37  68  96 121 167 220 269 327 389
#     4  12  24  37  59  92 132 171 218 272 332 392
#     4  12  20  40  70  95 131 169 223 270 316 389
#     4   8  18  38  62  89 121 162 215 266 327 390
#     4  10  24  41  58  89 138 178 209 259 329 400
#     4  11  24  39  62  97 133 172 216 267 330 391
#
# _framework density 19.913070999999999
#
# number of rings (size 3 to 8) (size 9 to 14) (size 15 to 20)
#    0.667    1.111    1.111    4.333    3.111    1.333 
#    0.000    2.222    2.444    0.000    0.000    1.556 
#    0.000    0.000    0.000    0.000    0.000    0.000 
#
# Total GULP energy -100295.401513 kJ/mol
# GULP energy per Si atom -5571.966751 kJ/mol
# Density = 1.986775 g / cm^3
# Si number density = 19.913071 Si / 1000 Ang^3
#
#
#
# Elastic Constant Matrix: (Units=GPa)
#
#
# Indices 1 2 3 4 5 6 
#
# 1 149.0668 34.5592 36.0025 0.0000 0.0000 0.0000
# 2 34.5592 124.0864 49.4525 0.0000 0.0000 0.0000
# 3 36.0025 49.4525 103.6173 0.0000 0.0000 0.0000
# 4 0.0000 0.0000 0.0000 22.4108 0.0000 0.0000
# 5 0.0000 0.0000 0.0000 0.0000 2.6971 0.0000
# 6 0.0000 0.0000 0.0000 0.0000 0.0000 19.3679
#
#
#
# Elastic Compliance Matrix: (Units=1/GPa)
#
#
# Indices 1 2 3 4 5 6 
#
# 1 0.007488 -0.001295 -0.001984 0.000000 0.000000 0.000000
# 2 -0.001295 0.010176 -0.004407 0.000000 0.000000 0.000000
# 3 -0.001984 -0.004407 0.012443 0.000000 0.000000 0.000000
# 4 0.000000 0.000000 0.000000 0.044621 0.000000 0.000000
# 5 0.000000 0.000000 0.000000 0.000000 0.370764 0.000000
# 6 0.000000 0.000000 0.000000 0.000000 0.000000 0.051632
#
#
# Mechanical properties :
#
#
# Convention : Reuss Voigt Hill
#
# Bulk Modulus (GPa) = 67.85889 68.53320 68.19604
# Shear Modulus (GPa) = 9.66359 26.01224 17.83792
#
# Velocity S-wave (km/s) = 2.20532 3.61818 2.99622
# Velocity P-wave (km/s) = 6.37465 7.20735 6.80375
#
# Compressibility (1/GPa) = 0.01473646
#
# Stress axis : x y z
#
# Youngs Moduli (GPa) = 133.55252 98.27350 80.36503
#
# Poissons Ratio (x) = 0.12725 0.15942
# Poissons Ratio (y) = 0.17293 0.35413
# Poissons Ratio (z) = 0.26493 0.43305
#
# Static dielectric constant tensor:
#      x y z
#    x 1.757230 0.000000 0.000000 
#    y 0.000000 1.763790 0.000000 
#    z 0.000000 0.000000 1.670120 
# 
# From -- ./inp_files/31159.got.cif
#   From: 2010.05.17/outbox.cif.g08.bks.cpg/sg42_16_cif.got.tgz:31159.got - 2010.06.03 19:03:34.
