data_PCOD9369295
_publ_section_title
;
Structure prediction by ZEFSAII (Michael W. Deem and Ramdas Pophale) SiO2 
 PCOD9369295
Probable space group: F M M 2
;
_chemical_formula_sum "Si O2"
_cell_formula_units_Z 104
_cell_length_a 9.301389
_cell_length_b 26.377338
_cell_length_c 22.402076
_cell_angle_alpha 90.000000
_cell_angle_beta 90.000000
_cell_angle_gamma 90.000000
_cell_volume 5496.257084
_symmetry_space_group_name_H-M "F M M 2"
_symmetry_group_IT_number 42
_symmetry_cell_setting 'orthorhombic'
loop_
_space_group_symop_operation_xyz
x,y,z
-x,-y,z
-x,y,z
x,-y,z
x,1/2+y,1/2+z
-x,1/2-y,1/2+z
-x,1/2+y,1/2+z
x,1/2-y,1/2+z
1/2+x,y,1/2+z
1/2-x,-y,1/2+z
1/2-x,y,1/2+z
1/2+x,-y,1/2+z
1/2+x,1/2+y,z
1/2-x,1/2-y,z
1/2-x,1/2+y,z
1/2+x,1/2-y,z
loop_
_atom_site_type_symbol
_atom_site_label
_atom_site_fract_x
_atom_site_fract_y
_atom_site_fract_z
Si Si1 0.164495 0.844906 0.647190
Si Si2 0.750000 0.250000 0.217320
Si Si3 0.165049 0.907971 0.243270
Si Si4 0.843300 0.816899 0.325680
Si Si5 0.827905 0.885274 0.035075
Si Si6 0.327992 0.500000 0.073968
Si Si7 0.830793 0.799930 0.941263
Si Si8 0.831215 0.500000 0.202841
O O1 0.166950 0.788210 0.673768
O O2 0.277060 0.874196 0.688982
O O3 0.229570 0.855265 0.582479
O O4 0.000000 0.863974 0.651204
O O5 0.837381 0.216210 0.265131
O O6 0.170979 0.874061 0.302216
O O7 0.000000 0.923871 0.233169
O O8 0.275612 0.953180 0.241196
O O9 0.721212 0.804574 0.372893
O O10 0.000000 0.809452 0.354078
O O11 0.000000 0.880391 0.048311
O O12 0.795315 0.946028 0.040595
O O13 0.801588 0.853504 0.974385
O O14 0.500000 0.500000 0.084515
O O15 0.247390 0.500000 0.137987
O O16 0.750000 0.750000 0.966586
O O17 0.000000 0.791087 0.944917
O O18 0.000000 0.500000 0.193317
#
# Coordination Sequence:
#
# PCOD9369295 Si02
#       8
#    16   8  16  16  16   8  16   8
#     4  11  22  35  56  88 121 154 197 248 295 354
#     4  10  22  36  56  86 122 162 194 236 300 362
#     4  10  21  37  58  85 121 159 195 239 299 361
#     4  10  21  39  62  86 115 158 204 244 293 356
#     4  10  23  41  61  87 119 160 204 248 306 367
#     4  10  20  40  65  82 113 163 204 246 306 367
#     4  11  24  41  62  88 120 159 204 253 305 363
#     4  12  22  34  57  92 123 155 200 246 296 351
#
# _framework density 18.921966999999999
#
# number of rings (size 3 to 8) (size 9 to 14) (size 15 to 20)
#    0.000    1.538    2.308    2.538    1.077    6.154 
#    0.000    0.769    0.000    0.923    0.000    0.000 
#    0.000    0.000    0.000    0.000    0.000    0.000 
#
# Total GULP energy -144853.313707 kJ/mol
# GULP energy per Si atom -5571.281296 kJ/mol
# Density = 1.887890 g / cm^3
# Si number density = 18.921967 Si / 1000 Ang^3
#
#
#
# Elastic Constant Matrix: (Units=GPa)
#
#
# Indices 1 2 3 4 5 6 
#
# 1 88.5416 37.4483 28.0511 0.0000 0.0000 0.0000
# 2 37.4483 122.4352 42.0400 0.0000 0.0000 0.0000
# 3 28.0511 42.0400 61.8482 0.0000 0.0000 0.0000
# 4 0.0000 0.0000 0.0000 22.2501 0.0000 0.0000
# 5 0.0000 0.0000 0.0000 0.0000 -5.0890 0.0000
# 6 0.0000 0.0000 0.0000 0.0000 0.0000 16.3613
#
#
#
# Elastic Compliance Matrix: (Units=1/GPa)
#
#
# Indices 1 2 3 4 5 6 
#
# 1 0.013847 -0.002712 -0.004437 0.000000 0.000000 0.000000
# 2 -0.002712 0.011185 -0.006373 0.000000 0.000000 0.000000
# 3 -0.004437 -0.006373 0.022513 0.000000 0.000000 0.000000
# 4 0.000000 0.000000 0.000000 0.044944 0.000000 0.000000
# 5 0.000000 0.000000 0.000000 0.000000 -0.196504 0.000000
# 6 0.000000 0.000000 0.000000 0.000000 0.000000 0.061120
#
#
# Mechanical properties :
#
#
# Convention : Reuss Voigt Hill
#
# Bulk Modulus (GPa) = 48.77685 54.21154 51.49420
# Shear Modulus (GPa) = -554.41335 17.72354 -268.34491
#
# Velocity S-wave (km/s) = -17.13581 3.06382 -11.92160
# Velocity P-wave (km/s) = 19.12278 6.42092 12.73681
#
# Compressibility (1/GPa) = 0.02050153
#
# Stress axis : x y z
#
# Youngs Moduli (GPa) = 72.21939 89.40330 44.41896
#
# Poissons Ratio (x) = 0.24243 0.19708
# Poissons Ratio (y) = 0.19584 0.28308
# Poissons Ratio (z) = 0.32043 0.56977
#
# Static dielectric constant tensor:
#      x y z
#    x 1.641840 0.000000 0.000000 
#    y 0.000000 1.817710 0.000000 
#    z 0.000000 0.000000 1.630180 
# 
# From -- ./inp_files/23837.got.cif
#   From: 2010.05.17/outbox.cif.g08.bks.cpg/sg42_12_cif.got.tgz:23837.got - 2010.06.03 19:03:34.
