data_PCOD9369328
_publ_section_title
;
Structure prediction by ZEFSAII (Michael W. Deem and Ramdas Pophale) SiO2 
 PCOD9369328
Probable space group: F M M 2
;
_chemical_formula_sum "Si O2"
_cell_formula_units_Z 112
_cell_length_a 15.754490
_cell_length_b 31.392842
_cell_length_c 11.508786
_cell_angle_alpha 90.000000
_cell_angle_beta 90.000000
_cell_angle_gamma 90.000000
_cell_volume 5691.994841
_symmetry_space_group_name_H-M "F M M 2"
_symmetry_group_IT_number 42
_symmetry_cell_setting 'orthorhombic'
loop_
_space_group_symop_operation_xyz
x,y,z
-x,-y,z
-x,y,z
x,-y,z
x,1/2+y,1/2+z
-x,1/2-y,1/2+z
-x,1/2+y,1/2+z
x,1/2-y,1/2+z
1/2+x,y,1/2+z
1/2-x,-y,1/2+z
1/2-x,y,1/2+z
1/2+x,-y,1/2+z
1/2+x,1/2+y,z
1/2-x,1/2-y,z
1/2-x,1/2+y,z
1/2+x,1/2-y,z
loop_
_atom_site_type_symbol
_atom_site_label
_atom_site_fract_x
_atom_site_fract_y
_atom_site_fract_z
Si Si1 0.399149 0.168784 0.511550
Si Si2 0.129893 0.675552 0.176730
Si Si3 0.600109 0.622628 0.458537
Si Si4 0.822551 0.328896 0.759679
Si Si5 0.097904 0.245782 0.847364
Si Si6 0.603664 0.951573 0.136473
Si Si7 0.094759 0.600159 0.346661
O O1 0.500000 0.167300 0.490796
O O2 0.381632 0.171021 0.646569
O O3 0.370270 0.210896 0.441429
O O4 0.363124 0.124962 0.454735
O O5 0.228682 0.671793 0.208248
O O6 0.099078 0.720598 0.224221
O O7 0.087221 0.639205 0.255441
O O8 0.110694 0.662747 0.045982
O O9 0.500000 0.618603 0.429529
O O10 0.654778 0.632275 0.344697
O O11 0.627450 0.581817 0.535532
O O12 0.842944 0.286194 0.831272
O O13 0.000000 0.257782 0.873342
O O14 0.500000 0.949827 0.141903
O O15 0.634660 0.935729 0.263852
O O16 0.628772 0.000000 0.112882
O O17 0.000000 0.585410 0.381560
#
# Coordination Sequence:
#
# PCOD9369328 Si02
#       7
#    16  16  16  16  16  16  16
#     4   9  19  35  53  73 105 147 184 222 273 328
#     4  10  21  35  53  77 104 141 184 234 272 316
#     4  10  21  37  57  82 113 147 181 223 282 338
#     4  12  24  34  53  80 109 144 186 232 274 326
#     4  10  21  38  55  71 102 146 191 233 274 323
#     4   8  14  29  58  90 109 132 180 230 265 318
#     4   8  15  32  56  78 104 137 174 217 272 326
#
# _framework density 19.676756999999998
#
# number of rings (size 3 to 8) (size 9 to 14) (size 15 to 20)
#    0.000    2.429    0.000    4.714    6.000    0.000 
#    0.000    0.000    0.000    4.286    0.000    4.000 
#    0.000    0.000    0.000    0.000    0.000    0.000 
#
# Total GULP energy -156116.945436 kJ/mol
# GULP energy per Si atom -5575.605194 kJ/mol
# Density = 1.963197 g / cm^3
# Si number density = 19.676757 Si / 1000 Ang^3
#
#
#
# Elastic Constant Matrix: (Units=GPa)
#
#
# Indices 1 2 3 4 5 6 
#
# 1 45.7453 6.9867 -3.5067 0.0000 0.0000 0.0000
# 2 6.9867 97.5804 34.2892 0.0000 0.0000 0.0000
# 3 -3.5067 34.2892 87.7229 0.0000 0.0000 0.0000
# 4 0.0000 0.0000 0.0000 21.1492 0.0000 0.0000
# 5 0.0000 0.0000 0.0000 0.0000 5.1203 0.0000
# 6 0.0000 0.0000 0.0000 0.0000 0.0000 4.7299
#
#
#
# Elastic Compliance Matrix: (Units=1/GPa)
#
#
# Indices 1 2 3 4 5 6 
#
# 1 0.022334 -0.002217 0.001760 0.000000 0.000000 0.000000
# 2 -0.002217 0.012100 -0.004818 0.000000 0.000000 0.000000
# 3 0.001760 -0.004818 0.013353 0.000000 0.000000 0.000000
# 4 0.000000 0.000000 0.000000 0.047283 0.000000 0.000000
# 5 0.000000 0.000000 0.000000 0.000000 0.195301 0.000000
# 6 0.000000 0.000000 0.000000 0.000000 0.000000 0.211423
#
#
# Mechanical properties :
#
#
# Convention : Reuss Voigt Hill
#
# Bulk Modulus (GPa) = 26.85673 34.06521 30.46097
# Shear Modulus (GPa) = 9.52820 19.08516 14.30668
#
# Velocity S-wave (km/s) = 2.20292 3.11776 2.69938
# Velocity P-wave (km/s) = 4.48877 5.50550 5.02293
#
# Compressibility (1/GPa) = 0.03723462
#
# Stress axis : x y z
#
# Youngs Moduli (GPa) = 44.77533 82.64586 74.88830
#
# Poissons Ratio (x) = 0.18326 -0.13177
# Poissons Ratio (y) = 0.09928 0.36083
# Poissons Ratio (z) = -0.07878 0.39821
#
# Static dielectric constant tensor:
#      x y z
#    x 1.766450 0.000000 0.000000 
#    y 0.000000 1.711500 0.000000 
#    z 0.000000 0.000000 1.726060 
# 
# From -- ./inp_files/8103.got.cif
#   From: 2010.05.17/outbox.cif.g08.bks.cpg/sg42_5_cif.got.tgz:8103.got - 2010.06.03 19:03:34.
