data_PCOD9369702
_publ_section_title
;
Structure prediction by ZEFSAII (Michael W. Deem and Ramdas Pophale) SiO2 
 PCOD9369702
Probable space group: F M M 2
;
_chemical_formula_sum "Si O2"
_cell_formula_units_Z 64
_cell_length_a 17.394107
_cell_length_b 15.404527
_cell_length_c 10.746504
_cell_angle_alpha 90.000000
_cell_angle_beta 90.000000
_cell_angle_gamma 90.000000
_cell_volume 2879.504156
_symmetry_space_group_name_H-M "F M M 2"
_symmetry_group_IT_number 42
_symmetry_cell_setting 'orthorhombic'
loop_
_space_group_symop_operation_xyz
x,y,z
-x,-y,z
-x,y,z
x,-y,z
x,1/2+y,1/2+z
-x,1/2-y,1/2+z
-x,1/2+y,1/2+z
x,1/2-y,1/2+z
1/2+x,y,1/2+z
1/2-x,-y,1/2+z
1/2-x,y,1/2+z
1/2+x,-y,1/2+z
1/2+x,1/2+y,z
1/2-x,1/2-y,z
1/2-x,1/2+y,z
1/2+x,1/2-y,z
loop_
_atom_site_type_symbol
_atom_site_label
_atom_site_fract_x
_atom_site_fract_y
_atom_site_fract_z
Si Si1 0.907224 0.000000 0.637790
Si Si2 0.911109 0.000000 0.360426
Si Si3 0.290366 0.841651 0.464719
Si Si4 0.819572 0.859030 0.233137
Si Si5 0.092026 0.318361 0.274634
O O1 0.889675 0.091200 0.704740
O O2 0.874626 0.000000 0.498131
O O3 0.000000 0.000000 0.635350
O O4 0.888326 0.917213 0.281633
O O5 0.000000 0.000000 0.382282
O O6 0.250000 0.750000 0.490964
O O7 0.243140 0.872146 0.342922
O O8 0.291004 0.887688 0.597544
O O9 0.377557 0.830174 0.415951
O O10 0.854252 0.761121 0.226567
O O11 0.000000 0.301645 0.266526
#
# Coordination Sequence:
#
# PCOD9369702 Si02
#       5
#     8   8  16  16  16
#     4   9  22  42  66 101 136 172 223 273 336 415
#     4  11  26  44  68 105 139 174 229 285 339 415
#     4  10  23  43  66 100 135 179 229 281 333 411
#     4  11  25  43  69  96 142 181 226 282 345 404
#     4  10  22  41  70 100 137 182 226 282 343 402
#
# _framework density 22.226047999999999
#
# number of rings (size 3 to 8) (size 9 to 14) (size 15 to 20)
#    0.000    1.750    0.000    3.000   10.500    5.000 
#    0.000    1.250    0.000    0.000    0.000    0.000 
#    0.000    0.000    0.000    0.000    0.000    0.000 
#
# Total GULP energy -89263.069966 kJ/mol
# GULP energy per Si atom -5578.941873 kJ/mol
# Density = 2.217546 g / cm^3
# Si number density = 22.226048 Si / 1000 Ang^3
#
#
#
# Elastic Constant Matrix: (Units=GPa)
#
#
# Indices 1 2 3 4 5 6 
#
# 1 105.8442 20.1567 57.4460 0.0000 0.0000 0.0000
# 2 20.1567 108.2810 46.8842 0.0000 0.0000 0.0000
# 3 57.4460 46.8842 186.5557 0.0000 0.0000 0.0000
# 4 0.0000 0.0000 0.0000 111.8663 0.0000 0.0000
# 5 0.0000 0.0000 0.0000 0.0000 33.4463 0.0000
# 6 0.0000 0.0000 0.0000 0.0000 0.0000 -61.4907
#
#
#
# Elastic Compliance Matrix: (Units=1/GPa)
#
#
# Indices 1 2 3 4 5 6 
#
# 1 0.011387 -0.000675 -0.003337 0.000000 0.000000 0.000000
# 2 -0.000675 0.010403 -0.002407 0.000000 0.000000 0.000000
# 3 -0.003337 -0.002407 0.006993 0.000000 0.000000 0.000000
# 4 0.000000 0.000000 0.000000 0.008939 0.000000 0.000000
# 5 0.000000 0.000000 0.000000 0.000000 0.029899 0.000000
# 6 0.000000 0.000000 0.000000 0.000000 0.000000 -0.016263
#
#
# Mechanical properties :
#
#
# Convention : Reuss Voigt Hill
#
# Bulk Modulus (GPa) = 62.71104 72.18387 67.44746
# Shear Modulus (GPa) = 71.93154 35.17732 53.55443
#
# Velocity S-wave (km/s) = 5.69508 3.98264 4.91403
# Velocity P-wave (km/s) = 8.45704 7.32777 7.91258
#
# Compressibility (1/GPa) = 0.01594615
#
# Stress axis : x y z
#
# Youngs Moduli (GPa) = 87.81586 96.12717 143.00691
#
# Poissons Ratio (x) = 0.06488 0.47720
# Poissons Ratio (y) = 0.05927 0.34415
# Poissons Ratio (z) = 0.29303 0.23134
#
# Static dielectric constant tensor:
#      x y z
#    x 1.832480 0.000000 0.000000 
#    y 0.000000 1.140450 0.000000 
#    z 0.000000 0.000000 1.827890 
# 
# From -- ./inp_files/8388.got.cif
#   From: 2010.05.17/outbox.cif.g08.bks.cpg/sg42_5_cif.got.tgz:8388.got - 2010.06.03 19:03:34.
