data_PCOD9369542
_publ_section_title
;
Structure prediction by ZEFSAII (Michael W. Deem and Ramdas Pophale) SiO2 
 PCOD9369542
Probable space group: F M M 2
;
_chemical_formula_sum "Si O2"
_cell_formula_units_Z 80
_cell_length_a 16.965657
_cell_length_b 27.315555
_cell_length_c 8.042424
_cell_angle_alpha 90.000000
_cell_angle_beta 90.000000
_cell_angle_gamma 90.000000
_cell_volume 3727.071094
_symmetry_space_group_name_H-M "F M M 2"
_symmetry_group_IT_number 42
_symmetry_cell_setting 'orthorhombic'
loop_
_space_group_symop_operation_xyz
x,y,z
-x,-y,z
-x,y,z
x,-y,z
x,1/2+y,1/2+z
-x,1/2-y,1/2+z
-x,1/2+y,1/2+z
x,1/2-y,1/2+z
1/2+x,y,1/2+z
1/2-x,-y,1/2+z
1/2-x,y,1/2+z
1/2+x,-y,1/2+z
1/2+x,1/2+y,z
1/2-x,1/2-y,z
1/2-x,1/2+y,z
1/2+x,1/2-y,z
loop_
_atom_site_type_symbol
_atom_site_label
_atom_site_fract_x
_atom_site_fract_y
_atom_site_fract_z
Si Si1 0.835078 0.555994 0.130840
Si Si2 0.500000 0.668191 0.290274
Si Si3 0.500000 0.099289 0.096720
Si Si4 0.673052 0.912773 0.484284
Si Si5 0.162280 0.808153 0.162640
Si Si6 0.250000 0.250000 0.411882
Si Si7 0.500000 0.586237 0.997338
O O1 0.842060 0.500000 0.189473
O O2 0.918895 0.570750 0.051394
O O3 0.825049 0.592049 0.286289
O O4 0.754542 0.560547 0.028339
O O5 0.500000 0.646010 0.475556
O O6 0.420937 0.696957 0.251429
O O7 0.500000 0.626304 0.144875
O O8 0.500000 0.104493 0.300915
O O9 0.670977 0.861313 0.580668
O O10 0.586918 0.937792 0.517099
O O11 0.227374 0.796241 0.300559
O O12 0.177827 0.766979 0.025147
#
# Coordination Sequence:
#
# PCOD9369542 Si02
#       7
#    16   8   8  16  16   8   8
#     4  11  23  39  61  94 129 171 222 276 329 383
#     4  10  22  41  65  93 124 167 216 260 320 403
#     4  10  23  40  64  89 123 175 216 266 328 378
#     4  10  21  39  65  89 129 170 220 265 328 402
#     4  10  22  41  63  95 128 171 218 260 335 393
#     4  10  22  40  64  94 132 166 210 282 318 388
#     4   8  20  41  59  94 119 162 218 258 313 387
#
# _framework density 21.464576999999998
#
# number of rings (size 3 to 8) (size 9 to 14) (size 15 to 20)
#    0.000    2.000    0.000    2.100    8.400    0.800 
#    7.200    1.500    0.000    1.200    0.000    0.000 
#    0.000    0.000    0.000    0.000    0.000    0.000 
#
# Total GULP energy -111363.377621 kJ/mol
# GULP energy per Si atom -5568.168881 kJ/mol
# Density = 2.141572 g / cm^3
# Si number density = 21.464577 Si / 1000 Ang^3
#
#
#
# Elastic Constant Matrix: (Units=GPa)
#
#
# Indices 1 2 3 4 5 6 
#
# 1 186.8253 34.6998 45.7183 0.0000 0.0000 0.0000
# 2 34.6998 68.6705 25.4369 0.0000 0.0000 0.0000
# 3 45.7183 25.4369 66.3838 0.0000 -0.0001 0.0000
# 4 0.0000 0.0000 0.0000 19.5852 0.0000 0.0000
# 5 0.0000 0.0000 -0.0001 0.0000 30.8565 0.0000
# 6 0.0000 0.0000 0.0000 0.0000 0.0000 10.7413
#
#
#
# Elastic Compliance Matrix: (Units=1/GPa)
#
#
# Indices 1 2 3 4 5 6 
#
# 1 0.006652 -0.001940 -0.003838 0.000000 0.000000 0.000000
# 2 -0.001940 0.017537 -0.005384 0.000000 0.000000 0.000000
# 3 -0.003838 -0.005384 0.019770 0.000000 0.000000 0.000000
# 4 0.000000 0.000000 0.000000 0.051059 0.000000 0.000000
# 5 0.000000 0.000000 0.000000 0.000000 0.032408 0.000000
# 6 0.000000 0.000000 0.000000 0.000000 0.000000 0.093098
#
#
# Mechanical properties :
#
#
# Convention : Reuss Voigt Hill
#
# Bulk Modulus (GPa) = 46.21964 59.28772 52.75368
# Shear Modulus (GPa) = 19.99525 26.63825 23.31675
#
# Velocity S-wave (km/s) = 3.05544 3.52665 3.29947
# Velocity P-wave (km/s) = 5.83329 6.65313 6.25666
#
# Compressibility (1/GPa) = 0.02163583
#
# Stress axis : x y z
#
# Youngs Moduli (GPa) = 150.32937 57.02323 50.58136
#
# Poissons Ratio (x) = 0.11061 0.19413
# Poissons Ratio (y) = 0.29159 0.27232
# Poissons Ratio (z) = 0.57697 0.30700
#
# Static dielectric constant tensor:
#      x y z
#    x 1.834150 0.000000 0.000000 
#    y 0.000000 1.767400 0.000000 
#    z 0.000000 0.000000 1.800970 
# 
# From -- ./inp_files/3568.got.cif
#   From: 2010.05.17/outbox.cif.g08.bks.cpg/sg42_2_cif.got.tgz:3568.got - 2010.06.03 19:03:34.
