data_PCOD9369628
_publ_section_title
;
Structure prediction by ZEFSAII (Michael W. Deem and Ramdas Pophale) SiO2 
 PCOD9369628
Probable space group: F M M 2
;
_chemical_formula_sum "Si O2"
_cell_formula_units_Z 80
_cell_length_a 24.277305
_cell_length_b 24.495473
_cell_length_c 5.042195
_cell_angle_alpha 90.000000
_cell_angle_beta 90.000000
_cell_angle_gamma 90.000000
_cell_volume 2998.513040
_symmetry_space_group_name_H-M "F M M 2"
_symmetry_group_IT_number 42
_symmetry_cell_setting 'orthorhombic'
loop_
_space_group_symop_operation_xyz
x,y,z
-x,-y,z
-x,y,z
x,-y,z
x,1/2+y,1/2+z
-x,1/2-y,1/2+z
-x,1/2+y,1/2+z
x,1/2-y,1/2+z
1/2+x,y,1/2+z
1/2-x,-y,1/2+z
1/2-x,y,1/2+z
1/2+x,-y,1/2+z
1/2+x,1/2+y,z
1/2-x,1/2-y,z
1/2-x,1/2+y,z
1/2+x,1/2-y,z
loop_
_atom_site_type_symbol
_atom_site_label
_atom_site_fract_x
_atom_site_fract_y
_atom_site_fract_z
Si Si1 0.372805 0.358527 0.819810
Si Si2 0.718251 0.833187 0.948437
Si Si3 0.439059 0.213392 0.690934
Si Si4 0.438256 0.059836 0.006462
Si Si5 0.676210 0.938547 0.695080
O O1 0.337380 0.322780 0.613900
O O2 0.392990 0.326238 0.077193
O O3 0.424690 0.388633 0.689306
O O4 0.333003 0.407061 0.919998
O O5 0.734605 0.813971 0.654754
O O6 0.710846 0.898208 0.882886
O O7 0.500000 0.188740 0.655186
O O8 0.436366 0.235503 0.987827
O O9 0.500000 0.064182 0.893504
O O10 0.435939 0.000000 0.145657
O O11 0.386589 0.059260 0.808253
O O12 0.697090 0.000000 0.675511
#
# Coordination Sequence:
#
# PCOD9369628 Si02
#       5
#    16  16  16  16  16
#     4  11  22  39  68  91 126 172 215 275 321 389
#     4  11  23  42  62  93 126 166 213 268 323 379
#     4  10  24  43  67 101 134 166 213 267 329 400
#     4   9  19  34  54  88 131 169 208 254 311 385
#     4  10  22  38  59  92 130 175 221 261 315 388
#
# _framework density 26.679891999999999
#
# number of rings (size 3 to 8) (size 9 to 14) (size 15 to 20)
#    0.000    1.800    2.000    1.200    5.600    3.200 
#    0.000    2.000    0.000    3.600    0.000    0.000 
#    0.000    0.000    0.000    0.000    0.000    0.000 
#
# Total GULP energy -111810.740444 kJ/mol
# GULP energy per Si atom -5590.537022 kJ/mol
# Density = 2.661917 g / cm^3
# Si number density = 26.679892 Si / 1000 Ang^3
#
#
#
# Elastic Constant Matrix: (Units=GPa)
#
#
# Indices 1 2 3 4 5 6 
#
# 1 126.4584 15.5504 11.1674 0.0952 -0.0428 -0.0508
# 2 15.5504 74.5156 0.5056 0.0125 -0.0589 -0.0212
# 3 11.1674 0.5056 90.9957 -0.0428 -0.0598 -0.0194
# 4 0.0952 0.0125 -0.0428 33.5701 -0.0606 -0.0681
# 5 -0.0428 -0.0589 -0.0598 -0.0606 34.9300 0.0719
# 6 -0.0508 -0.0212 -0.0194 -0.0681 0.0719 30.1173
#
#
#
# Elastic Compliance Matrix: (Units=1/GPa)
#
#
# Indices 1 2 3 4 5 6 
#
# 1 0.008206 -0.001706 -0.000998 -0.000024 0.000005 0.000012
# 2 -0.001706 0.013775 0.000133 0.000000 0.000021 0.000007
# 3 -0.000998 0.000133 0.011111 0.000017 0.000018 0.000006
# 4 -0.000024 0.000000 0.000017 0.029789 0.000052 0.000067
# 5 0.000005 0.000021 0.000018 0.000052 0.028629 -0.000068
# 6 0.000012 0.000007 0.000006 0.000067 -0.000068 0.033204
#
#
# Mechanical properties :
#
#
# Convention : Reuss Voigt Hill
#
# Bulk Modulus (GPa) = 35.77669 38.49071 37.13370
# Shear Modulus (GPa) = 35.92698 37.37326 36.65012
#
# Velocity S-wave (km/s) = 3.67358 3.74679 3.71036
# Velocity P-wave (km/s) = 5.60645 5.75987 5.68368
#
# Compressibility (1/GPa) = 0.02795116
#
# Stress axis : x y z
#
# Youngs Moduli (GPa) = 121.86811 72.59490 89.99899
#
# Poissons Ratio (x) = 0.12382 0.08978
# Poissons Ratio (y) = 0.20786 -0.01195
# Poissons Ratio (z) = 0.12157 -0.00964
#
# Static dielectric constant tensor:
#      x y z
#    x 2.128370 -0.000040 0.000030 
#    y -0.000040 2.141780 -0.000020 
#    z 0.000030 -0.000020 2.097040 
# 
# From -- ./inp_files/991.got.cif
#   From: 2010.05.17/outbox.cif.g08.bks.cpg/sg42_1_cif.got.tgz:991.got - 2010.06.03 19:03:34.
