data_PCOD9369651
_publ_section_title
;
Structure prediction by ZEFSAII (Michael W. Deem and Ramdas Pophale) SiO2 
 PCOD9369651
Probable space group: F M M 2
;
_chemical_formula_sum "Si O2"
_cell_formula_units_Z 56
_cell_length_a 15.232498
_cell_length_b 16.367912
_cell_length_c 9.189560
_cell_angle_alpha 90.000000
_cell_angle_beta 90.000000
_cell_angle_gamma 90.000000
_cell_volume 2291.179574
_symmetry_space_group_name_H-M "F M M 2"
_symmetry_group_IT_number 42
_symmetry_cell_setting 'orthorhombic'
loop_
_space_group_symop_operation_xyz
x,y,z
-x,-y,z
-x,y,z
x,-y,z
x,1/2+y,1/2+z
-x,1/2-y,1/2+z
-x,1/2+y,1/2+z
x,1/2-y,1/2+z
1/2+x,y,1/2+z
1/2-x,-y,1/2+z
1/2-x,y,1/2+z
1/2+x,-y,1/2+z
1/2+x,1/2+y,z
1/2-x,1/2-y,z
1/2-x,1/2+y,z
1/2+x,1/2-y,z
loop_
_atom_site_type_symbol
_atom_site_label
_atom_site_fract_x
_atom_site_fract_y
_atom_site_fract_z
Si Si1 0.750000 0.250000 0.830500
Si Si2 0.000000 0.150537 0.841274
Si Si3 0.601856 0.352284 0.246020
Si Si4 0.500000 0.669246 0.497257
Si Si5 0.820676 0.587992 0.467071
O O1 0.661163 0.229875 0.742090
O O2 0.767577 0.168498 0.922071
O O3 0.000000 0.238506 0.927209
O O4 0.086329 0.101376 0.886920
O O5 0.000000 0.163529 0.667757
O O6 0.500000 0.348109 0.192543
O O7 0.583324 0.371566 0.415473
O O8 0.655257 0.408847 0.137930
O O9 0.782178 0.500000 0.429315
#
# Coordination Sequence:
#
# PCOD9369651 Si02
#       5
#     8   8  16   8  16
#     4  12  26  44  78 114 158 206 260 326 382 466
#     4  12  21  41  74 114 147 198 258 318 383 465
#     4  10  23  46  73 108 149 206 259 309 381 462
#     4  10  22  39  74 110 146 198 261 298 383 467
#     4  12  26  46  76 112 155 204 259 321 389 460
#
# _framework density 24.441559999999999
#
# number of rings (size 3 to 8) (size 9 to 14) (size 15 to 20)
#    0.857    0.000    4.286    3.000    0.000    3.429 
#    0.000    2.857    0.000    0.000    0.000    0.000 
#    0.000    0.000    0.000    0.000    0.000    0.000 
#
# Total GULP energy -78068.114192 kJ/mol
# GULP energy per Si atom -5576.293871 kJ/mol
# Density = 2.438593 g / cm^3
# Si number density = 24.441560 Si / 1000 Ang^3
#
#
#
# Elastic Constant Matrix: (Units=GPa)
#
#
# Indices 1 2 3 4 5 6 
#
# 1 120.0332 32.5345 -0.7039 0.0000 0.0000 0.0000
# 2 32.5345 173.0563 39.2163 0.0000 0.0000 0.0000
# 3 -0.7039 39.2163 149.8601 0.0000 0.0000 0.0000
# 4 0.0000 0.0000 0.0000 15.8018 0.0000 0.0000
# 5 0.0000 0.0000 0.0000 0.0000 15.0156 0.0000
# 6 0.0000 0.0000 0.0000 0.0000 0.0000 13.4196
#
#
#
# Elastic Compliance Matrix: (Units=1/GPa)
#
#
# Indices 1 2 3 4 5 6 
#
# 1 0.008814 -0.001771 0.000505 0.000000 0.000000 0.000000
# 2 -0.001771 0.006499 -0.001709 0.000000 0.000000 0.000000
# 3 0.000505 -0.001709 0.007122 0.000000 0.000000 0.000000
# 4 0.000000 0.000000 0.000000 0.063284 0.000000 0.000000
# 5 0.000000 0.000000 0.000000 0.000000 0.066597 0.000000
# 6 0.000000 0.000000 0.000000 0.000000 0.000000 0.074518
#
#
# Mechanical properties :
#
#
# Convention : Reuss Voigt Hill
#
# Bulk Modulus (GPa) = 60.66326 65.00484 62.83405
# Shear Modulus (GPa) = 20.98368 33.64091 27.31230
#
# Velocity S-wave (km/s) = 2.93324 3.71399 3.34646
# Velocity P-wave (km/s) = 6.02872 6.71158 6.37929
#
# Compressibility (1/GPa) = 0.01648444
#
# Stress axis : x y z
#
# Youngs Moduli (GPa) = 113.45404 153.87521 140.40065
#
# Poissons Ratio (x) = 0.27259 -0.07090
# Poissons Ratio (y) = 0.20098 0.23994
# Poissons Ratio (z) = -0.05729 0.26297
#
# Static dielectric constant tensor:
#      x y z
#    x 2.037620 0.000000 0.000000 
#    y 0.000000 1.968920 0.000000 
#    z 0.000000 0.000000 1.982130 
# 
# From -- ./inp_files/3167.got.cif
#   From: 2010.05.17/outbox.cif.g08.bks.cpg/sg42_2_cif.got.tgz:3167.got - 2010.06.03 19:03:34.
