data_PCOD9370113
_publ_section_title
;
Structure prediction by ZEFSAII (Michael W. Deem and Ramdas Pophale) SiO2 
 PCOD9370113
Probable space group: F D D 2
;
_chemical_formula_sum "Si O2"
_cell_formula_units_Z 96
_cell_length_a 14.072070
_cell_length_b 28.281631
_cell_length_c 11.962676
_cell_angle_alpha 90.000000
_cell_angle_beta 90.000000
_cell_angle_gamma 90.000000
_cell_volume 4760.918848
_symmetry_space_group_name_H-M "F D D 2"
_symmetry_group_IT_number 43
_symmetry_cell_setting 'orthorhombic'
loop_
_space_group_symop_operation_xyz
x,y,z
-x,-y,z
1/4-x,1/4+y,1/4+z
1/4+x,1/4-y,1/4+z
x,1/2+y,1/2+z
-x,1/2-y,1/2+z
1/4-x,3/4+y,3/4+z
1/4+x,3/4-y,3/4+z
1/2+x,y,1/2+z
1/2-x,-y,1/2+z
3/4-x,1/4+y,3/4+z
3/4+x,1/4-y,3/4+z
1/2+x,1/2+y,z
1/2-x,1/2-y,z
3/4-x,3/4+y,1/4+z
3/4+x,3/4-y,1/4+z
loop_
_atom_site_type_symbol
_atom_site_label
_atom_site_fract_x
_atom_site_fract_y
_atom_site_fract_z
Si Si1 0.584376 0.309699 0.548490
Si Si2 0.250000 0.250000 0.675803
Si Si3 0.395828 0.583124 0.555014
Si Si4 0.885197 0.327980 0.568103
Si Si5 0.069318 0.268306 0.525062
Si Si6 0.671087 0.069838 0.553873
Si Si7 0.750000 0.250000 0.561017
O O1 0.577875 0.364110 0.515214
O O2 0.487814 0.280956 0.533330
O O3 0.615267 0.309831 0.679577
O O4 0.669114 0.279228 0.493314
O O5 0.292167 0.292897 0.748311
O O6 0.162792 0.267526 0.599220
O O7 0.400554 0.580460 0.689267
O O8 0.283704 0.576549 0.533652
O O9 0.871858 0.381749 0.605158
O O10 0.814754 0.289559 0.622549
O O11 0.991392 0.307259 0.566353
O O12 0.091794 0.279885 0.396345
#
# Coordination Sequence:
#
# PCOD9370113 Si02
#       7
#    16   8  16  16  16  16   8
#     4  10  20  38  61  92 116 163 218 259 317 377
#     4  12  23  43  60  98 136 166 200 264 332 390
#     4  10  20  37  64  85 122 166 210 260 309 376
#     4   9  19  36  61  88 115 160 214 259 306 370
#     4  10  23  39  60  91 130 163 203 264 324 380
#     4  10  19  40  60  86 126 166 209 261 314 379
#     4  10  17  31  60  88 108 144 214 270 298 358
#
# _framework density 20.164173999999999
#
# number of rings (size 3 to 8) (size 9 to 14) (size 15 to 20)
#    0.000    2.000    3.333    0.500    0.000    0.667 
#    3.000    3.333    0.000    0.000    0.000    0.000 
#    0.000    0.000    0.000    0.000    0.000    0.000 
#
# Total GULP energy -133853.841245 kJ/mol
# GULP energy per Si atom -5577.243385 kJ/mol
# Density = 2.011828 g / cm^3
# Si number density = 20.164174 Si / 1000 Ang^3
#
#
#
# Elastic Constant Matrix: (Units=GPa)
#
#
# Indices 1 2 3 4 5 6 
#
# 1 108.6582 38.1464 23.1419 0.0000 0.0000 0.0000
# 2 38.1464 143.2195 38.2131 0.0000 0.0000 0.0000
# 3 23.1419 38.2131 48.8666 0.0000 0.0000 0.0000
# 4 0.0000 0.0000 0.0000 22.3804 0.0000 0.0000
# 5 0.0000 0.0000 0.0000 0.0000 14.8610 0.0000
# 6 0.0000 0.0000 0.0000 0.0000 0.0000 21.3347
#
#
#
# Elastic Compliance Matrix: (Units=1/GPa)
#
#
# Indices 1 2 3 4 5 6 
#
# 1 0.010621 -0.001879 -0.003561 0.000000 0.000000 0.000000
# 2 -0.001879 0.009156 -0.006270 0.000000 0.000000 0.000000
# 3 -0.003561 -0.006270 0.027053 0.000000 0.000000 0.000000
# 4 0.000000 0.000000 0.000000 0.044682 0.000000 0.000000
# 5 0.000000 0.000000 0.000000 0.000000 0.067290 0.000000
# 6 0.000000 0.000000 0.000000 0.000000 0.000000 0.046872
#
#
# Mechanical properties :
#
#
# Convention : Reuss Voigt Hill
#
# Bulk Modulus (GPa) = 42.71469 55.52744 49.12106
# Shear Modulus (GPa) = 21.10630 25.13143 23.11886
#
# Velocity S-wave (km/s) = 3.23882 3.53418 3.38972
# Velocity P-wave (km/s) = 5.93431 6.65217 6.30347
#
# Compressibility (1/GPa) = 0.02341115
#
# Stress axis : x y z
#
# Youngs Moduli (GPa) = 94.15196 109.22282 36.96455
#
# Poissons Ratio (x) = 0.20522 0.13162
# Poissons Ratio (y) = 0.17690 0.23176
# Poissons Ratio (z) = 0.33524 0.68480
#
# Static dielectric constant tensor:
#      x y z
#    x 1.715080 0.000000 0.000000 
#    y 0.000000 1.769970 0.000000 
#    z 0.000000 0.000000 1.747560 
# 
# From -- ./inp_files/6298.got.cif
#   From: 2010.05.17/outbox.cif.g08.bks.cpg/sg43_4_cif.got.tgz:6298.got - 2010.06.03 19:21:55.
