data_PCOD9370895
_publ_section_title
;
Structure prediction by ZEFSAII (Michael W. Deem and Ramdas Pophale) SiO2 
 PCOD9370895
Probable space group: F D D 2
;
_chemical_formula_sum "Si O2"
_cell_formula_units_Z 120
_cell_length_a 14.965775
_cell_length_b 16.604327
_cell_length_c 23.430868
_cell_angle_alpha 90.000000
_cell_angle_beta 90.000000
_cell_angle_gamma 90.000000
_cell_volume 5822.491546
_symmetry_space_group_name_H-M "F D D 2"
_symmetry_group_IT_number 43
_symmetry_cell_setting 'orthorhombic'
loop_
_space_group_symop_operation_xyz
x,y,z
-x,-y,z
1/4-x,1/4+y,1/4+z
1/4+x,1/4-y,1/4+z
x,1/2+y,1/2+z
-x,1/2-y,1/2+z
1/4-x,3/4+y,3/4+z
1/4+x,3/4-y,3/4+z
1/2+x,y,1/2+z
1/2-x,-y,1/2+z
3/4-x,1/4+y,3/4+z
3/4+x,1/4-y,3/4+z
1/2+x,1/2+y,z
1/2-x,1/2-y,z
3/4-x,3/4+y,1/4+z
3/4+x,3/4-y,1/4+z
loop_
_atom_site_type_symbol
_atom_site_label
_atom_site_fract_x
_atom_site_fract_y
_atom_site_fract_z
Si Si1 0.020048 0.758924 0.750000
Si Si2 0.836121 0.305281 0.201031
Si Si3 0.148378 0.499473 0.841222
Si Si4 0.676764 0.919267 0.397268
Si Si5 0.255517 0.464277 0.732412
Si Si6 0.831178 0.813356 0.030071
Si Si7 0.750000 0.750000 0.381639
Si Si8 0.179626 0.421851 0.607032
O O1 0.087332 0.714001 0.706774
O O2 0.051036 0.850314 0.757075
O O3 0.012413 0.712449 0.808918
O O4 0.921090 0.759054 0.724636
O O5 0.750000 0.250000 0.203763
O O6 0.861640 0.318748 0.134272
O O7 0.814854 0.383616 0.237698
O O8 0.240815 0.533767 0.867502
O O9 0.175377 0.471918 0.778119
O O10 0.083083 0.576605 0.846785
O O11 0.603191 0.923641 0.347600
O O12 0.706855 0.827929 0.411810
O O13 0.328786 0.533531 0.746759
O O14 0.212988 0.450072 0.669523
O O15 0.750000 0.750000 0.023353
O O16 0.668677 0.710826 0.347380
#
# Coordination Sequence:
#
# PCOD9370895 Si02
#       8
#    16  16  16  16  16  16   8  16
#     4  11  24  42  70 102 134 179 224 284 351 409
#     4  11  22  46  65  95 137 178 232 279 332 420
#     4   9  22  42  66  89 133 174 220 282 337 397
#     4   9  21  41  65  95 131 172 219 274 341 400
#     4  11  24  43  68  97 136 181 224 285 346 412
#     4  11  22  44  69  97 140 177 221 283 345 420
#     4  10  20  42  62  90 136 166 220 280 322 404
#     4  11  23  42  66 102 130 171 232 280 347 417
#
# _framework density 20.609732999999999
#
# number of rings (size 3 to 8) (size 9 to 14) (size 15 to 20)
#    0.000    1.600    4.000    0.000    1.867    2.133 
#    4.800    0.667    0.000    0.000    0.000    0.000 
#    0.000    0.000    0.000    0.000    0.000    0.000 
#
# Total GULP energy -167250.591428 kJ/mol
# GULP energy per Si atom -5575.019714 kJ/mol
# Density = 2.056282 g / cm^3
# Si number density = 20.609733 Si / 1000 Ang^3
#
#
#
# Elastic Constant Matrix: (Units=GPa)
#
#
# Indices 1 2 3 4 5 6 
#
# 1 73.2070 6.0308 35.8160 0.0000 0.0000 0.0000
# 2 6.0308 91.0453 47.3460 0.0000 0.0000 0.0000
# 3 35.8160 47.3460 146.0464 0.0000 0.0000 0.0000
# 4 0.0000 0.0000 0.0000 18.8348 0.0000 0.0000
# 5 0.0000 0.0000 0.0000 0.0000 25.2476 0.0000
# 6 0.0000 0.0000 0.0000 0.0000 0.0000 18.7370
#
#
#
# Elastic Compliance Matrix: (Units=1/GPa)
#
#
# Indices 1 2 3 4 5 6 
#
# 1 0.015622 0.001152 -0.004204 0.000000 0.000000 0.000000
# 2 0.001152 0.013296 -0.004593 0.000000 0.000000 0.000000
# 3 -0.004204 -0.004593 0.009367 0.000000 0.000000 0.000000
# 4 0.000000 0.000000 0.000000 0.053093 0.000000 0.000000
# 5 0.000000 0.000000 0.000000 0.000000 0.039608 0.000000
# 6 0.000000 0.000000 0.000000 0.000000 0.000000 0.053370
#
#
# Mechanical properties :
#
#
# Convention : Reuss Voigt Hill
#
# Bulk Modulus (GPa) = 43.49010 54.29827 48.89419
# Shear Modulus (GPa) = 24.11830 27.30426 25.71128
#
# Velocity S-wave (km/s) = 3.42459 3.64376 3.53587
# Velocity P-wave (km/s) = 6.06503 6.64122 6.35965
#
# Compressibility (1/GPa) = 0.02299374
#
# Stress axis : x y z
#
# Youngs Moduli (GPa) = 64.01226 75.21316 106.75681
#
# Poissons Ratio (x) = -0.08662 0.44885
# Poissons Ratio (y) = -0.07372 0.49029
# Poissons Ratio (z) = 0.26914 0.34543
#
# Static dielectric constant tensor:
#      x y z
#    x 1.763870 0.000000 0.000000 
#    y 0.000000 1.755150 0.000000 
#    z 0.000000 0.000000 1.759170 
# 
# From -- ./inp_files/21819.got.cif
#   From: 2010.05.17/outbox.cif.g08.bks.cpg/sg43_11_cif.got.tgz:21819.got - 2010.06.03 19:21:55.
