data_PCOD9370135
_publ_section_title
;
Structure prediction by ZEFSAII (Michael W. Deem and Ramdas Pophale) SiO2 
 PCOD9370135
Probable space group: F D D 2
;
_chemical_formula_sum "Si O2"
_cell_formula_units_Z 128
_cell_length_a 20.723792
_cell_length_b 17.290964
_cell_length_c 20.104562
_cell_angle_alpha 90.000000
_cell_angle_beta 90.000000
_cell_angle_gamma 90.000000
_cell_volume 7204.154984
_symmetry_space_group_name_H-M "F D D 2"
_symmetry_group_IT_number 43
_symmetry_cell_setting 'orthorhombic'
loop_
_space_group_symop_operation_xyz
x,y,z
-x,-y,z
1/4-x,1/4+y,1/4+z
1/4+x,1/4-y,1/4+z
x,1/2+y,1/2+z
-x,1/2-y,1/2+z
1/4-x,3/4+y,3/4+z
1/4+x,3/4-y,3/4+z
1/2+x,y,1/2+z
1/2-x,-y,1/2+z
3/4-x,1/4+y,3/4+z
3/4+x,1/4-y,3/4+z
1/2+x,1/2+y,z
1/2-x,1/2-y,z
3/4-x,3/4+y,1/4+z
3/4+x,3/4-y,1/4+z
loop_
_atom_site_type_symbol
_atom_site_label
_atom_site_fract_x
_atom_site_fract_y
_atom_site_fract_z
Si Si1 0.415726 0.664715 0.402740
Si Si2 0.545782 0.573563 0.561747
Si Si3 0.246364 0.032338 0.528342
Si Si4 0.890345 0.256700 0.872601
Si Si5 0.701296 0.322432 0.962816
Si Si6 0.739668 0.480028 0.244782
Si Si7 0.908120 0.666674 0.574852
Si Si8 0.128324 0.989907 0.455281
O O1 0.344127 0.672570 0.374102
O O2 0.462053 0.669700 0.338308
O O3 0.443527 0.726922 0.454565
O O4 0.416322 0.583333 0.440615
O O5 0.500000 0.500000 0.571347
O O6 0.515016 0.656391 0.544169
O O7 0.588892 0.552036 0.497614
O O8 0.309159 0.994247 0.562256
O O9 0.263970 0.095261 0.471945
O O10 0.192890 0.974880 0.498443
O O11 0.843029 0.189366 0.897704
O O12 0.934562 0.277576 0.937081
O O13 0.846947 0.329919 0.851597
O O14 0.750000 0.250000 0.966799
O O15 0.652443 0.320759 0.025427
O O16 0.721276 0.556973 0.284784
O O17 0.898186 0.724397 0.635561
#
# Coordination Sequence:
#
# PCOD9370135 Si02
#       8
#    16  16  16  16  16  16  16  16
#     4  10  20  32  46  72 105 126 156 200 242 294
#     4  11  20  29  47  73  98 127 158 192 245 293
#     4   9  20  31  45  73 100 128 159 194 242 295
#     4   9  18  31  44  67 102 129 156 194 236 295
#     4  10  18  27  44  68 100 125 155 193 240 291
#     4  10  18  30  45  70 101 131 155 192 242 294
#     4  10  18  27  45  68  96 131 158 184 241 301
#     4  11  18  28  47  70  99 127 156 192 242 293
#
# _framework density 17.767524000000002
#
# number of rings (size 3 to 8) (size 9 to 14) (size 15 to 20)
#    0.000    2.000    3.750    1.500    3.500    0.500 
#    0.000    0.000    0.000    3.000    0.000    0.000 
#    0.000    0.000    0.000    0.000    0.000    0.000 
#
# Total GULP energy -178270.105881 kJ/mol
# GULP energy per Si atom -5570.940809 kJ/mol
# Density = 1.772708 g / cm^3
# Si number density = 17.767524 Si / 1000 Ang^3
#
#
#
# Elastic Constant Matrix: (Units=GPa)
#
#
# Indices 1 2 3 4 5 6 
#
# 1 40.1698 7.2182 15.6779 0.0000 0.0000 0.0000
# 2 7.2182 17.9652 14.2222 0.0000 0.0000 0.0000
# 3 15.6779 14.2222 42.9486 0.0000 0.0000 0.0000
# 4 0.0000 0.0000 0.0000 18.1224 0.0000 0.0000
# 5 0.0000 0.0000 0.0000 0.0000 14.1159 0.0000
# 6 0.0000 0.0000 0.0000 0.0000 0.0000 20.1134
#
#
#
# Elastic Compliance Matrix: (Units=1/GPa)
#
#
# Indices 1 2 3 4 5 6 
#
# 1 0.029294 -0.004479 -0.009210 0.000000 0.000000 0.000000
# 2 -0.004479 0.076125 -0.023573 0.000000 0.000000 0.000000
# 3 -0.009210 -0.023573 0.034452 0.000000 0.000000 0.000000
# 4 0.000000 0.000000 0.000000 0.055180 0.000000 0.000000
# 5 0.000000 0.000000 0.000000 0.000000 0.070842 0.000000
# 6 0.000000 0.000000 0.000000 0.000000 0.000000 0.049718
#
#
# Mechanical properties :
#
#
# Convention : Reuss Voigt Hill
#
# Bulk Modulus (GPa) = 15.30318 19.48001 17.39159
# Shear Modulus (GPa) = 12.13836 14.73470 13.43653
#
# Velocity S-wave (km/s) = 2.61660 2.88289 2.75297
# Velocity P-wave (km/s) = 4.21432 4.69777 4.46260
#
# Compressibility (1/GPa) = 0.06534588
#
# Stress axis : x y z
#
# Youngs Moduli (GPa) = 34.13699 13.13634 29.02594
#
# Poissons Ratio (x) = 0.05883 0.26734
# Poissons Ratio (y) = 0.15289 0.68424
# Poissons Ratio (z) = 0.31441 0.30967
#
# Static dielectric constant tensor:
#      x y z
#    x 1.655520 0.000000 0.000000 
#    y 0.000000 1.600710 0.000000 
#    z 0.000000 0.000000 1.620260 
# 
# From -- ./inp_files/14368.got.cif
#   From: 2010.05.17/outbox.cif.g08.bks.cpg/sg43_8_cif.got.tgz:14368.got - 2010.06.03 19:21:55.
