data_PCOD9370121
_publ_section_title
;
Structure prediction by ZEFSAII (Michael W. Deem and Ramdas Pophale) SiO2 
 PCOD9370121
Probable space group: F D D 2
;
_chemical_formula_sum "Si O2"
_cell_formula_units_Z 120
_cell_length_a 27.681458
_cell_length_b 26.835556
_cell_length_c 6.797107
_cell_angle_alpha 90.000000
_cell_angle_beta 90.000000
_cell_angle_gamma 90.000000
_cell_volume 5049.212694
_symmetry_space_group_name_H-M "F D D 2"
_symmetry_group_IT_number 43
_symmetry_cell_setting 'orthorhombic'
loop_
_space_group_symop_operation_xyz
x,y,z
-x,-y,z
1/4-x,1/4+y,1/4+z
1/4+x,1/4-y,1/4+z
x,1/2+y,1/2+z
-x,1/2-y,1/2+z
1/4-x,3/4+y,3/4+z
1/4+x,3/4-y,3/4+z
1/2+x,y,1/2+z
1/2-x,-y,1/2+z
3/4-x,1/4+y,3/4+z
3/4+x,1/4-y,3/4+z
1/2+x,1/2+y,z
1/2-x,1/2-y,z
3/4-x,3/4+y,1/4+z
3/4+x,3/4-y,1/4+z
loop_
_atom_site_type_symbol
_atom_site_label
_atom_site_fract_x
_atom_site_fract_y
_atom_site_fract_z
Si Si1 0.774907 0.849037 0.304540
Si Si2 0.059667 0.815775 0.316447
Si Si3 0.692273 0.399906 0.573729
Si Si4 0.896696 0.971360 0.350644
Si Si5 0.500000 0.500000 0.257314
Si Si6 0.998457 0.255182 0.489800
Si Si7 0.833985 0.558652 0.683265
Si Si8 0.880885 0.627753 0.354115
O O1 0.791897 0.879979 0.499617
O O2 0.724291 0.862449 0.203051
O O3 0.772738 0.792403 0.369073
O O4 0.813506 0.866795 0.142984
O O5 0.115697 0.802823 0.279890
O O6 0.037720 0.792326 0.514077
O O7 0.032169 0.782714 0.148367
O O8 0.714894 0.452557 0.644270
O O9 0.690437 0.403889 0.340014
O O10 0.638057 0.388003 0.642893
O O11 0.884117 0.932876 0.173450
O O12 0.873606 0.024867 0.294524
O O13 0.954224 0.977048 0.374528
O O14 0.042190 0.229051 0.365861
O O15 0.854654 0.589898 0.505530
#
# Coordination Sequence:
#
# PCOD9370121 Si02
#       8
#    16  16  16  16   8  16  16  16
#     4  10  22  39  64  92 129 170 224 259 335 408
#     4   9  19  35  61  96 124 157 209 280 322 394
#     4  11  22  41  65 100 133 167 225 280 329 400
#     4  10  21  39  62  94 129 173 228 262 331 408
#     4  12  20  40  66  90 128 196 214 264 334 408
#     4  10  17  34  60  93 128 156 209 275 332 368
#     4  11  22  40  68  97 131 174 222 281 330 398
#     4  11  23  42  65  96 136 177 215 279 336 391
#
# _framework density 23.766082000000001
#
# number of rings (size 3 to 8) (size 9 to 14) (size 15 to 20)
#    0.000    1.600    5.333    2.400    0.000    0.000 
#    0.000    8.000    0.000    0.000    0.000    0.000 
#    0.000    0.000    0.000    0.000    0.000    0.000 
#
# Total GULP energy -167363.759087 kJ/mol
# GULP energy per Si atom -5578.791970 kJ/mol
# Density = 2.371199 g / cm^3
# Si number density = 23.766082 Si / 1000 Ang^3
#
#
#
# Elastic Constant Matrix: (Units=GPa)
#
#
# Indices 1 2 3 4 5 6 
#
# 1 116.8707 8.2951 1.9266 0.0247 -0.0192 -0.0092
# 2 8.2951 99.3670 14.1765 0.0231 -0.0127 -0.0017
# 3 1.9266 14.1765 40.1549 0.0771 -0.0490 -0.0185
# 4 0.0247 0.0231 0.0771 25.1078 -0.0316 -0.0093
# 5 -0.0192 -0.0127 -0.0490 -0.0316 27.4279 0.0074
# 6 -0.0092 -0.0017 -0.0185 -0.0093 0.0074 30.8892
#
#
#
# Elastic Compliance Matrix: (Units=1/GPa)
#
#
# Indices 1 2 3 4 5 6 
#
# 1 0.008609 -0.000695 -0.000168 -0.000007 0.000005 0.000002
# 2 -0.000695 0.010654 -0.003728 0.000002 -0.000002 -0.000002
# 3 -0.000168 -0.003728 0.026228 -0.000077 0.000045 0.000015
# 4 -0.000007 0.000002 -0.000077 0.039829 0.000046 0.000012
# 5 0.000005 -0.000002 0.000045 0.000046 0.036459 -0.000009
# 6 0.000002 -0.000002 0.000015 0.000012 -0.000009 0.032374
#
#
# Mechanical properties :
#
#
# Convention : Reuss Voigt Hill
#
# Bulk Modulus (GPa) = 27.54108 33.90990 30.72549
# Shear Modulus (GPa) = 28.50050 32.15126 30.32588
#
# Velocity S-wave (km/s) = 3.46672 3.68206 3.57601
# Velocity P-wave (km/s) = 5.25716 5.68999 5.47785
#
# Compressibility (1/GPa) = 0.03630940
#
# Stress axis : x y z
#
# Youngs Moduli (GPa) = 116.16370 93.86547 38.12726
#
# Poissons Ratio (x) = 0.06521 0.00640
# Poissons Ratio (y) = 0.08070 0.14213
# Poissons Ratio (z) = 0.01949 0.34992
#
# Static dielectric constant tensor:
#      x y z
#    x 1.990390 0.000010 0.000010 
#    y 0.000010 1.925790 -0.000010 
#    z 0.000010 -0.000010 2.228830 
# 
# From -- ./inp_files/4466.got.cif
#   From: 2010.05.17/outbox.cif.g08.bks.cpg/sg43_3_cif.got.tgz:4466.got - 2010.06.03 19:21:55.
