data_PCOD9370431
_publ_section_title
;
Structure prediction by ZEFSAII (Michael W. Deem and Ramdas Pophale) SiO2 
 PCOD9370431
Probable space group: F D D 2
;
_chemical_formula_sum "Si O2"
_cell_formula_units_Z 96
_cell_length_a 10.276041
_cell_length_b 14.475270
_cell_length_c 28.103978
_cell_angle_alpha 90.000000
_cell_angle_beta 90.000000
_cell_angle_gamma 90.000000
_cell_volume 4180.423672
_symmetry_space_group_name_H-M "F D D 2"
_symmetry_group_IT_number 43
_symmetry_cell_setting 'orthorhombic'
loop_
_space_group_symop_operation_xyz
x,y,z
-x,-y,z
1/4-x,1/4+y,1/4+z
1/4+x,1/4-y,1/4+z
x,1/2+y,1/2+z
-x,1/2-y,1/2+z
1/4-x,3/4+y,3/4+z
1/4+x,3/4-y,3/4+z
1/2+x,y,1/2+z
1/2-x,-y,1/2+z
3/4-x,1/4+y,3/4+z
3/4+x,1/4-y,3/4+z
1/2+x,1/2+y,z
1/2-x,1/2-y,z
3/4-x,3/4+y,1/4+z
3/4+x,3/4-y,1/4+z
loop_
_atom_site_type_symbol
_atom_site_label
_atom_site_fract_x
_atom_site_fract_y
_atom_site_fract_z
Si Si1 0.857063 0.669589 0.945460
Si Si2 0.742923 0.863662 0.851390
Si Si3 0.278761 0.898773 0.027295
Si Si4 0.981455 0.863072 0.797418
Si Si5 0.231817 0.637871 0.819610
Si Si6 0.595075 0.912607 0.675602
O O1 0.750000 0.750000 0.945653
O O2 0.807322 0.605144 0.902572
O O3 0.843785 0.632705 0.998435
O O4 0.003975 0.693365 0.930091
O O5 0.750000 0.750000 0.850176
O O6 0.641424 0.892612 0.810633
O O7 0.888058 0.894615 0.839719
O O8 0.318092 0.898177 0.972348
O O9 0.262414 0.002291 0.046976
O O10 0.136070 0.856561 0.035806
O O11 0.127934 0.899669 0.802934
O O12 0.250000 0.750000 0.817139
O O13 0.188379 0.619414 0.874099
O O14 0.500000 0.000000 0.679902
#
# Coordination Sequence:
#
# PCOD9370431 Si02
#       6
#    16  16  16  16  16  16
#     4  11  23  37  58  87 116 150 193 234 288 341
#     4   9  18  34  59  81 108 149 192 226 274 341
#     4  10  19  38  60  83 111 149 195 233 279 337
#     4  10  21  38  61  85 111 149 193 238 279 335
#     4   9  20  36  58  85 113 150 191 228 283 343
#     4  11  23  37  58  87 117 149 190 239 287 339
#
# _framework density 22.964181
#
# number of rings (size 3 to 8) (size 9 to 14) (size 15 to 20)
#    0.000    2.000    3.333    0.000    9.333    0.000 
#    0.000    3.333    0.000    0.000    0.000    0.000 
#    0.000    0.000    0.000    0.000    0.000    0.000 
#
# Total GULP energy -133951.759552 kJ/mol
# GULP energy per Si atom -5581.323315 kJ/mol
# Density = 2.291191 g / cm^3
# Si number density = 22.964181 Si / 1000 Ang^3
#
#
#
# Elastic Constant Matrix: (Units=GPa)
#
#
# Indices 1 2 3 4 5 6 
#
# 1 197.0702 -0.2304 48.5937 0.0000 0.0000 0.0000
# 2 -0.2304 42.7409 -22.7162 0.0000 0.0000 0.0000
# 3 48.5937 -22.7162 102.3599 0.0000 0.0000 0.0000
# 4 0.0000 0.0000 0.0000 3.1549 0.0000 0.0000
# 5 0.0000 0.0000 0.0000 0.0000 45.4303 0.0000
# 6 0.0000 0.0000 0.0000 0.0000 0.0000 5.7765
#
#
#
# Elastic Compliance Matrix: (Units=1/GPa)
#
#
# Indices 1 2 3 4 5 6 
#
# 1 0.005846 -0.001637 -0.003139 0.000000 0.000000 0.000000
# 2 -0.001637 0.026984 0.006765 0.000000 0.000000 0.000000
# 3 -0.003139 0.006765 0.012761 0.000000 0.000000 0.000000
# 4 0.000000 0.000000 0.000000 0.316965 0.000000 0.000000
# 5 0.000000 0.000000 0.000000 0.000000 0.022012 0.000000
# 6 0.000000 0.000000 0.000000 0.000000 0.000000 0.173114
#
#
# Mechanical properties :
#
#
# Convention : Reuss Voigt Hill
#
# Bulk Modulus (GPa) = 20.17317 43.71838 31.94578
# Shear Modulus (GPa) = 8.76846 31.97394 20.37120
#
# Velocity S-wave (km/s) = 1.95617 3.73545 2.98163
# Velocity P-wave (km/s) = 3.72905 6.13871 5.07886
#
# Compressibility (1/GPa) = 0.04957078
#
# Stress axis : x y z
#
# Youngs Moduli (GPa) = 171.04673 37.05953 78.36458
#
# Poissons Ratio (x) = 0.06065 0.24596
# Poissons Ratio (y) = 0.27994 -0.53016
# Poissons Ratio (z) = 0.53686 -0.25072
#
# Static dielectric constant tensor:
#      x y z
#    x 1.848310 0.000000 0.000000 
#    y 0.000000 1.942510 0.000000 
#    z 0.000000 0.000000 1.873510 
# 
# From -- ./inp_files/20293.got.cif
#   From: 2010.05.17/outbox.cif.g08.bks.cpg/sg43_11_cif.got.tgz:20293.got - 2010.06.03 19:21:55.
