data_PCOD9370967
_publ_section_title
;
Structure prediction by ZEFSAII (Michael W. Deem and Ramdas Pophale) SiO2 
 PCOD9370967
Probable space group: F D D 2
;
_chemical_formula_sum "Si O2"
_cell_formula_units_Z 80
_cell_length_a 14.689758
_cell_length_b 17.393298
_cell_length_c 11.852590
_cell_angle_alpha 90.000000
_cell_angle_beta 90.000000
_cell_angle_gamma 90.000000
_cell_volume 3028.376314
_symmetry_space_group_name_H-M "F D D 2"
_symmetry_group_IT_number 43
_symmetry_cell_setting 'orthorhombic'
loop_
_space_group_symop_operation_xyz
x,y,z
-x,-y,z
1/4-x,1/4+y,1/4+z
1/4+x,1/4-y,1/4+z
x,1/2+y,1/2+z
-x,1/2-y,1/2+z
1/4-x,3/4+y,3/4+z
1/4+x,3/4-y,3/4+z
1/2+x,y,1/2+z
1/2-x,-y,1/2+z
3/4-x,1/4+y,3/4+z
3/4+x,1/4-y,3/4+z
1/2+x,1/2+y,z
1/2-x,1/2-y,z
3/4-x,3/4+y,1/4+z
3/4+x,3/4-y,1/4+z
loop_
_atom_site_type_symbol
_atom_site_label
_atom_site_fract_x
_atom_site_fract_y
_atom_site_fract_z
Si Si1 0.354831 0.895368 0.796690
Si Si2 0.392139 0.222562 0.311384
Si Si3 0.538380 0.396767 0.422334
Si Si4 0.064524 0.255745 0.070312
Si Si5 0.643680 0.004371 0.087773
O O1 0.343891 0.805530 0.828673
O O2 0.370617 0.912129 0.662538
O O3 0.267624 0.944828 0.835620
O O4 0.450238 0.918520 0.852254
O O5 0.379462 0.213215 0.177002
O O6 0.501239 0.234207 0.316207
O O7 0.517912 0.329146 0.512171
O O8 0.606020 0.347117 0.341452
O O9 0.586270 0.461030 0.495814
O O10 0.127944 0.227588 0.966096
#
# Coordination Sequence:
#
# PCOD9370967 Si02
#       5
#    16  16  16  16  16
#     4  10  20  44  69 115 151 210 259 328 391 482
#     4  10  21  40  75 106 159 197 266 328 394 468
#     4   9  19  41  73 111 153 204 264 322 396 476
#     4   9  21  40  71 109 162 195 268 319 401 465
#     4   8  19  39  65 113 151 200 252 329 388 473
#
# _framework density 26.416796999999999
#
# number of rings (size 3 to 8) (size 9 to 14) (size 15 to 20)
#    1.200    1.600    2.000    0.000    2.800    0.000 
#    7.200    4.000    0.000    2.400   10.400    0.000 
#    0.000    0.000    0.000    0.000    0.000    0.000 
#
# Total GULP energy -111662.745123 kJ/mol
# GULP energy per Si atom -5583.137256 kJ/mol
# Density = 2.635667 g / cm^3
# Si number density = 26.416797 Si / 1000 Ang^3
#
#
#
# Elastic Constant Matrix: (Units=GPa)
#
#
# Indices 1 2 3 4 5 6 
#
# 1 83.0780 55.0323 28.6664 0.0000 0.0000 0.0000
# 2 55.0323 76.5607 32.9043 0.0000 0.0000 0.0000
# 3 28.6664 32.9043 132.4112 0.0000 0.0000 0.0000
# 4 0.0000 0.0000 0.0000 63.5635 0.0000 0.0000
# 5 0.0000 0.0000 0.0000 0.0000 47.6045 0.0000
# 6 0.0000 0.0000 0.0000 0.0000 0.0000 42.2845
#
#
#
# Elastic Compliance Matrix: (Units=1/GPa)
#
#
# Indices 1 2 3 4 5 6 
#
# 1 0.023091 -0.016177 -0.000979 0.000000 0.000000 0.000000
# 2 -0.016177 0.025957 -0.002948 0.000000 0.000000 0.000000
# 3 -0.000979 -0.002948 0.008497 0.000000 0.000000 0.000000
# 4 0.000000 0.000000 0.000000 0.015732 0.000000 0.000000
# 5 0.000000 0.000000 0.000000 0.000000 0.021006 0.000000
# 6 0.000000 0.000000 0.000000 0.000000 0.000000 0.023649
#
#
# Mechanical properties :
#
#
# Convention : Reuss Voigt Hill
#
# Bulk Modulus (GPa) = 57.68320 58.36175 58.02248
# Shear Modulus (GPa) = 30.50296 42.38696 36.44496
#
# Velocity S-wave (km/s) = 3.40175 4.01002 3.71834
# Velocity P-wave (km/s) = 6.10839 6.60159 6.35977
#
# Compressibility (1/GPa) = 0.01733607
#
# Stress axis : x y z
#
# Youngs Moduli (GPa) = 43.30774 38.52585 117.69177
#
# Poissons Ratio (x) = 0.62323 0.11522
# Poissons Ratio (y) = 0.70058 0.34696
# Poissons Ratio (z) = 0.04240 0.11357
#
# Static dielectric constant tensor:
#      x y z
#    x 2.072050 0.000000 0.000000 
#    y 0.000000 2.156610 0.000000 
#    z 0.000000 0.000000 2.194610 
# 
# From -- ./inp_files/10943.got.cif
#   From: 2010.05.17/outbox.cif.g08.bks.cpg/sg43_6_cif.got.tgz:10943.got - 2010.06.03 19:21:55.
