data_PCOD9370393
_publ_section_title
;
Structure prediction by ZEFSAII (Michael W. Deem and Ramdas Pophale) SiO2 
 PCOD9370393
Probable space group: F D D 2
;
_chemical_formula_sum "Si O2"
_cell_formula_units_Z 112
_cell_length_a 14.911899
_cell_length_b 32.737841
_cell_length_c 11.794199
_cell_angle_alpha 90.000000
_cell_angle_beta 90.000000
_cell_angle_gamma 90.000000
_cell_volume 5757.731914
_symmetry_space_group_name_H-M "F D D 2"
_symmetry_group_IT_number 43
_symmetry_cell_setting 'orthorhombic'
loop_
_space_group_symop_operation_xyz
x,y,z
-x,-y,z
1/4-x,1/4+y,1/4+z
1/4+x,1/4-y,1/4+z
x,1/2+y,1/2+z
-x,1/2-y,1/2+z
1/4-x,3/4+y,3/4+z
1/4+x,3/4-y,3/4+z
1/2+x,y,1/2+z
1/2-x,-y,1/2+z
3/4-x,1/4+y,3/4+z
3/4+x,1/4-y,3/4+z
1/2+x,1/2+y,z
1/2-x,1/2-y,z
3/4-x,3/4+y,1/4+z
3/4+x,3/4-y,1/4+z
loop_
_atom_site_type_symbol
_atom_site_label
_atom_site_fract_x
_atom_site_fract_y
_atom_site_fract_z
Si Si1 0.388994 0.845442 0.246510
Si Si2 0.591892 0.975414 0.836902
Si Si3 0.397490 0.499298 0.089439
Si Si4 0.903451 0.663968 0.294603
Si Si5 0.646246 0.175448 0.505434
Si Si6 0.592487 0.564819 0.802838
Si Si7 0.784771 0.008317 0.864193
O O1 0.342921 0.817640 0.152004
O O2 0.494035 0.833330 0.251872
O O3 0.354236 0.835377 0.372573
O O4 0.384062 0.894374 0.231822
O O5 0.680107 0.999873 0.877657
O O6 0.500000 0.000000 0.857125
O O7 0.604978 0.973015 0.701047
O O8 0.500000 0.500000 0.047932
O O9 0.371059 0.452413 0.122389
O O10 0.332399 0.511109 0.986988
O O11 0.893778 0.616792 0.327237
O O12 0.842732 0.670788 0.183726
O O13 0.740943 0.197628 0.526424
O O14 0.562725 0.202515 0.541825
O O15 0.666245 0.529524 0.799550
#
# Coordination Sequence:
#
# PCOD9370393 Si02
#       7
#    16  16  16  16  16  16  16
#     4  10  19  37  57  86 124 159 189 241 317 365
#     4  11  24  39  60  81 126 174 201 233 309 382
#     4  10  20  37  62  82 116 165 203 241 305 368
#     4   9  17  36  59  87 121 157 197 250 313 348
#     4  10  20  31  63  98 119 142 202 272 299 346
#     4   9  18  33  61  92 114 149 196 259 303 350
#     4  11  20  37  64  90 116 154 212 256 297 351
#
# _framework density 19.452103000000001
#
# number of rings (size 3 to 8) (size 9 to 14) (size 15 to 20)
#    0.000    2.000    2.857    3.000    0.000    1.143 
#    0.000    0.000   12.571    0.000    0.000    0.000 
#    0.000    0.000    0.000    0.000    0.000    0.000 
#
# Total GULP energy -156086.789403 kJ/mol
# GULP energy per Si atom -5574.528193 kJ/mol
# Density = 1.940783 g / cm^3
# Si number density = 19.452103 Si / 1000 Ang^3
#
#
#
# Elastic Constant Matrix: (Units=GPa)
#
#
# Indices 1 2 3 4 5 6 
#
# 1 103.4008 5.2543 15.1968 0.0000 0.0000 0.0000
# 2 5.2543 82.3250 7.1715 0.0000 0.0000 0.0000
# 3 15.1968 7.1715 59.5200 0.0000 0.0000 0.0000
# 4 0.0000 0.0000 0.0000 22.7313 0.0000 0.0000
# 5 0.0000 0.0000 0.0000 0.0000 28.0195 0.0000
# 6 0.0000 0.0000 0.0000 0.0000 0.0000 25.4618
#
#
#
# Elastic Compliance Matrix: (Units=1/GPa)
#
#
# Indices 1 2 3 4 5 6 
#
# 1 0.010063 -0.000423 -0.002518 0.000000 0.000000 0.000000
# 2 -0.000423 0.012294 -0.001373 0.000000 0.000000 0.000000
# 3 -0.002518 -0.001373 0.017610 0.000000 0.000000 0.000000
# 4 0.000000 0.000000 0.000000 0.043992 0.000000 0.000000
# 5 0.000000 0.000000 0.000000 0.000000 0.035689 0.000000
# 6 0.000000 0.000000 0.000000 0.000000 0.000000 0.039275
#
#
# Mechanical properties :
#
#
# Convention : Reuss Voigt Hill
#
# Bulk Modulus (GPa) = 31.91118 33.38788 32.64953
# Shear Modulus (GPa) = 28.09043 29.75073 28.92058
#
# Velocity S-wave (km/s) = 3.80423 3.91504 3.86003
# Velocity P-wave (km/s) = 5.97803 6.13499 6.05702
#
# Compressibility (1/GPa) = 0.03133698
#
# Stress axis : x y z
#
# Youngs Moduli (GPa) = 99.37686 81.34316 56.78749
#
# Poissons Ratio (x) = 0.03440 0.14301
# Poissons Ratio (y) = 0.04202 0.07798
# Poissons Ratio (z) = 0.25026 0.11171
#
# Static dielectric constant tensor:
#      x y z
#    x 1.690380 0.000000 0.000000 
#    y 0.000000 1.735260 0.000000 
#    z 0.000000 0.000000 1.693280 
# 
# From -- ./inp_files/6321.got.cif
#   From: 2010.05.17/outbox.cif.g08.bks.cpg/sg43_4_cif.got.tgz:6321.got - 2010.06.03 19:21:55.
