data_PCOD9370729
_publ_section_title
;
Structure prediction by ZEFSAII (Michael W. Deem and Ramdas Pophale) SiO2 
 PCOD9370729
Probable space group: F D D 2
;
_chemical_formula_sum "Si O2"
_cell_formula_units_Z 120
_cell_length_a 24.859604
_cell_length_b 8.643283
_cell_length_c 26.360182
_cell_angle_alpha 90.000000
_cell_angle_beta 90.000000
_cell_angle_gamma 90.000000
_cell_volume 5663.975208
_symmetry_space_group_name_H-M "F D D 2"
_symmetry_group_IT_number 43
_symmetry_cell_setting 'orthorhombic'
loop_
_space_group_symop_operation_xyz
x,y,z
-x,-y,z
1/4-x,1/4+y,1/4+z
1/4+x,1/4-y,1/4+z
x,1/2+y,1/2+z
-x,1/2-y,1/2+z
1/4-x,3/4+y,3/4+z
1/4+x,3/4-y,3/4+z
1/2+x,y,1/2+z
1/2-x,-y,1/2+z
3/4-x,1/4+y,3/4+z
3/4+x,1/4-y,3/4+z
1/2+x,1/2+y,z
1/2-x,1/2-y,z
3/4-x,3/4+y,1/4+z
3/4+x,3/4-y,1/4+z
loop_
_atom_site_type_symbol
_atom_site_label
_atom_site_fract_x
_atom_site_fract_y
_atom_site_fract_z
Si Si1 0.926369 0.745752 0.665940
Si Si2 0.645103 0.186052 0.380087
Si Si3 0.646653 0.907619 0.315623
Si Si4 0.410804 0.253627 0.411756
Si Si5 0.750000 0.750000 0.358433
Si Si6 0.727890 0.426471 0.633191
Si Si7 0.487525 0.314654 0.765668
Si Si8 0.845169 0.508353 0.473230
O O1 0.868329 0.666625 0.663732
O O2 0.967478 0.621236 0.642830
O O3 0.943119 0.783598 0.723225
O O4 0.923392 0.900039 0.632330
O O5 0.583450 0.193500 0.400179
O O6 0.645467 0.089331 0.328213
O O7 0.672972 0.076407 0.421699
O O8 0.607432 0.830233 0.358676
O O9 0.705466 0.838688 0.325577
O O10 0.625818 0.856393 0.261245
O O11 0.474845 0.266138 0.411870
O O12 0.383481 0.147874 0.455605
O O13 0.750000 0.250000 0.637121
O O14 0.724880 0.468761 0.573849
O O15 0.500000 0.500000 0.762977
O O16 0.539304 0.210196 0.751365
#
# Coordination Sequence:
#
# PCOD9370729 Si02
#       8
#    16  16  16  16   8  16  16  16
#     4  11  23  41  60  97 131 170 215 285 340 395
#     4  11  23  37  65  93 131 164 221 279 331 398
#     4  10  20  39  61  94 121 171 216 267 327 404
#     4  10  22  40  60  90 135 163 217 271 333 394
#     4  10  24  40  60  84 136 166 214 274 338 408
#     4  11  20  40  66  93 124 174 219 272 335 407
#     4  11  20  35  67  94 119 164 226 268 325 399
#     4  11  20  38  67  92 122 167 221 270 322 406
#
# _framework density 21.186532
#
# number of rings (size 3 to 8) (size 9 to 14) (size 15 to 20)
#    0.000    1.333    5.333    3.200    0.000    1.600 
#    4.800    1.333    0.000    1.600    0.000    0.000 
#    0.000    0.000    0.000    0.000    0.000    0.000 
#
# Total GULP energy -167586.543416 kJ/mol
# GULP energy per Si atom -5586.218114 kJ/mol
# Density = 2.113831 g / cm^3
# Si number density = 21.186532 Si / 1000 Ang^3
#
#
#
# Elastic Constant Matrix: (Units=GPa)
#
#
# Indices 1 2 3 4 5 6 
#
# 1 79.2710 2.0229 -8.0647 0.0000 0.0000 0.0001
# 2 2.0229 69.2473 6.3543 0.0000 0.0000 0.0001
# 3 -8.0647 6.3543 56.7597 0.0000 0.0000 0.0000
# 4 0.0000 0.0000 0.0000 15.8550 0.0000 0.0000
# 5 0.0000 0.0000 0.0000 0.0000 26.9961 0.0000
# 6 0.0001 0.0001 0.0000 0.0000 0.0000 29.2411
#
#
#
# Elastic Compliance Matrix: (Units=1/GPa)
#
#
# Indices 1 2 3 4 5 6 
#
# 1 0.012820 -0.000547 0.001883 0.000000 0.000000 0.000000
# 2 -0.000547 0.014614 -0.001714 0.000000 0.000000 0.000000
# 3 0.001883 -0.001714 0.018078 0.000000 0.000000 0.000000
# 4 0.000000 0.000000 0.000000 0.063072 0.000000 0.000000
# 5 0.000000 0.000000 0.000000 0.000000 0.037042 0.000000
# 6 0.000000 0.000000 0.000000 0.000000 0.000000 0.034198
#
#
# Mechanical properties :
#
#
# Convention : Reuss Voigt Hill
#
# Bulk Modulus (GPa) = 22.34353 22.87812 22.61083
# Shear Modulus (GPa) = 25.57549 28.08282 26.82915
#
# Velocity S-wave (km/s) = 3.47819 3.64470 3.56241
# Velocity P-wave (km/s) = 5.16714 5.34169 5.25514
#
# Compressibility (1/GPa) = 0.04475568
#
# Stress axis : x y z
#
# Youngs Moduli (GPa) = 78.00028 68.42632 55.31733
#
# Poissons Ratio (x) = 0.03745 -0.10416
# Poissons Ratio (y) = 0.04269 0.09481
# Poissons Ratio (z) = -0.14686 0.11727
#
# Static dielectric constant tensor:
#      x y z
#    x 1.799810 0.000000 0.000000 
#    y 0.000000 1.799380 0.000000 
#    z 0.000000 0.000000 1.733620 
# 
# From -- ./inp_files/22827.got.cif
#   From: 2010.05.17/outbox.cif.g08.bks.cpg/sg43_12_cif.got.tgz:22827.got - 2010.06.03 19:21:55.
