data_PCOD9370456
_publ_section_title
;
Structure prediction by ZEFSAII (Michael W. Deem and Ramdas Pophale) SiO2 
 PCOD9370456
Probable space group: F D D 2
;
_chemical_formula_sum "Si O2"
_cell_formula_units_Z 112
_cell_length_a 5.506960
_cell_length_b 38.399018
_cell_length_c 24.160117
_cell_angle_alpha 90.000000
_cell_angle_beta 90.000000
_cell_angle_gamma 90.000000
_cell_volume 5108.943186
_symmetry_space_group_name_H-M "F D D 2"
_symmetry_group_IT_number 43
_symmetry_cell_setting 'orthorhombic'
loop_
_space_group_symop_operation_xyz
x,y,z
-x,-y,z
1/4-x,1/4+y,1/4+z
1/4+x,1/4-y,1/4+z
x,1/2+y,1/2+z
-x,1/2-y,1/2+z
1/4-x,3/4+y,3/4+z
1/4+x,3/4-y,3/4+z
1/2+x,y,1/2+z
1/2-x,-y,1/2+z
3/4-x,1/4+y,3/4+z
3/4+x,1/4-y,3/4+z
1/2+x,1/2+y,z
1/2-x,1/2-y,z
3/4-x,3/4+y,1/4+z
3/4+x,3/4-y,1/4+z
loop_
_atom_site_type_symbol
_atom_site_label
_atom_site_fract_x
_atom_site_fract_y
_atom_site_fract_z
Si Si1 0.120191 0.635613 0.354220
Si Si2 0.940756 0.389861 0.480896
Si Si3 0.162010 0.789226 0.102027
Si Si4 0.519357 0.426966 0.787579
Si Si5 0.690916 0.839458 0.705285
Si Si6 0.869300 0.590192 0.634675
Si Si7 0.623059 0.962580 0.730441
O O1 0.087418 0.619134 0.415531
O O2 0.156710 0.601938 0.315448
O O3 0.355173 0.660299 0.355863
O O4 0.851164 0.652111 0.346136
O O5 0.948281 0.351448 0.508755
O O6 0.683171 0.409053 0.491880
O O7 0.182948 0.412722 0.486366
O O8 0.250000 0.750000 0.113085
O O9 0.218858 0.812074 0.155602
O O10 0.884613 0.799239 0.085702
O O11 0.278739 0.797396 0.041990
O O12 0.406649 0.452885 0.742080
O O13 0.664759 0.877040 0.675940
O O14 0.932035 0.558744 0.675300
O O15 0.500000 0.000000 0.722945
#
# Coordination Sequence:
#
# PCOD9370456 Si02
#       7
#    16  16  16  16  16  16  16
#     4  10  20  35  61  84 118 158 207 267 291 363
#     4  10  20  35  61  84 118 158 207 267 291 363
#     4  11  24  37  56  88 132 170 198 249 325 403
#     4  12  22  37  64  90 128 166 214 264 324 378
#     4  10  19  39  56  82 118 160 212 252 293 361
#     4  10  19  39  56  82 118 160 212 252 293 361
#     4  11  24  37  56  88 132 170 198 249 325 403
#
# _framework density 21.922342
#
# number of rings (size 3 to 8) (size 9 to 14) (size 15 to 20)
#    0.000    1.429    5.714    3.429    0.000    2.286 
#    0.000    0.000    0.000    0.000    0.000    4.000 
#    0.000    0.000    0.000    0.000    0.000    0.000 
#
# Total GULP energy -155909.632483 kJ/mol
# GULP energy per Si atom -5568.201160 kJ/mol
# Density = 2.187245 g / cm^3
# Si number density = 21.922342 Si / 1000 Ang^3
#
#
#
# Elastic Constant Matrix: (Units=GPa)
#
#
# Indices 1 2 3 4 5 6 
#
# 1 153.5408 33.8894 22.5629 0.0000 0.0000 0.0000
# 2 33.8894 113.9654 38.1891 0.0000 0.0000 0.0000
# 3 22.5629 38.1891 53.3339 0.0000 0.0000 0.0000
# 4 0.0000 0.0000 0.0000 48.5262 0.0000 0.0000
# 5 0.0000 0.0000 0.0000 0.0000 57.8324 0.0000
# 6 0.0000 0.0000 0.0000 0.0000 0.0000 21.5263
#
#
#
# Elastic Compliance Matrix: (Units=1/GPa)
#
#
# Indices 1 2 3 4 5 6 
#
# 1 0.007124 -0.001459 -0.001970 0.000000 0.000000 0.000000
# 2 -0.001459 0.011843 -0.007863 0.000000 0.000000 0.000000
# 3 -0.001970 -0.007863 0.025213 0.000000 0.000000 0.000000
# 4 0.000000 0.000000 0.000000 0.020607 0.000000 0.000000
# 5 0.000000 0.000000 0.000000 0.000000 0.017291 0.000000
# 6 0.000000 0.000000 0.000000 0.000000 0.000000 0.046455
#
#
# Mechanical properties :
#
#
# Convention : Reuss Voigt Hill
#
# Bulk Modulus (GPa) = 46.29987 56.68032 51.49009
# Shear Modulus (GPa) = 31.58232 40.65689 36.11960
#
# Velocity S-wave (km/s) = 3.79970 4.31116 4.06349
# Velocity P-wave (km/s) = 6.35737 7.11988 6.74940
#
# Compressibility (1/GPa) = 0.02159833
#
# Stress axis : x y z
#
# Youngs Moduli (GPa) = 140.36501 84.43649 39.66149
#
# Poissons Ratio (x) = 0.12315 0.07812
# Poissons Ratio (y) = 0.20473 0.31187
# Poissons Ratio (z) = 0.27646 0.66394
#
# Static dielectric constant tensor:
#      x y z
#    x 2.027870 0.000000 0.000000 
#    y 0.000000 1.751180 0.000000 
#    z 0.000000 0.000000 1.915860 
# 
# From -- ./inp_files/27421.got.cif
#   From: 2010.05.17/outbox.cif.g08.bks.cpg/sg43_14_cif.got.tgz:27421.got - 2010.06.03 19:21:55.
