data_PCOD9370542
_publ_section_title
;
Structure prediction by ZEFSAII (Michael W. Deem and Ramdas Pophale) SiO2 
 PCOD9370542
Probable space group: F D D 2
;
_chemical_formula_sum "Si O2"
_cell_formula_units_Z 120
_cell_length_a 28.228841
_cell_length_b 25.280019
_cell_length_c 7.850870
_cell_angle_alpha 90.000000
_cell_angle_beta 90.000000
_cell_angle_gamma 90.000000
_cell_volume 5602.582103
_symmetry_space_group_name_H-M "F D D 2"
_symmetry_group_IT_number 43
_symmetry_cell_setting 'orthorhombic'
loop_
_space_group_symop_operation_xyz
x,y,z
-x,-y,z
1/4-x,1/4+y,1/4+z
1/4+x,1/4-y,1/4+z
x,1/2+y,1/2+z
-x,1/2-y,1/2+z
1/4-x,3/4+y,3/4+z
1/4+x,3/4-y,3/4+z
1/2+x,y,1/2+z
1/2-x,-y,1/2+z
3/4-x,1/4+y,3/4+z
3/4+x,1/4-y,3/4+z
1/2+x,1/2+y,z
1/2-x,1/2-y,z
3/4-x,3/4+y,1/4+z
3/4+x,3/4-y,1/4+z
loop_
_atom_site_type_symbol
_atom_site_label
_atom_site_fract_x
_atom_site_fract_y
_atom_site_fract_z
Si Si1 0.728079 0.142832 0.089750
Si Si2 0.955845 0.281701 0.270825
Si Si3 0.542035 0.795571 0.068272
Si Si4 0.376638 0.097916 0.954234
Si Si5 0.568507 0.949721 0.261903
Si Si6 0.750000 0.250000 0.245018
Si Si7 0.012978 0.113391 0.971182
Si Si8 0.643290 0.803972 0.142826
O O1 0.729929 0.099854 0.241984
O O2 0.671948 0.155210 0.084588
O O3 0.755241 0.196745 0.136637
O O4 0.744931 0.123329 0.908698
O O5 0.940859 0.237453 0.404623
O O6 0.912415 0.304519 0.162392
O O7 0.973983 0.333422 0.371990
O O8 0.000182 0.264277 0.158973
O O9 0.587292 0.805394 0.188731
O O10 0.395153 0.084188 0.147331
O O11 0.357606 0.157790 0.973207
O O12 0.527954 0.918079 0.365413
O O13 0.595324 0.992184 0.375912
O O14 0.542713 0.986004 0.120452
O O15 0.061432 0.079080 0.987657
#
# Coordination Sequence:
#
# PCOD9370542 Si02
#       8
#    16  16  16  16  16   8  16  16
#     4  10  23  40  60  96 130 158 209 267 311 378
#     4  11  22  42  65  89 124 172 209 257 314 378
#     4  11  23  43  64  90 128 170 217 257 312 385
#     4   9  21  39  61  88 122 164 210 249 316 374
#     4  11  19  38  64  87 121 166 205 258 312 383
#     4  10  20  34  60  90 120 160 200 254 314 364
#     4  11  22  38  66  96 126 160 210 264 323 373
#     4  10  20  36  65  88 121 163 208 253 311 372
#
# _framework density 21.418696000000001
#
# number of rings (size 3 to 8) (size 9 to 14) (size 15 to 20)
#    0.000    1.600    2.667    3.200    3.733    0.000 
#    2.400    1.333    0.000    0.000    0.000    0.000 
#    0.000    0.000    0.000    0.000    0.000    0.000 
#
# Total GULP energy -167259.298820 kJ/mol
# GULP energy per Si atom -5575.309961 kJ/mol
# Density = 2.136995 g / cm^3
# Si number density = 21.418696 Si / 1000 Ang^3
#
#
#
# Elastic Constant Matrix: (Units=GPa)
#
#
# Indices 1 2 3 4 5 6 
#
# 1 89.6390 6.1309 19.2909 0.0069 -0.0049 -0.0013
# 2 6.1309 93.4992 0.3255 0.0112 -0.0123 -0.0065
# 3 19.2909 0.3255 43.7826 0.0182 -0.0196 -0.0128
# 4 0.0069 0.0112 0.0182 17.7965 -0.0132 -0.0065
# 5 -0.0049 -0.0123 -0.0196 -0.0132 20.8023 0.0056
# 6 -0.0013 -0.0065 -0.0128 -0.0065 0.0056 34.0800
#
#
#
# Elastic Compliance Matrix: (Units=1/GPa)
#
#
# Indices 1 2 3 4 5 6 
#
# 1 0.012383 -0.000793 -0.005450 0.000001 -0.000003 -0.000002
# 2 -0.000793 0.010746 0.000270 -0.000007 0.000006 0.000002
# 3 -0.005450 0.000270 0.025240 -0.000024 0.000023 0.000009
# 4 0.000001 -0.000007 -0.000024 0.056191 0.000036 0.000011
# 5 -0.000003 0.000006 0.000023 0.000036 0.048072 -0.000008
# 6 -0.000002 0.000002 0.000009 0.000011 -0.000008 0.029343
#
#
# Mechanical properties :
#
#
# Convention : Reuss Voigt Hill
#
# Bulk Modulus (GPa) = 27.45623 30.93505 29.19564
# Shear Modulus (GPa) = 24.26457 27.94734 26.10596
#
# Velocity S-wave (km/s) = 3.36946 3.61614 3.49498
# Velocity P-wave (km/s) = 5.29002 5.64886 5.47238
#
# Compressibility (1/GPa) = 0.03642160
#
# Stress axis : x y z
#
# Youngs Moduli (GPa) = 80.75585 93.05497 39.62040
#
# Poissons Ratio (x) = 0.07379 0.21594
# Poissons Ratio (y) = 0.06404 -0.01068
# Poissons Ratio (z) = 0.44013 -0.02508
#
# Static dielectric constant tensor:
#      x y z
#    x 1.848340 0.000010 0.000000 
#    y 0.000010 1.843830 0.000000 
#    z 0.000000 0.000000 1.778780 
# 
# From -- ./inp_files/4856.got.cif
#   From: 2010.05.17/outbox.cif.g08.bks.cpg/sg43_3_cif.got.tgz:4856.got - 2010.06.03 19:21:55.
