data_PCOD9370794
_publ_section_title
;
Structure prediction by ZEFSAII (Michael W. Deem and Ramdas Pophale) SiO2 
 PCOD9370794
Probable space group: F D D 2
;
_chemical_formula_sum "Si O2"
_cell_formula_units_Z 120
_cell_length_a 11.509404
_cell_length_b 19.314791
_cell_length_c 23.524601
_cell_angle_alpha 90.000000
_cell_angle_beta 90.000000
_cell_angle_gamma 90.000000
_cell_volume 5229.559566
_symmetry_space_group_name_H-M "F D D 2"
_symmetry_group_IT_number 43
_symmetry_cell_setting 'orthorhombic'
loop_
_space_group_symop_operation_xyz
x,y,z
-x,-y,z
1/4-x,1/4+y,1/4+z
1/4+x,1/4-y,1/4+z
x,1/2+y,1/2+z
-x,1/2-y,1/2+z
1/4-x,3/4+y,3/4+z
1/4+x,3/4-y,3/4+z
1/2+x,y,1/2+z
1/2-x,-y,1/2+z
3/4-x,1/4+y,3/4+z
3/4+x,1/4-y,3/4+z
1/2+x,1/2+y,z
1/2-x,1/2-y,z
3/4-x,3/4+y,1/4+z
3/4+x,3/4-y,1/4+z
loop_
_atom_site_type_symbol
_atom_site_label
_atom_site_fract_x
_atom_site_fract_y
_atom_site_fract_z
Si Si1 0.294328 0.875642 0.761350
Si Si2 0.313132 0.413046 0.514082
Si Si3 0.061301 0.708296 0.191799
Si Si4 0.193019 0.618202 0.546657
Si Si5 0.500000 0.000000 0.225148
Si Si6 0.379006 0.270875 0.461506
Si Si7 0.184101 0.319381 0.145409
Si Si8 0.674143 0.079031 0.142650
O O1 0.422391 0.843956 0.768876
O O2 0.194694 0.858455 0.808021
O O3 0.234464 0.842205 0.705920
O O4 0.316605 0.956384 0.746186
O O5 0.342032 0.464406 0.461685
O O6 0.366158 0.338024 0.501086
O O7 0.355581 0.432369 0.576997
O O8 0.158362 0.658740 0.164018
O O9 0.007653 0.680498 0.251569
O O10 0.951154 0.698583 0.149826
O O11 0.193710 0.691942 0.514287
O O12 0.274979 0.623064 0.601153
O O13 0.411169 0.961620 0.184434
O O14 0.250000 0.250000 0.444013
O O15 0.452627 0.295875 0.407846
O O16 0.250000 0.250000 0.128985
#
# Coordination Sequence:
#
# PCOD9370794 Si02
#       8
#    16  16  16  16   8  16  16  16
#     4  10  22  43  65  99 137 175 235 287 338 430
#     4  11  25  46  67  99 142 189 224 295 349 421
#     4  10  25  43  64 105 142 173 243 289 342 431
#     4  10  21  36  71  99 135 177 224 288 352 402
#     4  10  20  40  64 106 134 172 230 288 330 428
#     4  10  24  47  68  96 139 180 240 284 341 432
#     4  11  21  40  70 103 136 177 229 298 351 404
#     4  11  25  44  71  99 139 187 231 281 367 413
#
# _framework density 22.946484000000002
#
# number of rings (size 3 to 8) (size 9 to 14) (size 15 to 20)
#    0.000    1.600    3.333    0.000    1.867    6.933 
#    9.600    0.000    0.000    0.000    0.000    0.000 
#    0.000    0.000    0.000    0.000    0.000    0.000 
#
# Total GULP energy -167586.169068 kJ/mol
# GULP energy per Si atom -5586.205636 kJ/mol
# Density = 2.289426 g / cm^3
# Si number density = 22.946484 Si / 1000 Ang^3
#
#
#
# Elastic Constant Matrix: (Units=GPa)
#
#
# Indices 1 2 3 4 5 6 
#
# 1 54.4436 15.3787 12.3304 0.0000 0.0000 0.0000
# 2 15.3787 72.6742 4.2425 0.0000 0.0000 0.0000
# 3 12.3304 4.2425 61.5776 0.0000 0.0000 0.0000
# 4 0.0000 0.0000 0.0000 3.4746 0.0000 0.0000
# 5 0.0000 0.0000 0.0000 0.0000 12.0040 0.0000
# 6 0.0000 0.0000 0.0000 0.0000 0.0000 19.6979
#
#
#
# Elastic Compliance Matrix: (Units=1/GPa)
#
#
# Indices 1 2 3 4 5 6 
#
# 1 0.020384 -0.004092 -0.003800 0.000000 0.000000 0.000000
# 2 -0.004092 0.014637 -0.000189 0.000000 0.000000 0.000000
# 3 -0.003800 -0.000189 0.017014 0.000000 0.000000 0.000000
# 4 0.000000 0.000000 0.000000 0.287802 0.000000 0.000000
# 5 0.000000 0.000000 0.000000 0.000000 0.083306 0.000000
# 6 0.000000 0.000000 0.000000 0.000000 0.000000 0.050767
#
#
# Mechanical properties :
#
#
# Convention : Reuss Voigt Hill
#
# Bulk Modulus (GPa) = 27.87588 28.06650 27.97119
# Shear Modulus (GPa) = 9.95961 17.48489 13.72225
#
# Velocity S-wave (km/s) = 2.08561 2.76340 2.44808
# Velocity P-wave (km/s) = 4.23961 4.73706 4.49522
#
# Compressibility (1/GPa) = 0.03587330
#
# Stress axis : x y z
#
# Youngs Moduli (GPa) = 49.05807 68.32039 58.77651
#
# Poissons Ratio (x) = 0.27954 0.22334
# Poissons Ratio (y) = 0.20073 0.01112
# Poissons Ratio (z) = 0.18641 0.01292
#
# Static dielectric constant tensor:
#      x y z
#    x 1.914210 0.000000 0.000000 
#    y 0.000000 1.941030 0.000000 
#    z 0.000000 0.000000 1.863630 
# 
# From -- ./inp_files/21233.got.cif
#   From: 2010.05.17/outbox.cif.g08.bks.cpg/sg43_11_cif.got.tgz:21233.got - 2010.06.03 19:21:55.
