data_PCOD9370055
_publ_section_title
;
Structure prediction by ZEFSAII (Michael W. Deem and Ramdas Pophale) SiO2 
 PCOD9370055
Probable space group: F D D 2
;
_chemical_formula_sum "Si O2"
_cell_formula_units_Z 72
_cell_length_a 9.329061
_cell_length_b 22.850023
_cell_length_c 14.352481
_cell_angle_alpha 90.000000
_cell_angle_beta 90.000000
_cell_angle_gamma 90.000000
_cell_volume 3059.507731
_symmetry_space_group_name_H-M "F D D 2"
_symmetry_group_IT_number 43
_symmetry_cell_setting 'orthorhombic'
loop_
_space_group_symop_operation_xyz
x,y,z
-x,-y,z
1/4-x,1/4+y,1/4+z
1/4+x,1/4-y,1/4+z
x,1/2+y,1/2+z
-x,1/2-y,1/2+z
1/4-x,3/4+y,3/4+z
1/4+x,3/4-y,3/4+z
1/2+x,y,1/2+z
1/2-x,-y,1/2+z
3/4-x,1/4+y,3/4+z
3/4+x,1/4-y,3/4+z
1/2+x,1/2+y,z
1/2-x,1/2-y,z
3/4-x,3/4+y,1/4+z
3/4+x,3/4-y,1/4+z
loop_
_atom_site_type_symbol
_atom_site_label
_atom_site_fract_x
_atom_site_fract_y
_atom_site_fract_z
Si Si1 0.608407 0.331324 0.390600
Si Si2 0.217517 0.057711 0.839188
Si Si3 0.285755 0.853294 0.878268
Si Si4 0.750000 0.250000 0.012620
Si Si5 0.680788 0.460821 0.973658
O O1 0.733021 0.376484 0.365053
O O2 0.624707 0.304649 0.493847
O O3 0.453672 0.364064 0.404777
O O4 0.561273 0.290704 0.301977
O O5 0.364914 0.022453 0.818575
O O6 0.158071 0.022371 0.926186
O O7 0.215676 0.805985 0.947787
O O8 0.305778 0.819739 0.782825
O O9 0.211192 0.914419 0.891408
#
# Coordination Sequence:
#
# PCOD9370055 Si02
#       5
#    16  16  16   8  16
#     4   9  17  32  46  82 100 134 175 209 254 317
#     4  11  19  30  57  75 109 132 178 217 258 300
#     4   9  17  30  50  81 106 125 181 205 268 297
#     4  10  16  28  54  84  98 134 164 232 244 310
#     4  10  17  32  50  80 104 136 167 224 251 312
#
# _framework density 23.533197000000001
#
# number of rings (size 3 to 8) (size 9 to 14) (size 15 to 20)
#    1.333    0.889    4.444    2.667    0.000    0.000 
#    0.000    0.000    4.889    0.000    0.000    0.000 
#    0.000    0.000    0.000    0.000    0.000    0.000 
#
# Total GULP energy -100242.849815 kJ/mol
# GULP energy per Si atom -5569.047212 kJ/mol
# Density = 2.347963 g / cm^3
# Si number density = 23.533197 Si / 1000 Ang^3
#
#
#
# Elastic Constant Matrix: (Units=GPa)
#
#
# Indices 1 2 3 4 5 6 
#
# 1 17.4410 17.5992 26.1410 0.0000 0.0000 0.0000
# 2 17.5992 77.3495 73.1596 0.0000 0.0000 0.0000
# 3 26.1410 73.1596 161.6141 0.0000 0.0000 0.0000
# 4 0.0000 0.0000 0.0000 52.1560 0.0000 0.0000
# 5 0.0000 0.0000 0.0000 0.0000 14.2566 0.0000
# 6 0.0000 0.0000 0.0000 0.0000 0.0000 16.0704
#
#
#
# Elastic Compliance Matrix: (Units=1/GPa)
#
#
# Indices 1 2 3 4 5 6 
#
# 1 0.080250 -0.010461 -0.008245 0.000000 0.000000 0.000000
# 2 -0.010461 0.023972 -0.009160 0.000000 0.000000 0.000000
# 3 -0.008245 -0.009160 0.011668 0.000000 0.000000 0.000000
# 4 0.000000 0.000000 0.000000 0.019173 0.000000 0.000000
# 5 0.000000 0.000000 0.000000 0.000000 0.070143 0.000000
# 6 0.000000 0.000000 0.000000 0.000000 0.000000 0.062226
#
#
# Mechanical properties :
#
#
# Convention : Reuss Voigt Hill
#
# Bulk Modulus (GPa) = 16.62275 54.46712 35.54493
# Shear Modulus (GPa) = 14.56814 25.79691 20.18252
#
# Velocity S-wave (km/s) = 2.49076 3.31447 2.93169
# Velocity P-wave (km/s) = 3.91800 6.15164 5.15720
#
# Compressibility (1/GPa) = 0.06015853
#
# Stress axis : x y z
#
# Youngs Moduli (GPa) = 12.46113 41.71561 85.70767
#
# Poissons Ratio (x) = 0.43637 0.70666
# Poissons Ratio (y) = 0.13035 0.78505
# Poissons Ratio (z) = 0.10274 0.38210
#
# Static dielectric constant tensor:
#      x y z
#    x 1.975770 0.000000 0.000000 
#    y 0.000000 1.897670 0.000000 
#    z 0.000000 0.000000 1.997620 
# 
# From -- ./inp_files/9499.got.cif
#   From: 2010.05.17/outbox.cif.g08.bks.cpg/sg43_5_cif.got.tgz:9499.got - 2010.06.03 19:21:55.
