data_PCOD9370917
_publ_section_title
;
Structure prediction by ZEFSAII (Michael W. Deem and Ramdas Pophale) SiO2 
 PCOD9370917
Probable space group: F D D 2
;
_chemical_formula_sum "Si O2"
_cell_formula_units_Z 120
_cell_length_a 25.474955
_cell_length_b 8.049018
_cell_length_c 26.810950
_cell_angle_alpha 90.000000
_cell_angle_beta 90.000000
_cell_angle_gamma 90.000000
_cell_volume 5497.541632
_symmetry_space_group_name_H-M "F D D 2"
_symmetry_group_IT_number 43
_symmetry_cell_setting 'orthorhombic'
loop_
_space_group_symop_operation_xyz
x,y,z
-x,-y,z
1/4-x,1/4+y,1/4+z
1/4+x,1/4-y,1/4+z
x,1/2+y,1/2+z
-x,1/2-y,1/2+z
1/4-x,3/4+y,3/4+z
1/4+x,3/4-y,3/4+z
1/2+x,y,1/2+z
1/2-x,-y,1/2+z
3/4-x,1/4+y,3/4+z
3/4+x,1/4-y,3/4+z
1/2+x,1/2+y,z
1/2-x,1/2-y,z
3/4-x,3/4+y,1/4+z
3/4+x,3/4-y,1/4+z
loop_
_atom_site_type_symbol
_atom_site_label
_atom_site_fract_x
_atom_site_fract_y
_atom_site_fract_z
Si Si1 0.823912 0.577049 0.295230
Si Si2 0.414830 0.747893 0.839271
Si Si3 0.659742 0.860548 0.699108
Si Si4 0.500000 0.500000 0.871646
Si Si5 0.690440 0.212423 0.013532
Si Si6 0.531211 0.174055 0.045860
Si Si7 0.575148 0.719413 0.934765
Si Si8 0.376268 0.745262 0.333828
O O1 0.855124 0.695193 0.331230
O O2 0.762791 0.558115 0.306707
O O3 0.832352 0.621721 0.237263
O O4 0.852541 0.398903 0.303619
O O5 0.418576 0.828725 0.893440
O O6 0.454278 0.590076 0.840236
O O7 0.427510 0.870065 0.793976
O O8 0.601776 0.907294 0.721181
O O9 0.698656 0.941772 0.739438
O O10 0.674380 0.664902 0.697580
O O11 0.525595 0.640163 0.906881
O O12 0.750000 0.250000 0.996448
O O13 0.679238 0.071767 0.056938
O O14 0.583355 0.151813 0.078498
O O15 0.500000 0.000000 0.050139
O O16 0.618133 0.704358 0.891092
#
# Coordination Sequence:
#
# PCOD9370917 Si02
#       8
#    16  16  16   8  16  16  16  16
#     4  11  23  43  66 100 143 178 226 298 342 422
#     4  12  27  41  67 102 147 175 239 295 350 424
#     4  11  24  45  70 104 132 186 242 289 351 431
#     4  12  28  40  70 110 134 188 234 296 366 410
#     4  11  24  44  71  98 137 186 241 291 354 427
#     4   9  18  39  70  96 124 178 237 271 342 418
#     4  12  22  44  73  98 140 182 233 293 350 427
#     4  10  20  42  68 100 131 184 240 278 354 421
#
# _framework density 21.827938
#
# number of rings (size 3 to 8) (size 9 to 14) (size 15 to 20)
#    0.000    1.067    6.667    1.600    1.867    0.000 
#    2.400    0.000    7.333    0.000    0.000    0.000 
#    0.000    0.000    0.000    0.000    0.000    0.000 
#
# Total GULP energy -167452.422604 kJ/mol
# GULP energy per Si atom -5581.747420 kJ/mol
# Density = 2.177826 g / cm^3
# Si number density = 21.827938 Si / 1000 Ang^3
#
#
#
# Elastic Constant Matrix: (Units=GPa)
#
#
# Indices 1 2 3 4 5 6 
#
# 1 114.8270 35.8476 15.6011 0.0001 0.0000 -0.0002
# 2 35.8476 73.6759 10.7803 0.0001 0.0000 -0.0002
# 3 15.6011 10.7803 53.8908 0.0000 0.0000 0.0000
# 4 0.0001 0.0001 0.0000 23.4818 0.0000 -0.0001
# 5 0.0000 0.0000 0.0000 0.0000 33.9985 0.0000
# 6 -0.0002 -0.0002 0.0000 -0.0001 0.0000 33.6986
#
#
#
# Elastic Compliance Matrix: (Units=1/GPa)
#
#
# Indices 1 2 3 4 5 6 
#
# 1 0.010489 -0.004800 -0.002076 0.000000 0.000000 0.000000
# 2 -0.004800 0.016179 -0.001847 0.000000 0.000000 0.000000
# 3 -0.002076 -0.001847 0.019527 0.000000 0.000000 0.000000
# 4 0.000000 0.000000 0.000000 0.042586 0.000000 0.000000
# 5 0.000000 0.000000 0.000000 0.000000 0.029413 0.000000
# 6 0.000000 0.000000 0.000000 0.000000 0.000000 0.029675
#
#
# Mechanical properties :
#
#
# Convention : Reuss Voigt Hill
#
# Bulk Modulus (GPa) = 34.78469 40.76131 37.77300
# Shear Modulus (GPa) = 28.58817 30.24676 29.41747
#
# Velocity S-wave (km/s) = 3.62291 3.72652 3.67508
# Velocity P-wave (km/s) = 5.78542 6.10167 5.94565
#
# Compressibility (1/GPa) = 0.02874828
#
# Stress axis : x y z
#
# Youngs Moduli (GPa) = 95.33501 61.81010 51.21214
#
# Poissons Ratio (x) = 0.29668 0.10634
# Poissons Ratio (y) = 0.45759 0.09458
# Poissons Ratio (z) = 0.19796 0.11415
#
# Static dielectric constant tensor:
#      x y z
#    x 1.830370 0.000000 0.000000 
#    y 0.000000 1.881600 0.000000 
#    z 0.000000 0.000000 1.783180 
# 
# From -- ./inp_files/26580.got.cif
#   From: 2010.05.17/outbox.cif.g08.bks.cpg/sg43_14_cif.got.tgz:26580.got - 2010.06.03 19:21:55.
