data_PCOD9370562
_publ_section_title
;
Structure prediction by ZEFSAII (Michael W. Deem and Ramdas Pophale) SiO2 
 PCOD9370562
Probable space group: F D D 2
;
_chemical_formula_sum "Si O2"
_cell_formula_units_Z 96
_cell_length_a 20.216307
_cell_length_b 16.904952
_cell_length_c 13.040725
_cell_angle_alpha 90.000000
_cell_angle_beta 90.000000
_cell_angle_gamma 90.000000
_cell_volume 4456.742094
_symmetry_space_group_name_H-M "F D D 2"
_symmetry_group_IT_number 43
_symmetry_cell_setting 'orthorhombic'
loop_
_space_group_symop_operation_xyz
x,y,z
-x,-y,z
1/4-x,1/4+y,1/4+z
1/4+x,1/4-y,1/4+z
x,1/2+y,1/2+z
-x,1/2-y,1/2+z
1/4-x,3/4+y,3/4+z
1/4+x,3/4-y,3/4+z
1/2+x,y,1/2+z
1/2-x,-y,1/2+z
3/4-x,1/4+y,3/4+z
3/4+x,1/4-y,3/4+z
1/2+x,1/2+y,z
1/2-x,1/2-y,z
3/4-x,3/4+y,1/4+z
3/4+x,3/4-y,1/4+z
loop_
_atom_site_type_symbol
_atom_site_label
_atom_site_fract_x
_atom_site_fract_y
_atom_site_fract_z
Si Si1 0.295710 0.459776 0.174160
Si Si2 0.430117 0.471716 0.654820
Si Si3 0.070268 0.112417 0.441096
Si Si4 0.959371 0.180507 0.161141
Si Si5 0.173980 0.420259 0.043701
Si Si6 0.807188 0.689780 0.467079
O O1 0.284051 0.554611 0.173510
O O2 0.286555 0.431111 0.289939
O O3 0.243905 0.415335 0.102588
O O4 0.374101 0.448081 0.157291
O O5 0.500000 0.500000 0.698344
O O6 0.448629 0.427400 0.547808
O O7 0.401213 0.408999 0.736238
O O8 0.379584 0.540399 0.620321
O O9 0.149531 0.125799 0.449600
O O10 0.064925 0.056205 0.341119
O O11 0.938998 0.265149 0.205300
O O12 0.028144 0.147762 0.201156
O O13 0.750000 0.750000 0.432948
#
# Coordination Sequence:
#
# PCOD9370562 Si02
#       6
#    16  16  16  16  16  16
#     4  11  22  38  62  92 132 169 226 280 342 405
#     4  11  26  44  70 101 136 180 231 285 350 417
#     4  10  20  35  64  97 126 170 224 286 333 403
#     4  10  21  37  59  95 131 173 226 278 340 407
#     4  11  25  43  68 100 139 182 229 287 347 420
#     4  11  21  36  62  94 133 177 227 288 342 407
#
# _framework density 21.540398
#
# number of rings (size 3 to 8) (size 9 to 14) (size 15 to 20)
#    0.000    1.333    5.000    0.500    2.333    1.333 
#    0.000    0.833    0.000    0.000    0.000    0.000 
#    0.000    0.000    0.000    0.000    0.000    0.000 
#
# Total GULP energy -133946.520997 kJ/mol
# GULP energy per Si atom -5581.105042 kJ/mol
# Density = 2.149137 g / cm^3
# Si number density = 21.540398 Si / 1000 Ang^3
#
#
#
# Elastic Constant Matrix: (Units=GPa)
#
#
# Indices 1 2 3 4 5 6 
#
# 1 102.1375 31.4453 23.6597 0.0000 0.0000 0.0000
# 2 31.4453 60.8724 17.5831 0.0000 0.0000 0.0000
# 3 23.6597 17.5831 52.9999 0.0000 0.0000 0.0000
# 4 0.0000 0.0000 0.0000 18.5863 0.0000 0.0000
# 5 0.0000 0.0000 0.0000 0.0000 33.3305 0.0000
# 6 0.0000 0.0000 0.0000 0.0000 0.0000 27.3157
#
#
#
# Elastic Compliance Matrix: (Units=1/GPa)
#
#
# Indices 1 2 3 4 5 6 
#
# 1 0.012276 -0.005263 -0.003734 0.000000 0.000000 0.000000
# 2 -0.005263 0.020425 -0.004427 0.000000 0.000000 0.000000
# 3 -0.003734 -0.004427 0.022004 0.000000 0.000000 0.000000
# 4 0.000000 0.000000 0.000000 0.053803 0.000000 0.000000
# 5 0.000000 0.000000 0.000000 0.000000 0.030003 0.000000
# 6 0.000000 0.000000 0.000000 0.000000 0.000000 0.036609
#
#
# Mechanical properties :
#
#
# Convention : Reuss Voigt Hill
#
# Bulk Modulus (GPa) = 35.89750 40.15400 38.02575
# Shear Modulus (GPa) = 23.66835 25.40129 24.53482
#
# Velocity S-wave (km/s) = 3.31839 3.43773 3.37859
# Velocity P-wave (km/s) = 5.60212 5.86848 5.73684
#
# Compressibility (1/GPa) = 0.02785710
#
# Stress axis : x y z
#
# Youngs Moduli (GPa) = 81.45954 48.95912 45.44720
#
# Poissons Ratio (x) = 0.25767 0.16971
# Poissons Ratio (y) = 0.42871 0.20119
# Poissons Ratio (z) = 0.30418 0.21673
#
# Static dielectric constant tensor:
#      x y z
#    x 1.840680 0.000000 0.000000 
#    y 0.000000 1.858090 0.000000 
#    z 0.000000 0.000000 1.767190 
# 
# From -- ./inp_files/6685.got.cif
#   From: 2010.05.17/outbox.cif.g08.bks.cpg/sg43_4_cif.got.tgz:6685.got - 2010.06.03 19:21:55.
