data_PCOD9370475
_publ_section_title
;
Structure prediction by ZEFSAII (Michael W. Deem and Ramdas Pophale) SiO2 
 PCOD9370475
Probable space group: F D D 2
;
_chemical_formula_sum "Si O2"
_cell_formula_units_Z 120
_cell_length_a 8.755848
_cell_length_b 24.867741
_cell_length_c 26.447797
_cell_angle_alpha 90.000000
_cell_angle_beta 90.000000
_cell_angle_gamma 90.000000
_cell_volume 5758.694663
_symmetry_space_group_name_H-M "F D D 2"
_symmetry_group_IT_number 43
_symmetry_cell_setting 'orthorhombic'
loop_
_space_group_symop_operation_xyz
x,y,z
-x,-y,z
1/4-x,1/4+y,1/4+z
1/4+x,1/4-y,1/4+z
x,1/2+y,1/2+z
-x,1/2-y,1/2+z
1/4-x,3/4+y,3/4+z
1/4+x,3/4-y,3/4+z
1/2+x,y,1/2+z
1/2-x,-y,1/2+z
3/4-x,1/4+y,3/4+z
3/4+x,1/4-y,3/4+z
1/2+x,1/2+y,z
1/2-x,1/2-y,z
3/4-x,3/4+y,1/4+z
3/4+x,3/4-y,1/4+z
loop_
_atom_site_type_symbol
_atom_site_label
_atom_site_fract_x
_atom_site_fract_y
_atom_site_fract_z
Si Si1 0.167207 0.599150 0.046740
Si Si2 0.594136 0.822652 0.079201
Si Si3 0.689857 0.583011 0.262910
Si Si4 0.903558 0.446934 0.944438
Si Si5 0.000000 0.000000 0.206581
Si Si6 0.163864 0.948741 0.864166
Si Si7 0.506177 0.563274 0.724698
Si Si8 0.770553 0.580157 0.650680
O O1 0.292635 0.629485 0.012415
O O2 0.256413 0.569522 0.091338
O O3 0.057584 0.640923 0.077796
O O4 0.086883 0.562432 0.004691
O O5 0.573201 0.759214 0.090591
O O6 0.746966 0.829311 0.113573
O O7 0.650482 0.834576 0.022414
O O8 0.624649 0.526754 0.242931
O O9 0.741858 0.583022 0.321317
O O10 0.840439 0.590755 0.228532
O O11 0.736369 0.453402 0.919305
O O12 0.956636 0.392088 0.917110
O O13 0.000000 0.500000 0.930587
O O14 0.906392 0.043916 0.174119
O O15 0.500000 0.500000 0.735846
O O16 0.606098 0.567105 0.675021
#
# Coordination Sequence:
#
# PCOD9370475 Si02
#       8
#    16  16  16  16   8  16  16  16
#     4  12  25  43  64 102 140 185 229 281 369 432
#     4  10  19  39  68  98 131 165 236 300 337 407
#     4  11  20  35  71 101 129 164 228 297 337 409
#     4  12  26  44  65  96 144 191 231 281 360 436
#     4  12  22  42  70 100 130 176 232 300 344 406
#     4  10  20  37  68 102 124 170 234 296 345 399
#     4  11  19  38  67 105 130 161 227 301 351 390
#     4  12  25  44  69 101 135 186 237 288 352 421
#
# _framework density 20.838055000000001
#
# number of rings (size 3 to 8) (size 9 to 14) (size 15 to 20)
#    0.000    0.800    8.000    1.600    0.933    1.600 
#    0.000    2.667    0.000    0.000    0.000    0.000 
#    0.000    0.000    0.000    0.000    0.000    0.000 
#
# Total GULP energy -167026.520041 kJ/mol
# GULP energy per Si atom -5567.550668 kJ/mol
# Density = 2.079063 g / cm^3
# Si number density = 20.838055 Si / 1000 Ang^3
#
#
#
# Elastic Constant Matrix: (Units=GPa)
#
#
# Indices 1 2 3 4 5 6 
#
# 1 99.8194 30.0029 28.4336 0.0000 0.0000 0.0000
# 2 30.0029 54.6978 19.4023 0.0000 0.0000 0.0000
# 3 28.4336 19.4023 101.3309 0.0000 0.0000 0.0000
# 4 0.0000 0.0000 0.0000 11.7743 0.0000 0.0000
# 5 0.0000 0.0000 0.0000 0.0000 19.6079 0.0000
# 6 0.0000 0.0000 0.0000 0.0000 0.0000 20.9325
#
#
#
# Elastic Compliance Matrix: (Units=1/GPa)
#
#
# Indices 1 2 3 4 5 6 
#
# 1 0.012498 -0.006020 -0.002354 0.000000 0.000000 0.000000
# 2 -0.006020 0.022515 -0.002622 0.000000 0.000000 0.000000
# 3 -0.002354 -0.002622 0.011031 0.000000 0.000000 0.000000
# 4 0.000000 0.000000 0.000000 0.084930 0.000000 0.000000
# 5 0.000000 0.000000 0.000000 0.000000 0.051000 0.000000
# 6 0.000000 0.000000 0.000000 0.000000 0.000000 0.047773
#
#
# Mechanical properties :
#
#
# Convention : Reuss Voigt Hill
#
# Bulk Modulus (GPa) = 41.57767 45.72507 43.65137
# Shear Modulus (GPa) = 19.24878 22.33025 20.78952
#
# Velocity S-wave (km/s) = 3.04259 3.27710 3.16202
# Velocity P-wave (km/s) = 5.68676 6.02576 5.85871
#
# Compressibility (1/GPa) = 0.02405137
#
# Stress axis : x y z
#
# Youngs Moduli (GPa) = 80.01098 44.41575 90.65168
#
# Poissons Ratio (x) = 0.26740 0.21342
# Poissons Ratio (y) = 0.48170 0.23765
# Poissons Ratio (z) = 0.18837 0.11644
#
# Static dielectric constant tensor:
#      x y z
#    x 1.867190 0.000000 0.000000 
#    y 0.000000 1.780150 0.000000 
#    z 0.000000 0.000000 1.793350 
# 
# From -- ./inp_files/24559.got.cif
#   From: 2010.05.17/outbox.cif.g08.bks.cpg/sg43_13_cif.got.tgz:24559.got - 2010.06.03 19:21:55.
