data_PCOD9370232
_publ_section_title
;
Structure prediction by ZEFSAII (Michael W. Deem and Ramdas Pophale) SiO2 
 PCOD9370232
Probable space group: F D D 2
;
_chemical_formula_sum "Si O2"
_cell_formula_units_Z 104
_cell_length_a 11.751127
_cell_length_b 26.065612
_cell_length_c 16.173828
_cell_angle_alpha 90.000000
_cell_angle_beta 90.000000
_cell_angle_gamma 90.000000
_cell_volume 4954.048643
_symmetry_space_group_name_H-M "F D D 2"
_symmetry_group_IT_number 43
_symmetry_cell_setting 'orthorhombic'
loop_
_space_group_symop_operation_xyz
x,y,z
-x,-y,z
1/4-x,1/4+y,1/4+z
1/4+x,1/4-y,1/4+z
x,1/2+y,1/2+z
-x,1/2-y,1/2+z
1/4-x,3/4+y,3/4+z
1/4+x,3/4-y,3/4+z
1/2+x,y,1/2+z
1/2-x,-y,1/2+z
3/4-x,1/4+y,3/4+z
3/4+x,1/4-y,3/4+z
1/2+x,1/2+y,z
1/2-x,1/2-y,z
3/4-x,3/4+y,1/4+z
3/4+x,3/4-y,1/4+z
loop_
_atom_site_type_symbol
_atom_site_label
_atom_site_fract_x
_atom_site_fract_y
_atom_site_fract_z
Si Si1 0.498039 0.248320 0.830220
Si Si2 0.446578 0.353436 0.794558
Si Si3 0.838339 0.314415 0.017461
Si Si4 0.042377 0.354611 0.905780
Si Si5 0.407363 0.706004 0.993373
Si Si6 0.190899 0.863270 0.727535
Si Si7 0.250000 0.250000 0.256086
O O1 0.433072 0.292196 0.779267
O O2 0.440586 0.193934 0.845078
O O3 0.513798 0.273511 0.920089
O O4 0.628463 0.242383 0.801097
O O5 0.386584 0.387225 0.725674
O O6 0.405640 0.368193 0.885864
O O7 0.581979 0.361906 0.787054
O O8 0.798987 0.346331 0.096764
O O9 0.721552 0.306383 0.966475
O O10 0.889045 0.258745 0.044742
O O11 0.927873 0.343067 0.958215
O O12 0.467315 0.652617 0.016968
O O13 0.234541 0.805344 0.713559
#
# Coordination Sequence:
#
# PCOD9370232 Si02
#       7
#    16  16  16  16  16  16   8
#     4   9  19  37  62  84 117 164 198 253 313 356
#     4  10  22  41  58  88 127 165 203 250 308 385
#     4  10  21  37  61  89 118 162 207 254 307 370
#     4  11  21  40  61  87 127 167 201 252 313 374
#     4   9  19  39  61  88 118 158 202 257 312 363
#     4  10  21  40  62  90 121 158 207 261 307 365
#     4  10  18  36  64  92 112 144 216 266 296 346
#
# _framework density 20.992932
#
# number of rings (size 3 to 8) (size 9 to 14) (size 15 to 20)
#    0.000    2.154    0.000    3.692    0.000    2.462 
#   19.385    4.615    0.000    0.000    0.000    0.000 
#    0.000    0.000    0.000    0.000    0.000    0.000 
#
# Total GULP energy -144758.486934 kJ/mol
# GULP energy per Si atom -5567.634113 kJ/mol
# Density = 2.094515 g / cm^3
# Si number density = 20.992932 Si / 1000 Ang^3
#
#
#
# Elastic Constant Matrix: (Units=GPa)
#
#
# Indices 1 2 3 4 5 6 
#
# 1 46.7267 50.7242 2.9967 0.0000 0.0000 0.0000
# 2 50.7242 142.2894 29.8301 0.0000 0.0000 0.0000
# 3 2.9967 29.8301 31.7228 0.0000 0.0000 0.0000
# 4 0.0000 0.0000 0.0000 27.3938 0.0000 0.0000
# 5 0.0000 0.0000 0.0000 0.0000 19.5404 0.0000
# 6 0.0000 0.0000 0.0000 0.0000 0.0000 38.3972
#
#
#
# Elastic Compliance Matrix: (Units=1/GPa)
#
#
# Indices 1 2 3 4 5 6 
#
# 1 0.037945 -0.015912 0.011378 0.000000 0.000000 0.000000
# 2 -0.015912 0.015426 -0.013003 0.000000 0.000000 0.000000
# 3 0.011378 -0.013003 0.042675 0.000000 0.000000 0.000000
# 4 0.000000 0.000000 0.000000 0.036505 0.000000 0.000000
# 5 0.000000 0.000000 0.000000 0.000000 0.051176 0.000000
# 6 0.000000 0.000000 0.000000 0.000000 0.000000 0.026044
#
#
# Mechanical properties :
#
#
# Convention : Reuss Voigt Hill
#
# Bulk Modulus (GPa) = 16.40065 43.09343 29.74704
# Shear Modulus (GPa) = 18.85592 26.21213 22.53403
#
# Velocity S-wave (km/s) = 3.00026 3.53741 3.27985
# Velocity P-wave (km/s) = 4.45325 6.10381 5.34266
#
# Compressibility (1/GPa) = 0.06097320
#
# Stress axis : x y z
#
# Youngs Moduli (GPa) = 26.35401 64.82391 23.43278
#
# Poissons Ratio (x) = 1.03149 -0.26663
# Poissons Ratio (y) = 0.41935 0.30469
# Poissons Ratio (z) = -0.29987 0.84290
#
# Static dielectric constant tensor:
#      x y z
#    x 1.755570 0.000000 0.000000 
#    y 0.000000 1.851730 0.000000 
#    z 0.000000 0.000000 1.781010 
# 
# From -- ./inp_files/13437.got.cif
#   From: 2010.05.17/outbox.cif.g08.bks.cpg/sg43_7_cif.got.tgz:13437.got - 2010.06.03 19:21:55.
