data_PCOD9370694
_publ_section_title
;
Structure prediction by ZEFSAII (Michael W. Deem and Ramdas Pophale) SiO2 
 PCOD9370694
Probable space group: F D D 2
;
_chemical_formula_sum "Si O2"
_cell_formula_units_Z 120
_cell_length_a 25.176725
_cell_length_b 25.648938
_cell_length_c 9.694509
_cell_angle_alpha 90.000000
_cell_angle_beta 90.000000
_cell_angle_gamma 90.000000
_cell_volume 6260.289860
_symmetry_space_group_name_H-M "F D D 2"
_symmetry_group_IT_number 43
_symmetry_cell_setting 'orthorhombic'
loop_
_space_group_symop_operation_xyz
x,y,z
-x,-y,z
1/4-x,1/4+y,1/4+z
1/4+x,1/4-y,1/4+z
x,1/2+y,1/2+z
-x,1/2-y,1/2+z
1/4-x,3/4+y,3/4+z
1/4+x,3/4-y,3/4+z
1/2+x,y,1/2+z
1/2-x,-y,1/2+z
3/4-x,1/4+y,3/4+z
3/4+x,1/4-y,3/4+z
1/2+x,1/2+y,z
1/2-x,1/2-y,z
3/4-x,3/4+y,1/4+z
3/4+x,3/4-y,1/4+z
loop_
_atom_site_type_symbol
_atom_site_label
_atom_site_fract_x
_atom_site_fract_y
_atom_site_fract_z
Si Si1 0.750000 0.250000 0.424460
Si Si2 0.718944 0.951505 0.572179
Si Si3 0.411361 0.811102 0.537713
Si Si4 0.771616 0.562110 0.047530
Si Si5 0.313532 0.373396 0.631406
Si Si6 0.885399 0.972689 0.579280
Si Si7 0.892893 0.292413 0.083872
Si Si8 0.556476 0.896919 0.205636
O O1 0.801032 0.226950 0.343782
O O2 0.725910 0.198982 0.499520
O O3 0.680571 0.948455 0.440800
O O4 0.757496 0.901114 0.592753
O O5 0.682088 0.962622 0.704924
O O6 0.756962 0.001237 0.548169
O O7 0.462157 0.828600 0.450184
O O8 0.388794 0.762191 0.446466
O O9 0.363735 0.851388 0.525002
O O10 0.722912 0.594760 0.994850
O O11 0.821062 0.573088 0.946895
O O12 0.357799 0.418284 0.611717
O O13 0.339163 0.324247 0.551201
O O14 0.310691 0.353498 0.789443
O O15 0.871287 0.991568 0.424418
#
# Coordination Sequence:
#
# PCOD9370694 Si02
#       8
#     8  16  16  16  16  16  16  16
#     4  10  20  38  64  94 122 160 212 260 312 376
#     4  12  24  39  64  92 130 166 208 273 317 377
#     4  10  22  40  56  95 124 153 215 257 315 371
#     4  11  20  40  65  90 118 164 216 254 313 376
#     4  12  21  37  65  92 126 164 212 260 317 373
#     4  10  21  38  64  88 121 161 210 266 301 386
#     4  11  22  39  60  97 120 160 216 255 320 377
#     4  11  22  39  66  95 125 169 209 266 311 387
#
# _framework density 19.168443
#
# number of rings (size 3 to 8) (size 9 to 14) (size 15 to 20)
#    0.000    1.067    8.000    2.400    0.000    1.067 
#    0.000    0.000    0.000    3.200    0.000    0.000 
#    0.000    0.000    0.000    0.000    0.000    0.000 
#
# Total GULP energy -167178.520826 kJ/mol
# GULP energy per Si atom -5572.617361 kJ/mol
# Density = 1.912481 g / cm^3
# Si number density = 19.168443 Si / 1000 Ang^3
#
#
#
# Elastic Constant Matrix: (Units=GPa)
#
#
# Indices 1 2 3 4 5 6 
#
# 1 81.0468 15.3453 28.2665 0.0001 0.0001 0.0000
# 2 15.3453 40.6978 3.9031 -0.0013 0.0003 0.0003
# 3 28.2665 3.9031 80.5074 -0.0016 0.0009 0.0005
# 4 0.0001 -0.0013 -0.0016 8.1616 0.0006 0.0005
# 5 0.0001 0.0003 0.0009 0.0006 15.7194 -0.0003
# 6 0.0000 0.0003 0.0005 0.0005 -0.0003 32.7732
#
#
#
# Elastic Compliance Matrix: (Units=1/GPa)
#
#
# Indices 1 2 3 4 5 6 
#
# 1 0.015083 -0.005203 -0.005043 -0.000002 0.000000 0.000000
# 2 -0.005203 0.026481 0.000543 0.000004 -0.000001 0.000000
# 3 -0.005043 0.000543 0.014166 0.000003 -0.000001 0.000000
# 4 -0.000002 0.000004 0.000003 0.122525 -0.000005 -0.000002
# 5 0.000000 -0.000001 -0.000001 -0.000005 0.063616 0.000001
# 6 0.000000 0.000000 0.000000 -0.000002 0.000001 0.030513
#
#
# Mechanical properties :
#
#
# Convention : Reuss Voigt Hill
#
# Bulk Modulus (GPa) = 27.53128 33.03131 30.28129
# Shear Modulus (GPa) = 16.45290 21.64663 19.04977
#
# Velocity S-wave (km/s) = 2.93291 3.36413 3.15589
# Velocity P-wave (km/s) = 5.08559 5.68853 5.39549
#
# Compressibility (1/GPa) = 0.03632233
#
# Stress axis : x y z
#
# Youngs Moduli (GPa) = 66.30117 37.76267 70.59346
#
# Poissons Ratio (x) = 0.19649 0.35603
# Poissons Ratio (y) = 0.34499 -0.03834
# Poissons Ratio (z) = 0.33438 -0.02051
#
# Static dielectric constant tensor:
#      x y z
#    x 1.709650 0.000000 0.000000 
#    y 0.000000 1.712670 0.000000 
#    z 0.000000 0.000000 1.664940 
# 
# From -- ./inp_files/3908.got.cif
#   From: 2010.05.17/outbox.cif.g08.bks.cpg/sg43_2_cif.got.tgz:3908.got - 2010.06.03 19:21:55.
