data_PCOD9370773
_publ_section_title
;
Structure prediction by ZEFSAII (Michael W. Deem and Ramdas Pophale) SiO2 
 PCOD9370773
Probable space group: F D D 2
;
_chemical_formula_sum "Si O2"
_cell_formula_units_Z 104
_cell_length_a 7.494893
_cell_length_b 25.695912
_cell_length_c 22.781918
_cell_angle_alpha 90.000000
_cell_angle_beta 90.000000
_cell_angle_gamma 90.000000
_cell_volume 4387.526552
_symmetry_space_group_name_H-M "F D D 2"
_symmetry_group_IT_number 43
_symmetry_cell_setting 'orthorhombic'
loop_
_space_group_symop_operation_xyz
x,y,z
-x,-y,z
1/4-x,1/4+y,1/4+z
1/4+x,1/4-y,1/4+z
x,1/2+y,1/2+z
-x,1/2-y,1/2+z
1/4-x,3/4+y,3/4+z
1/4+x,3/4-y,3/4+z
1/2+x,y,1/2+z
1/2-x,-y,1/2+z
3/4-x,1/4+y,3/4+z
3/4+x,1/4-y,3/4+z
1/2+x,1/2+y,z
1/2-x,1/2-y,z
3/4-x,3/4+y,1/4+z
3/4+x,3/4-y,1/4+z
loop_
_atom_site_type_symbol
_atom_site_label
_atom_site_fract_x
_atom_site_fract_y
_atom_site_fract_z
Si Si1 0.285463 0.190761 0.104970
Si Si2 0.352450 0.934564 0.224508
Si Si3 0.227388 0.421482 0.959053
Si Si4 0.042309 0.060107 0.073173
Si Si5 0.519410 0.292467 0.945161
Si Si6 0.640027 0.588516 0.317739
Si Si7 0.250000 0.250000 0.651710
O O1 0.250000 0.250000 0.123567
O O2 0.385374 0.161106 0.156217
O O3 0.094070 0.168728 0.088869
O O4 0.398724 0.192300 0.044888
O O5 0.327809 0.873778 0.210912
O O6 0.558286 0.945109 0.204444
O O7 0.228532 0.979184 0.197787
O O8 0.152144 0.478307 0.944166
O O9 0.330697 0.421332 0.020086
O O10 0.146595 0.060761 0.134727
O O11 0.871584 0.099214 0.072801
O O12 0.000000 0.000000 0.061402
O O13 0.617118 0.318068 0.001126
O O14 0.535508 0.549256 0.359720
#
# Coordination Sequence:
#
# PCOD9370773 Si02
#       7
#    16  16  16  16  16  16   8
#     4  11  18  43  72  89 124 186 233 256 327 435
#     4  10  20  39  72  97 121 178 231 277 329 403
#     4  12  25  42  67 101 140 177 223 279 350 408
#     4  12  28  42  67 101 140 184 222 285 361 413
#     4  10  21  44  69  97 129 173 234 276 335 412
#     4  11  24  46  70  98 131 182 233 283 337 415
#     4  12  28  42  68 106 138 172 232 296 340 398
#
# _framework density 23.70356
#
# number of rings (size 3 to 8) (size 9 to 14) (size 15 to 20)
#    0.000    0.923    7.692    1.385    3.231    1.231 
#    0.000    1.538    0.000    0.000    0.000    0.000 
#    0.000    0.000    0.000    0.000    0.000    0.000 
#
# Total GULP energy -145461.236025 kJ/mol
# GULP energy per Si atom -5594.662924 kJ/mol
# Density = 2.364961 g / cm^3
# Si number density = 23.703560 Si / 1000 Ang^3
#
#
#
# Elastic Constant Matrix: (Units=GPa)
#
#
# Indices 1 2 3 4 5 6 
#
# 1 32.3213 11.1325 32.5478 0.0000 0.0000 0.0000
# 2 11.1325 172.9898 44.6123 0.0000 0.0000 0.0000
# 3 32.5478 44.6123 152.9350 0.0000 0.0000 0.0000
# 4 0.0000 0.0000 0.0000 25.0175 0.0000 0.0000
# 5 0.0000 0.0000 0.0000 0.0000 17.5431 0.0000
# 6 0.0000 0.0000 0.0000 0.0000 0.0000 23.8477
#
#
#
# Elastic Compliance Matrix: (Units=1/GPa)
#
#
# Indices 1 2 3 4 5 6 
#
# 1 0.039405 -0.000403 -0.008268 0.000000 0.000000 0.000000
# 2 -0.000403 0.006255 -0.001739 0.000000 0.000000 0.000000
# 3 -0.008268 -0.001739 0.008806 0.000000 0.000000 0.000000
# 4 0.000000 0.000000 0.000000 0.039972 0.000000 0.000000
# 5 0.000000 0.000000 0.000000 0.000000 0.057002 0.000000
# 6 0.000000 0.000000 0.000000 0.000000 0.000000 0.041933
#
#
# Mechanical properties :
#
#
# Convention : Reuss Voigt Hill
#
# Bulk Modulus (GPa) = 29.72303 59.42573 44.57438
# Shear Modulus (GPa) = 22.18194 31.27857 26.73026
#
# Velocity S-wave (km/s) = 3.06241 3.63653 3.36175
# Velocity P-wave (km/s) = 5.00712 6.53891 5.82359
#
# Compressibility (1/GPa) = 0.03364395
#
# Stress axis : x y z
#
# Youngs Moduli (GPa) = 25.37769 159.87033 113.56349
#
# Poissons Ratio (x) = 0.06451 0.93899
# Poissons Ratio (y) = 0.01024 0.19746
# Poissons Ratio (z) = 0.20983 0.27798
#
# Static dielectric constant tensor:
#      x y z
#    x 1.935600 0.000000 0.000000 
#    y 0.000000 2.083110 0.000000 
#    z 0.000000 0.000000 1.827660 
# 
# From -- ./inp_files/16551.got.cif
#   From: 2010.05.17/outbox.cif.g08.bks.cpg/sg43_9_cif.got.tgz:16551.got - 2010.06.03 19:21:55.
