data_PCOD9370975
_publ_section_title
;
Structure prediction by ZEFSAII (Michael W. Deem and Ramdas Pophale) SiO2 
 PCOD9370975
Probable space group: F D D 2
;
_chemical_formula_sum "Si O2"
_cell_formula_units_Z 88
_cell_length_a 19.306158
_cell_length_b 8.733513
_cell_length_c 26.247155
_cell_angle_alpha 90.000000
_cell_angle_beta 90.000000
_cell_angle_gamma 90.000000
_cell_volume 4425.548077
_symmetry_space_group_name_H-M "F D D 2"
_symmetry_group_IT_number 43
_symmetry_cell_setting 'orthorhombic'
loop_
_space_group_symop_operation_xyz
x,y,z
-x,-y,z
1/4-x,1/4+y,1/4+z
1/4+x,1/4-y,1/4+z
x,1/2+y,1/2+z
-x,1/2-y,1/2+z
1/4-x,3/4+y,3/4+z
1/4+x,3/4-y,3/4+z
1/2+x,y,1/2+z
1/2-x,-y,1/2+z
3/4-x,1/4+y,3/4+z
3/4+x,1/4-y,3/4+z
1/2+x,1/2+y,z
1/2-x,1/2-y,z
3/4-x,3/4+y,1/4+z
3/4+x,3/4-y,1/4+z
loop_
_atom_site_type_symbol
_atom_site_label
_atom_site_fract_x
_atom_site_fract_y
_atom_site_fract_z
Si Si1 0.820304 0.110023 0.219410
Si Si2 0.000000 0.000000 0.562707
Si Si3 0.660082 0.063165 0.197232
Si Si4 0.338241 0.948340 0.383448
Si Si5 0.924100 0.575427 0.293636
Si Si6 0.809799 0.626242 0.483125
O O1 0.807839 0.182907 0.275160
O O2 0.743820 0.059463 0.201211
O O3 0.852339 0.254828 0.188845
O O4 0.869824 0.968371 0.224307
O O5 0.029676 0.867309 0.597045
O O6 0.631153 0.947156 0.155205
O O7 0.623223 0.005352 0.249588
O O8 0.387976 0.051045 0.348184
O O9 0.302175 0.031875 0.430743
O O10 0.932856 0.751897 0.277602
O O11 0.000000 0.500000 0.293027
O O12 0.750000 0.750000 0.491778
#
# Coordination Sequence:
#
# PCOD9370975 Si02
#       6
#    16   8  16  16  16  16
#     4  10  20  45  62  92 132 170 207 263 337 385
#     4  10  22  42  72  90 122 174 214 264 322 392
#     4   9  21  41  68  90 129 169 207 267 327 383
#     4  11  24  41  68  98 121 172 224 262 320 394
#     4  11  23  42  64  92 132 171 215 266 322 383
#     4  11  27  41  64  96 134 171 211 275 327 384
#
# _framework density 19.884542
#
# number of rings (size 3 to 8) (size 9 to 14) (size 15 to 20)
#    0.000    1.818    3.636    1.091   10.182    3.636 
#    0.000    0.000    0.000    0.000    0.000    0.000 
#    0.000    0.000    0.000    0.000    0.000    0.000 
#
# Total GULP energy -122800.793341 kJ/mol
# GULP energy per Si atom -5581.854243 kJ/mol
# Density = 1.983928 g / cm^3
# Si number density = 19.884542 Si / 1000 Ang^3
#
#
#
# Elastic Constant Matrix: (Units=GPa)
#
#
# Indices 1 2 3 4 5 6 
#
# 1 46.8169 27.9634 -7.0779 0.0000 0.0000 0.0000
# 2 27.9634 106.0571 20.5785 0.0000 0.0000 0.0000
# 3 -7.0779 20.5785 67.5761 0.0000 0.0000 0.0000
# 4 0.0000 0.0000 0.0000 29.3933 0.0000 0.0000
# 5 0.0000 0.0000 0.0000 0.0000 3.7217 0.0000
# 6 0.0000 0.0000 0.0000 0.0000 0.0000 45.1145
#
#
#
# Elastic Compliance Matrix: (Units=1/GPa)
#
#
# Indices 1 2 3 4 5 6 
#
# 1 0.027038 -0.008161 0.005317 0.000000 0.000000 0.000000
# 2 -0.008161 0.012484 -0.004656 0.000000 0.000000 0.000000
# 3 0.005317 -0.004656 0.016773 0.000000 0.000000 0.000000
# 4 0.000000 0.000000 0.000000 0.034021 0.000000 0.000000
# 5 0.000000 0.000000 0.000000 0.000000 0.268697 0.000000
# 6 0.000000 0.000000 0.000000 0.000000 0.000000 0.022166
#
#
# Mechanical properties :
#
#
# Convention : Reuss Voigt Hill
#
# Bulk Modulus (GPa) = 24.21600 33.70869 28.96234
# Shear Modulus (GPa) = 12.19679 27.57829 19.88754
#
# Velocity S-wave (km/s) = 2.47934 3.72818 3.16595
# Velocity P-wave (km/s) = 4.51674 5.95999 5.28783
#
# Compressibility (1/GPa) = 0.04129501
#
# Stress axis : x y z
#
# Youngs Moduli (GPa) = 36.98513 80.10229 59.61952
#
# Poissons Ratio (x) = 0.65368 -0.31700
# Poissons Ratio (y) = 0.30182 0.27761
# Poissons Ratio (z) = -0.19665 0.37299
#
# Static dielectric constant tensor:
#      x y z
#    x 1.707000 0.000000 0.000000 
#    y 0.000000 1.683370 0.000000 
#    z 0.000000 0.000000 1.705840 
# 
# From -- ./inp_files/20193.got.cif
#   From: 2010.05.17/outbox.cif.g08.bks.cpg/sg43_11_cif.got.tgz:20193.got - 2010.06.03 19:21:55.
