data_PCOD9370721
_publ_section_title
;
Structure prediction by ZEFSAII (Michael W. Deem and Ramdas Pophale) SiO2 
 PCOD9370721
Probable space group: F D D 2
;
_chemical_formula_sum "Si O2"
_cell_formula_units_Z 88
_cell_length_a 11.232127
_cell_length_b 26.621708
_cell_length_c 13.634385
_cell_angle_alpha 90.000000
_cell_angle_beta 90.000000
_cell_angle_gamma 90.000000
_cell_volume 4076.932059
_symmetry_space_group_name_H-M "F D D 2"
_symmetry_group_IT_number 43
_symmetry_cell_setting 'orthorhombic'
loop_
_space_group_symop_operation_xyz
x,y,z
-x,-y,z
1/4-x,1/4+y,1/4+z
1/4+x,1/4-y,1/4+z
x,1/2+y,1/2+z
-x,1/2-y,1/2+z
1/4-x,3/4+y,3/4+z
1/4+x,3/4-y,3/4+z
1/2+x,y,1/2+z
1/2-x,-y,1/2+z
3/4-x,1/4+y,3/4+z
3/4+x,1/4-y,3/4+z
1/2+x,1/2+y,z
1/2-x,1/2-y,z
3/4-x,3/4+y,1/4+z
3/4+x,3/4-y,1/4+z
loop_
_atom_site_type_symbol
_atom_site_label
_atom_site_fract_x
_atom_site_fract_y
_atom_site_fract_z
Si Si1 0.391217 0.715430 0.036130
Si Si2 0.232051 0.652873 0.344139
Si Si3 0.969120 0.114216 0.813069
Si Si4 0.775832 0.855894 0.275288
Si Si5 0.000000 0.500000 0.962793
Si Si6 0.874634 0.568502 0.722392
O O1 0.472500 0.666894 0.029933
O O2 0.363524 0.740349 0.141675
O O3 0.433356 0.763132 0.973380
O O4 0.261183 0.693418 0.004763
O O5 0.247322 0.662360 0.459940
O O6 0.247998 0.701376 0.278911
O O7 0.312547 0.608054 0.296122
O O8 0.094786 0.638660 0.335971
O O9 0.863022 0.154601 0.796520
O O10 0.938777 0.087631 0.917037
O O11 0.862493 0.838675 0.361967
#
# Coordination Sequence:
#
# PCOD9370721 Si02
#       6
#    16  16  16  16   8  16
#     4  10  21  40  67 105 117 164 234 284 304 381
#     4  11  22  44  63  98 127 178 206 280 330 391
#     4  10  24  39  61  86 142 161 202 258 355 382
#     4  11  20  43  65  92 125 180 206 275 329 395
#     4  10  20  38  70  94 126 158 238 274 306 386
#     4  10  21  39  72  90 124 164 233 269 312 381
#
# _framework density 21.584859000000002
#
# number of rings (size 3 to 8) (size 9 to 14) (size 15 to 20)
#    0.000    1.818    3.636    2.182    0.000    0.000 
#    6.545    3.636    0.000    0.000    0.000    0.000 
#    0.000    0.000    0.000    0.000    0.000    0.000 
#
# Total GULP energy -122589.875740 kJ/mol
# GULP energy per Si atom -5572.267079 kJ/mol
# Density = 2.153573 g / cm^3
# Si number density = 21.584859 Si / 1000 Ang^3
#
#
#
# Elastic Constant Matrix: (Units=GPa)
#
#
# Indices 1 2 3 4 5 6 
#
# 1 45.5372 13.7819 22.2907 0.0000 0.0000 0.0000
# 2 13.7819 121.4556 51.3181 0.0000 0.0000 0.0000
# 3 22.2907 51.3181 192.0237 0.0000 0.0000 0.0000
# 4 0.0000 0.0000 0.0000 25.2078 0.0000 0.0000
# 5 0.0000 0.0000 0.0000 0.0000 32.9339 0.0000
# 6 0.0000 0.0000 0.0000 0.0000 0.0000 9.9830
#
#
#
# Elastic Compliance Matrix: (Units=1/GPa)
#
#
# Indices 1 2 3 4 5 6 
#
# 1 0.023595 -0.001714 -0.002281 0.000000 0.000000 0.000000
# 2 -0.001714 0.009406 -0.002315 0.000000 0.000000 0.000000
# 3 -0.002281 -0.002315 0.006091 0.000000 0.000000 0.000000
# 4 0.000000 0.000000 0.000000 0.039670 0.000000 0.000000
# 5 0.000000 0.000000 0.000000 0.000000 0.030364 0.000000
# 6 0.000000 0.000000 0.000000 0.000000 0.000000 0.100171
#
#
# Mechanical properties :
#
#
# Convention : Reuss Voigt Hill
#
# Bulk Modulus (GPa) = 37.77373 59.31087 48.54230
# Shear Modulus (GPa) = 21.66935 31.73332 26.70133
#
# Velocity S-wave (km/s) = 3.17190 3.83843 3.52097
# Velocity P-wave (km/s) = 5.56351 6.86895 6.25040
#
# Compressibility (1/GPa) = 0.02647342
#
# Stress axis : x y z
#
# Youngs Moduli (GPa) = 42.38132 106.31538 164.17363
#
# Poissons Ratio (x) = 0.18218 0.37449
# Poissons Ratio (y) = 0.07263 0.38003
# Poissons Ratio (z) = 0.09667 0.24610
#
# Static dielectric constant tensor:
#      x y z
#    x 1.815710 0.000000 0.000000 
#    y 0.000000 1.788190 0.000000 
#    z 0.000000 0.000000 1.943850 
# 
# From -- ./inp_files/9673.got.cif
#   From: 2010.05.17/outbox.cif.g08.bks.cpg/sg43_5_cif.got.tgz:9673.got - 2010.06.03 19:21:55.
