data_PCOD9370483
_publ_section_title
;
Structure prediction by ZEFSAII (Michael W. Deem and Ramdas Pophale) SiO2 
 PCOD9370483
Probable space group: F D D 2
;
_chemical_formula_sum "Si O2"
_cell_formula_units_Z 112
_cell_length_a 12.661057
_cell_length_b 23.700994
_cell_length_c 15.808066
_cell_angle_alpha 90.000000
_cell_angle_beta 90.000000
_cell_angle_gamma 90.000000
_cell_volume 4743.678691
_symmetry_space_group_name_H-M "F D D 2"
_symmetry_group_IT_number 43
_symmetry_cell_setting 'orthorhombic'
loop_
_space_group_symop_operation_xyz
x,y,z
-x,-y,z
1/4-x,1/4+y,1/4+z
1/4+x,1/4-y,1/4+z
x,1/2+y,1/2+z
-x,1/2-y,1/2+z
1/4-x,3/4+y,3/4+z
1/4+x,3/4-y,3/4+z
1/2+x,y,1/2+z
1/2-x,-y,1/2+z
3/4-x,1/4+y,3/4+z
3/4+x,1/4-y,3/4+z
1/2+x,1/2+y,z
1/2-x,1/2-y,z
3/4-x,3/4+y,1/4+z
3/4+x,3/4-y,1/4+z
loop_
_atom_site_type_symbol
_atom_site_label
_atom_site_fract_x
_atom_site_fract_y
_atom_site_fract_z
Si Si1 0.962888 0.257714 0.088900
Si Si2 0.027935 0.156263 0.993073
Si Si3 0.271644 0.387953 0.048445
Si Si4 0.356585 0.619212 0.283725
Si Si5 0.946554 0.062447 0.121102
Si Si6 0.817749 0.327630 0.195153
Si Si7 0.124042 0.747487 0.730044
O O1 0.962060 0.213119 0.013340
O O2 0.056299 0.236088 0.148082
O O3 0.860932 0.271145 0.147683
O O4 0.981860 0.321494 0.057818
O O5 0.155758 0.160496 0.004676
O O6 0.000619 0.112931 0.068621
O O7 0.993890 0.134731 0.899909
O O8 0.158369 0.399947 0.007571
O O9 0.333054 0.444114 0.017822
O O10 0.420640 0.588215 0.210493
O O11 0.291895 0.670725 0.245090
O O12 0.428241 0.622136 0.366821
O O13 0.854745 0.046961 0.054448
O O14 0.000000 0.000000 0.132217
O O15 0.250000 0.750000 0.711864
#
# Coordination Sequence:
#
# PCOD9370483 Si02
#       7
#    16  16  16  16  16  16  16
#     4   9  23  38  63  97 128 171 227 268 339 408
#     4  12  23  37  64 101 128 172 221 290 342 403
#     4  11  22  38  65  96 133 169 229 277 345 398
#     4  10  22  45  64  92 134 183 220 273 339 405
#     4  11  23  40  66  94 133 173 220 277 346 401
#     4   9  22  42  66  91 131 183 218 279 331 409
#     4  10  19  40  60  95 134 168 217 284 332 397
#
# _framework density 23.610368000000001
#
# number of rings (size 3 to 8) (size 9 to 14) (size 15 to 20)
#    0.857    0.857    2.857    2.571    0.000    2.286 
#    0.000    0.714    0.000    1.714    0.000    0.000 
#    0.000    0.000    0.000    0.000    0.000    0.000 
#
# Total GULP energy -155923.828535 kJ/mol
# GULP energy per Si atom -5568.708162 kJ/mol
# Density = 2.355663 g / cm^3
# Si number density = 23.610368 Si / 1000 Ang^3
#
#
#
# Elastic Constant Matrix: (Units=GPa)
#
#
# Indices 1 2 3 4 5 6 
#
# 1 40.8975 10.1993 20.7977 0.0000 0.0000 0.0000
# 2 10.1993 48.4695 -6.0942 0.0000 0.0000 0.0000
# 3 20.7977 -6.0942 123.4801 0.0000 0.0000 0.0000
# 4 0.0000 0.0000 0.0000 23.4436 0.0000 0.0000
# 5 0.0000 0.0000 0.0000 0.0000 -8.2356 0.0000
# 6 0.0000 0.0000 0.0000 0.0000 0.0000 28.6837
#
#
#
# Elastic Compliance Matrix: (Units=1/GPa)
#
#
# Indices 1 2 3 4 5 6 
#
# 1 0.028754 -0.006701 -0.005174 0.000000 0.000000 0.000000
# 2 -0.006701 0.022322 0.002230 0.000000 0.000000 0.000000
# 3 -0.005174 0.002230 0.009080 0.000000 0.000000 0.000000
# 4 0.000000 0.000000 0.000000 0.042656 0.000000 0.000000
# 5 0.000000 0.000000 0.000000 0.000000 -0.121423 0.000000
# 6 0.000000 0.000000 0.000000 0.000000 0.000000 0.034863
#
#
# Mechanical properties :
#
#
# Convention : Reuss Voigt Hill
#
# Bulk Modulus (GPa) = 24.46978 29.18365 26.82672
# Shear Modulus (GPa) = 101.70538 21.30795 61.50667
#
# Velocity S-wave (km/s) = 6.57040 3.00739 5.10953
# Velocity P-wave (km/s) = 8.24297 4.94435 6.79681
#
# Compressibility (1/GPa) = 0.04086673
#
# Stress axis : x y z
#
# Youngs Moduli (GPa) = 34.77837 44.79876 110.13281
#
# Poissons Ratio (x) = 0.30020 0.56979
# Poissons Ratio (y) = 0.23305 -0.24563
# Poissons Ratio (z) = 0.17993 -0.09992
#
# Static dielectric constant tensor:
#      x y z
#    x 2.046800 0.000000 0.000000 
#    y 0.000000 1.989610 0.000000 
#    z 0.000000 0.000000 1.938340 
# 
# From -- ./inp_files/10281.got.cif
#   From: 2010.05.17/outbox.cif.g08.bks.cpg/sg43_6_cif.got.tgz:10281.got - 2010.06.03 19:21:55.
