data_PCOD9370323
_publ_section_title
;
Structure prediction by ZEFSAII (Michael W. Deem and Ramdas Pophale) SiO2 
 PCOD9370323
Probable space group: F D D 2
;
_chemical_formula_sum "Si O2"
_cell_formula_units_Z 112
_cell_length_a 23.742365
_cell_length_b 7.321380
_cell_length_c 24.334133
_cell_angle_alpha 90.000000
_cell_angle_beta 90.000000
_cell_angle_gamma 90.000000
_cell_volume 4229.926326
_symmetry_space_group_name_H-M "F D D 2"
_symmetry_group_IT_number 43
_symmetry_cell_setting 'orthorhombic'
loop_
_space_group_symop_operation_xyz
x,y,z
-x,-y,z
1/4-x,1/4+y,1/4+z
1/4+x,1/4-y,1/4+z
x,1/2+y,1/2+z
-x,1/2-y,1/2+z
1/4-x,3/4+y,3/4+z
1/4+x,3/4-y,3/4+z
1/2+x,y,1/2+z
1/2-x,-y,1/2+z
3/4-x,1/4+y,3/4+z
3/4+x,1/4-y,3/4+z
1/2+x,1/2+y,z
1/2-x,1/2-y,z
3/4-x,3/4+y,1/4+z
3/4+x,3/4-y,1/4+z
loop_
_atom_site_type_symbol
_atom_site_label
_atom_site_fract_x
_atom_site_fract_y
_atom_site_fract_z
Si Si1 0.314899 0.765842 0.577580
Si Si2 0.092706 0.833773 0.710145
Si Si3 0.000000 0.500000 0.805830
Si Si4 0.683844 0.411903 0.153983
Si Si5 0.069216 0.828315 0.590275
Si Si6 0.470541 0.802031 0.483300
Si Si7 0.325307 0.854890 0.963231
Si Si8 0.500000 0.000000 0.622898
O O1 0.250000 0.750000 0.592799
O O2 0.316351 0.836699 0.515493
O O3 0.365873 0.622564 0.578071
O O4 0.337669 0.901197 0.625424
O O5 0.063814 0.895657 0.653000
O O6 0.158110 0.895086 0.712509
O O7 0.086528 0.614619 0.717303
O O8 0.952146 0.439281 0.848526
O O9 0.965386 0.637602 0.765615
O O10 0.739422 0.461101 0.188106
O O11 0.636416 0.325451 0.193691
O O12 0.036546 0.845247 0.532786
O O13 0.048942 0.614588 0.594633
O O14 0.500000 0.000000 0.496070
O O15 0.284463 0.887556 0.911670
#
# Coordination Sequence:
#
# PCOD9370323 Si02
#       8
#    16  16   8  16  16  16  16   8
#     4  11  21  35  61  93 126 160 206 272 337 384
#     4  10  19  36  59  92 122 162 210 268 325 385
#     4  11  26  42  60  94 132 172 215 270 338 404
#     4  12  22  39  64  91 130 169 212 270 338 393
#     4  10  19  33  57  88 123 151 209 264 314 373
#     4  11  20  33  62  95 117 153 215 278 320 378
#     4  10  20  37  62  89 124 164 215 267 321 386
#     4   9  16  30  56  96 110 144 201 274 302 356
#
# _framework density 26.478000999999999
#
# number of rings (size 3 to 8) (size 9 to 14) (size 15 to 20)
#    0.000    1.429    6.429    1.286    0.000    1.143 
#    0.000    4.286    7.857    0.000    0.000    0.000 
#    0.000    0.000    0.000    0.000    0.000    0.000 
#
# Total GULP energy -155992.889596 kJ/mol
# GULP energy per Si atom -5571.174628 kJ/mol
# Density = 2.641774 g / cm^3
# Si number density = 26.478001 Si / 1000 Ang^3
#
#
#
# Elastic Constant Matrix: (Units=GPa)
#
#
# Indices 1 2 3 4 5 6 
#
# 1 209.4585 36.7782 53.5780 0.0000 0.0000 0.0000
# 2 36.7782 43.2413 12.9976 0.0002 0.0000 -0.0001
# 3 53.5780 12.9976 171.6972 0.0000 0.0000 0.0000
# 4 0.0000 0.0002 0.0000 12.9474 0.0000 0.0000
# 5 0.0000 0.0000 0.0000 0.0000 36.4846 0.0000
# 6 0.0000 -0.0001 0.0000 0.0000 0.0000 29.7424
#
#
#
# Elastic Compliance Matrix: (Units=1/GPa)
#
#
# Indices 1 2 3 4 5 6 
#
# 1 0.005974 -0.004626 -0.001514 0.000000 0.000000 0.000000
# 2 -0.004626 0.027247 -0.000619 0.000000 0.000000 0.000000
# 3 -0.001514 -0.000619 0.006343 0.000000 0.000000 0.000000
# 4 0.000000 0.000000 0.000000 0.077236 0.000000 0.000000
# 5 0.000000 0.000000 0.000000 0.000000 0.027409 0.000000
# 6 0.000000 0.000000 0.000000 0.000000 0.000000 0.033622
#
#
# Mechanical properties :
#
#
# Convention : Reuss Voigt Hill
#
# Bulk Modulus (GPa) = 38.39342 70.12271 54.25807
# Shear Modulus (GPa) = 24.99627 37.23775 31.11701
#
# Velocity S-wave (km/s) = 3.07586 3.75422 3.43184
# Velocity P-wave (km/s) = 5.21019 6.73299 6.01994
#
# Compressibility (1/GPa) = 0.02604613
#
# Stress axis : x y z
#
# Youngs Moduli (GPa) = 167.40067 36.70189 157.64195
#
# Poissons Ratio (x) = 0.16977 0.23866
# Poissons Ratio (y) = 0.77436 0.09760
# Poissons Ratio (z) = 0.25343 0.02272
#
# Static dielectric constant tensor:
#      x y z
#    x 2.136530 0.000000 0.000000 
#    y 0.000000 2.378370 0.000000 
#    z 0.000000 0.000000 2.133670 
# 
# From -- ./inp_files/22439.got.cif
#   From: 2010.05.17/outbox.cif.g08.bks.cpg/sg43_12_cif.got.tgz:22439.got - 2010.06.03 19:21:55.
