data_PCOD9371164
_publ_section_title
;
Structure prediction by ZEFSAII (Michael W. Deem and Ramdas Pophale) SiO2 
 PCOD9371164
Probable space group: F D D 2
;
_chemical_formula_sum "Si O2"
_cell_formula_units_Z 128
_cell_length_a 23.857803
_cell_length_b 10.986670
_cell_length_c 23.562017
_cell_angle_alpha 90.000000
_cell_angle_beta 90.000000
_cell_angle_gamma 90.000000
_cell_volume 6176.024260
_symmetry_space_group_name_H-M "F D D 2"
_symmetry_group_IT_number 43
_symmetry_cell_setting 'orthorhombic'
loop_
_space_group_symop_operation_xyz
x,y,z
-x,-y,z
1/4-x,1/4+y,1/4+z
1/4+x,1/4-y,1/4+z
x,1/2+y,1/2+z
-x,1/2-y,1/2+z
1/4-x,3/4+y,3/4+z
1/4+x,3/4-y,3/4+z
1/2+x,y,1/2+z
1/2-x,-y,1/2+z
3/4-x,1/4+y,3/4+z
3/4+x,1/4-y,3/4+z
1/2+x,1/2+y,z
1/2-x,1/2-y,z
3/4-x,3/4+y,1/4+z
3/4+x,3/4-y,1/4+z
loop_
_atom_site_type_symbol
_atom_site_label
_atom_site_fract_x
_atom_site_fract_y
_atom_site_fract_z
Si Si1 0.070088 0.306624 0.554920
Si Si2 0.007676 0.355884 0.323883
Si Si3 0.839569 0.529903 0.488805
Si Si4 0.249756 0.102386 0.197148
Si Si5 0.159072 0.447045 0.998413
Si Si6 0.122606 0.707943 0.435425
Si Si7 0.565976 0.527652 0.573335
Si Si8 0.012498 0.365574 0.671111
O O1 0.123909 0.371909 0.524746
O O2 0.079993 0.171059 0.578559
O O3 0.037854 0.372614 0.607358
O O4 0.027550 0.296749 0.502507
O O5 0.049057 0.288000 0.282332
O O6 0.000000 0.500000 0.315262
O O7 0.031269 0.339130 0.387028
O O8 0.946950 0.305790 0.305155
O O9 0.877930 0.423429 0.465040
O O10 0.799058 0.560917 0.435076
O O11 0.250000 0.250000 0.206201
O O12 0.306094 0.026859 0.183035
O O13 0.097384 0.487776 0.016238
O O14 0.152929 0.313144 0.971682
O O15 0.191690 0.538218 0.956350
O O16 0.156096 0.708755 0.376560
O O17 0.500000 0.500000 0.572959
O O18 0.000000 0.500000 0.693906
#
# Coordination Sequence:
#
# PCOD9371164 Si02
#       8
#    16  16  16  16  16  16  16  16
#     4  12  25  47  69 103 146 185 243 299 364 439
#     4  10  21  40  66  99 133 178 231 286 351 427
#     4  11  25  41  72 104 138 191 237 296 361 432
#     4  11  23  43  65 102 139 176 231 298 357 423
#     4  11  23  44  70  97 138 188 231 293 358 425
#     4  12  23  43  69 104 138 182 233 296 358 428
#     4  12  26  45  71 103 140 187 243 293 358 438
#     4  11  25  45  69 100 143 188 237 297 360 433
#
# _framework density 20.725306
#
# number of rings (size 3 to 8) (size 9 to 14) (size 15 to 20)
#    0.000    0.750    5.000    2.625    1.750    2.000 
#    0.000    0.000    0.000    0.000    0.000    0.000 
#    0.000    0.000    0.000    0.000    0.000    0.000 
#
# Total GULP energy -178224.362689 kJ/mol
# GULP energy per Si atom -5569.511334 kJ/mol
# Density = 2.067813 g / cm^3
# Si number density = 20.725306 Si / 1000 Ang^3
#
#
#
# Elastic Constant Matrix: (Units=GPa)
#
#
# Indices 1 2 3 4 5 6 
#
# 1 112.5978 16.3297 48.9253 0.0000 0.0000 0.0000
# 2 16.3297 69.4237 10.9976 0.0000 0.0000 0.0000
# 3 48.9253 10.9976 75.3542 0.0000 0.0000 0.0000
# 4 0.0000 0.0000 0.0000 23.2191 0.0000 0.0000
# 5 0.0000 0.0000 0.0000 0.0000 16.1688 0.0000
# 6 0.0000 0.0000 0.0000 0.0000 0.0000 20.4135
#
#
#
# Elastic Compliance Matrix: (Units=1/GPa)
#
#
# Indices 1 2 3 4 5 6 
#
# 1 0.012565 -0.001703 -0.007910 0.000000 0.000000 0.000000
# 2 -0.001703 0.014976 -0.001080 0.000000 0.000000 0.000000
# 3 -0.007910 -0.001080 0.018564 0.000000 0.000000 0.000000
# 4 0.000000 0.000000 0.000000 0.043068 0.000000 0.000000
# 5 0.000000 0.000000 0.000000 0.000000 0.061847 0.000000
# 6 0.000000 0.000000 0.000000 0.000000 0.000000 0.048987
#
#
# Mechanical properties :
#
#
# Convention : Reuss Voigt Hill
#
# Bulk Modulus (GPa) = 40.45326 45.54231 42.99778
# Shear Modulus (GPa) = 21.77398 24.03516 22.90457
#
# Velocity S-wave (km/s) = 3.24481 3.40913 3.32799
# Velocity P-wave (km/s) = 5.79651 6.12521 5.96313
#
# Compressibility (1/GPa) = 0.02471989
#
# Stress axis : x y z
#
# Youngs Moduli (GPa) = 79.58696 66.77398 53.86838
#
# Poissons Ratio (x) = 0.11368 0.42607
# Poissons Ratio (y) = 0.13550 0.05819
# Poissons Ratio (z) = 0.62950 0.07214
#
# Static dielectric constant tensor:
#      x y z
#    x 1.919380 0.000000 0.000000 
#    y 0.000000 1.770140 0.000000 
#    z 0.000000 0.000000 1.756880 
# 
# From -- ./inp_files/22668.got.cif
#   From: 2010.05.17/outbox.cif.g08.bks.cpg/sg43_12_cif.got.tgz:22668.got - 2010.06.03 19:21:55.
