data_PCOD9371601
_publ_section_title
;
Structure prediction by ZEFSAII (Michael W. Deem and Ramdas Pophale) SiO2 
 PCOD9371601
Probable space group: F D D 2
;
_chemical_formula_sum "Si O2"
_cell_formula_units_Z 120
_cell_length_a 10.335885
_cell_length_b 26.334312
_cell_length_c 20.488415
_cell_angle_alpha 90.000000
_cell_angle_beta 90.000000
_cell_angle_gamma 90.000000
_cell_volume 5576.709315
_symmetry_space_group_name_H-M "F D D 2"
_symmetry_group_IT_number 43
_symmetry_cell_setting 'orthorhombic'
loop_
_space_group_symop_operation_xyz
x,y,z
-x,-y,z
1/4-x,1/4+y,1/4+z
1/4+x,1/4-y,1/4+z
x,1/2+y,1/2+z
-x,1/2-y,1/2+z
1/4-x,3/4+y,3/4+z
1/4+x,3/4-y,3/4+z
1/2+x,y,1/2+z
1/2-x,-y,1/2+z
3/4-x,1/4+y,3/4+z
3/4+x,1/4-y,3/4+z
1/2+x,1/2+y,z
1/2-x,1/2-y,z
3/4-x,3/4+y,1/4+z
3/4+x,3/4-y,1/4+z
loop_
_atom_site_type_symbol
_atom_site_label
_atom_site_fract_x
_atom_site_fract_y
_atom_site_fract_z
Si Si1 0.500000 0.500000 0.941790
Si Si2 0.835612 0.625317 0.372537
Si Si3 0.211708 0.992547 0.848336
Si Si4 0.656018 0.392189 0.554086
Si Si5 0.367604 0.211549 0.976869
Si Si6 0.158674 0.708163 0.186691
Si Si7 0.881526 0.342640 0.766051
Si Si8 0.111447 0.354982 0.857784
O O1 0.605136 0.523376 0.891420
O O2 0.426133 0.540909 0.985539
O O3 0.829223 0.565286 0.355797
O O4 0.717444 0.644751 0.326197
O O5 0.845036 0.628082 0.451592
O O6 0.971882 0.648311 0.350197
O O7 0.216935 0.010370 0.774397
O O8 0.341335 0.004789 0.885090
O O9 0.672072 0.338821 0.516472
O O10 0.665371 0.434322 0.497784
O O11 0.513885 0.391740 0.588260
O O12 0.250000 0.250000 0.969408
O O13 0.411669 0.190543 0.908256
O O14 0.250000 0.750000 0.219696
O O15 0.186979 0.657251 0.143344
O O16 0.024102 0.342143 0.796184
#
# Coordination Sequence:
#
# PCOD9371601 Si02
#       8
#     8  16  16  16  16  16  16  16
#     4  10  22  42  72  90 136 182 238 278 352 424
#     4  11  25  44  75  99 141 187 249 288 363 435
#     4  11  20  41  72  99 129 187 242 286 340 446
#     4  11  24  43  69 105 139 184 240 307 347 432
#     4  11  21  42  68  96 136 179 235 289 354 414
#     4  11  25  41  69 100 143 184 236 287 373 430
#     4  11  26  47  69 103 144 191 231 297 368 436
#     4  11  27  43  70 104 148 181 237 305 365 424
#
# _framework density 21.518066999999999
#
# number of rings (size 3 to 8) (size 9 to 14) (size 15 to 20)
#    0.000    1.067    3.333    2.400   11.200    0.533 
#    4.800    0.000    1.467    0.000    0.000    0.000 
#    0.000    0.000    0.000    0.000    0.000    0.000 
#
# Total GULP energy -167194.240487 kJ/mol
# GULP energy per Si atom -5573.141350 kJ/mol
# Density = 2.146909 g / cm^3
# Si number density = 21.518067 Si / 1000 Ang^3
#
#
#
# Elastic Constant Matrix: (Units=GPa)
#
#
# Indices 1 2 3 4 5 6 
#
# 1 68.1890 22.7927 37.2424 0.0000 0.0000 0.0000
# 2 22.7927 56.6592 23.0303 0.0000 0.0000 0.0000
# 3 37.2424 23.0303 127.1980 0.0000 0.0000 0.0000
# 4 0.0000 0.0000 0.0000 -5.5216 0.0000 0.0000
# 5 0.0000 0.0000 0.0000 0.0000 45.4343 0.0000
# 6 0.0000 0.0000 0.0000 0.0000 0.0000 22.7283
#
#
#
# Elastic Compliance Matrix: (Units=1/GPa)
#
#
# Indices 1 2 3 4 5 6 
#
# 1 0.019092 -0.005838 -0.004533 0.000000 0.000000 0.000000
# 2 -0.005838 0.020837 -0.002063 0.000000 0.000000 0.000000
# 3 -0.004533 -0.002063 0.009563 0.000000 0.000000 0.000000
# 4 0.000000 0.000000 0.000000 -0.181105 0.000000 0.000000
# 5 0.000000 0.000000 0.000000 0.000000 0.022010 0.000000
# 6 0.000000 0.000000 0.000000 0.000000 0.000000 0.043998
#
#
# Mechanical properties :
#
#
# Convention : Reuss Voigt Hill
#
# Bulk Modulus (GPa) = 40.61267 46.46412 43.53839
# Shear Modulus (GPa) = -153.70334 23.79359 -64.95487
#
# Velocity S-wave (km/s) = -8.46079 3.32889 -5.50016
# Velocity P-wave (km/s) = 8.74825 6.03451 4.47865
#
# Compressibility (1/GPa) = 0.02462286
#
# Stress axis : x y z
#
# Youngs Moduli (GPa) = 52.37730 47.99270 104.57424
#
# Poissons Ratio (x) = 0.28017 0.47404
# Poissons Ratio (y) = 0.30577 0.21577
# Poissons Ratio (z) = 0.23743 0.09903
#
# Static dielectric constant tensor:
#      x y z
#    x 1.628080 0.000000 0.000000 
#    y 0.000000 1.781970 0.000000 
#    z 0.000000 0.000000 1.798720 
# 
# From -- ./inp_files/13480.got.cif
#   From: 2010.05.17/outbox.cif.g08.bks.cpg/sg43_7_cif.got.tgz:13480.got - 2010.06.03 19:21:55.
