data_PCOD9371821
_publ_section_title
;
Structure prediction by ZEFSAII (Michael W. Deem and Ramdas Pophale) SiO2 
 PCOD9371821
Probable space group: F D D 2
;
_chemical_formula_sum "Si O2"
_cell_formula_units_Z 96
_cell_length_a 9.078563
_cell_length_b 23.370761
_cell_length_c 16.226290
_cell_angle_alpha 90.000000
_cell_angle_beta 90.000000
_cell_angle_gamma 90.000000
_cell_volume 3442.779429
_symmetry_space_group_name_H-M "F D D 2"
_symmetry_group_IT_number 43
_symmetry_cell_setting 'orthorhombic'
loop_
_space_group_symop_operation_xyz
x,y,z
-x,-y,z
1/4-x,1/4+y,1/4+z
1/4+x,1/4-y,1/4+z
x,1/2+y,1/2+z
-x,1/2-y,1/2+z
1/4-x,3/4+y,3/4+z
1/4+x,3/4-y,3/4+z
1/2+x,y,1/2+z
1/2-x,-y,1/2+z
3/4-x,1/4+y,3/4+z
3/4+x,1/4-y,3/4+z
1/2+x,1/2+y,z
1/2-x,1/2-y,z
3/4-x,3/4+y,1/4+z
3/4+x,3/4-y,1/4+z
loop_
_atom_site_type_symbol
_atom_site_label
_atom_site_fract_x
_atom_site_fract_y
_atom_site_fract_z
Si Si1 0.998723 0.828437 0.730280
Si Si2 0.180056 0.197162 0.378703
Si Si3 0.514718 0.918104 0.363192
Si Si4 0.396753 0.449939 0.691314
Si Si5 0.585403 0.297386 0.183362
Si Si6 0.016878 0.104482 0.289856
O O1 0.012150 0.854277 0.822315
O O2 0.157217 0.825760 0.688906
O O3 0.928282 0.881989 0.676791
O O4 0.926223 0.765847 0.722407
O O5 0.250000 0.250000 0.333921
O O6 0.280370 0.181357 0.456629
O O7 0.145903 0.146639 0.317202
O O8 0.429884 0.950367 0.288816
O O9 0.676609 0.940233 0.388436
O O10 0.500000 0.500000 0.655206
O O11 0.229390 0.460845 0.667981
O O12 0.710726 0.309759 0.114768
O O13 0.600264 0.346873 0.254926
#
# Coordination Sequence:
#
# PCOD9371821 Si02
#       6
#    16  16  16  16  16  16
#     4  10  24  39  73 108 151 194 252 318 384 462
#     4  11  27  48  76 103 157 195 254 312 391 462
#     4  10  23  40  71 110 143 193 248 320 379 458
#     4  10  25  44  73 109 146 196 256 315 386 465
#     4  11  22  46  73 110 153 196 259 313 393 455
#     4  10  27  45  71 109 146 204 252 313 380 470
#
# _framework density 27.884446000000001
#
# number of rings (size 3 to 8) (size 9 to 14) (size 15 to 20)
#    1.000    0.667    0.000    2.500    7.000    6.667 
#    0.000    2.500    0.000    0.000    0.000    0.000 
#    0.000    0.000    0.000    0.000    0.000    0.000 
#
# Total GULP energy -134033.935770 kJ/mol
# GULP energy per Si atom -5584.747324 kJ/mol
# Density = 2.782098 g / cm^3
# Si number density = 27.884446 Si / 1000 Ang^3
#
#
#
# Elastic Constant Matrix: (Units=GPa)
#
#
# Indices 1 2 3 4 5 6 
#
# 1 105.7060 50.1198 58.4164 0.0000 0.0000 0.0000
# 2 50.1198 234.2926 64.5048 0.0000 0.0000 0.0000
# 3 58.4164 64.5048 153.6884 0.0000 0.0000 0.0000
# 4 0.0000 0.0000 0.0000 -60.5747 0.0000 0.0000
# 5 0.0000 0.0000 0.0000 0.0000 42.6199 0.0000
# 6 0.0000 0.0000 0.0000 0.0000 0.0000 43.2314
#
#
#
# Elastic Compliance Matrix: (Units=1/GPa)
#
#
# Indices 1 2 3 4 5 6 
#
# 1 0.012447 -0.001538 -0.004086 0.000000 0.000000 0.000000
# 2 -0.001538 0.005016 -0.001521 0.000000 0.000000 0.000000
# 3 -0.004086 -0.001521 0.008698 0.000000 0.000000 0.000000
# 4 0.000000 0.000000 0.000000 -0.016509 0.000000 0.000000
# 5 0.000000 0.000000 0.000000 0.000000 0.023463 0.000000
# 6 0.000000 0.000000 0.000000 0.000000 0.000000 0.023131
#
#
# Mechanical properties :
#
#
# Convention : Reuss Voigt Hill
#
# Bulk Modulus (GPa) = 84.22821 93.30767 88.76794
# Shear Modulus (GPa) = 67.12050 26.43170 46.77610
#
# Velocity S-wave (km/s) = 4.91154 3.08214 4.10017
# Velocity P-wave (km/s) = 7.90165 6.79713 7.37011
#
# Compressibility (1/GPa) = 0.01187251
#
# Stress axis : x y z
#
# Youngs Moduli (GPa) = 80.33904 199.36960 114.97071
#
# Poissons Ratio (x) = 0.30660 0.46974
# Poissons Ratio (y) = 0.12355 0.17483
# Poissons Ratio (z) = 0.32824 0.30317
#
# Static dielectric constant tensor:
#      x y z
#    x 2.188750 0.000000 0.000000 
#    y 0.000000 2.329520 0.000000 
#    z 0.000000 0.000000 2.207980 
# 
# From -- ./inp_files/20375.got.cif
#   From: 2010.05.17/outbox.cif.g08.bks.cpg/sg43_11_cif.got.tgz:20375.got - 2010.06.03 19:21:55.
