data_PCOD9371909
_publ_section_title
;
Structure prediction by ZEFSAII (Michael W. Deem and Ramdas Pophale) SiO2 
 PCOD9371909
Probable space group: F D D 2
;
_chemical_formula_sum "Si O2"
_cell_formula_units_Z 64
_cell_length_a 7.236824
_cell_length_b 17.394881
_cell_length_c 22.897968
_cell_angle_alpha 90.000000
_cell_angle_beta 90.000000
_cell_angle_gamma 90.000000
_cell_volume 2882.480758
_symmetry_space_group_name_H-M "F D D 2"
_symmetry_group_IT_number 43
_symmetry_cell_setting 'orthorhombic'
loop_
_space_group_symop_operation_xyz
x,y,z
-x,-y,z
1/4-x,1/4+y,1/4+z
1/4+x,1/4-y,1/4+z
x,1/2+y,1/2+z
-x,1/2-y,1/2+z
1/4-x,3/4+y,3/4+z
1/4+x,3/4-y,3/4+z
1/2+x,y,1/2+z
1/2-x,-y,1/2+z
3/4-x,1/4+y,3/4+z
3/4+x,1/4-y,3/4+z
1/2+x,1/2+y,z
1/2-x,1/2-y,z
3/4-x,3/4+y,1/4+z
3/4+x,3/4-y,1/4+z
loop_
_atom_site_type_symbol
_atom_site_label
_atom_site_fract_x
_atom_site_fract_y
_atom_site_fract_z
Si Si1 0.718862 0.494202 0.227870
Si Si2 0.751269 0.161668 0.172081
Si Si3 0.613480 0.685955 0.097675
Si Si4 0.584656 0.924553 0.116700
O O1 0.500000 0.500000 0.221463
O O2 0.757573 0.403646 0.220950
O O3 0.783895 0.526840 0.289267
O O4 0.823366 0.541280 0.176683
O O5 0.750000 0.250000 0.190972
O O6 0.578366 0.136293 0.131079
O O7 0.943766 0.157111 0.136627
O O8 0.750000 0.750000 0.126565
O O9 0.747989 0.615417 0.084011
O O10 0.500000 0.000000 0.087173
#
# Coordination Sequence:
#
# PCOD9371909 Si02
#       4
#    16  16  16  16
#     4  11  24  45  74 104 141 194 244 297 370 436
#     4  11  22  43  75 101 146 188 234 306 363 428
#     4  12  23  42  73 105 144 190 239 300 368 430
#     4  10  23  44  71 101 143 189 234 309 357 428
#
# _framework density 22.203095999999999
#
# number of rings (size 3 to 8) (size 9 to 14) (size 15 to 20)
#    0.000    1.000    5.000    3.000    0.000    0.000 
#    0.000    5.000   33.000    0.000    0.000    0.000 
#    0.000    0.000    0.000    0.000    0.000    0.000 
#
# Total GULP energy -89450.291722 kJ/mol
# GULP energy per Si atom -5590.643233 kJ/mol
# Density = 2.215256 g / cm^3
# Si number density = 22.203096 Si / 1000 Ang^3
#
#
#
# Elastic Constant Matrix: (Units=GPa)
#
#
# Indices 1 2 3 4 5 6 
#
# 1 183.1414 60.9551 39.9333 0.0000 0.0000 0.0000
# 2 60.9551 164.6171 48.0800 0.0000 0.0000 0.0000
# 3 39.9333 48.0800 66.4876 0.0000 0.0000 0.0000
# 4 0.0000 0.0000 0.0000 31.6636 0.0000 0.0000
# 5 0.0000 0.0000 0.0000 0.0000 26.1902 0.0000
# 6 0.0000 0.0000 0.0000 0.0000 0.0000 60.3365
#
#
#
# Elastic Compliance Matrix: (Units=1/GPa)
#
#
# Indices 1 2 3 4 5 6 
#
# 1 0.006612 -0.001634 -0.002790 0.000000 0.000000 0.000000
# 2 -0.001634 0.008105 -0.004880 0.000000 0.000000 0.000000
# 3 -0.002790 -0.004880 0.020245 0.000000 0.000000 0.000000
# 4 0.000000 0.000000 0.000000 0.031582 0.000000 0.000000
# 5 0.000000 0.000000 0.000000 0.000000 0.038182 0.000000
# 6 0.000000 0.000000 0.000000 0.000000 0.000000 0.016574
#
#
# Mechanical properties :
#
#
# Convention : Reuss Voigt Hill
#
# Bulk Modulus (GPa) = 61.14289 79.13141 70.13715
# Shear Modulus (GPa) = 34.39761 41.32324 37.86043
#
# Velocity S-wave (km/s) = 3.94029 4.31878 4.13387
# Velocity P-wave (km/s) = 6.94975 7.78372 7.37853
#
# Compressibility (1/GPa) = 0.01635513
#
# Stress axis : x y z
#
# Youngs Moduli (GPa) = 151.23257 123.38328 49.39481
#
# Poissons Ratio (x) = 0.20155 0.13782
# Poissons Ratio (y) = 0.24704 0.24104
# Poissons Ratio (z) = 0.42197 0.60209
#
# Static dielectric constant tensor:
#      x y z
#    x 1.825210 0.000000 0.000000 
#    y 0.000000 1.847930 0.000000 
#    z 0.000000 0.000000 1.804760 
# 
# From -- ./inp_files/19931.got.cif
#   From: 2010.05.17/outbox.cif.g08.bks.cpg/sg43_10_cif.got.tgz:19931.got - 2010.06.03 19:21:55.
