data_PCOD9371489
_publ_section_title
;
Structure prediction by ZEFSAII (Michael W. Deem and Ramdas Pophale) SiO2 
 PCOD9371489
Probable space group: F D D 2
;
_chemical_formula_sum "Si O2"
_cell_formula_units_Z 88
_cell_length_a 6.843625
_cell_length_b 24.567810
_cell_length_c 24.319827
_cell_angle_alpha 90.000000
_cell_angle_beta 90.000000
_cell_angle_gamma 90.000000
_cell_volume 4088.962523
_symmetry_space_group_name_H-M "F D D 2"
_symmetry_group_IT_number 43
_symmetry_cell_setting 'orthorhombic'
loop_
_space_group_symop_operation_xyz
x,y,z
-x,-y,z
1/4-x,1/4+y,1/4+z
1/4+x,1/4-y,1/4+z
x,1/2+y,1/2+z
-x,1/2-y,1/2+z
1/4-x,3/4+y,3/4+z
1/4+x,3/4-y,3/4+z
1/2+x,y,1/2+z
1/2-x,-y,1/2+z
3/4-x,1/4+y,3/4+z
3/4+x,1/4-y,3/4+z
1/2+x,1/2+y,z
1/2-x,1/2-y,z
3/4-x,3/4+y,1/4+z
3/4+x,3/4-y,1/4+z
loop_
_atom_site_type_symbol
_atom_site_label
_atom_site_fract_x
_atom_site_fract_y
_atom_site_fract_z
Si Si1 0.297905 0.908737 0.183960
Si Si2 0.876374 0.200375 0.132008
Si Si3 0.270211 0.811405 0.325139
Si Si4 0.750000 0.750000 0.179356
Si Si5 0.993573 0.594972 0.769857
Si Si6 0.147522 0.594016 0.505113
O O1 0.185929 0.856198 0.159282
O O2 0.415545 0.938247 0.134988
O O3 0.128597 0.934946 0.221815
O O4 0.464005 0.886001 0.223828
O O5 0.750000 0.250000 0.155816
O O6 0.811705 0.193291 0.069190
O O7 0.100924 0.215215 0.142357
O O8 0.250000 0.750000 0.303295
O O9 0.148348 0.857341 0.292927
O O10 0.496014 0.828898 0.313052
O O11 0.627961 0.789950 0.218672
O O12 0.187718 0.628080 0.755427
#
# Coordination Sequence:
#
# PCOD9371489 Si02
#       6
#    16  16  16   8  16  16
#     4  10  22  41  62  89 132 167 207 273 324 393
#     4  11  23  40  64  95 128 170 220 271 330 397
#     4  10  23  40  63  92 127 163 213 267 325 392
#     4  12  22  34  70  96 126 172 228 266 326 390
#     4  10  23  41  63  92 130 168 215 271 334 388
#     4  11  22  36  64  94 121 168 217 265 322 391
#
# _framework density 21.521352
#
# number of rings (size 3 to 8) (size 9 to 14) (size 15 to 20)
#    0.000    1.455    3.636    1.091    5.091    1.455 
#    3.273    0.000    0.000    0.000    0.000    0.000 
#    0.000    0.000    0.000    0.000    0.000    0.000 
#
# Total GULP energy -122679.090905 kJ/mol
# GULP energy per Si atom -5576.322314 kJ/mol
# Density = 2.147237 g / cm^3
# Si number density = 21.521352 Si / 1000 Ang^3
#
#
#
# Elastic Constant Matrix: (Units=GPa)
#
#
# Indices 1 2 3 4 5 6 
#
# 1 109.6999 13.1491 57.0468 0.0000 0.0000 0.0000
# 2 13.1491 50.9864 10.9856 0.0000 0.0000 0.0000
# 3 57.0468 10.9856 97.8801 0.0000 0.0000 0.0000
# 4 0.0000 0.0000 0.0000 17.6389 0.0000 0.0000
# 5 0.0000 0.0000 0.0000 0.0000 36.7596 0.0000
# 6 0.0000 0.0000 0.0000 0.0000 0.0000 6.3580
#
#
#
# Elastic Compliance Matrix: (Units=1/GPa)
#
#
# Indices 1 2 3 4 5 6 
#
# 1 0.013239 -0.001795 -0.007514 0.000000 0.000000 0.000000
# 2 -0.001795 0.020343 -0.001237 0.000000 0.000000 0.000000
# 3 -0.007514 -0.001237 0.014735 0.000000 0.000000 0.000000
# 4 0.000000 0.000000 0.000000 0.056693 0.000000 0.000000
# 5 0.000000 0.000000 0.000000 0.000000 0.027204 0.000000
# 6 0.000000 0.000000 0.000000 0.000000 0.000000 0.157283
#
#
# Mechanical properties :
#
#
# Convention : Reuss Voigt Hill
#
# Bulk Modulus (GPa) = 36.73310 46.76993 41.75151
# Shear Modulus (GPa) = 15.64150 23.97697 19.80923
#
# Velocity S-wave (km/s) = 2.69883 3.34144 3.03718
# Velocity P-wave (km/s) = 5.17850 6.05524 5.63395
#
# Compressibility (1/GPa) = 0.02722341
#
# Stress axis : x y z
#
# Youngs Moduli (GPa) = 75.53687 49.15807 67.86609
#
# Poissons Ratio (x) = 0.08825 0.50996
# Poissons Ratio (y) = 0.13560 0.08394
# Poissons Ratio (z) = 0.56760 0.06080
#
# Static dielectric constant tensor:
#      x y z
#    x 1.790020 0.000000 0.000000 
#    y 0.000000 1.776680 0.000000 
#    z 0.000000 0.000000 1.884280 
# 
# From -- ./inp_files/19544.got.cif
#   From: 2010.05.17/outbox.cif.g08.bks.cpg/sg43_10_cif.got.tgz:19544.got - 2010.06.03 19:21:55.
