data_PCOD9371817
_publ_section_title
;
Structure prediction by ZEFSAII (Michael W. Deem and Ramdas Pophale) SiO2 
 PCOD9371817
Probable space group: F D D 2
;
_chemical_formula_sum "Si O2"
_cell_formula_units_Z 120
_cell_length_a 19.701937
_cell_length_b 25.156043
_cell_length_c 12.076847
_cell_angle_alpha 90.000000
_cell_angle_beta 90.000000
_cell_angle_gamma 90.000000
_cell_volume 5985.560416
_symmetry_space_group_name_H-M "F D D 2"
_symmetry_group_IT_number 43
_symmetry_cell_setting 'orthorhombic'
loop_
_space_group_symop_operation_xyz
x,y,z
-x,-y,z
1/4-x,1/4+y,1/4+z
1/4+x,1/4-y,1/4+z
x,1/2+y,1/2+z
-x,1/2-y,1/2+z
1/4-x,3/4+y,3/4+z
1/4+x,3/4-y,3/4+z
1/2+x,y,1/2+z
1/2-x,-y,1/2+z
3/4-x,1/4+y,3/4+z
3/4+x,1/4-y,3/4+z
1/2+x,1/2+y,z
1/2-x,1/2-y,z
3/4-x,3/4+y,1/4+z
3/4+x,3/4-y,1/4+z
loop_
_atom_site_type_symbol
_atom_site_label
_atom_site_fract_x
_atom_site_fract_y
_atom_site_fract_z
Si Si1 0.750000 0.750000 0.917990
Si Si2 0.592294 0.149880 0.906638
Si Si3 0.180833 0.775404 0.202071
Si Si4 0.744081 0.687571 0.352868
Si Si5 0.605883 0.312660 0.866815
Si Si6 0.807235 0.509642 0.818890
Si Si7 0.295816 0.327249 0.100534
Si Si8 0.425331 0.278758 0.198723
O O1 0.810193 0.735302 0.832933
O O2 0.739496 0.700532 0.998434
O O3 0.577955 0.087573 0.922771
O O4 0.674292 0.162090 0.899893
O O5 0.563219 0.176344 0.793527
O O6 0.559314 0.184047 0.006064
O O7 0.250000 0.750000 0.152913
O O8 0.117918 0.743241 0.155889
O O9 0.750000 0.750000 0.381060
O O10 0.817811 0.666470 0.387706
O O11 0.738966 0.681578 0.219772
O O12 0.557681 0.360760 0.834986
O O13 0.606735 0.269561 0.769377
O O14 0.576739 0.283481 0.974626
O O15 0.739956 0.491828 0.882319
O O16 0.369153 0.299976 0.114901
#
# Coordination Sequence:
#
# PCOD9371817 Si02
#       8
#     8  16  16  16  16  16  16  16
#     4  10  24  44  64  90 134 174 224 254 342 412
#     4  10  23  43  70  96 132 178 219 284 333 399
#     4  10  26  44  62  98 128 183 221 265 345 408
#     4  11  19  43  68 100 129 171 229 275 333 387
#     4  11  24  39  69 100 128 177 220 281 340 392
#     4  11  23  41  66  98 134 168 224 281 330 405
#     4  11  22  42  67  91 131 175 214 281 324 402
#     4  10  23  40  64 101 135 163 229 275 337 399
#
# _framework density 20.048248000000001
#
# number of rings (size 3 to 8) (size 9 to 14) (size 15 to 20)
#    0.400    1.067    4.667    1.600    7.467    3.200 
#    0.000    1.333    0.000    0.000    0.000    0.000 
#    0.000    0.000    0.000    0.000    0.000    0.000 
#
# Total GULP energy -167506.748639 kJ/mol
# GULP energy per Si atom -5583.558288 kJ/mol
# Density = 2.000262 g / cm^3
# Si number density = 20.048248 Si / 1000 Ang^3
#
#
#
# Elastic Constant Matrix: (Units=GPa)
#
#
# Indices 1 2 3 4 5 6 
#
# 1 78.8608 8.4080 15.3714 0.0000 0.0000 0.0000
# 2 8.4080 99.8123 15.5458 0.0000 0.0000 0.0000
# 3 15.3714 15.5458 62.3911 0.0000 0.0000 0.0000
# 4 0.0000 0.0000 0.0000 -55.1132 0.0000 0.0000
# 5 0.0000 0.0000 0.0000 0.0000 29.7982 0.0000
# 6 0.0000 0.0000 0.0000 0.0000 0.0000 28.6453
#
#
#
# Elastic Compliance Matrix: (Units=1/GPa)
#
#
# Indices 1 2 3 4 5 6 
#
# 1 0.013359 -0.000637 -0.003132 0.000000 0.000000 0.000000
# 2 -0.000637 0.010454 -0.002448 0.000000 0.000000 0.000000
# 3 -0.003132 -0.002448 0.017410 0.000000 0.000000 0.000000
# 4 0.000000 0.000000 0.000000 -0.018144 0.000000 0.000000
# 5 0.000000 0.000000 0.000000 0.000000 0.033559 0.000000
# 6 0.000000 0.000000 0.000000 0.000000 0.000000 0.034910
#
#
# Mechanical properties :
#
#
# Convention : Reuss Voigt Hill
#
# Bulk Modulus (GPa) = 34.73768 35.52385 35.13077
# Shear Modulus (GPa) = 44.02276 14.11534 29.06905
#
# Velocity S-wave (km/s) = 4.69106 2.65631 3.81196
# Velocity P-wave (km/s) = 6.83419 5.21206 6.07749
#
# Compressibility (1/GPa) = 0.02878718
#
# Stress axis : x y z
#
# Youngs Moduli (GPa) = 74.85531 95.65960 57.43968
#
# Poissons Ratio (x) = 0.06098 0.17993
# Poissons Ratio (y) = 0.04772 0.14059
# Poissons Ratio (z) = 0.23448 0.23414
#
# Static dielectric constant tensor:
#      x y z
#    x 1.733510 0.000000 0.000000 
#    y 0.000000 1.735770 0.000000 
#    z 0.000000 0.000000 1.709800 
# 
# From -- ./inp_files/7214.got.cif
#   From: 2010.05.17/outbox.cif.g08.bks.cpg/sg43_4_cif.got.tgz:7214.got - 2010.06.03 19:21:55.
