data_PCOD9371720
_publ_section_title
;
Structure prediction by ZEFSAII (Michael W. Deem and Ramdas Pophale) SiO2 
 PCOD9371720
Probable space group: F D D 2
;
_chemical_formula_sum "Si O2"
_cell_formula_units_Z 96
_cell_length_a 22.706020
_cell_length_b 11.801476
_cell_length_c 15.369184
_cell_angle_alpha 90.000000
_cell_angle_beta 90.000000
_cell_angle_gamma 90.000000
_cell_volume 4118.396476
_symmetry_space_group_name_H-M "F D D 2"
_symmetry_group_IT_number 43
_symmetry_cell_setting 'orthorhombic'
loop_
_space_group_symop_operation_xyz
x,y,z
-x,-y,z
1/4-x,1/4+y,1/4+z
1/4+x,1/4-y,1/4+z
x,1/2+y,1/2+z
-x,1/2-y,1/2+z
1/4-x,3/4+y,3/4+z
1/4+x,3/4-y,3/4+z
1/2+x,y,1/2+z
1/2-x,-y,1/2+z
3/4-x,1/4+y,3/4+z
3/4+x,1/4-y,3/4+z
1/2+x,1/2+y,z
1/2-x,1/2-y,z
3/4-x,3/4+y,1/4+z
3/4+x,3/4-y,1/4+z
loop_
_atom_site_type_symbol
_atom_site_label
_atom_site_fract_x
_atom_site_fract_y
_atom_site_fract_z
Si Si1 0.819819 0.728236 0.226560
Si Si2 0.614232 0.346759 0.230840
Si Si3 0.092060 0.459225 0.287573
Si Si4 0.793309 0.652134 0.874294
Si Si5 0.654236 0.326849 0.040228
Si Si6 0.249954 0.986865 0.513607
O O1 0.750000 0.750000 0.234474
O O2 0.850474 0.619946 0.273500
O O3 0.840786 0.720277 0.125985
O O4 0.851799 0.842141 0.259012
O O5 0.668228 0.374347 0.292370
O O6 0.637701 0.297648 0.140313
O O7 0.585953 0.471818 0.225328
O O8 0.567611 0.268755 0.282041
O O9 0.078971 0.539984 0.204999
O O10 0.036224 0.371782 0.297483
O O11 0.750000 0.750000 0.845697
O O12 0.757158 0.545672 0.911639
O O13 0.711441 0.405903 0.037885
#
# Coordination Sequence:
#
# PCOD9371720 Si02
#       6
#    16  16  16  16  16  16
#     4  11  24  45  71 103 136 189 236 293 347 426
#     4  12  24  43  68 105 139 189 232 286 363 423
#     4  10  24  42  72 103 138 184 242 288 355 412
#     4  10  23  44  68 100 140 178 233 293 350 419
#     4  11  25  43  67 101 141 185 236 286 357 428
#     4  10  22  45  66  94 141 179 226 298 338 421
#
# _framework density 23.310044000000001
#
# number of rings (size 3 to 8) (size 9 to 14) (size 15 to 20)
#    0.000    1.333    1.667    4.000    4.667    5.333 
#    0.000    0.000    0.000    0.000    0.000    0.000 
#    0.000    0.000    0.000    0.000    0.000    0.000 
#
# Total GULP energy -133997.957857 kJ/mol
# GULP energy per Si atom -5583.248244 kJ/mol
# Density = 2.325699 g / cm^3
# Si number density = 23.310044 Si / 1000 Ang^3
#
#
#
# Elastic Constant Matrix: (Units=GPa)
#
#
# Indices 1 2 3 4 5 6 
#
# 1 98.5288 12.6528 22.2053 0.0000 0.0000 0.0000
# 2 12.6528 60.7889 4.3554 0.0000 0.0000 0.0000
# 3 22.2053 4.3554 56.8996 0.0000 0.0000 0.0000
# 4 0.0000 0.0000 0.0000 13.8830 0.0000 0.0000
# 5 0.0000 0.0000 0.0000 0.0000 29.2023 0.0000
# 6 0.0000 0.0000 0.0000 0.0000 0.0000 16.5884
#
#
#
# Elastic Compliance Matrix: (Units=1/GPa)
#
#
# Indices 1 2 3 4 5 6 
#
# 1 0.011379 -0.002062 -0.004283 0.000000 0.000000 0.000000
# 2 -0.002062 0.016915 -0.000490 0.000000 0.000000 0.000000
# 3 -0.004283 -0.000490 0.019284 0.000000 0.000000 0.000000
# 4 0.000000 0.000000 0.000000 0.072030 0.000000 0.000000
# 5 0.000000 0.000000 0.000000 0.000000 0.034244 0.000000
# 6 0.000000 0.000000 0.000000 0.000000 0.000000 0.060283
#
#
# Mechanical properties :
#
#
# Convention : Reuss Voigt Hill
#
# Bulk Modulus (GPa) = 29.49151 32.73825 31.11488
# Shear Modulus (GPa) = 20.91110 23.73501 22.32306
#
# Velocity S-wave (km/s) = 2.99839 3.19443 3.09796
# Velocity P-wave (km/s) = 4.96653 5.26128 5.11603
#
# Compressibility (1/GPa) = 0.03390807
#
# Stress axis : x y z
#
# Youngs Moduli (GPa) = 87.87871 59.12046 51.85698
#
# Poissons Ratio (x) = 0.12189 0.22210
# Poissons Ratio (y) = 0.18118 0.02542
# Poissons Ratio (z) = 0.37639 0.02898
#
# Static dielectric constant tensor:
#      x y z
#    x 1.926010 0.000000 0.000000 
#    y 0.000000 2.009160 0.000000 
#    z 0.000000 0.000000 1.878990 
# 
# From -- ./inp_files/10913.got.cif
#   From: 2010.05.17/outbox.cif.g08.bks.cpg/sg43_6_cif.got.tgz:10913.got - 2010.06.03 19:21:55.
