data_PCOD9371547
_publ_section_title
;
Structure prediction by ZEFSAII (Michael W. Deem and Ramdas Pophale) SiO2 
 PCOD9371547
Probable space group: F D D 2
;
_chemical_formula_sum "Si O2"
_cell_formula_units_Z 88
_cell_length_a 26.670092
_cell_length_b 16.694791
_cell_length_c 9.692974
_cell_angle_alpha 90.000000
_cell_angle_beta 90.000000
_cell_angle_gamma 90.000000
_cell_volume 4315.812298
_symmetry_space_group_name_H-M "F D D 2"
_symmetry_group_IT_number 43
_symmetry_cell_setting 'orthorhombic'
loop_
_space_group_symop_operation_xyz
x,y,z
-x,-y,z
1/4-x,1/4+y,1/4+z
1/4+x,1/4-y,1/4+z
x,1/2+y,1/2+z
-x,1/2-y,1/2+z
1/4-x,3/4+y,3/4+z
1/4+x,3/4-y,3/4+z
1/2+x,y,1/2+z
1/2-x,-y,1/2+z
3/4-x,1/4+y,3/4+z
3/4+x,1/4-y,3/4+z
1/2+x,1/2+y,z
1/2-x,1/2-y,z
3/4-x,3/4+y,1/4+z
3/4+x,3/4-y,1/4+z
loop_
_atom_site_type_symbol
_atom_site_label
_atom_site_fract_x
_atom_site_fract_y
_atom_site_fract_z
Si Si1 0.006233 0.644734 0.340960
Si Si2 0.150677 0.068452 0.177747
Si Si3 0.905806 0.081403 0.167163
Si Si4 0.596149 0.266846 0.364772
Si Si5 0.919016 0.627023 0.137705
Si Si6 0.750000 0.250000 0.783134
O O1 0.051530 0.705316 0.329383
O O2 0.021498 0.566704 0.428145
O O3 0.960986 0.684226 0.430479
O O4 0.975951 0.623781 0.199681
O O5 0.133174 0.142098 0.270050
O O6 0.156027 0.089384 0.506993
O O7 0.127529 0.987448 0.231559
O O8 0.861205 0.913007 0.019153
O O9 0.958881 0.041815 0.129422
O O10 0.587533 0.312111 0.511039
O O11 0.646004 0.211224 0.361451
#
# Coordination Sequence:
#
# PCOD9371547 Si02
#       6
#    16  16  16  16  16   8
#     4   9  24  38  67  92 126 176 223 266 325 412
#     4   9  21  39  63  91 124 176 219 262 332 396
#     4  11  22  39  66  94 130 174 218 279 326 405
#     4  12  24  42  65 101 136 167 226 282 344 387
#     4  10  24  42  68  97 129 181 214 284 328 405
#     4  10  22  42  64  94 124 186 222 270 326 416
#
# _framework density 20.390136999999999
#
# number of rings (size 3 to 8) (size 9 to 14) (size 15 to 20)
#    1.091    0.727    0.000    3.273    7.636    1.455 
#    0.000    0.909    0.000    0.000    0.000    0.000 
#    0.000    0.000    0.000    0.000    0.000    0.000 
#
# Total GULP energy -122589.878997 kJ/mol
# GULP energy per Si atom -5572.267227 kJ/mol
# Density = 2.034373 g / cm^3
# Si number density = 20.390137 Si / 1000 Ang^3
#
#
#
# Elastic Constant Matrix: (Units=GPa)
#
#
# Indices 1 2 3 4 5 6 
#
# 1 56.1994 48.9455 33.8928 0.0000 0.0000 0.0000
# 2 48.9455 145.1497 50.4427 0.0000 0.0000 0.0000
# 3 33.8928 50.4427 92.6757 0.0000 0.0000 0.0000
# 4 0.0000 0.0000 0.0000 50.4478 0.0000 0.0000
# 5 0.0000 0.0000 0.0000 0.0000 15.7255 0.0000
# 6 0.0000 0.0000 0.0000 0.0000 0.0000 40.4223
#
#
#
# Elastic Compliance Matrix: (Units=1/GPa)
#
#
# Indices 1 2 3 4 5 6 
#
# 1 0.027854 -0.007218 -0.006258 0.000000 0.000000 0.000000
# 2 -0.007218 0.010367 -0.003003 0.000000 0.000000 0.000000
# 3 -0.006258 -0.003003 0.014713 0.000000 0.000000 0.000000
# 4 0.000000 0.000000 0.000000 0.019822 0.000000 0.000000
# 5 0.000000 0.000000 0.000000 0.000000 0.063591 0.000000
# 6 0.000000 0.000000 0.000000 0.000000 0.000000 0.024739
#
#
# Mechanical properties :
#
#
# Convention : Reuss Voigt Hill
#
# Bulk Modulus (GPa) = 50.05801 62.28742 56.17272
# Shear Modulus (GPa) = 24.91241 32.03538 28.47390
#
# Velocity S-wave (km/s) = 3.49920 3.96804 3.74097
# Velocity P-wave (km/s) = 6.39760 7.18386 6.80210
#
# Compressibility (1/GPa) = 0.01997682
#
# Stress axis : x y z
#
# Youngs Moduli (GPa) = 35.90151 96.46064 67.96489
#
# Poissons Ratio (x) = 0.69623 0.42533
# Poissons Ratio (y) = 0.25913 0.20410
# Poissons Ratio (z) = 0.22467 0.28967
#
# Static dielectric constant tensor:
#      x y z
#    x 1.738290 0.000000 0.000000 
#    y 0.000000 1.725460 0.000000 
#    z 0.000000 0.000000 1.757000 
# 
# From -- ./inp_files/11307.got.cif
#   From: 2010.05.17/outbox.cif.g08.bks.cpg/sg43_6_cif.got.tgz:11307.got - 2010.06.03 19:21:55.
