data_PCOD9371310
_publ_section_title
;
Structure prediction by ZEFSAII (Michael W. Deem and Ramdas Pophale) SiO2 
 PCOD9371310
Probable space group: F D D 2
;
_chemical_formula_sum "Si O2"
_cell_formula_units_Z 56
_cell_length_a 7.330771
_cell_length_b 22.133079
_cell_length_c 17.997520
_cell_angle_alpha 90.000000
_cell_angle_beta 90.000000
_cell_angle_gamma 90.000000
_cell_volume 2920.143220
_symmetry_space_group_name_H-M "F D D 2"
_symmetry_group_IT_number 43
_symmetry_cell_setting 'orthorhombic'
loop_
_space_group_symop_operation_xyz
x,y,z
-x,-y,z
1/4-x,1/4+y,1/4+z
1/4+x,1/4-y,1/4+z
x,1/2+y,1/2+z
-x,1/2-y,1/2+z
1/4-x,3/4+y,3/4+z
1/4+x,3/4-y,3/4+z
1/2+x,y,1/2+z
1/2-x,-y,1/2+z
3/4-x,1/4+y,3/4+z
3/4+x,1/4-y,3/4+z
1/2+x,1/2+y,z
1/2-x,1/2-y,z
3/4-x,3/4+y,1/4+z
3/4+x,3/4-y,1/4+z
loop_
_atom_site_type_symbol
_atom_site_label
_atom_site_fract_x
_atom_site_fract_y
_atom_site_fract_z
Si Si1 0.506325 0.085544 0.521600
Si Si2 0.957614 0.771083 0.028369
Si Si3 0.250000 0.250000 0.409111
Si Si4 0.210341 0.502041 0.949110
O O1 0.520400 0.156831 0.521618
O O2 0.323428 0.058705 0.483100
O O3 0.514997 0.057127 0.604071
O O4 0.675555 0.055395 0.478092
O O5 0.750000 0.750000 0.022200
O O6 0.027092 0.753573 0.110204
O O7 0.077867 0.743161 0.962830
O O8 0.000000 0.500000 0.972628
#
# Coordination Sequence:
#
# PCOD9371310 Si02
#       4
#    16  16   8  16
#     4  10  24  43  64  93 135 162 215 274 308 389
#     4  12  23  41  67  98 127 168 220 261 325 380
#     4  10  24  40  62 100 124 168 214 266 320 372
#     4  10  21  44  65  92 128 177 207 256 334 372
#
# _framework density 19.177140999999999
#
# number of rings (size 3 to 8) (size 9 to 14) (size 15 to 20)
#    0.000    1.714    4.286    1.714    0.000    9.143 
#    0.000    0.000    0.000    0.000    0.000    0.000 
#    0.000    0.000    0.000    0.000    0.000    0.000 
#
# Total GULP energy -78223.357189 kJ/mol
# GULP energy per Si atom -5587.382656 kJ/mol
# Density = 1.913349 g / cm^3
# Si number density = 19.177141 Si / 1000 Ang^3
#
#
#
# Elastic Constant Matrix: (Units=GPa)
#
#
# Indices 1 2 3 4 5 6 
#
# 1 174.5677 16.8884 47.9525 0.0000 0.0000 0.0000
# 2 16.8884 58.5951 30.0589 0.0000 0.0000 0.0000
# 3 47.9525 30.0589 137.1759 0.0000 0.0000 0.0000
# 4 0.0000 0.0000 0.0000 4.7432 0.0000 0.0000
# 5 0.0000 0.0000 0.0000 0.0000 -85.8501 0.0000
# 6 0.0000 0.0000 0.0000 0.0000 0.0000 7.9898
#
#
#
# Elastic Compliance Matrix: (Units=1/GPa)
#
#
# Indices 1 2 3 4 5 6 
#
# 1 0.006369 -0.000781 -0.002055 0.000000 0.000000 0.000000
# 2 -0.000781 0.019324 -0.003961 0.000000 0.000000 0.000000
# 3 -0.002055 -0.003961 0.008876 0.000000 0.000000 0.000000
# 4 0.000000 0.000000 0.000000 0.210828 0.000000 0.000000
# 5 0.000000 0.000000 0.000000 0.000000 -0.011648 0.000000
# 6 0.000000 0.000000 0.000000 0.000000 0.000000 0.125160
#
#
# Mechanical properties :
#
#
# Convention : Reuss Voigt Hill
#
# Bulk Modulus (GPa) = 47.67975 62.23760 54.95868
# Shear Modulus (GPa) = 13.17542 3.73916 8.45729
#
# Velocity S-wave (km/s) = 2.62398 1.39787 2.10230
# Velocity P-wave (km/s) = 5.83928 5.92705 5.88333
#
# Compressibility (1/GPa) = 0.02097326
#
# Stress axis : x y z
#
# Youngs Moduli (GPa) = 157.02213 51.75041 112.65976
#
# Poissons Ratio (x) = 0.04043 0.23152
# Poissons Ratio (y) = 0.12269 0.44626
# Poissons Ratio (z) = 0.32269 0.20499
#
# Static dielectric constant tensor:
#      x y z
#    x 1.661910 0.000000 0.000000 
#    y 0.000000 1.634240 0.000000 
#    z 0.000000 0.000000 1.661490 
# 
# From -- ./inp_files/8898.got.cif
#   From: 2010.05.17/outbox.cif.g08.bks.cpg/sg43_5_cif.got.tgz:8898.got - 2010.06.03 19:21:55.
