data_PCOD9371870
_publ_section_title
;
Structure prediction by ZEFSAII (Michael W. Deem and Ramdas Pophale) SiO2 
 PCOD9371870
Probable space group: F D D 2
;
_chemical_formula_sum "Si O2"
_cell_formula_units_Z 120
_cell_length_a 24.928755
_cell_length_b 25.948533
_cell_length_c 9.040783
_cell_angle_alpha 90.000000
_cell_angle_beta 90.000000
_cell_angle_gamma 90.000000
_cell_volume 5848.162676
_symmetry_space_group_name_H-M "F D D 2"
_symmetry_group_IT_number 43
_symmetry_cell_setting 'orthorhombic'
loop_
_space_group_symop_operation_xyz
x,y,z
-x,-y,z
1/4-x,1/4+y,1/4+z
1/4+x,1/4-y,1/4+z
x,1/2+y,1/2+z
-x,1/2-y,1/2+z
1/4-x,3/4+y,3/4+z
1/4+x,3/4-y,3/4+z
1/2+x,y,1/2+z
1/2-x,-y,1/2+z
3/4-x,1/4+y,3/4+z
3/4+x,1/4-y,3/4+z
1/2+x,1/2+y,z
1/2-x,1/2-y,z
3/4-x,3/4+y,1/4+z
3/4+x,3/4-y,1/4+z
loop_
_atom_site_type_symbol
_atom_site_label
_atom_site_fract_x
_atom_site_fract_y
_atom_site_fract_z
Si Si1 0.250000 0.250000 0.431590
Si Si2 0.046109 0.307037 0.579465
Si Si3 0.132099 0.475741 0.354995
Si Si4 0.188834 0.817120 0.466488
Si Si5 0.658747 0.769759 0.663694
Si Si6 0.779565 0.332062 0.698076
Si Si7 0.516188 0.751448 0.295826
Si Si8 0.415393 0.818424 0.295855
O O1 0.301485 0.245704 0.534807
O O2 0.248555 0.200913 0.325245
O O3 0.109425 0.304455 0.606879
O O4 0.030099 0.359056 0.497309
O O5 0.029056 0.260813 0.467631
O O6 0.016527 0.298303 0.736529
O O7 0.097313 0.523208 0.292804
O O8 0.089837 0.438763 0.434625
O O9 0.178125 0.498537 0.459121
O O10 0.158076 0.443247 0.220481
O O11 0.189323 0.799697 0.295792
O O12 0.246538 0.821016 0.547370
O O13 0.162133 0.872740 0.496363
O O14 0.629351 0.718268 0.723350
O O15 0.474275 0.796719 0.255097
#
# Coordination Sequence:
#
# PCOD9371870 Si02
#       8
#     8  16  16  16  16  16  16  16
#     4  12  26  48  66 100 144 176 222 294 352 410
#     4  11  25  45  69 104 136 182 233 280 348 407
#     4  11  23  40  69  98 137 176 230 285 339 408
#     4  11  23  45  69  99 136 184 231 280 345 416
#     4  10  27  45  68 101 142 175 229 289 344 414
#     4  12  25  44  70 101 138 185 230 280 349 418
#     4  11  21  46  66  98 138 177 230 288 329 416
#     4  10  23  43  68 101 132 181 235 276 346 412
#
# _framework density 20.519265000000001
#
# number of rings (size 3 to 8) (size 9 to 14) (size 15 to 20)
#    0.000    1.067    4.000    0.800    7.467    1.067 
#    4.800    0.000    0.000    0.000    0.000    0.000 
#    0.000    0.000    0.000    0.000    0.000    0.000 
#
# Total GULP energy -167581.915257 kJ/mol
# GULP energy per Si atom -5586.063842 kJ/mol
# Density = 2.047256 g / cm^3
# Si number density = 20.519265 Si / 1000 Ang^3
#
#
#
# Elastic Constant Matrix: (Units=GPa)
#
#
# Indices 1 2 3 4 5 6 
#
# 1 90.4850 12.3980 30.8400 -0.0014 0.0013 0.0042
# 2 12.3980 96.5061 31.5371 -0.0015 0.0009 0.0041
# 3 30.8400 31.5371 100.2246 -0.0012 0.0011 0.0037
# 4 -0.0014 -0.0015 -0.0012 13.5008 0.0003 0.0031
# 5 0.0013 0.0009 0.0011 0.0003 34.1051 -0.0017
# 6 0.0042 0.0041 0.0037 0.0031 -0.0017 -41.2824
#
#
#
# Elastic Compliance Matrix: (Units=1/GPa)
#
#
# Indices 1 2 3 4 5 6 
#
# 1 0.012359 -0.000385 -0.003682 0.000001 0.000000 0.000001
# 2 -0.000385 0.011562 -0.003520 0.000001 0.000000 0.000001
# 3 -0.003682 -0.003520 0.012218 0.000000 0.000000 0.000000
# 4 0.000001 0.000001 0.000000 0.074070 -0.000001 0.000006
# 5 0.000000 0.000000 0.000000 -0.000001 0.029321 -0.000001
# 6 0.000001 0.000001 0.000000 0.000006 -0.000001 -0.024223
#
#
# Mechanical properties :
#
#
# Convention : Reuss Voigt Hill
#
# Bulk Modulus (GPa) = 47.69535 48.52954 48.11245
# Shear Modulus (GPa) = 36.37216 15.42741 25.89978
#
# Velocity S-wave (km/s) = 4.21478 2.74496 3.55662
# Velocity P-wave (km/s) = 6.85423 5.80935 6.35330
#
# Compressibility (1/GPa) = 0.02096640
#
# Stress axis : x y z
#
# Youngs Moduli (GPa) = 80.91142 86.49292 81.84572
#
# Poissons Ratio (x) = 0.03326 0.30136
# Poissons Ratio (y) = 0.03111 0.28807
# Poissons Ratio (z) = 0.29792 0.30443
#
# Static dielectric constant tensor:
#      x y z
#    x 1.736350 0.000000 0.000000 
#    y 0.000000 1.727730 0.000000 
#    z 0.000000 0.000000 1.733950 
# 
# From -- ./inp_files/3885.got.cif
#   From: 2010.05.17/outbox.cif.g08.bks.cpg/sg43_2_cif.got.tgz:3885.got - 2010.06.03 19:21:55.
