data_PCOD9371830
_publ_section_title
;
Structure prediction by ZEFSAII (Michael W. Deem and Ramdas Pophale) SiO2 
 PCOD9371830
Probable space group: F D D 2
;
_chemical_formula_sum "Si O2"
_cell_formula_units_Z 88
_cell_length_a 20.389595
_cell_length_b 12.502280
_cell_length_c 15.525187
_cell_angle_alpha 90.000000
_cell_angle_beta 90.000000
_cell_angle_gamma 90.000000
_cell_volume 3957.625180
_symmetry_space_group_name_H-M "F D D 2"
_symmetry_group_IT_number 43
_symmetry_cell_setting 'orthorhombic'
loop_
_space_group_symop_operation_xyz
x,y,z
-x,-y,z
1/4-x,1/4+y,1/4+z
1/4+x,1/4-y,1/4+z
x,1/2+y,1/2+z
-x,1/2-y,1/2+z
1/4-x,3/4+y,3/4+z
1/4+x,3/4-y,3/4+z
1/2+x,y,1/2+z
1/2-x,-y,1/2+z
3/4-x,1/4+y,3/4+z
3/4+x,1/4-y,3/4+z
1/2+x,1/2+y,z
1/2-x,1/2-y,z
3/4-x,3/4+y,1/4+z
3/4+x,3/4-y,1/4+z
loop_
_atom_site_type_symbol
_atom_site_label
_atom_site_fract_x
_atom_site_fract_y
_atom_site_fract_z
Si Si1 0.703608 0.648227 0.327590
Si Si2 0.072640 0.224628 0.027811
Si Si3 0.750000 0.250000 0.115328
Si Si4 0.545317 0.797489 0.761713
Si Si5 0.407235 0.223673 0.228677
Si Si6 0.182379 0.222431 0.773952
O O1 0.750000 0.750000 0.350895
O O2 0.750473 0.576860 0.266710
O O3 0.692232 0.577919 0.412147
O O4 0.639212 0.695330 0.282382
O O5 0.123997 0.142658 0.986104
O O6 0.088287 0.233789 0.130588
O O7 0.070868 0.347588 0.000568
O O8 0.804373 0.214327 0.184816
O O9 0.724868 0.155848 0.057611
O O10 0.481484 0.722337 0.763772
O O11 0.611167 0.754383 0.805385
O O12 0.250000 0.250000 0.825383
#
# Coordination Sequence:
#
# PCOD9371830 Si02
#       6
#    16  16   8  16  16  16
#     4   9  19  41  66  95 131 165 223 282 322 392
#     4  10  23  44  64  97 137 177 222 276 346 396
#     4  10  24  42  68  98 124 180 220 272 346 388
#     4  11  21  41  68  97 130 170 228 272 334 407
#     4  10  23  41  69 100 127 182 223 283 334 393
#     4  10  26  42  60  97 132 175 214 277 339 406
#
# _framework density 22.235555999999999
#
# number of rings (size 3 to 8) (size 9 to 14) (size 15 to 20)
#    0.545    1.455    0.909    1.091    2.545    6.545 
#    6.545    0.000    0.000    0.000    0.000    0.000 
#    0.000    0.000    0.000    0.000    0.000    0.000 
#
# Total GULP energy -122743.062137 kJ/mol
# GULP energy per Si atom -5579.230097 kJ/mol
# Density = 2.218495 g / cm^3
# Si number density = 22.235556 Si / 1000 Ang^3
#
#
#
# Elastic Constant Matrix: (Units=GPa)
#
#
# Indices 1 2 3 4 5 6 
#
# 1 196.7584 69.2641 31.0902 0.0000 0.0000 0.0000
# 2 69.2641 107.2592 -3.5653 0.0000 0.0000 0.0000
# 3 31.0902 -3.5653 45.7346 0.0000 0.0000 0.0000
# 4 0.0000 0.0000 0.0000 23.1787 0.0000 0.0000
# 5 0.0000 0.0000 0.0000 0.0000 14.7165 0.0000
# 6 0.0000 0.0000 0.0000 0.0000 0.0000 19.9455
#
#
#
# Elastic Compliance Matrix: (Units=1/GPa)
#
#
# Indices 1 2 3 4 5 6 
#
# 1 0.007838 -0.005252 -0.005738 0.000000 0.000000 0.000000
# 2 -0.005252 0.012867 0.004573 0.000000 0.000000 0.000000
# 3 -0.005738 0.004573 0.026122 0.000000 0.000000 0.000000
# 4 0.000000 0.000000 0.000000 0.043143 0.000000 0.000000
# 5 0.000000 0.000000 0.000000 0.000000 0.067951 0.000000
# 6 0.000000 0.000000 0.000000 0.000000 0.000000 0.050137
#
#
# Mechanical properties :
#
#
# Convention : Reuss Voigt Hill
#
# Bulk Modulus (GPa) = 29.41661 60.37002 44.89331
# Shear Modulus (GPa) = 21.53114 28.43235 24.98174
#
# Velocity S-wave (km/s) = 3.11516 3.57975 3.35551
# Velocity P-wave (km/s) = 5.11832 6.65548 5.93686
#
# Compressibility (1/GPa) = 0.03399440
#
# Stress axis : x y z
#
# Youngs Moduli (GPa) = 127.58562 77.71893 38.28158
#
# Poissons Ratio (x) = 0.40819 0.21964
# Poissons Ratio (y) = 0.67010 -0.17508
# Poissons Ratio (z) = 0.73204 -0.35544
#
# Static dielectric constant tensor:
#      x y z
#    x 1.896300 0.000000 0.000000 
#    y 0.000000 1.789890 0.000000 
#    z 0.000000 0.000000 1.846620 
# 
# From -- ./inp_files/14562.got.cif
#   From: 2010.05.17/outbox.cif.g08.bks.cpg/sg43_8_cif.got.tgz:14562.got - 2010.06.03 19:21:55.
