data_PCOD9371591
_publ_section_title
;
Structure prediction by ZEFSAII (Michael W. Deem and Ramdas Pophale) SiO2 
 PCOD9371591
Probable space group: F D D 2
;
_chemical_formula_sum "Si O2"
_cell_formula_units_Z 104
_cell_length_a 20.034508
_cell_length_b 26.559942
_cell_length_c 8.634460
_cell_angle_alpha 90.000000
_cell_angle_beta 90.000000
_cell_angle_gamma 90.000000
_cell_volume 4594.528882
_symmetry_space_group_name_H-M "F D D 2"
_symmetry_group_IT_number 43
_symmetry_cell_setting 'orthorhombic'
loop_
_space_group_symop_operation_xyz
x,y,z
-x,-y,z
1/4-x,1/4+y,1/4+z
1/4+x,1/4-y,1/4+z
x,1/2+y,1/2+z
-x,1/2-y,1/2+z
1/4-x,3/4+y,3/4+z
1/4+x,3/4-y,3/4+z
1/2+x,y,1/2+z
1/2-x,-y,1/2+z
3/4-x,1/4+y,3/4+z
3/4+x,1/4-y,3/4+z
1/2+x,1/2+y,z
1/2-x,1/2-y,z
3/4-x,3/4+y,1/4+z
3/4+x,3/4-y,1/4+z
loop_
_atom_site_type_symbol
_atom_site_label
_atom_site_fract_x
_atom_site_fract_y
_atom_site_fract_z
Si Si1 0.736902 0.531958 0.038800
Si Si2 0.161645 0.292328 0.996483
Si Si3 0.488400 0.183782 0.939212
Si Si4 0.226168 0.675414 0.260465
Si Si5 0.110690 0.182656 0.995174
Si Si6 0.591117 0.077337 0.578213
Si Si7 0.750000 0.750000 0.517047
O O1 0.731722 0.472053 0.065126
O O2 0.794438 0.551235 0.153208
O O3 0.666654 0.556882 0.080885
O O4 0.754384 0.545915 0.862403
O O5 0.091958 0.311852 0.927536
O O6 0.217334 0.299787 0.867843
O O7 0.145735 0.234764 0.048638
O O8 0.182144 0.322399 0.149256
O O9 0.505071 0.125266 0.935575
O O10 0.164513 0.661897 0.370614
O O11 0.205362 0.714968 0.129488
O O12 0.094707 0.137007 0.110625
O O13 0.544507 0.039702 0.673657
#
# Coordination Sequence:
#
# PCOD9371591 Si02
#       7
#    16  16  16  16  16  16   8
#     4  10  23  42  67  98 135 175 233 285 339 423
#     4  10  22  42  70  97 132 192 230 268 339 445
#     4  10  23  39  67  97 131 183 227 279 348 411
#     4  12  23  43  70 102 137 184 233 281 355 421
#     4  11  22  42  74  94 131 190 236 269 349 431
#     4  11  26  44  67 102 138 175 229 294 353 394
#     4  12  30  40  64 110 140 168 224 314 342 388
#
# _framework density 22.635618000000001
#
# number of rings (size 3 to 8) (size 9 to 14) (size 15 to 20)
#    0.000    1.231    4.615    0.923    4.308    3.692 
#    0.000    0.000    0.000    0.000    0.000    0.000 
#    0.000    0.000    0.000    0.000    0.000    0.000 
#
# Total GULP energy -145370.068378 kJ/mol
# GULP energy per Si atom -5591.156476 kJ/mol
# Density = 2.258410 g / cm^3
# Si number density = 22.635618 Si / 1000 Ang^3
#
#
#
# Elastic Constant Matrix: (Units=GPa)
#
#
# Indices 1 2 3 4 5 6 
#
# 1 54.5478 29.3823 24.3267 0.0000 0.0000 0.0000
# 2 29.3823 187.2001 36.7838 0.0000 0.0000 0.0000
# 3 24.3267 36.7838 41.4754 0.0002 -0.0002 -0.0001
# 4 0.0000 0.0000 0.0002 40.9738 -0.0001 0.0000
# 5 0.0000 0.0000 -0.0002 -0.0001 26.8054 0.0001
# 6 0.0000 0.0000 -0.0001 0.0000 0.0001 27.3923
#
#
#
# Elastic Compliance Matrix: (Units=1/GPa)
#
#
# Indices 1 2 3 4 5 6 
#
# 1 0.025072 -0.001266 -0.013582 0.000000 0.000000 0.000000
# 2 -0.001266 0.006533 -0.005051 0.000000 0.000000 0.000000
# 3 -0.013582 -0.005051 0.036557 0.000000 0.000000 0.000000
# 4 0.000000 0.000000 0.000000 0.024406 0.000000 0.000000
# 5 0.000000 0.000000 0.000000 0.000000 0.037306 0.000000
# 6 0.000000 0.000000 0.000000 0.000000 0.000000 0.036507
#
#
# Mechanical properties :
#
#
# Convention : Reuss Voigt Hill
#
# Bulk Modulus (GPa) = 35.25841 51.57874 43.41858
# Shear Modulus (GPa) = 23.18728 31.88300 27.53514
#
# Velocity S-wave (km/s) = 3.20405 3.75711 3.49155
# Velocity P-wave (km/s) = 5.41279 6.45424 5.95632
#
# Compressibility (1/GPa) = 0.02836203
#
# Stress axis : x y z
#
# Youngs Moduli (GPa) = 39.88504 153.06390 27.35432
#
# Poissons Ratio (x) = 0.19383 0.37154
# Poissons Ratio (y) = 0.05051 0.13818
# Poissons Ratio (z) = 0.54174 0.77319
#
# Static dielectric constant tensor:
#      x y z
#    x 1.797820 0.000000 0.000000 
#    y 0.000000 1.913390 0.000000 
#    z 0.000000 0.000000 1.840330 
# 
# From -- ./inp_files/3369.got.cif
#   From: 2010.05.17/outbox.cif.g08.bks.cpg/sg43_2_cif.got.tgz:3369.got - 2010.06.03 19:21:55.
