data_PCOD9371562
_publ_section_title
;
Structure prediction by ZEFSAII (Michael W. Deem and Ramdas Pophale) SiO2 
 PCOD9371562
Probable space group: F D D 2
;
_chemical_formula_sum "Si O2"
_cell_formula_units_Z 96
_cell_length_a 19.675404
_cell_length_b 23.943022
_cell_length_c 8.464221
_cell_angle_alpha 90.000000
_cell_angle_beta 90.000000
_cell_angle_gamma 90.000000
_cell_volume 3987.398282
_symmetry_space_group_name_H-M "F D D 2"
_symmetry_group_IT_number 43
_symmetry_cell_setting 'orthorhombic'
loop_
_space_group_symop_operation_xyz
x,y,z
-x,-y,z
1/4-x,1/4+y,1/4+z
1/4+x,1/4-y,1/4+z
x,1/2+y,1/2+z
-x,1/2-y,1/2+z
1/4-x,3/4+y,3/4+z
1/4+x,3/4-y,3/4+z
1/2+x,y,1/2+z
1/2-x,-y,1/2+z
3/4-x,1/4+y,3/4+z
3/4+x,1/4-y,3/4+z
1/2+x,1/2+y,z
1/2-x,1/2-y,z
3/4-x,3/4+y,1/4+z
3/4+x,3/4-y,1/4+z
loop_
_atom_site_type_symbol
_atom_site_label
_atom_site_fract_x
_atom_site_fract_y
_atom_site_fract_z
Si Si1 0.985387 0.909936 0.306150
Si Si2 0.750000 0.750000 0.331317
Si Si3 0.493469 0.203743 0.969843
Si Si4 0.250000 0.750000 0.316936
Si Si5 0.014437 0.675420 0.309603
Si Si6 0.131067 0.382609 0.324441
Si Si7 0.605963 0.503050 0.833992
O O1 0.982357 0.946195 0.463742
O O2 0.915578 0.904932 0.209645
O O3 0.028791 0.950447 0.190700
O O4 0.006683 0.847473 0.348016
O O5 0.695043 0.775760 0.213240
O O6 0.504633 0.264584 0.890724
O O7 0.536643 0.189034 0.128322
O O8 0.417538 0.208445 0.039660
O O9 0.186190 0.738772 0.428042
O O10 0.946508 0.637423 0.303214
O O11 0.071869 0.645323 0.418303
O O12 0.131094 0.444487 0.399666
#
# Coordination Sequence:
#
# PCOD9371562 Si02
#       7
#    16   8  16   8  16  16  16
#     4  11  24  41  64  97 136 177 226 284 346 417
#     4  10  22  42  66  96 134 180 232 284 346 416
#     4  11  24  44  68  99 135 178 228 284 345 413
#     4  10  24  42  64 100 136 178 230 284 346 414
#     4  11  25  46  71 102 138 183 232 287 350 417
#     4  11  24  44  71 100 137 182 229 284 350 418
#     4  10  22  43  69  95 133 181 230 284 345 413
#
# _framework density 24.075849000000002
#
# number of rings (size 3 to 8) (size 9 to 14) (size 15 to 20)
#    0.000    1.333    0.000    5.000    0.000    9.333 
#    0.000   10.000    0.000    0.000    0.000    0.000 
#    0.000    0.000    0.000    0.000    0.000    0.000 
#
# Total GULP energy -134082.939776 kJ/mol
# GULP energy per Si atom -5586.789157 kJ/mol
# Density = 2.402105 g / cm^3
# Si number density = 24.075849 Si / 1000 Ang^3
#
#
#
# Elastic Constant Matrix: (Units=GPa)
#
#
# Indices 1 2 3 4 5 6 
#
# 1 72.7673 31.1212 30.0400 0.0001 -0.0001 -0.0001
# 2 31.1212 150.2023 48.6480 0.0000 0.0001 0.0000
# 3 30.0400 48.6480 114.1708 0.0002 -0.0002 -0.0003
# 4 0.0001 0.0000 0.0002 38.7369 -0.0001 -0.0001
# 5 -0.0001 0.0001 -0.0002 -0.0001 -8.8781 0.0002
# 6 -0.0001 0.0000 -0.0003 -0.0001 0.0002 31.7152
#
#
#
# Elastic Compliance Matrix: (Units=1/GPa)
#
#
# Indices 1 2 3 4 5 6 
#
# 1 0.016059 -0.002272 -0.003257 0.000000 0.000000 0.000000
# 2 -0.002272 0.008045 -0.002830 0.000000 0.000000 0.000000
# 3 -0.003257 -0.002830 0.010822 0.000000 0.000000 0.000000
# 4 0.000000 0.000000 0.000000 0.025815 0.000000 0.000000
# 5 0.000000 0.000000 0.000000 0.000000 -0.112637 0.000001
# 6 0.000000 0.000000 0.000000 0.000000 0.000001 0.031531
#
#
# Mechanical properties :
#
#
# Convention : Reuss Voigt Hill
#
# Bulk Modulus (GPa) = 54.92528 61.86208 58.39368
# Shear Modulus (GPa) = 2064.11743 27.47022 1045.79383
#
# Velocity S-wave (km/s) = 29.31212 3.38151 20.86427
# Velocity P-wave (km/s) = 34.18280 6.40286 24.59126
#
# Compressibility (1/GPa) = 0.01820655
#
# Stress axis : x y z
#
# Youngs Moduli (GPa) = 62.27086 124.29846 92.40699
#
# Poissons Ratio (x) = 0.28246 0.30097
# Poissons Ratio (y) = 0.14151 0.26152
# Poissons Ratio (z) = 0.20282 0.35178
#
# Static dielectric constant tensor:
#      x y z
#    x 1.929780 0.000000 0.000000 
#    y 0.000000 2.081530 0.000000 
#    z 0.000000 0.000000 1.941550 
# 
# From -- ./inp_files/3746.got.cif
#   From: 2010.05.17/outbox.cif.g08.bks.cpg/sg43_2_cif.got.tgz:3746.got - 2010.06.03 19:21:55.
