data_PCOD9371442
_publ_section_title
;
Structure prediction by ZEFSAII (Michael W. Deem and Ramdas Pophale) SiO2 
 PCOD9371442
Probable space group: F D D 2
;
_chemical_formula_sum "Si O2"
_cell_formula_units_Z 128
_cell_length_a 24.726014
_cell_length_b 22.578353
_cell_length_c 11.972690
_cell_angle_alpha 90.000000
_cell_angle_beta 90.000000
_cell_angle_gamma 90.000000
_cell_volume 6684.025642
_symmetry_space_group_name_H-M "F D D 2"
_symmetry_group_IT_number 43
_symmetry_cell_setting 'orthorhombic'
loop_
_space_group_symop_operation_xyz
x,y,z
-x,-y,z
1/4-x,1/4+y,1/4+z
1/4+x,1/4-y,1/4+z
x,1/2+y,1/2+z
-x,1/2-y,1/2+z
1/4-x,3/4+y,3/4+z
1/4+x,3/4-y,3/4+z
1/2+x,y,1/2+z
1/2-x,-y,1/2+z
3/4-x,1/4+y,3/4+z
3/4+x,1/4-y,3/4+z
1/2+x,1/2+y,z
1/2-x,1/2-y,z
3/4-x,3/4+y,1/4+z
3/4+x,3/4-y,1/4+z
loop_
_atom_site_type_symbol
_atom_site_label
_atom_site_fract_x
_atom_site_fract_y
_atom_site_fract_z
Si Si1 0.656117 0.546739 0.163260
Si Si2 0.408385 0.755667 0.369176
Si Si3 0.443072 0.533603 0.237069
Si Si4 0.231462 0.613102 0.839617
Si Si5 0.734058 0.994967 0.483232
Si Si6 0.824683 0.419558 0.314411
Si Si7 0.907716 0.880387 0.986677
Si Si8 0.052419 0.459936 0.997886
O O1 0.606359 0.509864 0.211796
O O2 0.695165 0.573442 0.257347
O O3 0.630834 0.599668 0.088277
O O4 0.690483 0.504142 0.081413
O O5 0.458875 0.763272 0.286654
O O6 0.416509 0.697662 0.443513
O O7 0.405907 0.811240 0.454405
O O8 0.354067 0.756401 0.297760
O O9 0.500000 0.500000 0.221693
O O10 0.445411 0.589116 0.153978
O O11 0.440258 0.551537 0.366380
O O12 0.259459 0.570085 0.931019
O O13 0.280438 0.643035 0.770098
O O14 0.714704 0.038306 0.384776
O O15 0.881753 0.414062 0.380453
O O16 0.800461 0.353913 0.306533
O O17 0.000000 0.500000 0.014754
#
# Coordination Sequence:
#
# PCOD9371442 Si02
#       8
#    16  16  16  16  16  16  16  16
#     4  11  24  41  64  96 129 171 215 269 329 386
#     4  11  21  43  64  94 128 164 219 262 325 387
#     4  11  24  40  62  93 131 170 216 264 325 388
#     4  12  23  42  66  92 131 172 218 269 329 384
#     4  11  22  39  68  93 123 167 219 266 319 392
#     4  10  22  40  66  93 128 167 214 265 322 387
#     4  10  22  40  63  95 127 165 213 270 312 394
#     4  10  24  42  60  93 132 167 210 269 321 387
#
# _framework density 19.150134999999999
#
# number of rings (size 3 to 8) (size 9 to 14) (size 15 to 20)
#    0.000    1.250    3.750    1.500    1.750    2.000 
#    2.250    6.250    0.000    0.000    0.000    0.000 
#    0.000    0.000    0.000    0.000    0.000    0.000 
#
# Total GULP energy -178747.989922 kJ/mol
# GULP energy per Si atom -5585.874685 kJ/mol
# Density = 1.910655 g / cm^3
# Si number density = 19.150135 Si / 1000 Ang^3
#
#
#
# Elastic Constant Matrix: (Units=GPa)
#
#
# Indices 1 2 3 4 5 6 
#
# 1 119.4154 19.7900 44.0192 0.0000 0.0000 0.0000
# 2 19.7900 54.0864 25.9012 0.0000 0.0000 0.0000
# 3 44.0192 25.9012 77.3545 0.0000 0.0000 0.0000
# 4 0.0000 0.0000 0.0000 16.3563 0.0000 0.0000
# 5 0.0000 0.0000 0.0000 0.0000 25.8253 0.0000
# 6 0.0000 0.0000 0.0000 0.0000 0.0000 33.7600
#
#
#
# Elastic Compliance Matrix: (Units=1/GPa)
#
#
# Indices 1 2 3 4 5 6 
#
# 1 0.010661 -0.001186 -0.005669 0.000000 0.000000 0.000000
# 2 -0.001186 0.022152 -0.006743 0.000000 0.000000 0.000000
# 3 -0.005669 -0.006743 0.018411 0.000000 0.000000 0.000000
# 4 0.000000 0.000000 0.000000 0.061138 0.000000 0.000000
# 5 0.000000 0.000000 0.000000 0.000000 0.038722 0.000000
# 6 0.000000 0.000000 0.000000 0.000000 0.000000 0.029621
#
#
# Mechanical properties :
#
#
# Convention : Reuss Voigt Hill
#
# Bulk Modulus (GPa) = 41.61748 47.80856 44.71302
# Shear Modulus (GPa) = 23.15788 25.93139 24.54463
#
# Velocity S-wave (km/s) = 3.48124 3.68382 3.58396
# Velocity P-wave (km/s) = 6.15939 6.56607 6.36598
#
# Compressibility (1/GPa) = 0.02402837
#
# Stress axis : x y z
#
# Youngs Moduli (GPa) = 93.80422 45.14335 54.31412
#
# Poissons Ratio (x) = 0.05352 0.30793
# Poissons Ratio (y) = 0.11121 0.36622
# Poissons Ratio (z) = 0.53182 0.30438
#
# Static dielectric constant tensor:
#      x y z
#    x 1.640420 0.000000 0.000000 
#    y 0.000000 1.647260 0.000000 
#    z 0.000000 0.000000 1.670620 
# 
# From -- ./inp_files/7691.got.cif
#   From: 2010.05.17/outbox.cif.g08.bks.cpg/sg43_4_cif.got.tgz:7691.got - 2010.06.03 19:21:55.
