data_PCOD9371992
_publ_section_title
;
Structure prediction by ZEFSAII (Michael W. Deem and Ramdas Pophale) SiO2 
 PCOD9371992
Probable space group: F D D 2
;
_chemical_formula_sum "Si O2"
_cell_formula_units_Z 64
_cell_length_a 12.638041
_cell_length_b 19.663975
_cell_length_c 9.275240
_cell_angle_alpha 90.000000
_cell_angle_beta 90.000000
_cell_angle_gamma 90.000000
_cell_volume 2305.028127
_symmetry_space_group_name_H-M "F D D 2"
_symmetry_group_IT_number 43
_symmetry_cell_setting 'orthorhombic'
loop_
_space_group_symop_operation_xyz
x,y,z
-x,-y,z
1/4-x,1/4+y,1/4+z
1/4+x,1/4-y,1/4+z
x,1/2+y,1/2+z
-x,1/2-y,1/2+z
1/4-x,3/4+y,3/4+z
1/4+x,3/4-y,3/4+z
1/2+x,y,1/2+z
1/2-x,-y,1/2+z
3/4-x,1/4+y,3/4+z
3/4+x,1/4-y,3/4+z
1/2+x,1/2+y,z
1/2-x,1/2-y,z
3/4-x,3/4+y,1/4+z
3/4+x,3/4-y,1/4+z
loop_
_atom_site_type_symbol
_atom_site_label
_atom_site_fract_x
_atom_site_fract_y
_atom_site_fract_z
Si Si1 0.814285 0.685890 0.097410
Si Si2 0.872771 0.271707 0.132038
Si Si3 0.615393 0.838699 0.406150
Si Si4 0.785181 0.917483 0.600268
O O1 0.750000 0.750000 0.039234
O O2 0.735079 0.623219 0.082265
O O3 0.820647 0.687670 0.269667
O O4 0.925713 0.679761 0.016514
O O5 0.750000 0.250000 0.156985
O O6 0.861100 0.349903 0.081788
O O7 0.931008 0.235631 0.265665
O O8 0.911423 0.226516 0.998903
O O9 0.680517 0.889992 0.513013
#
# Coordination Sequence:
#
# PCOD9371992 Si02
#       4
#    16  16  16  16
#     4  12  28  48  77 118 153 196 273 320 392 496
#     4  10  23  48  74 105 157 206 257 327 402 478
#     4  11  26  50  73 112 157 204 252 335 395 477
#     4  11  25  48  80 109 157 208 259 325 402 470
#
# _framework density 27.765388000000002
#
# number of rings (size 3 to 8) (size 9 to 14) (size 15 to 20)
#    0.000    1.000    2.500    3.000   10.500    2.000 
#    4.500    0.000    0.000    0.000    0.000    0.000 
#    0.000    0.000    0.000    0.000    0.000    0.000 
#
# Total GULP energy -89404.793212 kJ/mol
# GULP energy per Si atom -5587.799576 kJ/mol
# Density = 2.770219 g / cm^3
# Si number density = 27.765388 Si / 1000 Ang^3
#
#
#
# Elastic Constant Matrix: (Units=GPa)
#
#
# Indices 1 2 3 4 5 6 
#
# 1 138.3797 41.8281 38.2216 0.0000 0.0000 0.0000
# 2 41.8281 173.9386 21.8996 0.0000 0.0000 0.0000
# 3 38.2216 21.8996 178.6386 0.0000 0.0000 0.0000
# 4 0.0000 0.0000 0.0000 62.9500 0.0000 0.0000
# 5 0.0000 0.0000 0.0000 0.0000 50.3006 0.0000
# 6 0.0000 0.0000 0.0000 0.0000 0.0000 32.4771
#
#
#
# Elastic Compliance Matrix: (Units=1/GPa)
#
#
# Indices 1 2 3 4 5 6 
#
# 1 0.008187 -0.001776 -0.001534 0.000000 0.000000 0.000000
# 2 -0.001776 0.006224 -0.000383 0.000000 0.000000 0.000000
# 3 -0.001534 -0.000383 0.005973 0.000000 0.000000 0.000000
# 4 0.000000 0.000000 0.000000 0.015886 0.000000 0.000000
# 5 0.000000 0.000000 0.000000 0.000000 0.019880 0.000000
# 6 0.000000 0.000000 0.000000 0.000000 0.000000 0.030791
#
#
# Mechanical properties :
#
#
# Convention : Reuss Voigt Hill
#
# Bulk Modulus (GPa) = 76.92988 77.20617 77.06802
# Shear Modulus (GPa) = 50.67913 55.07937 52.87925
#
# Velocity S-wave (km/s) = 4.27694 4.45875 4.36879
# Velocity P-wave (km/s) = 7.22198 7.37389 7.29833
#
# Compressibility (1/GPa) = 0.01299885
#
# Stress axis : x y z
#
# Youngs Moduli (GPa) = 122.14609 160.65828 167.41783
#
# Poissons Ratio (x) = 0.28527 0.25682
# Poissons Ratio (y) = 0.21689 0.06415
# Poissons Ratio (z) = 0.18737 0.06156
#
# Static dielectric constant tensor:
#      x y z
#    x 2.251950 0.000000 0.000000 
#    y 0.000000 2.158360 0.000000 
#    z 0.000000 0.000000 2.213620 
# 
# From -- ./inp_files/2257.got.cif
#   From: 2010.05.17/outbox.cif.g08.bks.cpg/sg43_2_cif.got.tgz:2257.got - 2010.06.03 19:21:55.
