data_PCOD9372736
_publ_section_title
;
Structure prediction by ZEFSAII (Michael W. Deem and Ramdas Pophale) SiO2 
 PCOD9372736
Probable space group: F D D 2
;
_chemical_formula_sum "Si O2"
_cell_formula_units_Z 88
_cell_length_a 20.844127
_cell_length_b 14.977653
_cell_length_c 10.999479
_cell_angle_alpha 90.000000
_cell_angle_beta 90.000000
_cell_angle_gamma 90.000000
_cell_volume 3433.994460
_symmetry_space_group_name_H-M "F D D 2"
_symmetry_group_IT_number 43
_symmetry_cell_setting 'orthorhombic'
loop_
_space_group_symop_operation_xyz
x,y,z
-x,-y,z
1/4-x,1/4+y,1/4+z
1/4+x,1/4-y,1/4+z
x,1/2+y,1/2+z
-x,1/2-y,1/2+z
1/4-x,3/4+y,3/4+z
1/4+x,3/4-y,3/4+z
1/2+x,y,1/2+z
1/2-x,-y,1/2+z
3/4-x,1/4+y,3/4+z
3/4+x,1/4-y,3/4+z
1/2+x,1/2+y,z
1/2-x,1/2-y,z
3/4-x,3/4+y,1/4+z
3/4+x,3/4-y,1/4+z
loop_
_atom_site_type_symbol
_atom_site_label
_atom_site_fract_x
_atom_site_fract_y
_atom_site_fract_z
Si Si1 0.442016 0.637645 0.573910
Si Si2 0.950973 0.350931 0.564509
Si Si3 0.199134 0.092801 0.091462
Si Si4 0.750000 0.250000 0.991725
Si Si5 0.372216 0.753153 0.168084
Si Si6 0.062678 0.167982 0.461556
O O1 0.435236 0.744350 0.564209
O O2 0.464757 0.618026 0.709828
O O3 0.384694 0.575889 0.524585
O O4 0.498784 0.613240 0.482783
O O5 0.877663 0.385526 0.593792
O O6 0.991120 0.411324 0.659311
O O7 0.995340 0.367144 0.440614
O O8 0.195425 0.984409 0.100220
O O9 0.685427 0.246429 0.070416
O O10 0.369094 0.653096 0.216331
O O11 0.431922 0.771200 0.082008
#
# Coordination Sequence:
#
# PCOD9372736 Si02
#       6
#    16  16  16   8  16  16
#     4  11  27  46  74 107 157 193 264 331 403 487
#     4  11  28  47  78 113 153 214 254 345 404 503
#     4  11  27  48  75 115 160 199 268 332 421 482
#     4  12  24  48  78 104 154 202 270 312 408 494
#     4  12  26  47  77 107 146 202 265 329 406 492
#     4  11  26  46  75 107 145 206 256 324 402 496
#
# _framework density 25.626132999999999
#
# number of rings (size 3 to 8) (size 9 to 14) (size 15 to 20)
#    0.000    0.727    3.636    1.091   15.273    0.000 
#    3.273    0.000    0.000    0.000    0.000    0.000 
#    0.000    0.000    0.000    0.000    0.000    0.000 
#
# Total GULP energy -122619.528740 kJ/mol
# GULP energy per Si atom -5573.614943 kJ/mol
# Density = 2.556781 g / cm^3
# Si number density = 25.626133 Si / 1000 Ang^3
#
#
#
# Elastic Constant Matrix: (Units=GPa)
#
#
# Indices 1 2 3 4 5 6 
#
# 1 90.8460 -1.7164 8.0107 0.0000 0.0000 0.0000
# 2 -1.7164 113.4300 40.1307 0.0000 0.0000 0.0000
# 3 8.0107 40.1307 109.5228 0.0000 0.0000 0.0000
# 4 0.0000 0.0000 0.0000 12.1189 0.0000 0.0000
# 5 0.0000 0.0000 0.0000 0.0000 40.4406 0.0000
# 6 0.0000 0.0000 0.0000 0.0000 0.0000 19.0974
#
#
#
# Elastic Compliance Matrix: (Units=1/GPa)
#
#
# Indices 1 2 3 4 5 6 
#
# 1 0.011106 0.000523 -0.001004 0.000000 0.000000 0.000000
# 2 0.000523 0.010154 -0.003759 0.000000 0.000000 0.000000
# 3 -0.001004 -0.003759 0.010581 0.000000 0.000000 0.000000
# 4 0.000000 0.000000 0.000000 0.082516 0.000000 0.000000
# 5 0.000000 0.000000 0.000000 0.000000 0.024728 0.000000
# 6 0.000000 0.000000 0.000000 0.000000 0.000000 0.052363
#
#
# Mechanical properties :
#
#
# Convention : Reuss Voigt Hill
#
# Bulk Modulus (GPa) = 42.80461 45.18320 43.99391
# Shear Modulus (GPa) = 24.07160 32.15631 28.11395
#
# Velocity S-wave (km/s) = 3.06819 3.54619 3.31582
# Velocity P-wave (km/s) = 5.41216 5.86833 5.64485
#
# Compressibility (1/GPa) = 0.02336197
#
# Stress axis : x y z
#
# Youngs Moduli (GPa) = 90.04094 98.48588 94.50708
#
# Poissons Ratio (x) = -0.05154 0.09489
# Poissons Ratio (y) = -0.04712 0.35523
# Poissons Ratio (z) = 0.09041 0.37018
#
# Static dielectric constant tensor:
#      x y z
#    x 2.047260 0.000000 0.000000 
#    y 0.000000 2.010000 0.000000 
#    z 0.000000 0.000000 2.037320 
# 
# From -- ./inp_files/7477.got.cif
#   From: 2010.05.17/outbox.cif.g08.bks.cpg/sg43_4_cif.got.tgz:7477.got - 2010.06.03 19:21:55.
