data_PCOD9372057
_publ_section_title
;
Structure prediction by ZEFSAII (Michael W. Deem and Ramdas Pophale) SiO2 
 PCOD9372057
Probable space group: F D D 2
;
_chemical_formula_sum "Si O2"
_cell_formula_units_Z 88
_cell_length_a 11.831430
_cell_length_b 18.319572
_cell_length_c 19.844911
_cell_angle_alpha 90.000000
_cell_angle_beta 90.000000
_cell_angle_gamma 90.000000
_cell_volume 4301.319641
_symmetry_space_group_name_H-M "F D D 2"
_symmetry_group_IT_number 43
_symmetry_cell_setting 'orthorhombic'
loop_
_space_group_symop_operation_xyz
x,y,z
-x,-y,z
1/4-x,1/4+y,1/4+z
1/4+x,1/4-y,1/4+z
x,1/2+y,1/2+z
-x,1/2-y,1/2+z
1/4-x,3/4+y,3/4+z
1/4+x,3/4-y,3/4+z
1/2+x,y,1/2+z
1/2-x,-y,1/2+z
3/4-x,1/4+y,3/4+z
3/4+x,1/4-y,3/4+z
1/2+x,1/2+y,z
1/2-x,1/2-y,z
3/4-x,3/4+y,1/4+z
3/4+x,3/4-y,1/4+z
loop_
_atom_site_type_symbol
_atom_site_label
_atom_site_fract_x
_atom_site_fract_y
_atom_site_fract_z
Si Si1 0.250000 0.750000 0.476490
Si Si2 0.534923 0.109331 0.881783
Si Si3 0.734367 0.982215 0.152466
Si Si4 0.811853 0.018218 0.390312
Si Si5 0.465770 0.656980 0.028403
Si Si6 0.293689 0.407698 0.017254
O O1 0.142656 0.734276 0.429761
O O2 0.239225 0.826124 0.516794
O O3 0.530721 0.187272 0.914928
O O4 0.410184 0.076336 0.872033
O O5 0.600842 0.120330 0.811451
O O6 0.613990 0.050040 0.919208
O O7 0.800383 0.927377 0.201115
O O8 0.742186 0.956314 0.076326
O O9 0.731112 0.054431 0.445239
O O10 0.758047 0.980153 0.323888
O O11 0.573298 0.604207 0.031696
#
# Coordination Sequence:
#
# PCOD9372057 Si02
#       6
#     8  16  16  16  16  16
#     4  10  24  44  60  98 138 176 236 282 350 408
#     4   9  20  44  68 100 129 180 233 275 342 413
#     4  11  23  41  71  97 134 180 229 283 352 419
#     4   9  20  44  67  97 136 178 230 279 341 408
#     4   9  23  42  62 101 139 172 220 293 345 399
#     4  11  23  41  65 102 135 181 227 287 356 406
#
# _framework density 20.458836999999999
#
# number of rings (size 3 to 8) (size 9 to 14) (size 15 to 20)
#    1.091    1.091    1.818    0.000    0.000   10.909 
#    6.545    1.818    0.000    0.000    0.000    0.000 
#    0.000    0.000    0.000    0.000    0.000    0.000 
#
# Total GULP energy -122527.029703 kJ/mol
# GULP energy per Si atom -5569.410441 kJ/mol
# Density = 2.041227 g / cm^3
# Si number density = 20.458837 Si / 1000 Ang^3
#
#
#
# Elastic Constant Matrix: (Units=GPa)
#
#
# Indices 1 2 3 4 5 6 
#
# 1 76.7160 11.8696 27.1740 0.0000 0.0000 0.0000
# 2 11.8696 62.8441 1.1545 0.0000 0.0000 0.0000
# 3 27.1740 1.1545 59.9066 0.0000 0.0000 0.0000
# 4 0.0000 0.0000 0.0000 30.2425 0.0000 0.0000
# 5 0.0000 0.0000 0.0000 0.0000 8.7120 0.0000
# 6 0.0000 0.0000 0.0000 0.0000 0.0000 13.4771
#
#
#
# Elastic Compliance Matrix: (Units=1/GPa)
#
#
# Indices 1 2 3 4 5 6 
#
# 1 0.016041 -0.002897 -0.007220 0.000000 0.000000 0.000000
# 2 -0.002897 0.016441 0.000997 0.000000 0.000000 0.000000
# 3 -0.007220 0.000997 0.019949 0.000000 0.000000 0.000000
# 4 0.000000 0.000000 0.000000 0.033066 0.000000 0.000000
# 5 0.000000 0.000000 0.000000 0.000000 0.114784 0.000000
# 6 0.000000 0.000000 0.000000 0.000000 0.000000 0.074200
#
#
# Mechanical properties :
#
#
# Convention : Reuss Voigt Hill
#
# Bulk Modulus (GPa) = 29.24799 31.09588 30.17194
# Shear Modulus (GPa) = 16.44101 21.10424 18.77263
#
# Velocity S-wave (km/s) = 2.83788 3.21525 3.03245
# Velocity P-wave (km/s) = 5.00651 5.38665 5.20006
#
# Compressibility (1/GPa) = 0.03419039
#
# Stress axis : x y z
#
# Youngs Moduli (GPa) = 62.34060 60.82265 50.12870
#
# Poissons Ratio (x) = 0.17621 0.36195
# Poissons Ratio (y) = 0.18060 -0.04999
# Poissons Ratio (z) = 0.45012 -0.06066
#
# Static dielectric constant tensor:
#      x y z
#    x 1.750980 0.000000 0.000000 
#    y 0.000000 1.765680 0.000000 
#    z 0.000000 0.000000 1.701600 
# 
# From -- ./inp_files/17047.got.cif
#   From: 2010.05.17/outbox.cif.g08.bks.cpg/sg43_9_cif.got.tgz:17047.got - 2010.06.03 19:21:55.
