data_PCOD9372574
_publ_section_title
;
Structure prediction by ZEFSAII (Michael W. Deem and Ramdas Pophale) SiO2 
 PCOD9372574
Probable space group: F D D 2
;
_chemical_formula_sum "Si O2"
_cell_formula_units_Z 72
_cell_length_a 13.265097
_cell_length_b 7.942579
_cell_length_c 25.183399
_cell_angle_alpha 90.000000
_cell_angle_beta 90.000000
_cell_angle_gamma 90.000000
_cell_volume 2653.299772
_symmetry_space_group_name_H-M "F D D 2"
_symmetry_group_IT_number 43
_symmetry_cell_setting 'orthorhombic'
loop_
_space_group_symop_operation_xyz
x,y,z
-x,-y,z
1/4-x,1/4+y,1/4+z
1/4+x,1/4-y,1/4+z
x,1/2+y,1/2+z
-x,1/2-y,1/2+z
1/4-x,3/4+y,3/4+z
1/4+x,3/4-y,3/4+z
1/2+x,y,1/2+z
1/2-x,-y,1/2+z
3/4-x,1/4+y,3/4+z
3/4+x,1/4-y,3/4+z
1/2+x,1/2+y,z
1/2-x,1/2-y,z
3/4-x,3/4+y,1/4+z
3/4+x,3/4-y,1/4+z
loop_
_atom_site_type_symbol
_atom_site_label
_atom_site_fract_x
_atom_site_fract_y
_atom_site_fract_z
Si Si1 0.565066 0.168647 0.947930
Si Si2 0.250000 0.750000 0.479638
Si Si3 0.425507 0.210227 0.794541
Si Si4 0.140353 0.264339 0.342906
Si Si5 0.110717 0.623434 0.397010
O O1 0.641957 0.163962 0.898595
O O2 0.487510 0.316708 0.930984
O O3 0.500000 0.000000 0.946947
O O4 0.622437 0.166395 0.003979
O O5 0.326421 0.640018 0.513885
O O6 0.195117 0.619737 0.441380
O O7 0.544163 0.198298 0.809894
O O8 0.374763 0.231764 0.852039
O O9 0.250000 0.250000 0.317087
O O10 0.115158 0.454268 0.362258
#
# Coordination Sequence:
#
# PCOD9372574 Si02
#       5
#    16   8  16  16  16
#     4  11  23  45  78 118 161 213 277 341 426 502
#     4  12  22  42  74 112 152 214 262 340 412 490
#     4  11  23  48  74 114 160 213 276 336 432 489
#     4  11  25  51  80 118 164 218 284 355 425 513
#     4  11  25  45  81 114 165 210 282 346 417 506
#
# _framework density 27.136022000000001
#
# number of rings (size 3 to 8) (size 9 to 14) (size 15 to 20)
#    0.000    0.889    4.444    3.333    1.556    0.000 
#    0.000   26.667    0.000    0.000    0.000    0.000 
#    0.000    0.000    0.000    0.000    0.000    0.000 
#
# Total GULP energy -100679.411866 kJ/mol
# GULP energy per Si atom -5593.300659 kJ/mol
# Density = 2.707426 g / cm^3
# Si number density = 27.136022 Si / 1000 Ang^3
#
#
#
# Elastic Constant Matrix: (Units=GPa)
#
#
# Indices 1 2 3 4 5 6 
#
# 1 131.4257 44.0530 59.1428 0.0000 0.0000 0.0000
# 2 44.0530 117.2796 52.2914 0.0000 0.0000 0.0000
# 3 59.1428 52.2914 188.8141 0.0000 0.0000 0.0000
# 4 0.0000 0.0000 0.0000 48.4920 0.0000 0.0000
# 5 0.0000 0.0000 0.0000 0.0000 30.1834 0.0000
# 6 0.0000 0.0000 0.0000 0.0000 0.0000 41.3117
#
#
#
# Elastic Compliance Matrix: (Units=1/GPa)
#
#
# Indices 1 2 3 4 5 6 
#
# 1 0.009483 -0.002553 -0.002263 0.000000 0.000000 0.000000
# 2 -0.002553 0.010415 -0.002085 0.000000 0.000000 0.000000
# 3 -0.002263 -0.002085 0.006583 0.000000 0.000000 0.000000
# 4 0.000000 0.000000 0.000000 0.020622 0.000000 0.000000
# 5 0.000000 0.000000 0.000000 0.000000 0.033131 0.000000
# 6 0.000000 0.000000 0.000000 0.000000 0.000000 0.024206
#
#
# Mechanical properties :
#
#
# Convention : Reuss Voigt Hill
#
# Bulk Modulus (GPa) = 78.87294 83.16598 81.01946
# Shear Modulus (GPa) = 40.82697 42.79958 41.81328
#
# Velocity S-wave (km/s) = 3.88304 3.97574 3.92966
# Velocity P-wave (km/s) = 7.01661 7.19650 7.10713
#
# Compressibility (1/GPa) = 0.01267862
#
# Stress axis : x y z
#
# Youngs Moduli (GPa) = 105.45040 96.01449 151.91657
#
# Poissons Ratio (x) = 0.24512 0.34385
# Poissons Ratio (y) = 0.26920 0.31671
# Poissons Ratio (z) = 0.23868 0.20017
#
# Static dielectric constant tensor:
#      x y z
#    x 2.193090 0.000000 0.000000 
#    y 0.000000 2.199440 0.000000 
#    z 0.000000 0.000000 2.071630 
# 
# From -- ./inp_files/25483.got.cif
#   From: 2010.05.17/outbox.cif.g08.bks.cpg/sg43_13_cif.got.tgz:25483.got - 2010.06.03 19:21:55.
