data_PCOD9372897
_publ_section_title
;
Structure prediction by ZEFSAII (Michael W. Deem and Ramdas Pophale) SiO2 
 PCOD9372897
Probable space group: F D D 2
;
_chemical_formula_sum "Si O2"
_cell_formula_units_Z 56
_cell_length_a 30.030000
_cell_length_b 14.700408
_cell_length_c 4.700516
_cell_angle_alpha 90.000000
_cell_angle_beta 90.000000
_cell_angle_gamma 90.000000
_cell_volume 2075.058075
_symmetry_space_group_name_H-M "F D D 2"
_symmetry_group_IT_number 43
_symmetry_cell_setting 'orthorhombic'
loop_
_space_group_symop_operation_xyz
x,y,z
-x,-y,z
1/4-x,1/4+y,1/4+z
1/4+x,1/4-y,1/4+z
x,1/2+y,1/2+z
-x,1/2-y,1/2+z
1/4-x,3/4+y,3/4+z
1/4+x,3/4-y,3/4+z
1/2+x,y,1/2+z
1/2-x,-y,1/2+z
3/4-x,1/4+y,3/4+z
3/4+x,1/4-y,3/4+z
1/2+x,1/2+y,z
1/2-x,1/2-y,z
3/4-x,3/4+y,1/4+z
3/4+x,3/4-y,1/4+z
loop_
_atom_site_type_symbol
_atom_site_label
_atom_site_fract_x
_atom_site_fract_y
_atom_site_fract_z
Si Si1 0.143593 0.472738 0.586740
Si Si2 0.500000 0.500000 0.916696
Si Si3 0.979866 0.197188 0.106159
Si Si4 0.412443 0.971618 0.049385
O O1 0.180994 0.538086 0.721811
O O2 0.164175 0.373177 0.625684
O O3 0.125729 0.510323 0.289011
O O4 0.101276 0.462850 0.795557
O O5 0.493252 0.592228 0.093294
O O6 0.457621 0.486938 0.713909
O O7 0.014403 0.255165 0.909843
#
# Coordination Sequence:
#
# PCOD9372897 Si02
#       4
#    16   8  16  16
#     4  12  26  51  75 114 158 207 264 326 395 480
#     4  12  28  50  80 116 158 206 260 330 404 466
#     4  12  27  49  79 112 158 200 262 325 389 477
#     4  12  27  48  78 112 157 206 264 327 400 474
#
# _framework density 26.987195
#
# number of rings (size 3 to 8) (size 9 to 14) (size 15 to 20)
#    0.000    0.000    2.857    6.857    4.000    4.571 
#    0.000    0.000    0.000    0.000    0.000    0.000 
#    0.000    0.000    0.000    0.000    0.000    0.000 
#
# Total GULP energy -78570.619555 kJ/mol
# GULP energy per Si atom -5612.187111 kJ/mol
# Density = 2.692577 g / cm^3
# Si number density = 26.987195 Si / 1000 Ang^3
#
#
#
# Elastic Constant Matrix: (Units=GPa)
#
#
# Indices 1 2 3 4 5 6 
#
# 1 150.7405 43.8361 38.6711 0.0009 -0.0008 -0.0002
# 2 43.8361 186.0839 32.7676 0.0018 -0.0003 -0.0001
# 3 38.6711 32.7676 130.9081 0.0056 -0.0019 -0.0003
# 4 0.0009 0.0018 0.0056 35.4997 -0.0007 -0.0003
# 5 -0.0008 -0.0003 -0.0019 -0.0007 61.7834 0.0005
# 6 -0.0002 -0.0001 -0.0003 -0.0003 0.0005 37.0434
#
#
#
# Elastic Compliance Matrix: (Units=1/GPa)
#
#
# Indices 1 2 3 4 5 6 
#
# 1 0.007532 -0.001446 -0.001863 0.000000 0.000000 0.000000
# 2 -0.001446 0.005899 -0.001049 0.000000 0.000000 0.000000
# 3 -0.001863 -0.001049 0.008452 -0.000001 0.000000 0.000000
# 4 0.000000 0.000000 -0.000001 0.028169 0.000000 0.000000
# 5 0.000000 0.000000 0.000000 0.000000 0.016186 0.000000
# 6 0.000000 0.000000 0.000000 0.000000 0.000000 0.026995
#
#
# Mechanical properties :
#
#
# Convention : Reuss Voigt Hill
#
# Bulk Modulus (GPa) = 75.95242 77.58692 76.76967
# Shear Modulus (GPa) = 47.01871 50.36247 48.69059
#
# Velocity S-wave (km/s) = 4.17857 4.32460 4.25221
# Velocity P-wave (km/s) = 7.17534 7.33131 7.25375
#
# Compressibility (1/GPa) = 0.01316614
#
# Stress axis : x y z
#
# Youngs Moduli (GPa) = 132.75819 169.50769 118.31516
#
# Poissons Ratio (x) = 0.24517 0.22043
# Poissons Ratio (y) = 0.19202 0.12416
# Poissons Ratio (z) = 0.24734 0.17789
#
# Static dielectric constant tensor:
#      x y z
#    x 2.190030 0.000000 0.000000 
#    y 0.000000 2.201290 0.000000 
#    z 0.000000 0.000000 2.014510 
# 
# From -- ./inp_files/312.got.cif
#   From: 2010.05.17/outbox.cif.g08.bks.cpg/sg43_1_cif.got.tgz:312.got - 2010.06.03 19:21:55.
