data_PCOD9372434
_publ_section_title
;
Structure prediction by ZEFSAII (Michael W. Deem and Ramdas Pophale) SiO2 
 PCOD9372434
Probable space group: F D D 2
;
_chemical_formula_sum "Si O2"
_cell_formula_units_Z 96
_cell_length_a 19.905932
_cell_length_b 11.642678
_cell_length_c 19.808509
_cell_angle_alpha 90.000000
_cell_angle_beta 90.000000
_cell_angle_gamma 90.000000
_cell_volume 4590.787492
_symmetry_space_group_name_H-M "F D D 2"
_symmetry_group_IT_number 43
_symmetry_cell_setting 'orthorhombic'
loop_
_space_group_symop_operation_xyz
x,y,z
-x,-y,z
1/4-x,1/4+y,1/4+z
1/4+x,1/4-y,1/4+z
x,1/2+y,1/2+z
-x,1/2-y,1/2+z
1/4-x,3/4+y,3/4+z
1/4+x,3/4-y,3/4+z
1/2+x,y,1/2+z
1/2-x,-y,1/2+z
3/4-x,1/4+y,3/4+z
3/4+x,1/4-y,3/4+z
1/2+x,1/2+y,z
1/2-x,1/2-y,z
3/4-x,3/4+y,1/4+z
3/4+x,3/4-y,1/4+z
loop_
_atom_site_type_symbol
_atom_site_label
_atom_site_fract_x
_atom_site_fract_y
_atom_site_fract_z
Si Si1 0.127171 0.840560 0.819380
Si Si2 0.824422 0.906566 0.283250
Si Si3 0.275799 0.563739 0.406974
Si Si4 0.205592 0.360109 0.451067
Si Si5 0.854416 0.287969 0.426992
Si Si6 0.997306 0.861713 0.895303
O O1 0.169728 0.726874 0.803698
O O2 0.163392 0.895977 0.884087
O O3 0.118348 0.916045 0.752840
O O4 0.053059 0.810223 0.845915
O O5 0.899960 0.925640 0.255486
O O6 0.773535 0.916043 0.220744
O O7 0.801663 0.990705 0.342722
O O8 0.254151 0.468247 0.462015
O O9 0.208486 0.640177 0.397499
O O10 0.332191 0.655558 0.427883
O O11 0.250000 0.250000 0.437249
O O12 0.922580 0.314852 0.387065
O O13 0.000000 0.000000 0.886539
#
# Coordination Sequence:
#
# PCOD9372434 Si02
#       6
#    16  16  16  16  16  16
#     4  11  22  40  72  98 136 179 241 282 333 427
#     4  11  23  43  66 101 136 180 238 284 340 422
#     4  11  24  43  65  97 143 182 224 293 358 407
#     4  11  22  40  71 100 132 189 233 283 350 415
#     4  11  24  45  65 108 142 180 226 292 365 411
#     4  11  23  40  70 103 129 184 240 282 340 412
#
# _framework density 20.911443999999999
#
# number of rings (size 3 to 8) (size 9 to 14) (size 15 to 20)
#    0.000    1.000    5.000    2.000    2.333    1.333 
#    0.000    3.333    0.000    0.000    0.000    0.000 
#    0.000    0.000    0.000    0.000    0.000    0.000 
#
# Total GULP energy -134073.761060 kJ/mol
# GULP energy per Si atom -5586.406711 kJ/mol
# Density = 2.086385 g / cm^3
# Si number density = 20.911444 Si / 1000 Ang^3
#
#
#
# Elastic Constant Matrix: (Units=GPa)
#
#
# Indices 1 2 3 4 5 6 
#
# 1 151.6365 58.2902 31.0129 0.0000 0.0000 0.0000
# 2 58.2902 120.1535 31.5883 0.0000 0.0000 0.0000
# 3 31.0129 31.5883 84.1480 0.0000 0.0000 0.0000
# 4 0.0000 0.0000 0.0000 27.7733 0.0000 0.0000
# 5 0.0000 0.0000 0.0000 0.0000 25.3115 0.0000
# 6 0.0000 0.0000 0.0000 0.0000 0.0000 36.9217
#
#
#
# Elastic Compliance Matrix: (Units=1/GPa)
#
#
# Indices 1 2 3 4 5 6 
#
# 1 0.008325 -0.003586 -0.001722 0.000000 0.000000 0.000000
# 2 -0.003586 0.010779 -0.002725 0.000000 0.000000 0.000000
# 3 -0.001722 -0.002725 0.013541 0.000000 0.000000 0.000000
# 4 0.000000 0.000000 0.000000 0.036006 0.000000 0.000000
# 5 0.000000 0.000000 0.000000 0.000000 0.039508 0.000000
# 6 0.000000 0.000000 0.000000 0.000000 0.000000 0.027084
#
#
# Mechanical properties :
#
#
# Convention : Reuss Voigt Hill
#
# Bulk Modulus (GPa) = 60.31452 66.41343 63.36398
# Shear Modulus (GPa) = 31.88049 33.67107 32.77578
#
# Velocity S-wave (km/s) = 3.90878 4.01705 3.96329
# Velocity P-wave (km/s) = 7.01975 7.30369 7.16313
#
# Compressibility (1/GPa) = 0.01657975
#
# Stress axis : x y z
#
# Youngs Moduli (GPa) = 120.11292 92.77514 73.84823
#
# Poissons Ratio (x) = 0.33271 0.12718
# Poissons Ratio (y) = 0.43075 0.20120
# Poissons Ratio (z) = 0.20685 0.25277
#
# Static dielectric constant tensor:
#      x y z
#    x 1.792350 0.000000 0.000000 
#    y 0.000000 1.754370 0.000000 
#    z 0.000000 0.000000 1.786840 
# 
# From -- ./inp_files/17127.got.cif
#   From: 2010.05.17/outbox.cif.g08.bks.cpg/sg43_9_cif.got.tgz:17127.got - 2010.06.03 19:21:55.
