data_PCOD9372617
_publ_section_title
;
Structure prediction by ZEFSAII (Michael W. Deem and Ramdas Pophale) SiO2 
 PCOD9372617
Probable space group: F D D 2
;
_chemical_formula_sum "Si O2"
_cell_formula_units_Z 112
_cell_length_a 30.169115
_cell_length_b 15.209999
_cell_length_c 11.690063
_cell_angle_alpha 90.000000
_cell_angle_beta 90.000000
_cell_angle_gamma 90.000000
_cell_volume 5364.245032
_symmetry_space_group_name_H-M "F D D 2"
_symmetry_group_IT_number 43
_symmetry_cell_setting 'orthorhombic'
loop_
_space_group_symop_operation_xyz
x,y,z
-x,-y,z
1/4-x,1/4+y,1/4+z
1/4+x,1/4-y,1/4+z
x,1/2+y,1/2+z
-x,1/2-y,1/2+z
1/4-x,3/4+y,3/4+z
1/4+x,3/4-y,3/4+z
1/2+x,y,1/2+z
1/2-x,-y,1/2+z
3/4-x,1/4+y,3/4+z
3/4+x,1/4-y,3/4+z
1/2+x,1/2+y,z
1/2-x,1/2-y,z
3/4-x,3/4+y,1/4+z
3/4+x,3/4-y,1/4+z
loop_
_atom_site_type_symbol
_atom_site_label
_atom_site_fract_x
_atom_site_fract_y
_atom_site_fract_z
Si Si1 0.749567 0.518423 0.412610
Si Si2 0.754095 0.848691 0.760774
Si Si3 0.782058 0.670493 0.254063
Si Si4 0.396514 0.482230 0.196838
Si Si5 0.828440 0.050794 0.561553
Si Si6 0.679937 0.921815 0.590276
Si Si7 0.848444 0.873005 0.640850
O O1 0.751841 0.424834 0.352677
O O2 0.752179 0.596810 0.319925
O O3 0.708527 0.508394 0.497827
O O4 0.792025 0.535707 0.489792
O O5 0.750000 0.750000 0.805614
O O6 0.714274 0.870965 0.672597
O O7 0.801706 0.856231 0.701600
O O8 0.750000 0.750000 0.217596
O O9 0.817802 0.709381 0.346957
O O10 0.806609 0.620963 0.148789
O O11 0.348206 0.501958 0.148205
O O12 0.398129 0.401197 0.284690
O O13 0.405152 0.569629 0.271979
O O14 0.860616 0.089098 0.465753
O O15 0.855320 0.977114 0.630242
#
# Coordination Sequence:
#
# PCOD9372617 Si02
#       7
#    16  16  16  16  16  16  16
#     4  11  24  47  72 100 146 189 234 301 364 437
#     4  12  25  46  71 103 138 188 241 289 363 424
#     4  11  26  47  73 106 144 191 241 305 367 435
#     4  11  25  42  74 103 137 185 244 289 355 443
#     4  12  27  45  70 106 146 187 244 301 370 429
#     4  11  24  45  69 102 138 183 233 293 354 424
#     4  12  25  46  70 102 143 189 238 303 355 442
#
# _framework density 20.878986000000001
#
# number of rings (size 3 to 8) (size 9 to 14) (size 15 to 20)
#    0.000    0.571    4.286    2.571    6.000    2.857 
#    0.000    0.000    0.000    0.000    0.000    0.000 
#    0.000    0.000    0.000    0.000    0.000    0.000 
#
# Total GULP energy -156507.078549 kJ/mol
# GULP energy per Si atom -5589.538520 kJ/mol
# Density = 2.083146 g / cm^3
# Si number density = 20.878986 Si / 1000 Ang^3
#
#
#
# Elastic Constant Matrix: (Units=GPa)
#
#
# Indices 1 2 3 4 5 6 
#
# 1 97.1925 58.8361 30.9201 0.0000 0.0000 0.0000
# 2 58.8361 171.3996 56.2009 0.0000 0.0000 0.0000
# 3 30.9201 56.2009 73.9832 0.0000 0.0000 0.0000
# 4 0.0000 0.0000 0.0000 22.4428 0.0000 0.0000
# 5 0.0000 0.0000 0.0000 0.0000 13.1480 0.0000
# 6 0.0000 0.0000 0.0000 0.0000 0.0000 36.8364
#
#
#
# Elastic Compliance Matrix: (Units=1/GPa)
#
#
# Indices 1 2 3 4 5 6 
#
# 1 0.013412 -0.003683 -0.002807 0.000000 0.000000 0.000000
# 2 -0.003683 0.008781 -0.005131 0.000000 0.000000 0.000000
# 3 -0.002807 -0.005131 0.018588 0.000000 0.000000 0.000000
# 4 0.000000 0.000000 0.000000 0.044558 0.000000 0.000000
# 5 0.000000 0.000000 0.000000 0.000000 0.076057 0.000000
# 6 0.000000 0.000000 0.000000 0.000000 0.000000 0.027147
#
#
# Mechanical properties :
#
#
# Convention : Reuss Voigt Hill
#
# Bulk Modulus (GPa) = 57.02189 70.49885 63.76037
# Shear Modulus (GPa) = 22.97462 27.59332 25.28397
#
# Velocity S-wave (km/s) = 3.32078 3.63930 3.48368
# Velocity P-wave (km/s) = 6.48640 7.17622 6.84001
#
# Compressibility (1/GPa) = 0.01753712
#
# Stress axis : x y z
#
# Youngs Moduli (GPa) = 74.56206 113.87991 53.79918
#
# Poissons Ratio (x) = 0.41946 0.15102
# Poissons Ratio (y) = 0.27464 0.27605
# Poissons Ratio (z) = 0.20931 0.58434
#
# Static dielectric constant tensor:
#      x y z
#    x 1.806280 0.000000 0.000000 
#    y 0.000000 1.734160 0.000000 
#    z 0.000000 0.000000 1.801210 
# 
# From -- ./inp_files/6325.got.cif
#   From: 2010.05.17/outbox.cif.g08.bks.cpg/sg43_4_cif.got.tgz:6325.got - 2010.06.03 19:21:55.
