data_PCOD9372389
_publ_section_title
;
Structure prediction by ZEFSAII (Michael W. Deem and Ramdas Pophale) SiO2 
 PCOD9372389
Probable space group: F D D 2
;
_chemical_formula_sum "Si O2"
_cell_formula_units_Z 88
_cell_length_a 27.112768
_cell_length_b 9.391548
_cell_length_c 15.489313
_cell_angle_alpha 90.000000
_cell_angle_beta 90.000000
_cell_angle_gamma 90.000000
_cell_volume 3944.057122
_symmetry_space_group_name_H-M "F D D 2"
_symmetry_group_IT_number 43
_symmetry_cell_setting 'orthorhombic'
loop_
_space_group_symop_operation_xyz
x,y,z
-x,-y,z
1/4-x,1/4+y,1/4+z
1/4+x,1/4-y,1/4+z
x,1/2+y,1/2+z
-x,1/2-y,1/2+z
1/4-x,3/4+y,3/4+z
1/4+x,3/4-y,3/4+z
1/2+x,y,1/2+z
1/2-x,-y,1/2+z
3/4-x,1/4+y,3/4+z
3/4+x,1/4-y,3/4+z
1/2+x,1/2+y,z
1/2-x,1/2-y,z
3/4-x,3/4+y,1/4+z
3/4+x,3/4-y,1/4+z
loop_
_atom_site_type_symbol
_atom_site_label
_atom_site_fract_x
_atom_site_fract_y
_atom_site_fract_z
Si Si1 0.401520 0.922194 0.188200
Si Si2 0.500000 0.000000 0.880219
Si Si3 0.521714 0.303093 0.233577
Si Si4 0.913662 0.429483 0.988232
Si Si5 0.162462 0.216061 0.359962
Si Si6 0.342046 0.508566 0.956271
O O1 0.447250 0.842478 0.235151
O O2 0.353446 0.843989 0.225875
O O3 0.409370 0.888173 0.087131
O O4 0.282961 0.844454 0.064880
O O5 0.536523 0.223650 0.743136
O O6 0.466201 0.909340 0.944156
O O7 0.538067 0.387572 0.145628
O O8 0.400817 0.091353 0.192789
O O9 0.875058 0.345868 0.930603
O O10 0.161346 0.385855 0.374910
O O11 0.136749 0.190189 0.268178
#
# Coordination Sequence:
#
# PCOD9372389 Si02
#       6
#    16   8  16  16  16  16
#     4  11  25  42  69  97 142 172 229 287 354 401
#     4  12  22  42  72  96 134 180 244 276 340 416
#     4  11  22  43  67  99 134 185 222 290 337 420
#     4  11  23  43  67  99 129 187 225 279 343 427
#     4  11  21  41  69  93 132 180 230 274 344 405
#     4  12  23  41  66 102 134 177 226 291 346 405
#
# _framework density 22.312049999999999
#
# number of rings (size 3 to 8) (size 9 to 14) (size 15 to 20)
#    0.000    0.727    3.636    6.000    2.545    0.000 
#    0.000    0.000    0.000    0.000    0.000    0.000 
#    0.000    0.000    0.000    0.000    0.000    0.000 
#
# Total GULP energy -122771.679342 kJ/mol
# GULP energy per Si atom -5580.530879 kJ/mol
# Density = 2.226127 g / cm^3
# Si number density = 22.312050 Si / 1000 Ang^3
#
#
#
# Elastic Constant Matrix: (Units=GPa)
#
#
# Indices 1 2 3 4 5 6 
#
# 1 57.8628 -9.5159 9.4951 0.0000 0.0000 0.0000
# 2 -9.5159 123.2816 -3.2386 0.0000 0.0000 0.0000
# 3 9.4951 -3.2386 75.5371 0.0000 0.0000 0.0000
# 4 0.0000 0.0000 0.0000 30.4962 0.0000 0.0000
# 5 0.0000 0.0000 0.0000 0.0000 32.6234 0.0000
# 6 0.0000 0.0000 0.0000 0.0000 0.0000 36.4757
#
#
#
# Elastic Compliance Matrix: (Units=1/GPa)
#
#
# Indices 1 2 3 4 5 6 
#
# 1 0.017859 0.001321 -0.002188 0.000000 0.000000 0.000000
# 2 0.001321 0.008218 0.000186 0.000000 0.000000 0.000000
# 3 -0.002188 0.000186 0.013522 0.000000 0.000000 0.000000
# 4 0.000000 0.000000 0.000000 0.032791 0.000000 0.000000
# 5 0.000000 0.000000 0.000000 0.000000 0.030653 0.000000
# 6 0.000000 0.000000 0.000000 0.000000 0.000000 0.027416
#
#
# Mechanical properties :
#
#
# Convention : Reuss Voigt Hill
#
# Bulk Modulus (GPa) = 26.15287 27.79584 26.97435
# Shear Modulus (GPa) = 34.58647 37.24846 35.91746
#
# Velocity S-wave (km/s) = 3.94143 4.09030 4.01656
# Velocity P-wave (km/s) = 5.69737 5.89849 5.79881
#
# Compressibility (1/GPa) = 0.03823672
#
# Stress axis : x y z
#
# Youngs Moduli (GPa) = 55.99552 121.67863 73.95587
#
# Poissons Ratio (x) = -0.16074 0.16183
# Poissons Ratio (y) = -0.07397 -0.01378
# Poissons Ratio (z) = 0.12253 -0.02267
#
# Static dielectric constant tensor:
#      x y z
#    x 1.971830 0.000000 0.000000 
#    y 0.000000 1.887990 0.000000 
#    z 0.000000 0.000000 1.815440 
# 
# From -- ./inp_files/11634.got.cif
#   From: 2010.05.17/outbox.cif.g08.bks.cpg/sg43_6_cif.got.tgz:11634.got - 2010.06.03 19:21:55.
