data_PCOD9372411
_publ_section_title
;
Structure prediction by ZEFSAII (Michael W. Deem and Ramdas Pophale) SiO2 
 PCOD9372411
Probable space group: F D D 2
;
_chemical_formula_sum "Si O2"
_cell_formula_units_Z 120
_cell_length_a 30.970089
_cell_length_b 21.775244
_cell_length_c 7.225104
_cell_angle_alpha 90.000000
_cell_angle_beta 90.000000
_cell_angle_gamma 90.000000
_cell_volume 4872.474628
_symmetry_space_group_name_H-M "F D D 2"
_symmetry_group_IT_number 43
_symmetry_cell_setting 'orthorhombic'
loop_
_space_group_symop_operation_xyz
x,y,z
-x,-y,z
1/4-x,1/4+y,1/4+z
1/4+x,1/4-y,1/4+z
x,1/2+y,1/2+z
-x,1/2-y,1/2+z
1/4-x,3/4+y,3/4+z
1/4+x,3/4-y,3/4+z
1/2+x,y,1/2+z
1/2-x,-y,1/2+z
3/4-x,1/4+y,3/4+z
3/4+x,1/4-y,3/4+z
1/2+x,1/2+y,z
1/2-x,1/2-y,z
3/4-x,3/4+y,1/4+z
3/4+x,3/4-y,1/4+z
loop_
_atom_site_type_symbol
_atom_site_label
_atom_site_fract_x
_atom_site_fract_y
_atom_site_fract_z
Si Si1 0.250000 0.250000 0.459360
Si Si2 0.640013 0.874573 0.206328
Si Si3 0.018201 0.366443 0.557728
Si Si4 0.791872 0.894664 0.875757
Si Si5 0.440028 0.277483 0.147771
Si Si6 0.925888 0.743085 0.578579
Si Si7 0.451260 0.872935 0.125156
Si Si8 0.160942 0.300918 0.575443
O O1 0.237501 0.187726 0.349497
O O2 0.206015 0.266343 0.563167
O O3 0.726677 0.920776 0.379611
O O4 0.591792 0.875320 0.122853
O O5 0.644746 0.828006 0.379326
O O6 0.650091 0.941151 0.294878
O O7 0.026279 0.359650 0.339549
O O8 0.057375 0.324494 0.632785
O O9 0.793785 0.964699 0.805681
O O10 0.749293 0.860871 0.797343
O O11 0.430672 0.257466 0.358486
O O12 0.572699 0.103955 0.310917
O O13 0.951633 0.799839 0.662159
O O14 0.876424 0.744953 0.636732
O O15 0.418532 0.892917 0.964410
#
# Coordination Sequence:
#
# PCOD9372411 Si02
#       8
#     8  16  16  16  16  16  16  16
#     4  12  26  44  74 104 158 202 252 302 398 466
#     4  12  25  47  74 115 147 195 252 318 388 452
#     4  11  22  43  75 113 140 205 245 313 389 445
#     4  11  25  45  77 110 155 195 254 326 376 454
#     4  11  21  44  77 107 142 191 256 308 383 450
#     4  11  25  44  76 107 151 192 253 319 370 458
#     4  12  26  49  73 115 149 196 264 311 381 467
#     4  12  27  48  72 109 155 201 247 317 384 455
#
# _framework density 24.628142
#
# number of rings (size 3 to 8) (size 9 to 14) (size 15 to 20)
#    0.000    0.533    8.000    0.000    3.733    2.133 
#    4.800    4.000    0.000    0.000    0.000    0.000 
#    0.000    0.000    0.000    0.000    0.000    0.000 
#
# Total GULP energy -167591.471375 kJ/mol
# GULP energy per Si atom -5586.382379 kJ/mol
# Density = 2.457209 g / cm^3
# Si number density = 24.628142 Si / 1000 Ang^3
#
#
#
# Elastic Constant Matrix: (Units=GPa)
#
#
# Indices 1 2 3 4 5 6 
#
# 1 176.4785 54.4719 13.8983 -0.0003 -0.0001 -0.0001
# 2 54.4719 134.5524 28.0851 0.0015 -0.0001 0.0000
# 3 13.8983 28.0851 36.3397 0.0036 -0.0003 -0.0002
# 4 -0.0003 0.0015 0.0036 18.9216 -0.0001 0.0000
# 5 -0.0001 -0.0001 -0.0003 -0.0001 24.7517 -0.0001
# 6 -0.0001 0.0000 -0.0002 0.0000 -0.0001 37.4603
#
#
#
# Elastic Compliance Matrix: (Units=1/GPa)
#
#
# Indices 1 2 3 4 5 6 
#
# 1 0.006484 -0.002513 -0.000538 0.000000 0.000000 0.000000
# 2 -0.002513 0.009835 -0.006640 0.000000 0.000000 0.000000
# 3 -0.000538 -0.006640 0.032856 -0.000006 0.000000 0.000000
# 4 0.000000 0.000000 -0.000006 0.052850 0.000000 0.000000
# 5 0.000000 0.000000 0.000000 0.000000 0.040401 0.000000
# 6 0.000000 0.000000 0.000000 0.000000 0.000000 0.026695
#
#
# Mechanical properties :
#
#
# Convention : Reuss Voigt Hill
#
# Bulk Modulus (GPa) = 33.56432 60.03124 46.79778
# Shear Modulus (GPa) = 25.19721 32.95439 29.07580
#
# Velocity S-wave (km/s) = 3.20207 3.66194 3.43970
# Velocity P-wave (km/s) = 5.22772 6.50444 5.90071
#
# Compressibility (1/GPa) = 0.02979354
#
# Stress axis : x y z
#
# Youngs Moduli (GPa) = 154.21654 101.67405 30.43605
#
# Poissons Ratio (x) = 0.25549 0.01637
# Poissons Ratio (y) = 0.38752 0.20210
# Poissons Ratio (z) = 0.08296 0.67514
#
# Static dielectric constant tensor:
#      x y z
#    x 2.111220 0.000000 0.000000 
#    y 0.000000 1.965370 0.000000 
#    z 0.000000 0.000000 2.077190 
# 
# From -- ./inp_files/8028.got.cif
#   From: 2010.05.17/outbox.cif.g08.bks.cpg/sg43_5_cif.got.tgz:8028.got - 2010.06.03 19:21:55.
