data_PCOD9372383
_publ_section_title
;
Structure prediction by ZEFSAII (Michael W. Deem and Ramdas Pophale) SiO2 
 PCOD9372383
Probable space group: F D D 2
;
_chemical_formula_sum "Si O2"
_cell_formula_units_Z 112
_cell_length_a 23.677072
_cell_length_b 19.192169
_cell_length_c 11.296139
_cell_angle_alpha 90.000000
_cell_angle_beta 90.000000
_cell_angle_gamma 90.000000
_cell_volume 5133.127856
_symmetry_space_group_name_H-M "F D D 2"
_symmetry_group_IT_number 43
_symmetry_cell_setting 'orthorhombic'
loop_
_space_group_symop_operation_xyz
x,y,z
-x,-y,z
1/4-x,1/4+y,1/4+z
1/4+x,1/4-y,1/4+z
x,1/2+y,1/2+z
-x,1/2-y,1/2+z
1/4-x,3/4+y,3/4+z
1/4+x,3/4-y,3/4+z
1/2+x,y,1/2+z
1/2-x,-y,1/2+z
3/4-x,1/4+y,3/4+z
3/4+x,1/4-y,3/4+z
1/2+x,1/2+y,z
1/2-x,1/2-y,z
3/4-x,3/4+y,1/4+z
3/4+x,3/4-y,1/4+z
loop_
_atom_site_type_symbol
_atom_site_label
_atom_site_fract_x
_atom_site_fract_y
_atom_site_fract_z
Si Si1 0.598657 0.458076 0.598410
Si Si2 0.347603 0.921597 0.692365
Si Si3 0.500000 0.000000 0.531787
Si Si4 0.411673 0.018623 0.358340
Si Si5 0.750000 0.750000 0.677234
Si Si6 0.769074 0.144892 0.973093
Si Si7 0.937359 0.193965 0.684444
Si Si8 0.700285 0.006852 0.932808
O O1 0.579023 0.493787 0.720974
O O2 0.553215 0.480356 0.503707
O O3 0.592213 0.376712 0.636083
O O4 0.657172 0.481335 0.535336
O O5 0.323465 0.844782 0.659644
O O6 0.414755 0.907409 0.695964
O O7 0.327729 0.959194 0.572003
O O8 0.328640 0.962865 0.811427
O O9 0.549787 0.026559 0.445579
O O10 0.514660 0.938420 0.622940
O O11 0.345275 0.005469 0.368377
O O12 0.760989 0.683626 0.595920
O O13 0.740560 0.069738 0.976798
O O14 0.003885 0.195762 0.659654
#
# Coordination Sequence:
#
# PCOD9372383 Si02
#       8
#    16  16   8  16   8  16  16  16
#     4  11  28  46  68 108 150 195 245 306 381 445
#     4  11  23  46  73 107 142 186 249 301 370 436
#     4  11  21  40  72 102 139 189 242 302 372 439
#     4  11  23  43  71 103 144 187 244 305 364 444
#     4  11  25  48  66 106 151 189 242 310 380 443
#     4  11  23  42  75 107 139 188 252 305 360 445
#     4  11  27  44  73 107 147 193 247 305 364 449
#     4  12  26  47  77 108 149 201 249 308 373 452
#
# _framework density 21.819057000000001
#
# number of rings (size 3 to 8) (size 9 to 14) (size 15 to 20)
#    0.000    0.857    5.714    0.429    4.000    3.429 
#    0.000    0.000    0.000    0.000    0.000    0.000 
#    0.000    0.000    0.000    0.000    0.000    0.000 
#
# Total GULP energy -156046.295141 kJ/mol
# GULP energy per Si atom -5573.081969 kJ/mol
# Density = 2.176940 g / cm^3
# Si number density = 21.819057 Si / 1000 Ang^3
#
#
#
# Elastic Constant Matrix: (Units=GPa)
#
#
# Indices 1 2 3 4 5 6 
#
# 1 118.3596 24.5194 54.2410 0.0000 0.0000 0.0000
# 2 24.5194 58.4448 38.1916 0.0000 0.0000 0.0000
# 3 54.2410 38.1916 164.2124 0.0000 0.0000 0.0000
# 4 0.0000 0.0000 0.0000 23.5482 0.0000 0.0000
# 5 0.0000 0.0000 0.0000 0.0000 32.9911 0.0000
# 6 0.0000 0.0000 0.0000 0.0000 0.0000 -39.5375
#
#
#
# Elastic Compliance Matrix: (Units=1/GPa)
#
#
# Indices 1 2 3 4 5 6 
#
# 1 0.010248 -0.002461 -0.002812 0.000000 0.000000 0.000000
# 2 -0.002461 0.020768 -0.004017 0.000000 0.000000 0.000000
# 3 -0.002812 -0.004017 0.007953 0.000000 0.000000 0.000000
# 4 0.000000 0.000000 0.000000 0.042466 0.000000 0.000000
# 5 0.000000 0.000000 0.000000 0.000000 0.030311 0.000000
# 6 0.000000 0.000000 0.000000 0.000000 0.000000 -0.025292
#
#
# Mechanical properties :
#
#
# Convention : Reuss Voigt Hill
#
# Bulk Modulus (GPa) = 49.05180 63.88010 56.46595
# Shear Modulus (GPa) = 44.71061 18.33801 31.52431
#
# Velocity S-wave (km/s) = 4.53167 2.90221 3.80518
# Velocity P-wave (km/s) = 7.06480 6.36955 6.72616
#
# Compressibility (1/GPa) = 0.02038661
#
# Stress axis : x y z
#
# Youngs Moduli (GPa) = 97.58398 48.15150 125.74012
#
# Poissons Ratio (x) = 0.11852 0.35364
# Poissons Ratio (y) = 0.24019 0.50510
# Poissons Ratio (z) = 0.27445 0.19343
#
# Static dielectric constant tensor:
#      x y z
#    x 1.883360 0.000000 0.000000 
#    y 0.000000 1.977020 0.000000 
#    z 0.000000 0.000000 1.784820 
# 
# From -- ./inp_files/7600.got.cif
#   From: 2010.05.17/outbox.cif.g08.bks.cpg/sg43_4_cif.got.tgz:7600.got - 2010.06.03 19:21:55.
