data_PCOD9372830
_publ_section_title
;
Structure prediction by ZEFSAII (Michael W. Deem and Ramdas Pophale) SiO2 
 PCOD9372830
Probable space group: F D D 2
;
_chemical_formula_sum "Si O2"
_cell_formula_units_Z 64
_cell_length_a 7.627459
_cell_length_b 14.528459
_cell_length_c 25.785934
_cell_angle_alpha 90.000000
_cell_angle_beta 90.000000
_cell_angle_gamma 90.000000
_cell_volume 2857.474087
_symmetry_space_group_name_H-M "F D D 2"
_symmetry_group_IT_number 43
_symmetry_cell_setting 'orthorhombic'
loop_
_space_group_symop_operation_xyz
x,y,z
-x,-y,z
1/4-x,1/4+y,1/4+z
1/4+x,1/4-y,1/4+z
x,1/2+y,1/2+z
-x,1/2-y,1/2+z
1/4-x,3/4+y,3/4+z
1/4+x,3/4-y,3/4+z
1/2+x,y,1/2+z
1/2-x,-y,1/2+z
3/4-x,1/4+y,3/4+z
3/4+x,1/4-y,3/4+z
1/2+x,1/2+y,z
1/2-x,1/2-y,z
3/4-x,3/4+y,1/4+z
3/4+x,3/4-y,1/4+z
loop_
_atom_site_type_symbol
_atom_site_label
_atom_site_fract_x
_atom_site_fract_y
_atom_site_fract_z
Si Si1 0.707065 0.515300 0.779100
Si Si2 0.576133 0.102494 0.937810
Si Si3 0.971992 0.106050 0.957089
Si Si4 0.981781 0.898790 0.620743
O O1 0.500000 0.500000 0.775364
O O2 0.774962 0.590660 0.738604
O O3 0.786464 0.419975 0.758080
O O4 0.744545 0.560146 0.834511
O O5 0.464393 0.146383 0.892082
O O6 0.500000 0.000000 0.943474
O O7 0.783001 0.109232 0.929698
O O8 0.127960 0.139124 0.918370
O O9 0.000000 0.000000 0.971311
O O10 0.000000 0.000000 0.595590
#
# Coordination Sequence:
#
# PCOD9372830 Si02
#       4
#    16  16  16  16
#     4  12  25  48  78 114 153 204 259 317 394 462
#     4  12  24  46  77 109 153 200 248 323 386 459
#     4  12  24  49  79 108 162 202 251 328 390 461
#     4  12  26  49  78 116 153 201 263 326 388 467
#
# _framework density 22.397400999999999
#
# number of rings (size 3 to 8) (size 9 to 14) (size 15 to 20)
#    0.000    0.000    7.500    2.250    0.000    2.000 
#    0.000    0.000    5.500    0.000    0.000    0.000 
#    0.000    0.000    0.000    0.000    0.000    0.000 
#
# Total GULP energy -89517.357144 kJ/mol
# GULP energy per Si atom -5594.834821 kJ/mol
# Density = 2.234642 g / cm^3
# Si number density = 22.397401 Si / 1000 Ang^3
#
#
#
# Elastic Constant Matrix: (Units=GPa)
#
#
# Indices 1 2 3 4 5 6 
#
# 1 150.8510 25.7010 22.0686 0.0000 0.0000 0.0000
# 2 25.7010 145.9695 41.4681 0.0000 0.0000 0.0000
# 3 22.0686 41.4681 79.0393 0.0000 0.0000 0.0000
# 4 0.0000 0.0000 0.0000 32.9054 0.0000 0.0000
# 5 0.0000 0.0000 0.0000 0.0000 -16.3479 0.0000
# 6 0.0000 0.0000 0.0000 0.0000 0.0000 28.5096
#
#
#
# Elastic Compliance Matrix: (Units=1/GPa)
#
#
# Indices 1 2 3 4 5 6 
#
# 1 0.006989 -0.000795 -0.001534 0.000000 0.000000 0.000000
# 2 -0.000795 0.008141 -0.004049 0.000000 0.000000 0.000000
# 3 -0.001534 -0.004049 0.015205 0.000000 0.000000 0.000000
# 4 0.000000 0.000000 0.000000 0.030390 0.000000 0.000000
# 5 0.000000 0.000000 0.000000 0.000000 -0.061170 0.000000
# 6 0.000000 0.000000 0.000000 0.000000 0.000000 0.035076
#
#
# Mechanical properties :
#
#
# Convention : Reuss Voigt Hill
#
# Bulk Modulus (GPa) = 56.88947 61.59278 59.24113
# Shear Modulus (GPa) = 93.90153 28.12155 61.01154
#
# Velocity S-wave (km/s) = 6.48199 3.54725 5.22490
# Velocity P-wave (km/s) = 9.02645 6.65860 7.93139
#
# Compressibility (1/GPa) = 0.01757795
#
# Stress axis : x y z
#
# Youngs Moduli (GPa) = 143.08352 122.83477 65.76843
#
# Poissons Ratio (x) = 0.09761 0.10092
# Poissons Ratio (y) = 0.11370 0.26632
# Poissons Ratio (z) = 0.21956 0.49740
#
# Static dielectric constant tensor:
#      x y z
#    x 1.801260 0.000000 0.000000 
#    y 0.000000 1.855930 0.000000 
#    z 0.000000 0.000000 1.832270 
# 
# From -- ./inp_files/19949.got.cif
#   From: 2010.05.17/outbox.cif.g08.bks.cpg/sg43_10_cif.got.tgz:19949.got - 2010.06.03 19:21:55.
