data_PCOD9372006
_publ_section_title
;
Structure prediction by ZEFSAII (Michael W. Deem and Ramdas Pophale) SiO2 
 PCOD9372006
Probable space group: F D D 2
;
_chemical_formula_sum "Si O2"
_cell_formula_units_Z 96
_cell_length_a 10.010424
_cell_length_b 22.673296
_cell_length_c 18.558515
_cell_angle_alpha 90.000000
_cell_angle_beta 90.000000
_cell_angle_gamma 90.000000
_cell_volume 4212.213278
_symmetry_space_group_name_H-M "F D D 2"
_symmetry_group_IT_number 43
_symmetry_cell_setting 'orthorhombic'
loop_
_space_group_symop_operation_xyz
x,y,z
-x,-y,z
1/4-x,1/4+y,1/4+z
1/4+x,1/4-y,1/4+z
x,1/2+y,1/2+z
-x,1/2-y,1/2+z
1/4-x,3/4+y,3/4+z
1/4+x,3/4-y,3/4+z
1/2+x,y,1/2+z
1/2-x,-y,1/2+z
3/4-x,1/4+y,3/4+z
3/4+x,1/4-y,3/4+z
1/2+x,1/2+y,z
1/2-x,1/2-y,z
3/4-x,3/4+y,1/4+z
3/4+x,3/4-y,1/4+z
loop_
_atom_site_type_symbol
_atom_site_label
_atom_site_fract_x
_atom_site_fract_y
_atom_site_fract_z
Si Si1 0.750000 0.250000 0.665350
Si Si2 0.582540 0.693726 0.549410
Si Si3 0.750000 0.250000 0.923898
Si Si4 0.000000 0.000000 0.671165
Si Si5 0.000000 0.500000 0.922656
Si Si6 0.652768 0.042857 0.544118
Si Si7 0.765251 0.167551 0.545108
Si Si8 0.155045 0.562053 0.045254
O O1 0.674966 0.294261 0.719264
O O2 0.690274 0.202070 0.609430
O O3 0.636297 0.725163 0.477133
O O4 0.631907 0.728589 0.620100
O O5 0.423526 0.683146 0.548165
O O6 0.660361 0.631452 0.553349
O O7 0.683869 0.295238 0.866967
O O8 0.099035 0.032785 0.617796
O O9 0.046525 0.947638 0.723851
O O10 0.058605 0.548564 0.977373
O O11 0.714215 0.977350 0.536423
O O12 0.997588 0.847537 0.796520
#
# Coordination Sequence:
#
# PCOD9372006 Si02
#       8
#     8  16   8   8   8  16  16  16
#     4  10  26  46  66 106 134 180 234 284 354 416
#     4  11  25  44  72 100 142 180 235 288 349 420
#     4  10  26  50  66 108 140 186 230 290 358 414
#     4  10  24  40  64 102 130 176 234 282 342 406
#     4  10  24  44  64 104 136 180 228 292 346 404
#     4  11  25  45  72  99 143 182 234 287 353 414
#     4  11  24  44  73  99 140 185 230 290 349 417
#     4  11  24  40  71 100 133 180 231 285 345 412
#
# _framework density 22.790866999999999
#
# number of rings (size 3 to 8) (size 9 to 14) (size 15 to 20)
#    0.000    1.333    0.000    4.000   14.000    0.000 
#    0.000    0.000    0.000    0.000    0.000    0.000 
#    0.000    0.000    0.000    0.000    0.000    0.000 
#
# Total GULP energy -133961.751453 kJ/mol
# GULP energy per Si atom -5581.739644 kJ/mol
# Density = 2.273899 g / cm^3
# Si number density = 22.790867 Si / 1000 Ang^3
#
#
#
# Elastic Constant Matrix: (Units=GPa)
#
#
# Indices 1 2 3 4 5 6 
#
# 1 70.0789 32.1609 49.0713 0.0000 0.0000 0.0000
# 2 32.1609 93.4522 23.5882 0.0000 0.0000 0.0000
# 3 49.0713 23.5882 162.8395 0.0000 0.0000 0.0000
# 4 0.0000 0.0000 0.0000 -0.5726 0.0000 0.0000
# 5 0.0000 0.0000 0.0000 0.0000 16.8485 0.0000
# 6 0.0000 0.0000 0.0000 0.0000 0.0000 36.6119
#
#
#
# Elastic Compliance Matrix: (Units=1/GPa)
#
#
# Indices 1 2 3 4 5 6 
#
# 1 0.020695 -0.005759 -0.005402 0.000000 0.000000 0.000000
# 2 -0.005759 0.012709 -0.000106 0.000000 0.000000 0.000000
# 3 -0.005402 -0.000106 0.007784 0.000000 0.000000 0.000000
# 4 0.000000 0.000000 0.000000 -1.746450 0.000000 0.000000
# 5 0.000000 0.000000 0.000000 0.000000 0.059353 0.000000
# 6 0.000000 0.000000 0.000000 0.000000 0.000000 0.027314
#
#
# Mechanical properties :
#
#
# Convention : Reuss Voigt Hill
#
# Bulk Modulus (GPa) = 53.60316 59.55681 56.57998
# Shear Modulus (GPa) = -3.14496 25.34758 11.10131
#
# Velocity S-wave (km/s) = -1.17598 3.33856 2.20942
# Velocity P-wave (km/s) = 4.66120 6.40702 5.60253
#
# Compressibility (1/GPa) = 0.01865562
#
# Stress axis : x y z
#
# Youngs Moduli (GPa) = 48.32044 78.68395 128.46383
#
# Poissons Ratio (x) = 0.45310 0.69400
# Poissons Ratio (y) = 0.27825 0.01357
# Poissons Ratio (z) = 0.26104 0.00831
#
# Static dielectric constant tensor:
#      x y z
#    x 1.912210 0.000000 0.000000 
#    y 0.000000 1.845470 0.000000 
#    z 0.000000 0.000000 1.846040 
# 
# From -- ./inp_files/13414.got.cif
#   From: 2010.05.17/outbox.cif.g08.bks.cpg/sg43_7_cif.got.tgz:13414.got - 2010.06.03 19:21:55.
