data_PCOD9372050
_publ_section_title
;
Structure prediction by ZEFSAII (Michael W. Deem and Ramdas Pophale) SiO2 
 PCOD9372050
Probable space group: F D D 2
;
_chemical_formula_sum "Si O2"
_cell_formula_units_Z 64
_cell_length_a 24.402400
_cell_length_b 8.040520
_cell_length_c 11.682968
_cell_angle_alpha 90.000000
_cell_angle_beta 90.000000
_cell_angle_gamma 90.000000
_cell_volume 2292.291613
_symmetry_space_group_name_H-M "F D D 2"
_symmetry_group_IT_number 43
_symmetry_cell_setting 'orthorhombic'
loop_
_space_group_symop_operation_xyz
x,y,z
-x,-y,z
1/4-x,1/4+y,1/4+z
1/4+x,1/4-y,1/4+z
x,1/2+y,1/2+z
-x,1/2-y,1/2+z
1/4-x,3/4+y,3/4+z
1/4+x,3/4-y,3/4+z
1/2+x,y,1/2+z
1/2-x,-y,1/2+z
3/4-x,1/4+y,3/4+z
3/4+x,1/4-y,3/4+z
1/2+x,1/2+y,z
1/2-x,1/2-y,z
3/4-x,3/4+y,1/4+z
3/4+x,3/4-y,1/4+z
loop_
_atom_site_type_symbol
_atom_site_label
_atom_site_fract_x
_atom_site_fract_y
_atom_site_fract_z
Si Si1 0.740217 0.003916 0.771240
Si Si2 0.412080 0.561329 0.570813
Si Si3 0.429215 0.589290 0.215272
Si Si4 0.921906 0.739338 0.314230
O O1 0.802919 0.953354 0.755297
O O2 0.701119 0.846671 0.799389
O O3 0.713998 0.083065 0.657871
O O4 0.729354 0.097771 0.889735
O O5 0.354243 0.493497 0.522985
O O6 0.415031 0.629923 0.700608
O O7 0.386522 0.509097 0.124894
O O8 0.439161 0.433337 0.297487
#
# Coordination Sequence:
#
# PCOD9372050 Si02
#       4
#    16  16  16  16
#     4  10  24  46  65 100 137 177 228 288 349 414
#     4  10  24  43  69  98 138 180 226 288 349 413
#     4  11  23  41  68 101 137 180 229 281 344 412
#     4  11  23  43  67  97 134 178 232 282 347 414
#
# _framework density 27.919657999999998
#
# number of rings (size 3 to 8) (size 9 to 14) (size 15 to 20)
#    0.000    1.500    5.000    0.000    3.500    9.000 
#    0.000    5.000    0.000    0.000    0.000    0.000 
#    0.000    0.000    0.000    0.000    0.000    0.000 
#
# Total GULP energy -89578.426447 kJ/mol
# GULP energy per Si atom -5598.651653 kJ/mol
# Density = 2.785611 g / cm^3
# Si number density = 27.919658 Si / 1000 Ang^3
#
#
#
# Elastic Constant Matrix: (Units=GPa)
#
#
# Indices 1 2 3 4 5 6 
#
# 1 88.9913 55.2235 54.5958 0.0000 0.0000 0.0000
# 2 55.2235 121.3424 57.8534 0.0000 0.0000 0.0000
# 3 54.5958 57.8534 180.3396 0.0000 0.0000 0.0000
# 4 0.0000 0.0000 0.0000 49.4645 0.0000 0.0000
# 5 0.0000 0.0000 0.0000 0.0000 9.3303 0.0000
# 6 0.0000 0.0000 0.0000 0.0000 0.0000 38.8289
#
#
#
# Elastic Compliance Matrix: (Units=1/GPa)
#
#
# Indices 1 2 3 4 5 6 
#
# 1 0.017057 -0.006258 -0.003156 0.000000 0.000000 0.000000
# 2 -0.006258 0.012025 -0.001963 0.000000 0.000000 0.000000
# 3 -0.003156 -0.001963 0.007130 0.000000 0.000000 0.000000
# 4 0.000000 0.000000 0.000000 0.020217 0.000000 0.000000
# 5 0.000000 0.000000 0.000000 0.000000 0.107178 0.000000
# 6 0.000000 0.000000 0.000000 0.000000 0.000000 0.025754
#
#
# Mechanical properties :
#
#
# Convention : Reuss Voigt Hill
#
# Bulk Modulus (GPa) = 74.30641 80.66874 77.48757
# Shear Modulus (GPa) = 23.08396 34.39144 28.73770
#
# Velocity S-wave (km/s) = 2.87853 3.51351 3.21175
# Velocity P-wave (km/s) = 6.14167 6.73911 6.44731
#
# Compressibility (1/GPa) = 0.01345779
#
# Stress axis : x y z
#
# Youngs Moduli (GPa) = 58.62825 83.15947 140.24446
#
# Poissons Ratio (x) = 0.52039 0.44264
# Poissons Ratio (y) = 0.36688 0.27533
# Poissons Ratio (z) = 0.18504 0.16326
#
# Static dielectric constant tensor:
#      x y z
#    x 2.147430 0.000000 0.000000 
#    y 0.000000 2.320010 0.000000 
#    z 0.000000 0.000000 2.181360 
# 
# From -- ./inp_files/5296.got.cif
#   From: 2010.05.17/outbox.cif.g08.bks.cpg/sg43_3_cif.got.tgz:5296.got - 2010.06.03 19:21:55.
