data_PCOD9372909
_publ_section_title
;
Structure prediction by ZEFSAII (Michael W. Deem and Ramdas Pophale) SiO2 
 PCOD9372909
Probable space group: F D D 2
;
_chemical_formula_sum "Si O2"
_cell_formula_units_Z 64
_cell_length_a 16.209513
_cell_length_b 9.344715
_cell_length_c 15.957108
_cell_angle_alpha 90.000000
_cell_angle_beta 90.000000
_cell_angle_gamma 90.000000
_cell_volume 2417.075476
_symmetry_space_group_name_H-M "F D D 2"
_symmetry_group_IT_number 43
_symmetry_cell_setting 'orthorhombic'
loop_
_space_group_symop_operation_xyz
x,y,z
-x,-y,z
1/4-x,1/4+y,1/4+z
1/4+x,1/4-y,1/4+z
x,1/2+y,1/2+z
-x,1/2-y,1/2+z
1/4-x,3/4+y,3/4+z
1/4+x,3/4-y,3/4+z
1/2+x,y,1/2+z
1/2-x,-y,1/2+z
3/4-x,1/4+y,3/4+z
3/4+x,1/4-y,3/4+z
1/2+x,1/2+y,z
1/2-x,1/2-y,z
3/4-x,3/4+y,1/4+z
3/4+x,3/4-y,1/4+z
loop_
_atom_site_type_symbol
_atom_site_label
_atom_site_fract_x
_atom_site_fract_y
_atom_site_fract_z
Si Si1 0.960571 0.199787 0.059470
Si Si2 0.878960 0.993134 0.541838
Si Si3 0.376689 0.789236 0.469240
Si Si4 0.289757 0.052571 0.497802
O O1 0.945092 0.368311 0.040142
O O2 0.000402 0.171048 0.153064
O O3 0.873947 0.127424 0.030076
O O4 0.034720 0.159283 0.998586
O O5 0.790932 0.914685 0.551261
O O6 0.889405 0.085372 0.624710
O O7 0.873267 0.116867 0.472401
O O8 0.308756 0.884426 0.515103
#
# Coordination Sequence:
#
# PCOD9372909 Si02
#       4
#    16  16  16  16
#     4  12  29  51  79 121 166 219 286 352 427 513
#     4  12  27  50  81 114 165 220 280 351 431 509
#     4  12  27  50  81 114 165 220 280 351 431 509
#     4  12  29  51  79 121 166 219 286 352 427 513
#
# _framework density 26.478278
#
# number of rings (size 3 to 8) (size 9 to 14) (size 15 to 20)
#    0.000    0.000    5.000    3.000    7.000    6.000 
#    0.000    0.000    0.000    0.000    0.000    0.000 
#    0.000    0.000    0.000    0.000    0.000    0.000 
#
# Total GULP energy -89285.620216 kJ/mol
# GULP energy per Si atom -5580.351263 kJ/mol
# Density = 2.641801 g / cm^3
# Si number density = 26.478278 Si / 1000 Ang^3
#
#
#
# Elastic Constant Matrix: (Units=GPa)
#
#
# Indices 1 2 3 4 5 6 
#
# 1 208.4093 63.4360 35.6705 0.0000 0.0000 0.0000
# 2 63.4360 136.7492 32.8795 0.0000 0.0000 0.0000
# 3 35.6705 32.8795 57.7987 0.0000 0.0000 0.0000
# 4 0.0000 0.0000 0.0000 13.8327 0.0000 0.0000
# 5 0.0000 0.0000 0.0000 0.0000 52.9196 0.0000
# 6 0.0000 0.0000 0.0000 0.0000 0.0000 58.7640
#
#
#
# Elastic Compliance Matrix: (Units=1/GPa)
#
#
# Indices 1 2 3 4 5 6 
#
# 1 0.005861 -0.002142 -0.002398 0.000000 0.000000 0.000000
# 2 -0.002142 0.009254 -0.003942 0.000000 0.000000 0.000000
# 3 -0.002398 -0.003942 0.021024 0.000000 0.000000 0.000000
# 4 0.000000 0.000000 0.000000 0.072292 0.000000 0.000000
# 5 0.000000 0.000000 0.000000 0.000000 0.018897 0.000000
# 6 0.000000 0.000000 0.000000 0.000000 0.000000 0.017017
#
#
# Mechanical properties :
#
#
# Convention : Reuss Voigt Hill
#
# Bulk Modulus (GPa) = 52.15533 74.10326 63.12929
# Shear Modulus (GPa) = 29.81470 43.16800 36.49135
#
# Velocity S-wave (km/s) = 3.35924 4.04210 3.71639
# Velocity P-wave (km/s) = 5.89798 7.05917 6.50454
#
# Compressibility (1/GPa) = 0.01917350
#
# Stress axis : x y z
#
# Youngs Moduli (GPa) = 170.62633 108.05869 47.56393
#
# Poissons Ratio (x) = 0.23147 0.11408
# Poissons Ratio (y) = 0.36549 0.18752
# Poissons Ratio (z) = 0.40924 0.42601
#
# Static dielectric constant tensor:
#      x y z
#    x 1.897090 0.000000 0.000000 
#    y 0.000000 2.184410 0.000000 
#    z 0.000000 0.000000 2.101800 
# 
# From -- ./inp_files/13167.got.cif
#   From: 2010.05.17/outbox.cif.g08.bks.cpg/sg43_7_cif.got.tgz:13167.got - 2010.06.03 19:21:55.
