data_PCOD9372780
_publ_section_title
;
Structure prediction by ZEFSAII (Michael W. Deem and Ramdas Pophale) SiO2 
 PCOD9372780
Probable space group: F D D 2
;
_chemical_formula_sum "Si O2"
_cell_formula_units_Z 72
_cell_length_a 13.107088
_cell_length_b 7.909872
_cell_length_c 33.163854
_cell_angle_alpha 90.000000
_cell_angle_beta 90.000000
_cell_angle_gamma 90.000000
_cell_volume 3438.275443
_symmetry_space_group_name_H-M "F D D 2"
_symmetry_group_IT_number 43
_symmetry_cell_setting 'orthorhombic'
loop_
_space_group_symop_operation_xyz
x,y,z
-x,-y,z
1/4-x,1/4+y,1/4+z
1/4+x,1/4-y,1/4+z
x,1/2+y,1/2+z
-x,1/2-y,1/2+z
1/4-x,3/4+y,3/4+z
1/4+x,3/4-y,3/4+z
1/2+x,y,1/2+z
1/2-x,-y,1/2+z
3/4-x,1/4+y,3/4+z
3/4+x,1/4-y,3/4+z
1/2+x,1/2+y,z
1/2-x,1/2-y,z
3/4-x,3/4+y,1/4+z
3/4+x,3/4-y,1/4+z
loop_
_atom_site_type_symbol
_atom_site_label
_atom_site_fract_x
_atom_site_fract_y
_atom_site_fract_z
Si Si1 0.834498 0.108350 0.130110
Si Si2 0.711351 0.569140 0.878186
Si Si3 0.961655 0.330034 0.315857
Si Si4 0.405301 0.115088 0.450415
Si Si5 0.500000 0.500000 0.265593
O O1 0.750000 0.250000 0.124782
O O2 0.944248 0.190898 0.120745
O O3 0.799368 0.963369 0.099077
O O4 0.823296 0.036330 0.175222
O O5 0.750000 0.750000 0.892920
O O6 0.640541 0.619832 0.840158
O O7 0.650799 0.490505 0.915434
O O8 0.000000 0.500000 0.293421
O O9 0.953104 0.156767 0.290876
O O10 0.334877 0.164639 0.487474
O O11 0.500000 0.000000 0.463135
#
# Coordination Sequence:
#
# PCOD9372780 Si02
#       5
#    16  16  16  16   8
#     4  12  21  43  75 107 141 190 261 299 353 464
#     4  12  21  40  79 105 137 194 251 302 361 453
#     4  12  25  47  72 107 150 192 250 304 375 450
#     4  12  24  47  73 108 142 197 250 306 373 447
#     4  12  28  50  68 112 166 182 242 338 382 418
#
# _framework density 20.940732000000001
#
# number of rings (size 3 to 8) (size 9 to 14) (size 15 to 20)
#    0.000    0.000   10.000    0.000    0.000    0.889 
#   12.000    0.000    0.000    0.000    0.000    0.000 
#    0.000    0.000    0.000    0.000    0.000    0.000 
#
# Total GULP energy -100514.899759 kJ/mol
# GULP energy per Si atom -5584.161098 kJ/mol
# Density = 2.089307 g / cm^3
# Si number density = 20.940732 Si / 1000 Ang^3
#
#
#
# Elastic Constant Matrix: (Units=GPa)
#
#
# Indices 1 2 3 4 5 6 
#
# 1 145.3293 62.9365 52.8601 0.0000 0.0000 0.0000
# 2 62.9365 137.4386 40.0575 0.0000 0.0000 0.0000
# 3 52.8601 40.0575 87.2573 0.0000 0.0000 0.0000
# 4 0.0000 0.0000 0.0000 25.1059 0.0000 0.0000
# 5 0.0000 0.0000 0.0000 0.0000 35.9303 0.0000
# 6 0.0000 0.0000 0.0000 0.0000 0.0000 55.6288
#
#
#
# Elastic Compliance Matrix: (Units=1/GPa)
#
#
# Indices 1 2 3 4 5 6 
#
# 1 0.009926 -0.003224 -0.004533 0.000000 0.000000 0.000000
# 2 -0.003224 0.009447 -0.002384 0.000000 0.000000 0.000000
# 3 -0.004533 -0.002384 0.015301 0.000000 0.000000 0.000000
# 4 0.000000 0.000000 0.000000 0.039831 0.000000 0.000000
# 5 0.000000 0.000000 0.000000 0.000000 0.027832 0.000000
# 6 0.000000 0.000000 0.000000 0.000000 0.000000 0.017976
#
#
# Mechanical properties :
#
#
# Convention : Reuss Voigt Hill
#
# Bulk Modulus (GPa) = 69.48274 75.74815 72.61545
# Shear Modulus (GPa) = 34.38973 37.61106 36.00040
#
# Velocity S-wave (km/s) = 4.05685 4.24261 4.15077
# Velocity P-wave (km/s) = 7.42945 7.76214 7.59762
#
# Compressibility (1/GPa) = 0.01439206
#
# Stress axis : x y z
#
# Youngs Moduli (GPa) = 100.74600 105.85192 65.35640
#
# Poissons Ratio (x) = 0.34128 0.29626
# Poissons Ratio (y) = 0.32482 0.15579
# Poissons Ratio (z) = 0.45668 0.25232
#
# Static dielectric constant tensor:
#      x y z
#    x 1.789740 0.000000 0.000000 
#    y 0.000000 1.634590 0.000000 
#    z 0.000000 0.000000 1.737880 
# 
# From -- ./inp_files/28952.got.cif
#   From: 2010.05.17/outbox.cif.g08.bks.cpg/sg43_15_cif.got.tgz:28952.got - 2010.06.03 19:21:55.
