data_PCOD9372041
_publ_section_title
;
Structure prediction by ZEFSAII (Michael W. Deem and Ramdas Pophale) SiO2 
 PCOD9372041
Probable space group: F D D 2
;
_chemical_formula_sum "Si O2"
_cell_formula_units_Z 96
_cell_length_a 16.465291
_cell_length_b 27.979129
_cell_length_c 8.483674
_cell_angle_alpha 90.000000
_cell_angle_beta 90.000000
_cell_angle_gamma 90.000000
_cell_volume 3908.297123
_symmetry_space_group_name_H-M "F D D 2"
_symmetry_group_IT_number 43
_symmetry_cell_setting 'orthorhombic'
loop_
_space_group_symop_operation_xyz
x,y,z
-x,-y,z
1/4-x,1/4+y,1/4+z
1/4+x,1/4-y,1/4+z
x,1/2+y,1/2+z
-x,1/2-y,1/2+z
1/4-x,3/4+y,3/4+z
1/4+x,3/4-y,3/4+z
1/2+x,y,1/2+z
1/2-x,-y,1/2+z
3/4-x,1/4+y,3/4+z
3/4+x,1/4-y,3/4+z
1/2+x,1/2+y,z
1/2-x,1/2-y,z
3/4-x,3/4+y,1/4+z
3/4+x,3/4-y,1/4+z
loop_
_atom_site_type_symbol
_atom_site_label
_atom_site_fract_x
_atom_site_fract_y
_atom_site_fract_z
Si Si1 0.642503 0.288315 0.706520
Si Si2 0.439106 0.065027 0.501538
Si Si3 0.803682 0.620266 0.670247
Si Si4 0.185388 0.058713 0.478953
Si Si5 0.538762 0.122801 0.283594
Si Si6 0.728797 0.466813 0.656998
O O1 0.660837 0.233239 0.664404
O O2 0.654658 0.326947 0.568399
O O3 0.720429 0.303500 0.814911
O O4 0.558419 0.289264 0.795901
O O5 0.371685 0.080609 0.624318
O O6 0.457246 0.107645 0.378831
O O7 0.486953 0.211545 0.582133
O O8 0.731406 0.604706 0.554561
O O9 0.850213 0.671047 0.664772
O O10 0.777537 0.617444 0.851163
O O11 0.187504 0.015986 0.605738
O O12 0.573497 0.170276 0.364260
#
# Coordination Sequence:
#
# PCOD9372041 Si02
#       6
#    16  16  16  16  16  16
#     4   9  21  45  75 105 145 200 249 310 390 458
#     4   9  20  44  74 106 145 199 243 320 379 457
#     4  12  26  47  71 111 147 197 259 314 384 467
#     4  12  29  47  77 109 156 200 260 325 385 467
#     4  10  24  42  74 107 147 197 245 315 386 458
#     4  12  25  45  76 111 148 197 259 314 392 455
#
# _framework density 24.563129
#
# number of rings (size 3 to 8) (size 9 to 14) (size 15 to 20)
#    1.000    0.333    3.333    1.000    9.333    0.000 
#    0.000    0.000    7.333    0.000    0.000    0.000 
#    0.000    0.000    0.000    0.000    0.000    0.000 
#
# Total GULP energy -134090.179597 kJ/mol
# GULP energy per Si atom -5587.090817 kJ/mol
# Density = 2.450722 g / cm^3
# Si number density = 24.563129 Si / 1000 Ang^3
#
#
#
# Elastic Constant Matrix: (Units=GPa)
#
#
# Indices 1 2 3 4 5 6 
#
# 1 61.2061 24.5486 8.8730 0.0000 -0.0001 0.0000
# 2 24.5486 168.1048 55.9461 0.0000 0.0000 0.0000
# 3 8.8730 55.9461 117.8087 0.0000 -0.0002 0.0000
# 4 0.0000 0.0000 0.0000 48.8148 0.0000 0.0000
# 5 -0.0001 0.0000 -0.0002 0.0000 34.6269 0.0000
# 6 0.0000 0.0000 0.0000 0.0000 0.0000 35.1734
#
#
#
# Elastic Compliance Matrix: (Units=1/GPa)
#
#
# Indices 1 2 3 4 5 6 
#
# 1 0.017356 -0.002494 -0.000123 0.000000 0.000000 0.000000
# 2 -0.002494 0.007424 -0.003338 0.000000 0.000000 0.000000
# 3 -0.000123 -0.003338 0.010083 0.000000 0.000000 0.000000
# 4 0.000000 0.000000 0.000000 0.020486 0.000000 0.000000
# 5 0.000000 0.000000 0.000000 0.000000 0.028879 0.000000
# 6 0.000000 0.000000 0.000000 0.000000 0.000000 0.028431
#
#
# Mechanical properties :
#
#
# Convention : Reuss Voigt Hill
#
# Bulk Modulus (GPa) = 43.56549 58.42835 50.99692
# Shear Modulus (GPa) = 37.81648 40.90650 39.36149
#
# Velocity S-wave (km/s) = 3.92798 4.08531 4.00742
# Velocity P-wave (km/s) = 6.19247 6.78909 6.49763
#
# Compressibility (1/GPa) = 0.02295395
#
# Stress axis : x y z
#
# Youngs Moduli (GPa) = 57.61630 134.70601 99.18097
#
# Poissons Ratio (x) = 0.33590 0.01220
# Poissons Ratio (y) = 0.14367 0.33102
# Poissons Ratio (z) = 0.00709 0.44959
#
# Static dielectric constant tensor:
#      x y z
#    x 2.004090 0.000000 0.000000 
#    y 0.000000 2.001600 0.000000 
#    z 0.000000 0.000000 1.951940 
# 
# From -- ./inp_files/3294.got.cif
#   From: 2010.05.17/outbox.cif.g08.bks.cpg/sg43_2_cif.got.tgz:3294.got - 2010.06.03 19:21:55.
