data_PCOD9372495
_publ_section_title
;
Structure prediction by ZEFSAII (Michael W. Deem and Ramdas Pophale) SiO2 
 PCOD9372495
Probable space group: F D D 2
;
_chemical_formula_sum "Si O2"
_cell_formula_units_Z 56
_cell_length_a 16.873915
_cell_length_b 11.372735
_cell_length_c 11.329019
_cell_angle_alpha 90.000000
_cell_angle_beta 90.000000
_cell_angle_gamma 90.000000
_cell_volume 2174.067790
_symmetry_space_group_name_H-M "F D D 2"
_symmetry_group_IT_number 43
_symmetry_cell_setting 'orthorhombic'
loop_
_space_group_symop_operation_xyz
x,y,z
-x,-y,z
1/4-x,1/4+y,1/4+z
1/4+x,1/4-y,1/4+z
x,1/2+y,1/2+z
-x,1/2-y,1/2+z
1/4-x,3/4+y,3/4+z
1/4+x,3/4-y,3/4+z
1/2+x,y,1/2+z
1/2-x,-y,1/2+z
3/4-x,1/4+y,3/4+z
3/4+x,1/4-y,3/4+z
1/2+x,1/2+y,z
1/2-x,1/2-y,z
3/4-x,3/4+y,1/4+z
3/4+x,3/4-y,1/4+z
loop_
_atom_site_type_symbol
_atom_site_label
_atom_site_fract_x
_atom_site_fract_y
_atom_site_fract_z
Si Si1 0.473029 0.136094 0.111440
Si Si2 0.348290 0.910097 0.852420
Si Si3 0.163289 0.199523 0.094404
Si Si4 0.000000 0.500000 0.785026
O O1 0.428806 0.140881 0.239095
O O2 0.402625 0.208105 0.044553
O O3 0.500000 0.000000 0.099561
O O4 0.549232 0.219112 0.108165
O O5 0.351603 0.863655 0.718095
O O6 0.303107 0.828955 0.946788
O O7 0.441344 0.929550 0.870960
O O8 0.250000 0.250000 0.114006
#
# Coordination Sequence:
#
# PCOD9372495 Si02
#       4
#    16  16  16   8
#     4  11  26  47  78 123 160 213 275 345 407 490
#     4  12  25  51  80 116 156 216 272 335 406 491
#     4  11  22  46  80 109 160 216 277 330 406 483
#     4  12  28  50  82 112 160 212 270 334 406 484
#
# _framework density 25.758168000000001
#
# number of rings (size 3 to 8) (size 9 to 14) (size 15 to 20)
#    0.000    0.571    4.286    3.429    0.000    4.571 
#   12.857    0.000    0.000    0.000    0.000    0.000 
#    0.000    0.000    0.000    0.000    0.000    0.000 
#
# Total GULP energy -78219.515900 kJ/mol
# GULP energy per Si atom -5587.108279 kJ/mol
# Density = 2.569954 g / cm^3
# Si number density = 25.758168 Si / 1000 Ang^3
#
#
#
# Elastic Constant Matrix: (Units=GPa)
#
#
# Indices 1 2 3 4 5 6 
#
# 1 163.9712 64.1084 21.4117 0.0000 0.0000 0.0000
# 2 64.1084 175.0363 44.5436 0.0000 0.0000 0.0000
# 3 21.4117 44.5436 97.2342 0.0000 0.0000 0.0000
# 4 0.0000 0.0000 0.0000 42.9742 0.0000 0.0000
# 5 0.0000 0.0000 0.0000 0.0000 42.8566 0.0000
# 6 0.0000 0.0000 0.0000 0.0000 0.0000 70.7442
#
#
#
# Elastic Compliance Matrix: (Units=1/GPa)
#
#
# Indices 1 2 3 4 5 6 
#
# 1 0.007133 -0.002505 -0.000423 0.000000 0.000000 0.000000
# 2 -0.002505 0.007347 -0.002814 0.000000 0.000000 0.000000
# 3 -0.000423 -0.002814 0.011667 0.000000 0.000000 0.000000
# 4 0.000000 0.000000 0.000000 0.023270 0.000000 0.000000
# 5 0.000000 0.000000 0.000000 0.000000 0.023334 0.000000
# 6 0.000000 0.000000 0.000000 0.000000 0.000000 0.014135
#
#
# Mechanical properties :
#
#
# Convention : Reuss Voigt Hill
#
# Bulk Modulus (GPa) = 68.20172 77.37433 72.78802
# Shear Modulus (GPa) = 48.42278 51.72687 50.07482
#
# Velocity S-wave (km/s) = 4.34049 4.48613 4.41391
# Velocity P-wave (km/s) = 7.18714 7.54571 7.36860
#
# Compressibility (1/GPa) = 0.01466239
#
# Stress axis : x y z
#
# Youngs Moduli (GPa) = 140.18854 136.11681 85.71376
#
# Poissons Ratio (x) = 0.34096 0.03628
# Poissons Ratio (y) = 0.35116 0.24119
# Poissons Ratio (z) = 0.05934 0.38302
#
# Static dielectric constant tensor:
#      x y z
#    x 1.971410 0.000000 0.000000 
#    y 0.000000 2.238980 0.000000 
#    z 0.000000 0.000000 2.193170 
# 
# From -- ./inp_files/9358.got.cif
#   From: 2010.05.17/outbox.cif.g08.bks.cpg/sg43_5_cif.got.tgz:9358.got - 2010.06.03 19:21:55.
