data_PCOD9372191
_publ_section_title
;
Structure prediction by ZEFSAII (Michael W. Deem and Ramdas Pophale) SiO2 
 PCOD9372191
Probable space group: F D D 2
;
_chemical_formula_sum "Si O2"
_cell_formula_units_Z 72
_cell_length_a 15.813876
_cell_length_b 12.022327
_cell_length_c 12.751683
_cell_angle_alpha 90.000000
_cell_angle_beta 90.000000
_cell_angle_gamma 90.000000
_cell_volume 2424.344723
_symmetry_space_group_name_H-M "F D D 2"
_symmetry_group_IT_number 43
_symmetry_cell_setting 'orthorhombic'
loop_
_space_group_symop_operation_xyz
x,y,z
-x,-y,z
1/4-x,1/4+y,1/4+z
1/4+x,1/4-y,1/4+z
x,1/2+y,1/2+z
-x,1/2-y,1/2+z
1/4-x,3/4+y,3/4+z
1/4+x,3/4-y,3/4+z
1/2+x,y,1/2+z
1/2-x,-y,1/2+z
3/4-x,1/4+y,3/4+z
3/4+x,1/4-y,3/4+z
1/2+x,1/2+y,z
1/2-x,1/2-y,z
3/4-x,3/4+y,1/4+z
3/4+x,3/4-y,1/4+z
loop_
_atom_site_type_symbol
_atom_site_label
_atom_site_fract_x
_atom_site_fract_y
_atom_site_fract_z
Si Si1 0.000000 0.000000 0.775090
Si Si2 0.617409 0.327917 0.744265
Si Si3 0.551233 0.851719 0.556077
Si Si4 0.342061 0.873780 0.034806
Si Si5 0.586506 0.385147 0.507300
O O1 0.075472 0.072920 0.728139
O O2 0.943977 0.101986 0.819718
O O3 0.637732 0.203827 0.776068
O O4 0.576684 0.342745 0.627744
O O5 0.709619 0.386247 0.751449
O O6 0.598990 0.735629 0.537817
O O7 0.536078 0.871795 0.680565
O O8 0.291119 0.879475 0.144818
O O9 0.398888 0.984070 0.021056
#
# Coordination Sequence:
#
# PCOD9372191 Si02
#       5
#     8  16  16  16  16
#     4  12  26  48  84 114 164 220 280 342 414 522
#     4  11  26  50  82 121 164 225 284 340 422 523
#     4  10  25  51  83 121 167 214 282 355 432 497
#     4  10  24  51  77 122 159 210 268 356 426 493
#     4  11  24  50  77 118 153 217 276 341 422 513
#
# _framework density 29.698747000000001
#
# number of rings (size 3 to 8) (size 9 to 14) (size 15 to 20)
#    0.000    1.333    2.222    1.333    6.222    3.556 
#    8.000    2.222    0.000    0.000    0.000    0.000 
#    0.000    0.000    0.000    0.000    0.000    0.000 
#
# Total GULP energy -100742.680707 kJ/mol
# GULP energy per Si atom -5596.815595 kJ/mol
# Density = 2.963115 g / cm^3
# Si number density = 29.698747 Si / 1000 Ang^3
#
#
#
# Elastic Constant Matrix: (Units=GPa)
#
#
# Indices 1 2 3 4 5 6 
#
# 1 138.3784 51.3762 60.6258 0.0000 0.0000 0.0000
# 2 51.3762 232.1682 49.5890 0.0000 0.0000 0.0000
# 3 60.6258 49.5890 239.3425 0.0000 0.0000 0.0000
# 4 0.0000 0.0000 0.0000 45.2069 0.0000 0.0000
# 5 0.0000 0.0000 0.0000 0.0000 23.0441 0.0000
# 6 0.0000 0.0000 0.0000 0.0000 0.0000 65.6715
#
#
#
# Elastic Compliance Matrix: (Units=1/GPa)
#
#
# Indices 1 2 3 4 5 6 
#
# 1 0.008603 -0.001505 -0.001867 0.000000 0.000000 0.000000
# 2 -0.001505 0.004770 -0.000607 0.000000 0.000000 0.000000
# 3 -0.001867 -0.000607 0.004777 0.000000 0.000000 0.000000
# 4 0.000000 0.000000 0.000000 0.022121 0.000000 0.000000
# 5 0.000000 0.000000 0.000000 0.000000 0.043395 0.000000
# 6 0.000000 0.000000 0.000000 0.000000 0.000000 0.015227
#
#
# Mechanical properties :
#
#
# Convention : Reuss Voigt Hill
#
# Bulk Modulus (GPa) = 98.12268 103.67457 100.89862
# Shear Modulus (GPa) = 45.35173 56.67103 51.01138
#
# Velocity S-wave (km/s) = 3.91200 4.37303 4.14892
# Velocity P-wave (km/s) = 7.31547 7.77704 7.54978
#
# Compressibility (1/GPa) = 0.01019132
#
# Stress axis : x y z
#
# Youngs Moduli (GPa) = 116.23192 209.64711 209.33994
#
# Poissons Ratio (x) = 0.31552 0.39093
# Poissons Ratio (y) = 0.17493 0.12708
# Poissons Ratio (z) = 0.21706 0.12727
#
# Static dielectric constant tensor:
#      x y z
#    x 2.276890 0.000000 0.000000 
#    y 0.000000 2.295500 0.000000 
#    z 0.000000 0.000000 2.526570 
# 
# From -- ./inp_files/9141.got.cif
#   From: 2010.05.17/outbox.cif.g08.bks.cpg/sg43_5_cif.got.tgz:9141.got - 2010.06.03 19:21:55.
