data_PCOD9372600
_publ_section_title
;
Structure prediction by ZEFSAII (Michael W. Deem and Ramdas Pophale) SiO2 
 PCOD9372600
Probable space group: F D D 2
;
_chemical_formula_sum "Si O2"
_cell_formula_units_Z 80
_cell_length_a 8.894420
_cell_length_b 21.811338
_cell_length_c 16.026096
_cell_angle_alpha 90.000000
_cell_angle_beta 90.000000
_cell_angle_gamma 90.000000
_cell_volume 3109.049818
_symmetry_space_group_name_H-M "F D D 2"
_symmetry_group_IT_number 43
_symmetry_cell_setting 'orthorhombic'
loop_
_space_group_symop_operation_xyz
x,y,z
-x,-y,z
1/4-x,1/4+y,1/4+z
1/4+x,1/4-y,1/4+z
x,1/2+y,1/2+z
-x,1/2-y,1/2+z
1/4-x,3/4+y,3/4+z
1/4+x,3/4-y,3/4+z
1/2+x,y,1/2+z
1/2-x,-y,1/2+z
3/4-x,1/4+y,3/4+z
3/4+x,1/4-y,3/4+z
1/2+x,1/2+y,z
1/2-x,1/2-y,z
3/4-x,3/4+y,1/4+z
3/4+x,3/4-y,1/4+z
loop_
_atom_site_type_symbol
_atom_site_label
_atom_site_fract_x
_atom_site_fract_y
_atom_site_fract_z
Si Si1 0.927179 0.325951 0.941160
Si Si2 0.440699 0.431824 0.574570
Si Si3 0.391122 0.876166 0.631721
Si Si4 0.678537 0.007724 0.841108
Si Si5 0.163207 0.090807 0.953214
O O1 0.747998 0.326006 0.928041
O O2 0.017349 0.320326 0.855263
O O3 0.959867 0.388412 0.993884
O O4 0.976333 0.272293 0.003435
O O5 0.500000 0.500000 0.561608
O O6 0.520745 0.399358 0.653734
O O7 0.508850 0.825531 0.598884
O O8 0.264571 0.843256 0.685762
O O9 0.311925 0.904924 0.551234
O O10 0.759100 0.967432 0.912004
O O11 0.500000 0.000000 0.849514
#
# Coordination Sequence:
#
# PCOD9372600 Si02
#       5
#    16  16  16  16  16
#     4  11  25  44  70 101 135 179 231 279 338 404
#     4  11  24  44  68  99 137 183 228 277 338 406
#     4  12  24  45  68 100 138 171 221 286 336 396
#     4  11  24  45  70  97 134 180 221 273 337 403
#     4  11  24  42  69  99 133 175 221 273 338 405
#
# _framework density 25.731335000000001
#
# number of rings (size 3 to 8) (size 9 to 14) (size 15 to 20)
#    0.000    0.800    0.000    9.000    0.000    5.600 
#    0.000   10.000    0.000    0.000    0.000    0.000 
#    0.000    0.000    0.000    0.000    0.000    0.000 
#
# Total GULP energy -112315.840395 kJ/mol
# GULP energy per Si atom -5615.792020 kJ/mol
# Density = 2.567277 g / cm^3
# Si number density = 25.731335 Si / 1000 Ang^3
#
#
#
# Elastic Constant Matrix: (Units=GPa)
#
#
# Indices 1 2 3 4 5 6 
#
# 1 120.6398 8.4832 12.0176 0.0000 0.0000 0.0000
# 2 8.4832 109.7077 31.9353 0.0000 0.0000 0.0000
# 3 12.0176 31.9353 97.5998 0.0000 0.0000 0.0000
# 4 0.0000 0.0000 0.0000 19.5720 0.0000 0.0000
# 5 0.0000 0.0000 0.0000 0.0000 52.1665 0.0000
# 6 0.0000 0.0000 0.0000 0.0000 0.0000 44.7612
#
#
#
# Elastic Compliance Matrix: (Units=1/GPa)
#
#
# Indices 1 2 3 4 5 6 
#
# 1 0.008407 -0.000385 -0.000909 0.000000 0.000000 0.000000
# 2 -0.000385 0.010092 -0.003255 0.000000 0.000000 0.000000
# 3 -0.000909 -0.003255 0.011423 0.000000 0.000000 0.000000
# 4 0.000000 0.000000 0.000000 0.051093 0.000000 0.000000
# 5 0.000000 0.000000 0.000000 0.000000 0.019169 0.000000
# 6 0.000000 0.000000 0.000000 0.000000 0.000000 0.022341
#
#
# Mechanical properties :
#
#
# Convention : Reuss Voigt Hill
#
# Bulk Modulus (GPa) = 48.02279 48.09104 48.05691
# Shear Modulus (GPa) = 36.08408 41.66736 38.87572
#
# Velocity S-wave (km/s) = 3.74885 4.02845 3.89116
# Velocity P-wave (km/s) = 6.11900 6.35359 6.23740
#
# Compressibility (1/GPa) = 0.02082345
#
# Stress axis : x y z
#
# Youngs Moduli (GPa) = 118.95136 99.08441 87.54373
#
# Poissons Ratio (x) = 0.03819 0.07958
# Poissons Ratio (y) = 0.04585 0.28494
# Poissons Ratio (z) = 0.10813 0.32250
#
# Static dielectric constant tensor:
#      x y z
#    x 2.072060 0.000000 0.000000 
#    y 0.000000 1.946180 0.000000 
#    z 0.000000 0.000000 1.989030 
# 
# From -- ./inp_files/12759.got.cif
#   From: 2010.05.17/outbox.cif.g08.bks.cpg/sg43_7_cif.got.tgz:12759.got - 2010.06.03 19:21:55.
