data_PCOD9372105
_publ_section_title
;
Structure prediction by ZEFSAII (Michael W. Deem and Ramdas Pophale) SiO2 
 PCOD9372105
Probable space group: F D D 2
;
_chemical_formula_sum "Si O2"
_cell_formula_units_Z 80
_cell_length_a 20.305172
_cell_length_b 13.660255
_cell_length_c 12.403332
_cell_angle_alpha 90.000000
_cell_angle_beta 90.000000
_cell_angle_gamma 90.000000
_cell_volume 3440.359669
_symmetry_space_group_name_H-M "F D D 2"
_symmetry_group_IT_number 43
_symmetry_cell_setting 'orthorhombic'
loop_
_space_group_symop_operation_xyz
x,y,z
-x,-y,z
1/4-x,1/4+y,1/4+z
1/4+x,1/4-y,1/4+z
x,1/2+y,1/2+z
-x,1/2-y,1/2+z
1/4-x,3/4+y,3/4+z
1/4+x,3/4-y,3/4+z
1/2+x,y,1/2+z
1/2-x,-y,1/2+z
3/4-x,1/4+y,3/4+z
3/4+x,1/4-y,3/4+z
1/2+x,1/2+y,z
1/2-x,1/2-y,z
3/4-x,3/4+y,1/4+z
3/4+x,3/4-y,1/4+z
loop_
_atom_site_type_symbol
_atom_site_label
_atom_site_fract_x
_atom_site_fract_y
_atom_site_fract_z
Si Si1 0.679676 0.095639 0.157450
Si Si2 0.114984 0.833271 0.800032
Si Si3 0.939022 0.576470 0.669467
Si Si4 0.260153 0.919076 0.725109
Si Si5 0.316382 0.804175 0.375440
O O1 0.676345 0.176260 0.249617
O O2 0.741973 0.025232 0.178948
O O3 0.619711 0.021165 0.168907
O O4 0.676696 0.139777 0.039474
O O5 0.131812 0.732866 0.859329
O O6 0.188872 0.868842 0.757876
O O7 0.074552 0.843765 0.689358
O O8 0.062277 0.879929 0.888822
O O9 0.954659 0.666688 0.590637
O O10 0.000000 0.500000 0.674459
O O11 0.250000 0.750000 0.399043
#
# Coordination Sequence:
#
# PCOD9372105 Si02
#       5
#    16  16  16  16  16
#     4  11  27  46  70 106 145 196 256 324 396 469
#     4  10  25  45  76 106 150 195 259 320 395 477
#     4  10  24  45  73 104 143 194 259 313 392 471
#     4  10  25  45  76 108 146 196 261 322 396 465
#     4  11  28  45  71 103 150 192 256 322 400 472
#
# _framework density 23.253384
#
# number of rings (size 3 to 8) (size 9 to 14) (size 15 to 20)
#    0.000    1.600    0.000    0.600   19.600    2.400 
#    0.000    0.000    0.000    0.000    0.000    0.000 
#    0.000    0.000    0.000    0.000    0.000    0.000 
#
# Total GULP energy -111405.603317 kJ/mol
# GULP energy per Si atom -5570.280166 kJ/mol
# Density = 2.320046 g / cm^3
# Si number density = 23.253384 Si / 1000 Ang^3
#
#
#
# Elastic Constant Matrix: (Units=GPa)
#
#
# Indices 1 2 3 4 5 6 
#
# 1 130.5624 34.2925 37.9092 0.0000 0.0000 0.0000
# 2 34.2925 51.9868 16.2453 0.0000 0.0000 0.0000
# 3 37.9092 16.2453 144.4290 0.0000 0.0000 0.0000
# 4 0.0000 0.0000 0.0000 51.6817 0.0000 0.0000
# 5 0.0000 0.0000 0.0000 0.0000 -84.6203 0.0000
# 6 0.0000 0.0000 0.0000 0.0000 0.0000 43.8848
#
#
#
# Elastic Compliance Matrix: (Units=1/GPa)
#
#
# Indices 1 2 3 4 5 6 
#
# 1 0.009743 -0.005833 -0.001901 0.000000 0.000000 0.000000
# 2 -0.005833 0.023428 -0.001104 0.000000 0.000000 0.000000
# 3 -0.001901 -0.001104 0.007547 0.000000 0.000000 0.000000
# 4 0.000000 0.000000 0.000000 0.019349 0.000000 0.000000
# 5 0.000000 0.000000 0.000000 0.000000 -0.011817 0.000000
# 6 0.000000 0.000000 0.000000 0.000000 0.000000 0.022787
#
#
# Mechanical properties :
#
#
# Convention : Reuss Voigt Hill
#
# Bulk Modulus (GPa) = 43.39933 55.98579 49.69256
# Shear Modulus (GPa) = 51.87015 18.09132 34.98073
#
# Velocity S-wave (km/s) = 4.72810 2.79231 3.88278
# Velocity P-wave (km/s) = 6.96497 5.87577 6.44342
#
# Compressibility (1/GPa) = 0.02304183
#
# Stress axis : x y z
#
# Youngs Moduli (GPa) = 102.63530 42.68349 132.50183
#
# Poissons Ratio (x) = 0.24897 0.25193
# Poissons Ratio (y) = 0.59866 0.14631
# Poissons Ratio (z) = 0.19514 0.04713
#
# Static dielectric constant tensor:
#      x y z
#    x 3.047900 0.000000 0.000000 
#    y 0.000000 1.942700 0.000000 
#    z 0.000000 0.000000 1.865800 
# 
# From -- ./inp_files/7427.got.cif
#   From: 2010.05.17/outbox.cif.g08.bks.cpg/sg43_4_cif.got.tgz:7427.got - 2010.06.03 19:21:55.
