data_PCOD9372092
_publ_section_title
;
Structure prediction by ZEFSAII (Michael W. Deem and Ramdas Pophale) SiO2 
 PCOD9372092
Probable space group: F D D 2
;
_chemical_formula_sum "Si O2"
_cell_formula_units_Z 64
_cell_length_a 17.302593
_cell_length_b 23.282434
_cell_length_c 6.664857
_cell_angle_alpha 90.000000
_cell_angle_beta 90.000000
_cell_angle_gamma 90.000000
_cell_volume 2684.914179
_symmetry_space_group_name_H-M "F D D 2"
_symmetry_group_IT_number 43
_symmetry_cell_setting 'orthorhombic'
loop_
_space_group_symop_operation_xyz
x,y,z
-x,-y,z
1/4-x,1/4+y,1/4+z
1/4+x,1/4-y,1/4+z
x,1/2+y,1/2+z
-x,1/2-y,1/2+z
1/4-x,3/4+y,3/4+z
1/4+x,3/4-y,3/4+z
1/2+x,y,1/2+z
1/2-x,-y,1/2+z
3/4-x,1/4+y,3/4+z
3/4+x,1/4-y,3/4+z
1/2+x,1/2+y,z
1/2-x,1/2-y,z
3/4-x,3/4+y,1/4+z
3/4+x,3/4-y,1/4+z
loop_
_atom_site_type_symbol
_atom_site_label
_atom_site_fract_x
_atom_site_fract_y
_atom_site_fract_z
Si Si1 0.023363 0.916462 0.057560
Si Si2 0.495609 0.165068 0.242410
Si Si3 0.325531 0.310818 0.744461
Si Si4 0.138068 0.759173 0.606622
O O1 0.028826 0.933451 0.288685
O O2 0.019855 0.851142 0.977461
O O3 0.948096 0.947029 0.960784
O O4 0.097962 0.948413 0.964204
O O5 0.585693 0.172147 0.204915
O O6 0.446091 0.216913 0.151873
O O7 0.463472 0.109033 0.131489
O O8 0.336383 0.252656 0.876559
#
# Coordination Sequence:
#
# PCOD9372092 Si02
#       4
#    16  16  16  16
#     4  10  24  45  72  98 143 190 228 299 365 416
#     4  11  24  46  68 108 144 179 250 291 356 440
#     4  11  26  43  75 101 143 194 232 300 363 425
#     4  10  24  45  66 105 145 181 246 287 355 440
#
# _framework density 23.836887999999998
#
# number of rings (size 3 to 8) (size 9 to 14) (size 15 to 20)
#    0.000    1.500    2.500    0.000    7.000   10.000 
#    0.000    0.000    0.000    0.000    0.000    0.000 
#    0.000    0.000    0.000    0.000    0.000    0.000 
#
# Total GULP energy -89382.449396 kJ/mol
# GULP energy per Si atom -5586.403087 kJ/mol
# Density = 2.378263 g / cm^3
# Si number density = 23.836888 Si / 1000 Ang^3
#
#
#
# Elastic Constant Matrix: (Units=GPa)
#
#
# Indices 1 2 3 4 5 6 
#
# 1 147.4931 20.6970 26.0658 0.0009 -0.0009 0.0000
# 2 20.6970 46.3973 18.1346 0.0004 -0.0007 -0.0001
# 3 26.0658 18.1346 153.1826 0.0012 -0.0013 0.0001
# 4 0.0009 0.0004 0.0012 23.2333 -0.0004 0.0000
# 5 -0.0009 -0.0007 -0.0013 -0.0004 25.3041 -0.0001
# 6 0.0000 -0.0001 0.0001 0.0000 -0.0001 43.3740
#
#
#
# Elastic Compliance Matrix: (Units=1/GPa)
#
#
# Indices 1 2 3 4 5 6 
#
# 1 0.007350 -0.002925 -0.000904 0.000000 0.000000 0.000000
# 2 -0.002925 0.023763 -0.002315 0.000000 0.000000 0.000000
# 3 -0.000904 -0.002315 0.006956 0.000000 0.000000 0.000000
# 4 0.000000 0.000000 0.000000 0.043042 0.000001 0.000000
# 5 0.000000 0.000000 0.000000 0.000001 0.039519 0.000000
# 6 0.000000 0.000000 0.000000 0.000000 0.000000 0.023055
#
#
# Mechanical properties :
#
#
# Convention : Reuss Voigt Hill
#
# Bulk Modulus (GPa) = 38.79118 52.98530 45.88824
# Shear Modulus (GPa) = 30.38239 37.19398 33.78819
#
# Velocity S-wave (km/s) = 3.57402 3.95442 3.76902
# Velocity P-wave (km/s) = 5.77412 6.56707 6.18332
#
# Compressibility (1/GPa) = 0.02577906
#
# Stress axis : x y z
#
# Youngs Moduli (GPa) = 136.04865 42.08240 143.75744
#
# Poissons Ratio (x) = 0.12311 0.13002
# Poissons Ratio (y) = 0.39799 0.33286
# Poissons Ratio (z) = 0.12305 0.09744
#
# Static dielectric constant tensor:
#      x y z
#    x 1.885030 0.000000 0.000000 
#    y 0.000000 1.974320 0.000000 
#    z 0.000000 0.000000 2.033840 
# 
# From -- ./inp_files/520.got.cif
#   From: 2010.05.17/outbox.cif.g08.bks.cpg/sg43_1_cif.got.tgz:520.got - 2010.06.03 19:21:55.
