data_PCOD9372764
_publ_section_title
;
Structure prediction by ZEFSAII (Michael W. Deem and Ramdas Pophale) SiO2 
 PCOD9372764
Probable space group: F D D 2
;
_chemical_formula_sum "Si O2"
_cell_formula_units_Z 72
_cell_length_a 16.930149
_cell_length_b 13.792838
_cell_length_c 11.632644
_cell_angle_alpha 90.000000
_cell_angle_beta 90.000000
_cell_angle_gamma 90.000000
_cell_volume 2716.394566
_symmetry_space_group_name_H-M "F D D 2"
_symmetry_group_IT_number 43
_symmetry_cell_setting 'orthorhombic'
loop_
_space_group_symop_operation_xyz
x,y,z
-x,-y,z
1/4-x,1/4+y,1/4+z
1/4+x,1/4-y,1/4+z
x,1/2+y,1/2+z
-x,1/2-y,1/2+z
1/4-x,3/4+y,3/4+z
1/4+x,3/4-y,3/4+z
1/2+x,y,1/2+z
1/2-x,-y,1/2+z
3/4-x,1/4+y,3/4+z
3/4+x,1/4-y,3/4+z
1/2+x,1/2+y,z
1/2-x,1/2-y,z
3/4-x,3/4+y,1/4+z
3/4+x,3/4-y,1/4+z
loop_
_atom_site_type_symbol
_atom_site_label
_atom_site_fract_x
_atom_site_fract_y
_atom_site_fract_z
Si Si1 0.835319 0.295060 0.966230
Si Si2 0.438411 0.586788 0.477677
Si Si3 0.750000 0.250000 0.592328
Si Si4 0.990994 0.312956 0.194688
Si Si5 0.618537 0.661696 0.234293
O O1 0.750000 0.250000 0.943289
O O2 0.867057 0.362723 0.867796
O O3 0.829016 0.343626 0.090204
O O4 0.884593 0.196079 0.939286
O O5 0.500000 0.500000 0.489066
O O6 0.346731 0.563105 0.504805
O O7 0.481712 0.666408 0.559927
O O8 0.730148 0.161076 0.507530
O O9 0.676773 0.241425 0.680163
O O10 0.034232 0.211847 0.219056
#
# Coordination Sequence:
#
# PCOD9372764 Si02
#       5
#    16  16   8  16  16
#     4  11  28  47  72 109 158 204 267 332 413 475
#     4  11  28  48  75 120 157 207 273 337 410 486
#     4  12  24  48  80 122 154 214 282 328 420 488
#     4  12  26  50  84 114 166 214 281 341 405 505
#     4  12  26  49  78 113 163 217 267 345 404 497
#
# _framework density 26.505724000000001
#
# number of rings (size 3 to 8) (size 9 to 14) (size 15 to 20)
#    0.000    0.444    6.667    0.000    9.333    1.778 
#    4.000    0.000    0.000    0.000    0.000    0.000 
#    0.000    0.000    0.000    0.000    0.000    0.000 
#
# Total GULP energy -100220.720689 kJ/mol
# GULP energy per Si atom -5567.817816 kJ/mol
# Density = 2.644540 g / cm^3
# Si number density = 26.505724 Si / 1000 Ang^3
#
#
#
# Elastic Constant Matrix: (Units=GPa)
#
#
# Indices 1 2 3 4 5 6 
#
# 1 97.6792 -4.0588 -3.1972 0.0000 0.0000 0.0000
# 2 -4.0588 56.1840 19.3123 0.0000 0.0000 0.0000
# 3 -3.1972 19.3123 99.5813 0.0000 0.0000 0.0000
# 4 0.0000 0.0000 0.0000 -51.9812 0.0000 0.0000
# 5 0.0000 0.0000 0.0000 0.0000 25.4077 0.0000
# 6 0.0000 0.0000 0.0000 0.0000 0.0000 36.7600
#
#
#
# Elastic Compliance Matrix: (Units=1/GPa)
#
#
# Indices 1 2 3 4 5 6 
#
# 1 0.010272 0.000674 0.000199 0.000000 0.000000 0.000000
# 2 0.000674 0.019114 -0.003685 0.000000 0.000000 0.000000
# 3 0.000199 -0.003685 0.010763 0.000000 0.000000 0.000000
# 4 0.000000 0.000000 0.000000 -0.019238 0.000000 0.000000
# 5 0.000000 0.000000 0.000000 0.000000 0.039358 0.000000
# 6 0.000000 0.000000 0.000000 0.000000 0.000000 0.027203
#
#
# Mechanical properties :
#
#
# Convention : Reuss Voigt Hill
#
# Bulk Modulus (GPa) = 28.96506 30.83967 29.90236
# Shear Modulus (GPa) = 47.79825 18.12985 32.96405
#
# Velocity S-wave (km/s) = 4.25116 2.61817 3.53038
# Velocity P-wave (km/s) = 5.92014 4.56072 5.28432
#
# Compressibility (1/GPa) = 0.03452436
#
# Stress axis : x y z
#
# Youngs Moduli (GPa) = 97.35101 52.31744 92.90962
#
# Poissons Ratio (x) = -0.03524 -0.01850
# Poissons Ratio (y) = -0.06558 0.34240
# Poissons Ratio (z) = -0.01939 0.19280
#
# Static dielectric constant tensor:
#      x y z
#    x 2.195780 0.000000 0.000000 
#    y 0.000000 2.116690 0.000000 
#    z 0.000000 0.000000 2.106100 
# 
# From -- ./inp_files/6527.got.cif
#   From: 2010.05.17/outbox.cif.g08.bks.cpg/sg43_4_cif.got.tgz:6527.got - 2010.06.03 19:21:55.
