data_PCOD9372163
_publ_section_title
;
Structure prediction by ZEFSAII (Michael W. Deem and Ramdas Pophale) SiO2 
 PCOD9372163
Probable space group: F D D 2
;
_chemical_formula_sum "Si O2"
_cell_formula_units_Z 104
_cell_length_a 14.381048
_cell_length_b 17.604722
_cell_length_c 19.549941
_cell_angle_alpha 90.000000
_cell_angle_beta 90.000000
_cell_angle_gamma 90.000000
_cell_volume 4949.543646
_symmetry_space_group_name_H-M "F D D 2"
_symmetry_group_IT_number 43
_symmetry_cell_setting 'orthorhombic'
loop_
_space_group_symop_operation_xyz
x,y,z
-x,-y,z
1/4-x,1/4+y,1/4+z
1/4+x,1/4-y,1/4+z
x,1/2+y,1/2+z
-x,1/2-y,1/2+z
1/4-x,3/4+y,3/4+z
1/4+x,3/4-y,3/4+z
1/2+x,y,1/2+z
1/2-x,-y,1/2+z
3/4-x,1/4+y,3/4+z
3/4+x,1/4-y,3/4+z
1/2+x,1/2+y,z
1/2-x,1/2-y,z
3/4-x,3/4+y,1/4+z
3/4+x,3/4-y,1/4+z
loop_
_atom_site_type_symbol
_atom_site_label
_atom_site_fract_x
_atom_site_fract_y
_atom_site_fract_z
Si Si1 0.019452 0.741439 0.184790
Si Si2 0.649049 0.787211 0.798701
Si Si3 0.034527 0.719435 0.417102
Si Si4 0.680748 0.459693 0.283783
Si Si5 0.859148 0.614858 0.391379
Si Si6 0.700435 0.166844 0.494461
Si Si7 0.250000 0.250000 0.445799
O O1 0.108037 0.775431 0.223497
O O2 0.041166 0.749216 0.104106
O O3 0.925731 0.793620 0.187309
O O4 0.007286 0.658172 0.220527
O O5 0.750000 0.750000 0.809694
O O6 0.564812 0.760158 0.847677
O O7 0.666746 0.874887 0.808362
O O8 0.125155 0.672853 0.435366
O O9 0.010725 0.779187 0.476909
O O10 0.949821 0.660830 0.416496
O O11 0.586797 0.484268 0.245559
O O12 0.893123 0.593763 0.315041
O O13 0.777018 0.677531 0.399253
O O14 0.750000 0.250000 0.497611
#
# Coordination Sequence:
#
# PCOD9372163 Si02
#       7
#    16  16  16  16  16  16   8
#     4  12  26  47  74 108 141 202 241 302 375 440
#     4  12  27  45  71 109 145 191 245 303 369 445
#     4  11  25  47  72 106 143 193 240 315 365 433
#     4  11  25  44  72 101 146 188 246 295 373 433
#     4  11  25  48  74 106 147 189 253 297 376 441
#     4  12  27  47  71 106 152 183 247 306 369 450
#     4  10  24  48  70 108 146 190 238 316 354 448
#
# _framework density 21.012038
#
# number of rings (size 3 to 8) (size 9 to 14) (size 15 to 20)
#    0.000    0.615    4.615    2.308    7.538    1.231 
#    0.000    0.000    0.000    0.000    0.000    0.000 
#    0.000    0.000    0.000    0.000    0.000    0.000 
#
# Total GULP energy -144919.822447 kJ/mol
# GULP energy per Si atom -5573.839325 kJ/mol
# Density = 2.096421 g / cm^3
# Si number density = 21.012038 Si / 1000 Ang^3
#
#
#
# Elastic Constant Matrix: (Units=GPa)
#
#
# Indices 1 2 3 4 5 6 
#
# 1 78.4476 17.9141 31.1320 0.0000 0.0000 0.0000
# 2 17.9141 61.1157 15.9949 0.0000 0.0000 0.0000
# 3 31.1320 15.9949 91.1789 0.0000 0.0000 0.0000
# 4 0.0000 0.0000 0.0000 22.7274 0.0000 0.0000
# 5 0.0000 0.0000 0.0000 0.0000 37.9881 0.0000
# 6 0.0000 0.0000 0.0000 0.0000 0.0000 27.2547
#
#
#
# Elastic Compliance Matrix: (Units=1/GPa)
#
#
# Indices 1 2 3 4 5 6 
#
# 1 0.015347 -0.003278 -0.004665 0.000000 0.000000 0.000000
# 2 -0.003278 0.017850 -0.002012 0.000000 0.000000 0.000000
# 3 -0.004665 -0.002012 0.012913 0.000000 0.000000 0.000000
# 4 0.000000 0.000000 0.000000 0.044000 0.000000 0.000000
# 5 0.000000 0.000000 0.000000 0.000000 0.026324 0.000000
# 6 0.000000 0.000000 0.000000 0.000000 0.000000 0.036691
#
#
# Mechanical properties :
#
#
# Convention : Reuss Voigt Hill
#
# Bulk Modulus (GPa) = 38.16734 40.09156 39.12945
# Shear Modulus (GPa) = 27.50756 28.64079 28.07418
#
# Velocity S-wave (km/s) = 3.62212 3.69598 3.65924
# Velocity P-wave (km/s) = 5.97469 6.11027 6.04286
#
# Compressibility (1/GPa) = 0.02620041
#
# Stress axis : x y z
#
# Youngs Moduli (GPa) = 65.15847 56.02321 77.43953
#
# Poissons Ratio (x) = 0.18362 0.36127
# Poissons Ratio (y) = 0.21356 0.15582
# Poissons Ratio (z) = 0.30397 0.11273
#
# Static dielectric constant tensor:
#      x y z
#    x 1.708620 0.000000 0.000000 
#    y 0.000000 1.832400 0.000000 
#    z 0.000000 0.000000 1.844520 
# 
# From -- ./inp_files/17653.got.cif
#   From: 2010.05.17/outbox.cif.g08.bks.cpg/sg43_9_cif.got.tgz:17653.got - 2010.06.03 19:21:55.
