data_PCOD9373906
_publ_section_title
;
Structure prediction by ZEFSAII (Michael W. Deem and Ramdas Pophale) SiO2 
 PCOD9373906
Probable space group: I M M 2
;
_chemical_formula_sum "Si O2"
_cell_formula_units_Z 64
_cell_length_a 17.041223
_cell_length_b 7.643638
_cell_length_c 22.868669
_cell_angle_alpha 90.000000
_cell_angle_beta 90.000000
_cell_angle_gamma 90.000000
_cell_volume 2978.802839
_symmetry_space_group_name_H-M "I M M 2"
_symmetry_group_IT_number 44
_symmetry_cell_setting 'orthorhombic'
loop_
_space_group_symop_operation_xyz
x,y,z
-x,-y,z
-x,y,z
x,-y,z
1/2+x,1/2+y,1/2+z
1/2-x,1/2-y,1/2+z
1/2-x,1/2+y,1/2+z
1/2+x,1/2-y,1/2+z
loop_
_atom_site_type_symbol
_atom_site_label
_atom_site_fract_x
_atom_site_fract_y
_atom_site_fract_z
Si Si1 0.913126 0.709910 0.233190
Si Si2 0.751437 0.707154 0.444745
Si Si3 0.263059 0.701733 0.070007
Si Si4 0.916919 0.785967 0.904696
Si Si5 0.587828 0.285240 0.144789
Si Si6 0.614481 0.301139 0.275369
Si Si7 0.223712 0.803062 0.316094
Si Si8 0.411803 0.211869 0.595394
O O1 0.905192 0.500000 0.237844
O O2 0.850296 0.794236 0.274796
O O3 0.905838 0.750830 0.164675
O O4 0.000000 0.760252 0.251997
O O5 0.749604 0.500000 0.454388
O O6 0.787511 0.790661 0.502207
O O7 0.661768 0.773537 0.436154
O O8 0.790949 0.740278 0.382051
O O9 0.254295 0.500000 0.089170
O O10 0.334867 0.775086 0.108989
O O11 0.173352 0.776486 0.071920
O O12 0.914774 0.726216 0.837054
O O13 0.000000 0.733357 0.931362
O O14 0.913353 0.000000 0.903757
O O15 0.500000 0.236251 0.123269
O O16 0.590318 0.500000 0.144310
O O17 0.595009 0.224389 0.212368
O O18 0.585412 0.500000 0.273412
O O19 0.707693 0.304595 0.285178
O O20 0.253573 0.000000 0.320017
O O21 0.500000 0.274836 0.576248
O O22 0.413885 0.000000 0.587662
#
# Coordination Sequence:
#
# PCOD9373906 Si02
#       8
#     8   8   8   8   8   8   8   8
#     4   9  17  32  55  80 105 134 169 206 247 304
#     4  10  21  36  52  69  94 132 177 217 254 305
#     4  10  19  32  51  74 102 135 171 214 259 299
#     4   8  14  26  47  74  98 120 153 201 251 298
#     4   9  17  30  52  80 104 131 172 217 258 304
#     4   9  16  29  52  78 103 131 162 198 246 309
#     4  11  21  33  51  75 104 134 166 209 260 308
#     4   8  15  29  51  79 108 137 167 198 241 306
#
# _framework density 21.485142
#
# number of rings (size 3 to 8) (size 9 to 14) (size 15 to 20)
#    0.000    2.750    0.000    4.125    0.000    4.250 
#    0.000    3.125    0.000   16.500    0.000    0.000 
#    0.000    0.000    0.000    0.000    0.000    0.000 
#
# Total GULP energy -178379.826195 kJ/mol
# GULP energy per Si atom -5574.369569 kJ/mol
# Density = 2.143624 g / cm^3
# Si number density = 21.485142 Si / 1000 Ang^3
#
#
#
# Elastic Constant Matrix: (Units=GPa)
#
#
# Indices 1 2 3 4 5 6 
#
# 1 109.8076 12.3691 53.2101 0.0000 0.0000 0.0000
# 2 12.3691 47.0226 1.3130 0.0000 0.0000 0.0000
# 3 53.2101 1.3130 92.1642 0.0000 0.0000 0.0000
# 4 0.0000 0.0000 0.0000 12.2805 0.0000 0.0000
# 5 0.0000 0.0000 0.0000 0.0000 -2.5367 0.0000
# 6 0.0000 0.0000 0.0000 0.0000 0.0000 -15.8730
#
#
#
# Elastic Compliance Matrix: (Units=1/GPa)
#
#
# Indices 1 2 3 4 5 6 
#
# 1 0.013120 -0.003241 -0.007529 0.000000 0.000000 0.000000
# 2 -0.003241 0.022075 0.001557 0.000000 0.000000 0.000000
# 3 -0.007529 0.001557 0.015175 0.000000 0.000000 0.000000
# 4 0.000000 0.000000 0.000000 0.081430 0.000000 0.000000
# 5 0.000000 0.000000 0.000000 0.000000 -0.394217 0.000000
# 6 0.000000 0.000000 0.000000 0.000000 0.000000 -0.063000
#
#
# Mechanical properties :
#
#
# Convention : Reuss Voigt Hill
#
# Bulk Modulus (GPa) = 31.30453 42.53099 36.91776
# Shear Modulus (GPa) = -16.87233 10.91432 -2.97901
#
# Velocity S-wave (km/s) = -2.80536 2.25632 -1.17879
# Velocity P-wave (km/s) = 2.02695 5.16008 3.92014
#
# Compressibility (1/GPa) = 0.03194426
#
# Stress axis : x y z
#
# Youngs Moduli (GPa) = 76.21911 45.29928 65.89976
#
# Poissons Ratio (x) = 0.14681 0.49613
# Poissons Ratio (y) = 0.24702 -0.10258
# Poissons Ratio (z) = 0.57382 -0.07051
#
# Static dielectric constant tensor:
#      x y z
#    x 1.846500 0.000000 0.000000 
#    y 0.000000 1.821600 0.000000 
#    z 0.000000 0.000000 1.757230 
# 
# From -- ./inp_files/24362.got.cif
#   From: 2010.05.17/outbox.cif.g08.bks.cpg/sg44_13_cif.got.tgz:24362.got - 2010.06.03 19:37:08.
