data_PCOD9373903
_publ_section_title
;
Structure prediction by ZEFSAII (Michael W. Deem and Ramdas Pophale) SiO2 
 PCOD9373903
Probable space group: I M M 2
;
_chemical_formula_sum "Si O2"
_cell_formula_units_Z 64
_cell_length_a 9.083364
_cell_length_b 28.688981
_cell_length_c 14.610931
_cell_angle_alpha 90.000000
_cell_angle_beta 90.000000
_cell_angle_gamma 90.000000
_cell_volume 3807.498411
_symmetry_space_group_name_H-M "I M M 2"
_symmetry_group_IT_number 44
_symmetry_cell_setting 'orthorhombic'
loop_
_space_group_symop_operation_xyz
x,y,z
-x,-y,z
-x,y,z
x,-y,z
1/2+x,1/2+y,1/2+z
1/2-x,1/2-y,1/2+z
1/2-x,1/2+y,1/2+z
1/2+x,1/2-y,1/2+z
loop_
_atom_site_type_symbol
_atom_site_label
_atom_site_fract_x
_atom_site_fract_y
_atom_site_fract_z
Si Si1 0.676085 0.445687 0.822870
Si Si2 0.327721 0.764966 0.363512
Si Si3 0.323029 0.447230 0.609811
Si Si4 0.176253 0.363660 0.931986
Si Si5 0.829390 0.835419 0.621872
Si Si6 0.326537 0.864004 0.005488
Si Si7 0.824982 0.325467 0.303753
Si Si8 0.830185 0.736987 0.542739
O O1 0.500000 0.438059 0.831500
O O2 0.704687 0.500000 0.844472
O O3 0.716717 0.438462 0.716152
O O4 0.762451 0.410300 0.886878
O O5 0.500000 0.759213 0.341589
O O6 0.288522 0.819606 0.365023
O O7 0.230087 0.728066 0.309113
O O8 0.291278 0.750237 0.467893
O O9 0.500000 0.446501 0.605238
O O10 0.274524 0.500000 0.586156
O O11 0.258948 0.407547 0.545379
O O12 0.000000 0.364421 0.942495
O O13 0.250717 0.354316 0.030549
O O14 0.750995 0.848617 0.716142
O O15 0.825291 0.778756 0.614240
O O16 0.000000 0.849368 0.621447
O O17 0.500000 0.874506 0.005693
O O18 0.285745 0.849282 0.901343
O O19 0.305349 0.816922 0.066338
O O20 0.000000 0.326760 0.294267
O O21 0.000000 0.738325 0.503766
#
# Coordination Sequence:
#
# PCOD9373903 Si02
#       8
#     8   8   8   8   8   8   8   8
#     4   9  19  36  55  75 100 129 162 202 252 308
#     4   9  17  29  45  67  95 128 166 202 237 284
#     4   9  19  35  53  74  99 125 157 201 250 299
#     4  10  20  33  51  76 104 133 168 209 251 298
#     4  10  19  32  51  73 101 138 174 207 245 292
#     4   9  18  32  50  72  99 131 164 201 247 295
#     4  10  20  33  48  70 103 138 171 209 249 290
#     4   8  16  30  45  65  95 127 160 200 241 279
#
# _framework density 16.808937
#
# number of rings (size 3 to 8) (size 9 to 14) (size 15 to 20)
#    0.000    2.750    0.000    3.000    0.000    6.500 
#    0.000    5.000    0.000    0.750    0.000    3.500 
#    0.000    0.000    0.000    0.000    0.000    0.000 
#
# Total GULP energy -178209.670695 kJ/mol
# GULP energy per Si atom -5569.052209 kJ/mol
# Density = 1.677068 g / cm^3
# Si number density = 16.808937 Si / 1000 Ang^3
#
#
#
# Elastic Constant Matrix: (Units=GPa)
#
#
# Indices 1 2 3 4 5 6 
#
# 1 58.1610 51.5010 47.2076 0.0000 0.0000 0.0000
# 2 51.5010 106.3116 59.8770 0.0000 0.0000 0.0000
# 3 47.2076 59.8770 78.1841 0.0002 0.0000 0.0000
# 4 0.0000 0.0000 0.0002 19.9238 0.0000 0.0000
# 5 0.0000 0.0000 0.0000 0.0000 26.2440 0.0000
# 6 0.0000 0.0000 0.0000 0.0000 0.0000 28.2598
#
#
#
# Elastic Compliance Matrix: (Units=1/GPa)
#
#
# Indices 1 2 3 4 5 6 
#
# 1 0.038818 -0.009854 -0.015892 0.000000 0.000000 0.000000
# 2 -0.009854 0.019043 -0.008634 0.000000 0.000000 0.000000
# 3 -0.015892 -0.008634 0.028998 0.000000 0.000000 0.000000
# 4 0.000000 0.000000 0.000000 0.050191 0.000000 0.000000
# 5 0.000000 0.000000 0.000000 0.000000 0.038104 0.000000
# 6 0.000000 0.000000 0.000000 0.000000 0.000000 0.035386
#
#
# Mechanical properties :
#
#
# Convention : Reuss Voigt Hill
#
# Bulk Modulus (GPa) = 55.25031 62.20311 58.72671
# Shear Modulus (GPa) = 17.52338 20.49025 19.00681
#
# Velocity S-wave (km/s) = 3.23229 3.49522 3.36632
# Velocity P-wave (km/s) = 6.84625 7.30582 7.07977
#
# Compressibility (1/GPa) = 0.01809945
#
# Stress axis : x y z
#
# Youngs Moduli (GPa) = 25.76100 52.51300 34.48536
#
# Poissons Ratio (x) = 0.51749 0.54803
# Poissons Ratio (y) = 0.25386 0.29774
# Poissons Ratio (z) = 0.40938 0.45339
#
# Static dielectric constant tensor:
#      x y z
#    x 1.563220 0.000000 0.000000 
#    y 0.000000 1.566590 0.000000 
#    z 0.000000 0.000000 1.577180 
# 
# From -- ./inp_files/16859.got.cif
#   From: 2010.05.17/outbox.cif.g08.bks.cpg/sg44_9_cif.got.tgz:16859.got - 2010.06.03 19:37:08.
