data_PCOD9373543
_publ_section_title
;
Structure prediction by ZEFSAII (Michael W. Deem and Ramdas Pophale) SiO2 
 PCOD9373543
Probable space group: I M M 2
;
_chemical_formula_sum "Si O2"
_cell_formula_units_Z 64
_cell_length_a 24.730870
_cell_length_b 7.646617
_cell_length_c 15.928616
_cell_angle_alpha 90.000000
_cell_angle_beta 90.000000
_cell_angle_gamma 90.000000
_cell_volume 3012.220606
_symmetry_space_group_name_H-M "I M M 2"
_symmetry_group_IT_number 44
_symmetry_cell_setting 'orthorhombic'
loop_
_space_group_symop_operation_xyz
x,y,z
-x,-y,z
-x,y,z
x,-y,z
1/2+x,1/2+y,1/2+z
1/2-x,1/2-y,1/2+z
1/2-x,1/2+y,1/2+z
1/2+x,1/2-y,1/2+z
loop_
_atom_site_type_symbol
_atom_site_label
_atom_site_fract_x
_atom_site_fract_y
_atom_site_fract_z
Si Si1 0.937652 0.714149 0.385350
Si Si2 0.248498 0.207452 0.482564
Si Si3 0.254074 0.788860 0.785129
Si Si4 0.560919 0.708991 0.376042
Si Si5 0.130936 0.702238 0.544124
Si Si6 0.632971 0.211213 0.536787
Si Si7 0.861669 0.795025 0.730929
Si Si8 0.370916 0.786024 0.723226
O O1 0.935943 0.500000 0.385346
O O2 0.902674 0.775177 0.465273
O O3 0.909868 0.771069 0.298462
O O4 0.000000 0.766731 0.391061
O O5 0.247121 0.242266 0.383178
O O6 0.194475 0.283841 0.523051
O O7 0.305802 0.273263 0.517869
O O8 0.246144 0.000000 0.498126
O O9 0.198911 0.721906 0.743076
O O10 0.309810 0.727720 0.743945
O O11 0.255384 0.000000 0.778231
O O12 0.500000 0.779829 0.378974
O O13 0.556681 0.500000 0.364546
O O14 0.593379 0.737975 0.461888
O O15 0.596492 0.780249 0.298524
O O16 0.116115 0.500000 0.551221
O O17 0.120365 0.781645 0.635053
O O18 0.614619 0.269559 0.629113
O O19 0.635213 0.000000 0.537385
O O20 0.856767 0.000000 0.751538
O O21 0.371391 0.000000 0.724138
#
# Coordination Sequence:
#
# PCOD9373543 Si02
#       8
#     8   8   8   8   8   8   8   8
#     4   9  18  33  54  80 108 141 187 237 276 321
#     4  11  21  34  55  85 119 148 183 232 285 339
#     4  10  18  34  59  83 109 147 187 227 283 342
#     4  10  22  40  60  82 113 154 194 234 286 344
#     4  11  22  36  57  84 114 150 192 232 283 342
#     4  10  21  36  58  86 114 146 187 236 283 332
#     4  10  21  37  58  82 113 149 187 234 287 338
#     4   9  17  32  55  82 110 141 181 229 281 334
#
# _framework density 21.246782
#
# number of rings (size 3 to 8) (size 9 to 14) (size 15 to 20)
#    0.000    2.000    2.500    1.500    0.000    4.750 
#    0.000    1.875    0.000    1.125    0.000    0.000 
#    0.000    0.000    0.000    0.000    0.000    0.000 
#
# Total GULP energy -178770.081022 kJ/mol
# GULP energy per Si atom -5586.565032 kJ/mol
# Density = 2.119842 g / cm^3
# Si number density = 21.246782 Si / 1000 Ang^3
#
#
#
# Elastic Constant Matrix: (Units=GPa)
#
#
# Indices 1 2 3 4 5 6 
#
# 1 195.5160 -5.5838 94.0262 0.0000 0.0000 0.0000
# 2 -5.5838 36.4482 -13.5311 0.0000 0.0000 0.0000
# 3 94.0262 -13.5311 176.2117 0.0000 0.0000 0.0000
# 4 0.0000 0.0000 0.0000 18.4169 0.0000 0.0000
# 5 0.0000 0.0000 0.0000 0.0000 5.0785 0.0000
# 6 0.0000 0.0000 0.0000 0.0000 0.0000 8.1776
#
#
#
# Elastic Compliance Matrix: (Units=1/GPa)
#
#
# Indices 1 2 3 4 5 6 
#
# 1 0.006884 -0.000318 -0.003698 0.000000 0.000000 0.000000
# 2 -0.000318 0.028256 0.002340 0.000000 0.000000 0.000000
# 3 -0.003698 0.002340 0.007828 0.000000 0.000000 0.000000
# 4 0.000000 0.000000 0.000000 0.054298 0.000000 0.000000
# 5 0.000000 0.000000 0.000000 0.000000 0.196907 0.000000
# 6 0.000000 0.000000 0.000000 0.000000 0.000000 0.122286
#
#
# Mechanical properties :
#
#
# Convention : Reuss Voigt Hill
#
# Bulk Modulus (GPa) = 25.24294 61.99981 43.62137
# Shear Modulus (GPa) = 11.54693 28.55224 20.04958
#
# Velocity S-wave (km/s) = 2.33377 3.66982 3.07523
# Velocity P-wave (km/s) = 4.37819 6.87029 5.76062
#
# Compressibility (1/GPa) = 0.03961504
#
# Stress axis : x y z
#
# Youngs Moduli (GPa) = 145.26820 35.39069 127.75176
#
# Poissons Ratio (x) = 0.01126 0.47238
# Poissons Ratio (y) = 0.04621 -0.29888
# Poissons Ratio (z) = 0.53715 -0.08280
#
# Static dielectric constant tensor:
#      x y z
#    x 1.749550 0.000000 0.000000 
#    y 0.000000 1.803590 0.000000 
#    z 0.000000 0.000000 1.723070 
# 
# From -- ./inp_files/16761.got.cif
#   From: 2010.05.17/outbox.cif.g08.bks.cpg/sg44_9_cif.got.tgz:16761.got - 2010.06.03 19:37:08.
