data_PCOD9373516
_publ_section_title
;
Structure prediction by ZEFSAII (Michael W. Deem and Ramdas Pophale) SiO2 
 PCOD9373516
Probable space group: I M M 2
;
_chemical_formula_sum "Si O2"
_cell_formula_units_Z 40
_cell_length_a 11.971997
_cell_length_b 7.659919
_cell_length_c 20.887574
_cell_angle_alpha 90.000000
_cell_angle_beta 90.000000
_cell_angle_gamma 90.000000
_cell_volume 1915.485100
_symmetry_space_group_name_H-M "I M M 2"
_symmetry_group_IT_number 44
_symmetry_cell_setting 'orthorhombic'
loop_
_space_group_symop_operation_xyz
x,y,z
-x,-y,z
-x,y,z
x,-y,z
1/2+x,1/2+y,1/2+z
1/2-x,1/2-y,1/2+z
1/2-x,1/2+y,1/2+z
1/2+x,1/2-y,1/2+z
loop_
_atom_site_type_symbol
_atom_site_label
_atom_site_fract_x
_atom_site_fract_y
_atom_site_fract_z
Si Si1 0.251171 0.208105 0.917750
Si Si2 0.129261 0.786185 0.790742
Si Si3 0.126099 0.790885 0.043543
Si Si4 0.219852 0.209719 0.657693
Si Si5 0.000000 0.792381 0.436950
Si Si6 0.500000 0.713675 0.082494
O O1 0.178512 0.274994 0.858288
O O2 0.382267 0.239199 0.907054
O O3 0.235491 0.000000 0.919243
O O4 0.207099 0.276494 0.986555
O O5 0.204789 0.729153 0.730559
O O6 0.000000 0.734603 0.781704
O O7 0.129816 0.000000 0.791427
O O8 0.175347 0.755297 0.113698
O O9 0.000000 0.723796 0.035749
O O10 0.122011 0.000000 0.037092
O O11 0.110579 0.271441 0.619064
O O12 0.215280 0.000000 0.659877
O O13 0.000000 0.723676 0.509835
O O14 0.000000 0.000000 0.439886
O O15 0.500000 0.500000 0.082397
#
# Coordination Sequence:
#
# PCOD9373516 Si02
#       6
#     8   8   8   8   4   4
#     4  10  20  35  56  81 106 137 179 222 262 312
#     4   9  17  32  57  83 105 133 175 226 268 305
#     4  10  21  36  53  76 109 143 174 213 265 319
#     4  10  18  33  57  82 104 132 175 222 264 310
#     4  11  21  35  55  79 109 142 173 214 268 319
#     4   9  16  29  53  81 105 126 163 216 264 309
#
# _framework density 20.882439999999999
#
# number of rings (size 3 to 8) (size 9 to 14) (size 15 to 20)
#    0.000    2.200    3.000    0.900    0.000    2.800 
#    1.800    1.500    0.000    3.000    0.000    0.000 
#    0.000    0.000    0.000    0.000    0.000    0.000 
#
# Total GULP energy -111630.085636 kJ/mol
# GULP energy per Si atom -5581.504282 kJ/mol
# Density = 2.083491 g / cm^3
# Si number density = 20.882440 Si / 1000 Ang^3
#
#
#
# Elastic Constant Matrix: (Units=GPa)
#
#
# Indices 1 2 3 4 5 6 
#
# 1 120.2989 -0.8317 56.7842 0.0000 0.0000 0.0000
# 2 -0.8317 37.0123 9.0233 0.0000 0.0000 0.0000
# 3 56.7842 9.0233 132.5288 0.0000 0.0000 0.0000
# 4 0.0000 0.0000 0.0000 13.4282 0.0000 0.0000
# 5 0.0000 0.0000 0.0000 0.0000 27.6830 0.0000
# 6 0.0000 0.0000 0.0000 0.0000 0.0000 11.6639
#
#
#
# Elastic Compliance Matrix: (Units=1/GPa)
#
#
# Indices 1 2 3 4 5 6 
#
# 1 0.010486 0.001353 -0.004585 0.000000 0.000000 0.000000
# 2 0.001353 0.027649 -0.002462 0.000000 0.000000 0.000000
# 3 -0.004585 -0.002462 0.009678 0.000000 0.000000 0.000000
# 4 0.000000 0.000000 0.000000 0.074470 0.000000 0.000000
# 5 0.000000 0.000000 0.000000 0.000000 0.036123 0.000000
# 6 0.000000 0.000000 0.000000 0.000000 0.000000 0.085735
#
#
# Mechanical properties :
#
#
# Convention : Reuss Voigt Hill
#
# Bulk Modulus (GPa) = 27.45395 46.64349 37.04872
# Shear Modulus (GPa) = 18.67968 25.54599 22.11284
#
# Velocity S-wave (km/s) = 2.99409 3.50140 3.25764
# Velocity P-wave (km/s) = 5.01281 6.22343 5.65063
#
# Compressibility (1/GPa) = 0.03642463
#
# Stress axis : x y z
#
# Youngs Moduli (GPa) = 95.36241 36.16801 103.32948
#
# Poissons Ratio (x) = -0.04895 0.47378
# Poissons Ratio (y) = -0.12907 0.25444
# Poissons Ratio (z) = 0.43725 0.08906
#
# Static dielectric constant tensor:
#      x y z
#    x 1.761180 0.000000 0.000000 
#    y 0.000000 1.790100 0.000000 
#    z 0.000000 0.000000 1.745690 
# 
# From -- ./inp_files/22764.got.cif
#   From: 2010.05.17/outbox.cif.g08.bks.cpg/sg44_12_cif.got.tgz:22764.got - 2010.06.03 19:37:08.
