data_PCOD9373152
_publ_section_title
;
Structure prediction by ZEFSAII (Michael W. Deem and Ramdas Pophale) SiO2 
 PCOD9373152
Probable space group: I M M 2
;
_chemical_formula_sum "Si O2"
_cell_formula_units_Z 64
_cell_length_a 8.714822
_cell_length_b 27.009019
_cell_length_c 19.136944
_cell_angle_alpha 90.000000
_cell_angle_beta 90.000000
_cell_angle_gamma 90.000000
_cell_volume 4504.430780
_symmetry_space_group_name_H-M "I M M 2"
_symmetry_group_IT_number 44
_symmetry_cell_setting 'orthorhombic'
loop_
_space_group_symop_operation_xyz
x,y,z
-x,-y,z
-x,y,z
x,-y,z
1/2+x,1/2+y,1/2+z
1/2-x,1/2-y,1/2+z
1/2-x,1/2+y,1/2+z
1/2+x,1/2-y,1/2+z
loop_
_atom_site_type_symbol
_atom_site_label
_atom_site_fract_x
_atom_site_fract_y
_atom_site_fract_z
Si Si1 0.316617 0.442735 0.857870
Si Si2 0.816807 0.644128 0.769889
Si Si3 0.684897 0.205635 0.142878
Si Si4 0.316422 0.942624 0.509580
Si Si5 0.686333 0.260305 0.850715
Si Si6 0.682051 0.199558 0.722344
Si Si7 0.816572 0.855749 0.599039
Si Si8 0.814317 0.758752 0.510003
O O1 0.500000 0.439772 0.862009
O O2 0.272670 0.500000 0.844828
O O3 0.256328 0.405584 0.799429
O O4 0.248372 0.428278 0.933363
O O5 0.780016 0.657405 0.688928
O O6 0.755443 0.690288 0.815932
O O7 0.000000 0.641575 0.776982
O O8 0.500000 0.213787 0.148783
O O9 0.770225 0.250344 0.181836
O O10 0.725646 0.213234 0.061713
O O11 0.500000 0.939820 0.507896
O O12 0.251819 0.905527 0.567187
O O13 0.271707 0.000000 0.521929
O O14 0.500000 0.264900 0.849075
O O15 0.726431 0.213146 0.801884
O O16 0.739691 0.255467 0.930570
O O17 0.500000 0.192218 0.719274
O O18 0.762614 0.156896 0.677500
O O19 0.766596 0.809612 0.548949
O O20 0.000000 0.857502 0.597162
O O21 0.000000 0.760277 0.506660
#
# Coordination Sequence:
#
# PCOD9373152 Si02
#       8
#     8   8   8   8   8   8   8   8
#     4  10  20  32  44  58  79 108 139 168 199 239
#     4  10  18  27  41  59  80 107 137 170 206 241
#     4   8  15  27  40  55  77 105 135 167 205 245
#     4  10  20  32  45  62  83 104 131 171 209 237
#     4   9  16  26  41  59  80 108 139 170 204 242
#     4   9  16  25  38  57  80 105 135 170 204 237
#     4  10  18  28  43  59  80 112 142 166 196 239
#     4   8  14  25  40  57  77 103 136 167 195 233
#
# _framework density 14.208232000000001
#
# number of rings (size 3 to 8) (size 9 to 14) (size 15 to 20)
#    0.000    2.750    0.000    3.375    0.000    3.500 
#    0.000    2.500    0.000    0.000    0.000    0.000 
#    0.000    1.000    0.000    8.250    0.000    2.000 
#
# Total GULP energy -178137.729333 kJ/mol
# GULP energy per Si atom -5566.804042 kJ/mol
# Density = 1.417589 g / cm^3
# Si number density = 14.208232 Si / 1000 Ang^3
#
#
#
# Elastic Constant Matrix: (Units=GPa)
#
#
# Indices 1 2 3 4 5 6 
#
# 1 25.9591 19.9229 17.8410 0.0000 0.0000 0.0000
# 2 19.9229 59.1732 36.8347 0.0000 0.0000 0.0000
# 3 17.8410 36.8347 92.3190 0.0000 0.0000 0.0000
# 4 0.0000 0.0000 0.0000 24.9760 0.0000 0.0000
# 5 0.0000 0.0000 0.0000 0.0000 17.0286 0.0000
# 6 0.0000 0.0000 0.0000 0.0000 0.0000 19.0750
#
#
#
# Elastic Compliance Matrix: (Units=1/GPa)
#
#
# Indices 1 2 3 4 5 6 
#
# 1 0.053121 -0.015293 -0.004164 0.000000 0.000000 0.000000
# 2 -0.015293 0.026887 -0.007772 0.000000 0.000000 0.000000
# 3 -0.004164 -0.007772 0.014738 0.000000 0.000000 0.000000
# 4 0.000000 0.000000 0.000000 0.040038 0.000000 0.000000
# 5 0.000000 0.000000 0.000000 0.000000 0.058725 0.000000
# 6 0.000000 0.000000 0.000000 0.000000 0.000000 0.052425
#
#
# Mechanical properties :
#
#
# Convention : Reuss Voigt Hill
#
# Bulk Modulus (GPa) = 24.82200 36.29429 30.55815
# Shear Modulus (GPa) = 15.93267 19.07277 17.50272
#
# Velocity S-wave (km/s) = 3.35232 3.66782 3.51361
# Velocity P-wave (km/s) = 5.70019 6.59827 6.16560
#
# Compressibility (1/GPa) = 0.04028683
#
# Stress axis : x y z
#
# Youngs Moduli (GPa) = 18.82497 37.19325 67.85297
#
# Poissons Ratio (x) = 0.56880 0.28254
# Poissons Ratio (y) = 0.28789 0.52736
# Poissons Ratio (z) = 0.07839 0.28907
#
# Static dielectric constant tensor:
#      x y z
#    x 1.475110 0.000000 0.000000 
#    y 0.000000 1.459100 0.000000 
#    z 0.000000 0.000000 1.493370 
# 
# From -- ./inp_files/20906.got.cif
#   From: 2010.05.17/outbox.cif.g08.bks.cpg/sg44_11_cif.got.tgz:20906.got - 2010.06.03 19:37:08.
