data_PCOD9373554
_publ_section_title
;
Structure prediction by ZEFSAII (Michael W. Deem and Ramdas Pophale) SiO2 
 PCOD9373554
Probable space group: I M M 2
;
_chemical_formula_sum "Si O2"
_cell_formula_units_Z 64
_cell_length_a 8.481355
_cell_length_b 31.818803
_cell_length_c 12.251424
_cell_angle_alpha 90.000000
_cell_angle_beta 90.000000
_cell_angle_gamma 90.000000
_cell_volume 3306.249698
_symmetry_space_group_name_H-M "I M M 2"
_symmetry_group_IT_number 44
_symmetry_cell_setting 'orthorhombic'
loop_
_space_group_symop_operation_xyz
x,y,z
-x,-y,z
-x,y,z
x,-y,z
1/2+x,1/2+y,1/2+z
1/2-x,1/2-y,1/2+z
1/2-x,1/2+y,1/2+z
1/2+x,1/2-y,1/2+z
loop_
_atom_site_type_symbol
_atom_site_label
_atom_site_fract_x
_atom_site_fract_y
_atom_site_fract_z
Si Si1 0.312457 0.330968 0.546860
Si Si2 0.312682 0.431059 0.559053
Si Si3 0.307706 0.546341 0.316011
Si Si4 0.311433 0.374160 0.172810
Si Si5 0.688844 0.872627 0.426838
Si Si6 0.813146 0.700955 0.319810
Si Si7 0.309414 0.703667 0.781787
Si Si8 0.689192 0.954078 0.293701
O O1 0.500000 0.323571 0.531386
O O2 0.290256 0.380897 0.556310
O O3 0.223395 0.313463 0.442440
O O4 0.261714 0.309929 0.659933
O O5 0.500000 0.439717 0.568002
O O6 0.257369 0.448176 0.442019
O O7 0.231472 0.448667 0.666648
O O8 0.500000 0.547992 0.317426
O O9 0.260898 0.500000 0.276147
O O10 0.254210 0.585240 0.242038
O O11 0.500000 0.376575 0.166089
O O12 0.265904 0.332193 0.238265
O O13 0.242884 0.373884 0.051652
O O14 0.500000 0.872855 0.422771
O O15 0.747632 0.830683 0.366689
O O16 0.749330 0.913940 0.361561
O O17 0.756935 0.748827 0.304732
O O18 0.000000 0.700045 0.299540
O O19 0.500000 0.702553 0.786269
O O20 0.500000 0.953960 0.303870
O O21 0.747666 0.000000 0.331350
#
# Coordination Sequence:
#
# PCOD9373554 Si02
#       8
#     8   8   8   8   8   8   8   8
#     4  10  20  38  63  89 120 156 194 242 298 349
#     4  10  18  34  61  89 117 151 193 240 292 346
#     4   9  18  34  57  86 117 150 193 243 292 344
#     4  11  23  41  62  85 118 159 199 246 301 350
#     4  11  24  41  61  86 117 157 201 247 296 349
#     4  11  24  40  61  91 122 156 199 243 294 355
#     4  10  23  42  62  88 121 157 198 245 293 349
#     4  10  22  39  58  85 122 158 192 236 295 356
#
# _framework density 19.357278999999998
#
# number of rings (size 3 to 8) (size 9 to 14) (size 15 to 20)
#    0.000    1.750    2.500    1.500    1.750    3.750 
#    0.000    0.000    0.000    1.875    0.000    0.000 
#    0.000    0.000    0.000    0.000    0.000    0.000 
#
# Total GULP energy -178764.572355 kJ/mol
# GULP energy per Si atom -5586.392886 kJ/mol
# Density = 1.931322 g / cm^3
# Si number density = 19.357279 Si / 1000 Ang^3
#
#
#
# Elastic Constant Matrix: (Units=GPa)
#
#
# Indices 1 2 3 4 5 6 
#
# 1 10.4526 23.0530 11.5867 0.0003 0.0000 -0.0001
# 2 23.0530 157.5558 76.9017 0.0004 0.0000 -0.0002
# 3 11.5867 76.9017 137.7597 0.0016 0.0000 -0.0009
# 4 0.0003 0.0004 0.0016 29.8518 -0.0001 0.0000
# 5 0.0000 0.0000 0.0000 -0.0001 32.1362 0.0001
# 6 -0.0001 -0.0002 -0.0009 0.0000 0.0001 -8.6064
#
#
#
# Elastic Compliance Matrix: (Units=1/GPa)
#
#
# Indices 1 2 3 4 5 6 
#
# 1 0.141274 -0.020440 -0.000472 -0.000001 0.000000 -0.000001
# 2 -0.020440 0.011681 -0.004802 0.000000 0.000000 0.000000
# 3 -0.000472 -0.004802 0.009979 0.000000 0.000000 -0.000001
# 4 -0.000001 0.000000 0.000000 0.033499 0.000000 0.000000
# 5 0.000000 0.000000 0.000000 0.000000 0.031118 0.000000
# 6 -0.000001 0.000000 -0.000001 0.000000 0.000000 -0.116192
#
#
# Mechanical properties :
#
#
# Convention : Reuss Voigt Hill
#
# Bulk Modulus (GPa) = 8.96807 58.76122 33.86464
# Shear Modulus (GPa) = 25.00550 23.62475 24.31512
#
# Velocity S-wave (km/s) = 3.59804 3.49730 3.54803
# Velocity P-wave (km/s) = 4.68019 6.83594 5.85809
#
# Compressibility (1/GPa) = 0.11150675
#
# Stress axis : x y z
#
# Youngs Moduli (GPa) = 7.07844 85.60617 100.20883
#
# Poissons Ratio (x) = 1.74983 0.04728
# Poissons Ratio (y) = 0.14469 0.48117
# Poissons Ratio (z) = 0.00334 0.41106
#
# Static dielectric constant tensor:
#      x y z
#    x 1.672700 0.000000 0.000000 
#    y 0.000000 1.683260 0.000000 
#    z 0.000000 0.000000 1.635200 
# 
# From -- ./inp_files/11562.got.cif
#   From: 2010.05.17/outbox.cif.g08.bks.cpg/sg44_6_cif.got.tgz:11562.got - 2010.06.03 19:37:08.
