data_PCOD9373651
_publ_section_title
;
Structure prediction by ZEFSAII (Michael W. Deem and Ramdas Pophale) SiO2 
 PCOD9373651
Probable space group: I M M 2
;
_chemical_formula_sum "Si O2"
_cell_formula_units_Z 64
_cell_length_a 8.472335
_cell_length_b 23.870272
_cell_length_c 13.788060
_cell_angle_alpha 90.000000
_cell_angle_beta 90.000000
_cell_angle_gamma 90.000000
_cell_volume 2788.455076
_symmetry_space_group_name_H-M "I M M 2"
_symmetry_group_IT_number 44
_symmetry_cell_setting 'orthorhombic'
loop_
_space_group_symop_operation_xyz
x,y,z
-x,-y,z
-x,y,z
x,-y,z
1/2+x,1/2+y,1/2+z
1/2-x,1/2-y,1/2+z
1/2-x,1/2+y,1/2+z
1/2+x,1/2-y,1/2+z
loop_
_atom_site_type_symbol
_atom_site_label
_atom_site_fract_x
_atom_site_fract_y
_atom_site_fract_z
Si Si1 0.689668 0.939007 0.288140
Si Si2 0.820195 0.177979 0.613318
Si Si3 0.683123 0.799771 0.099841
Si Si4 0.815964 0.801306 0.845024
Si Si5 0.682739 0.081788 0.875761
Si Si6 0.819153 0.319909 0.831654
Si Si7 0.689926 0.061075 0.655507
Si Si8 0.180177 0.917059 0.077102
O O1 0.500000 0.937237 0.299911
O O2 0.753126 0.882135 0.339151
O O3 0.723661 0.935078 0.172548
O O4 0.746694 0.000000 0.322637
O O5 0.753434 0.237553 0.577456
O O6 0.822762 0.188759 0.729094
O O7 0.742006 0.117456 0.600638
O O8 0.000000 0.174531 0.578612
O O9 0.500000 0.805529 0.066433
O O10 0.673151 0.808948 0.216033
O O11 0.794662 0.850124 0.069253
O O12 0.751162 0.739220 0.867267
O O13 0.000000 0.806618 0.877259
O O14 0.704838 0.851182 0.878204
O O15 0.500000 0.066675 0.880770
O O16 0.766129 0.060620 0.972746
O O17 0.743872 0.064323 0.769019
O O18 0.000000 0.322231 0.868395
O O19 0.500000 0.062269 0.657712
O O20 0.739791 0.000000 0.616531
O O21 0.000000 0.931024 0.095350
#
# Coordination Sequence:
#
# PCOD9373651 Si02
#       8
#     8   8   8   8   8   8   8   8
#     4   9  17  30  46  61  81 113 147 172 198 237
#     4   8  14  25  43  63  80 101 130 167 209 250
#     4   8  14  27  44  60  79 103 132 165 206 253
#     4   8  13  24  41  59  79 100 126 165 211 249
#     4  10  19  30  42  56  78 110 147 178 205 242
#     4   7  11  22  41  61  78  99 128 163 203 245
#     4   9  18  30  42  58  82 112 144 175 205 240
#     4  11  21  30  41  59  83 110 142 177 211 243
#
# _framework density 22.951777
#
# number of rings (size 3 to 8) (size 9 to 14) (size 15 to 20)
#    0.000    3.250    0.000    3.750    0.000    2.000 
#    0.000    7.500    0.000    0.000    0.000    0.000 
#    0.000    1.000    0.000    5.250    0.000    2.875 
#
# Total GULP energy -178246.322191 kJ/mol
# GULP energy per Si atom -5570.197568 kJ/mol
# Density = 2.289954 g / cm^3
# Si number density = 22.951777 Si / 1000 Ang^3
#
#
#
# Elastic Constant Matrix: (Units=GPa)
#
#
# Indices 1 2 3 4 5 6 
#
# 1 15.9119 24.0815 -0.4740 0.0000 0.0000 0.0000
# 2 24.0815 249.2978 -3.8203 0.0001 0.0000 0.0000
# 3 -0.4740 -3.8203 34.7766 0.0002 0.0000 0.0000
# 4 0.0000 0.0001 0.0002 -19.9436 0.0000 0.0000
# 5 0.0000 0.0000 0.0000 0.0000 7.8483 0.0000
# 6 0.0000 0.0000 0.0000 0.0000 0.0000 2.4297
#
#
#
# Elastic Compliance Matrix: (Units=1/GPa)
#
#
# Indices 1 2 3 4 5 6 
#
# 1 0.073608 -0.007107 0.000223 0.000000 0.000000 0.000000
# 2 -0.007107 0.004704 0.000420 0.000000 0.000000 0.000000
# 3 0.000223 0.000420 0.028804 0.000000 0.000000 0.000000
# 4 0.000000 0.000000 0.000000 -0.050141 0.000000 0.000000
# 5 0.000000 0.000000 0.000000 0.000000 0.127417 -0.000001
# 6 0.000000 0.000000 0.000000 0.000000 -0.000001 0.411569
#
#
# Mechanical properties :
#
#
# Convention : Reuss Voigt Hill
#
# Bulk Modulus (GPa) = 10.61709 37.72898 24.17304
# Shear Modulus (GPa) = 7.80902 16.74682 12.27792
#
# Velocity S-wave (km/s) = 1.84655 2.70414 2.31540
# Velocity P-wave (km/s) = 3.03021 5.12093 4.20750
#
# Compressibility (1/GPa) = 0.09418774
#
# Stress axis : x y z
#
# Youngs Moduli (GPa) = 13.58540 212.57527 34.71724
#
# Poissons Ratio (x) = 1.51077 -0.00773
# Poissons Ratio (y) = 0.09655 -0.01458
# Poissons Ratio (z) = -0.00302 -0.08926
#
# Static dielectric constant tensor:
#      x y z
#    x 1.791180 0.000000 0.000000 
#    y 0.000000 1.951540 0.000000 
#    z 0.000000 0.000000 1.920680 
# 
# From -- ./inp_files/23444.got.cif
#   From: 2010.05.17/outbox.cif.g08.bks.cpg/sg44_12_cif.got.tgz:23444.got - 2010.06.03 19:37:08.
