data_PCOD9373334
_publ_section_title
;
Structure prediction by ZEFSAII (Michael W. Deem and Ramdas Pophale) SiO2 
 PCOD9373334
Probable space group: I M M 2
;
_chemical_formula_sum "Si O2"
_cell_formula_units_Z 52
_cell_length_a 12.507254
_cell_length_b 7.436121
_cell_length_c 26.137531
_cell_angle_alpha 90.000000
_cell_angle_beta 90.000000
_cell_angle_gamma 90.000000
_cell_volume 2430.932940
_symmetry_space_group_name_H-M "I M M 2"
_symmetry_group_IT_number 44
_symmetry_cell_setting 'orthorhombic'
loop_
_space_group_symop_operation_xyz
x,y,z
-x,-y,z
-x,y,z
x,-y,z
1/2+x,1/2+y,1/2+z
1/2-x,1/2-y,1/2+z
1/2-x,1/2+y,1/2+z
1/2+x,1/2-y,1/2+z
loop_
_atom_site_type_symbol
_atom_site_label
_atom_site_fract_x
_atom_site_fract_y
_atom_site_fract_z
Si Si1 0.877732 0.719610 0.812880
Si Si2 0.766369 0.788442 0.408245
Si Si3 0.376078 0.720373 0.621191
Si Si4 0.500000 0.786776 0.787956
Si Si5 0.783727 0.787243 0.226816
Si Si6 0.000000 0.748548 0.399340
Si Si7 0.738601 0.783788 0.025528
Si Si8 0.000000 0.280269 0.513497
O O1 0.877571 0.500000 0.811924
O O2 0.819270 0.769067 0.865972
O O3 0.809141 0.783073 0.764008
O O4 0.000000 0.778988 0.811387
O O5 0.733928 0.772282 0.467547
O O6 0.876941 0.683032 0.400540
O O7 0.791474 0.000000 0.398830
O O8 0.500000 0.776172 0.625726
O O9 0.376700 0.500000 0.621968
O O10 0.306041 0.782044 0.669771
O O11 0.320523 0.779221 0.568623
O O12 0.605033 0.740000 0.756412
O O13 0.500000 0.684334 0.841409
O O14 0.500000 0.000000 0.799718
O O15 0.763653 0.000000 0.221588
O O16 0.000000 0.813065 0.458101
O O17 0.614612 0.733951 0.037635
O O18 0.741821 0.000000 0.025827
O O19 0.000000 0.500000 0.505361
#
# Coordination Sequence:
#
# PCOD9373334 Si02
#       8
#     8   8   8   4   8   4   8   4
#     4   9  18  32  50  76 106 134 171 215 255 302
#     4  10  19  31  51  76 102 133 171 213 254 306
#     4   9  17  31  53  75  97 128 173 217 252 301
#     4  12  22  31  52  85 112 133 165 218 276 319
#     4  10  19  35  56  76 103 141 177 214 261 315
#     4  10  18  30  49  75 101 135 169 207 253 315
#     4   9  18  32  49  71 100 133 166 208 258 306
#     4   8  15  29  45  66  99 128 156 197 251 300
#
# _framework density 21.390964
#
# number of rings (size 3 to 8) (size 9 to 14) (size 15 to 20)
#    0.000    2.462    2.308    0.692    0.000    1.846 
#    1.385    0.769    0.000    1.385    0.000    0.000 
#    0.000    0.000    0.000    0.000    0.000    0.000 
#
# Total GULP energy -144854.146686 kJ/mol
# GULP energy per Si atom -5571.313334 kJ/mol
# Density = 2.134228 g / cm^3
# Si number density = 21.390964 Si / 1000 Ang^3
#
#
#
# Elastic Constant Matrix: (Units=GPa)
#
#
# Indices 1 2 3 4 5 6 
#
# 1 183.2613 3.2208 105.7925 0.0000 0.0000 0.0000
# 2 3.2208 73.4001 6.4572 0.0000 0.0000 0.0000
# 3 105.7925 6.4572 188.6590 0.0000 0.0000 0.0000
# 4 0.0000 0.0000 0.0000 23.8684 0.0000 0.0000
# 5 0.0000 0.0000 0.0000 0.0000 27.2388 0.0000
# 6 0.0000 0.0000 0.0000 0.0000 0.0000 -71.9531
#
#
#
# Elastic Compliance Matrix: (Units=1/GPa)
#
#
# Indices 1 2 3 4 5 6 
#
# 1 0.008069 0.000044 -0.004526 0.000000 0.000000 0.000000
# 2 0.000044 0.013665 -0.000492 0.000000 0.000000 0.000000
# 3 -0.004526 -0.000492 0.007856 0.000000 0.000000 0.000000
# 4 0.000000 0.000000 0.000000 0.041896 0.000000 0.000000
# 5 0.000000 0.000000 0.000000 0.000000 0.036712 0.000000
# 6 0.000000 0.000000 0.000000 0.000000 0.000000 -0.013898
#
#
# Mechanical properties :
#
#
# Convention : Reuss Voigt Hill
#
# Bulk Modulus (GPa) = 50.91487 75.14014 63.02750
# Shear Modulus (GPa) = 45.12786 17.82081 31.47433
#
# Velocity S-wave (km/s) = 4.59810 2.88948 3.84002
# Velocity P-wave (km/s) = 7.21413 6.80701 7.01353
#
# Compressibility (1/GPa) = 0.01964063
#
# Stress axis : x y z
#
# Youngs Moduli (GPa) = 123.93486 73.17780 127.29920
#
# Poissons Ratio (x) = -0.00323 0.57617
# Poissons Ratio (y) = -0.00547 0.06269
# Poissons Ratio (z) = 0.56095 0.03604
#
# Static dielectric constant tensor:
#      x y z
#    x 1.755120 0.000000 0.000000 
#    y 0.000000 1.907110 0.000000 
#    z 0.000000 0.000000 1.745840 
# 
# From -- ./inp_files/26378.got.cif
#   From: 2010.05.17/outbox.cif.g08.bks.cpg/sg44_14_cif.got.tgz:26378.got - 2010.06.03 19:37:08.
