data_PCOD9373871
_publ_section_title
;
Structure prediction by ZEFSAII (Michael W. Deem and Ramdas Pophale) SiO2 
 PCOD9373871
Probable space group: I M M 2
;
_chemical_formula_sum "Si O2"
_cell_formula_units_Z 56
_cell_length_a 26.161239
_cell_length_b 17.855690
_cell_length_c 5.559904
_cell_angle_alpha 90.000000
_cell_angle_beta 90.000000
_cell_angle_gamma 90.000000
_cell_volume 2597.181129
_symmetry_space_group_name_H-M "I M M 2"
_symmetry_group_IT_number 44
_symmetry_cell_setting 'orthorhombic'
loop_
_space_group_symop_operation_xyz
x,y,z
-x,-y,z
-x,y,z
x,-y,z
1/2+x,1/2+y,1/2+z
1/2-x,1/2-y,1/2+z
1/2-x,1/2+y,1/2+z
1/2+x,1/2-y,1/2+z
loop_
_atom_site_type_symbol
_atom_site_label
_atom_site_fract_x
_atom_site_fract_y
_atom_site_fract_z
Si Si1 0.583566 0.636498 0.146570
Si Si2 0.442177 0.808043 0.151654
Si Si3 0.803036 0.803865 0.659522
Si Si4 0.386451 0.805853 0.651921
Si Si5 0.891613 0.120893 0.157270
Si Si6 0.277194 0.419922 0.551211
Si Si7 0.208288 0.343507 0.883002
O O1 0.557032 0.717080 0.152696
O O2 0.644404 0.653535 0.123043
O O3 0.580484 0.599987 0.407539
O O4 0.574826 0.599687 0.888822
O O5 0.500000 0.836193 0.133170
O O6 0.418702 0.828267 0.413011
O O7 0.411504 0.827950 0.906497
O O8 0.817230 0.719053 0.714936
O O9 0.762570 0.806167 0.449584
O O10 0.776086 0.849819 0.873122
O O11 0.384086 0.713333 0.649830
O O12 0.331010 0.843795 0.603907
O O13 0.834616 0.086051 0.159858
O O14 0.273837 0.500000 0.422466
O O15 0.230173 0.413402 0.737915
#
# Coordination Sequence:
#
# PCOD9373871 Si02
#       7
#     8   8   8   8   8   8   8
#     4   9  17  30  48  72  99 136 181 212 254 331
#     4  10  19  32  48  76 112 134 165 234 298 320
#     4  11  20  32  54  76 104 153 189 219 262 335
#     4  10  20  31  53  77 102 144 187 217 264 348
#     4   9  16  33  45  69 101 137 177 214 252 316
#     4  11  23  34  48  77 114 148 187 232 270 306
#     4  12  20  32  56  75 105 154 191 220 261 334
#
# _framework density 21.561837000000001
#
# number of rings (size 3 to 8) (size 9 to 14) (size 15 to 20)
#    0.000    1.714    7.143    0.429    4.000    0.571 
#    0.000    0.000    0.000    0.000    0.000    0.000 
#    0.000  141.143    0.000    0.000    0.000    0.000 
#
# Total GULP energy -155922.379283 kJ/mol
# GULP energy per Si atom -5568.656403 kJ/mol
# Density = 2.151276 g / cm^3
# Si number density = 21.561837 Si / 1000 Ang^3
#
#
#
# Elastic Constant Matrix: (Units=GPa)
#
#
# Indices 1 2 3 4 5 6 
#
# 1 60.0866 -17.2053 27.3514 0.0000 0.0000 0.0000
# 2 -17.2053 31.3583 4.5179 0.0000 0.0000 0.0000
# 3 27.3514 4.5179 147.8001 0.0000 0.0000 0.0000
# 4 0.0000 0.0000 0.0000 -0.5763 0.0000 0.0000
# 5 0.0000 0.0000 0.0000 0.0000 23.7695 0.0000
# 6 0.0000 0.0000 0.0000 0.0000 0.0000 -0.0386
#
#
#
# Elastic Compliance Matrix: (Units=1/GPa)
#
#
# Indices 1 2 3 4 5 6 
#
# 1 0.022422 0.012957 -0.004545 0.000000 0.000000 0.000000
# 2 0.012957 0.039518 -0.003606 0.000000 0.000000 0.000000
# 3 -0.004545 -0.003606 0.007717 0.000000 0.000000 0.000000
# 4 0.000000 0.000000 0.000000 -1.735078 0.000000 0.000000
# 5 0.000000 0.000000 0.000000 0.000000 0.042071 0.000000
# 6 0.000000 0.000000 0.000000 0.000000 0.000000-25.932754
#
#
# Mechanical properties :
#
#
# Convention : Reuss Voigt Hill
#
# Bulk Modulus (GPa) = 12.61527 29.84144 21.22836
# Shear Modulus (GPa) = -0.18156 19.60298 9.71071
#
# Velocity S-wave (km/s) = -0.29049 3.01849 2.12448
# Velocity P-wave (km/s) = 2.39811 5.10082 3.98555
#
# Compressibility (1/GPa) = 0.07926899
#
# Stress axis : x y z
#
# Youngs Moduli (GPa) = 44.59939 25.30485 129.57960
#
# Poissons Ratio (x) = -0.32788 0.58899
# Poissons Ratio (y) = -0.57788 0.46723
# Poissons Ratio (z) = 0.20272 0.09124
#
# Static dielectric constant tensor:
#      x y z
#    x 1.812630 0.000000 0.000000 
#    y 0.000000 1.780800 0.000000 
#    z 0.000000 0.000000 1.956710 
# 
# From -- ./inp_files/3097.got.cif
#   From: 2010.05.17/outbox.cif.g08.bks.cpg/sg44_2_cif.got.tgz:3097.got - 2010.06.03 19:37:08.
