data_PCOD9373792
_publ_section_title
;
Structure prediction by ZEFSAII (Michael W. Deem and Ramdas Pophale) SiO2 
 PCOD9373792
Probable space group: I M M 2
;
_chemical_formula_sum "Si O2"
_cell_formula_units_Z 40
_cell_length_a 7.784082
_cell_length_b 9.215291
_cell_length_c 33.506753
_cell_angle_alpha 90.000000
_cell_angle_beta 90.000000
_cell_angle_gamma 90.000000
_cell_volume 2403.525867
_symmetry_space_group_name_H-M "I M M 2"
_symmetry_group_IT_number 44
_symmetry_cell_setting 'orthorhombic'
loop_
_space_group_symop_operation_xyz
x,y,z
-x,-y,z
-x,y,z
x,-y,z
1/2+x,1/2+y,1/2+z
1/2-x,1/2-y,1/2+z
1/2-x,1/2+y,1/2+z
1/2+x,1/2-y,1/2+z
loop_
_atom_site_type_symbol
_atom_site_label
_atom_site_fract_x
_atom_site_fract_y
_atom_site_fract_z
Si Si1 0.500000 0.323627 0.580400
Si Si2 0.500000 0.326954 0.292681
Si Si3 0.806861 0.170703 0.716270
Si Si4 0.000000 0.173789 0.172188
Si Si5 0.699060 0.673979 0.937553
Si Si6 0.698649 0.825465 0.021462
Si Si7 0.000000 0.674526 0.877364
O O1 0.500000 0.500000 0.581190
O O2 0.500000 0.275256 0.626126
O O3 0.331624 0.279007 0.555540
O O4 0.500000 0.500000 0.299120
O O5 0.661188 0.293962 0.263197
O O6 0.500000 0.244671 0.333932
O O7 0.666589 0.265619 0.694723
O O8 0.000000 0.189951 0.698888
O O9 0.763546 0.000000 0.713418
O O10 0.000000 0.000000 0.172774
O O11 0.500000 0.707648 0.927653
O O12 0.712631 0.500000 0.943026
O O13 0.832322 0.716388 0.903167
O O14 0.741112 0.751703 0.979246
O O15 0.500000 0.790412 0.031146
O O16 0.711232 0.000000 0.017094
O O17 0.000000 0.500000 0.873444
#
# Coordination Sequence:
#
# PCOD9373792 Si02
#       7
#     4   4   8   4   8   8   4
#     4   9  19  32  46  73 105 129 159 204 254 299
#     4   8  18  37  57  74  97 133 172 210 255 301
#     4   8  18  38  57  72  99 138 173 210 261 312
#     4  11  21  32  54  84 107 133 172 216 265 317
#     4   9  18  32  48  69 100 133 162 197 245 295
#     4   9  17  31  50  69  94 131 169 203 239 285
#     4  10  19  31  49  73 103 131 157 202 254 297
#
# _framework density 16.642218
#
# number of rings (size 3 to 8) (size 9 to 14) (size 15 to 20)
#    0.600    2.400    0.000    0.900    0.000    2.800 
#    1.800    4.000    0.000    2.400    0.000    0.000 
#    0.000    0.000    0.000    0.000    0.000    0.000 
#
# Total GULP energy -111341.042676 kJ/mol
# GULP energy per Si atom -5567.052134 kJ/mol
# Density = 1.660434 g / cm^3
# Si number density = 16.642218 Si / 1000 Ang^3
#
#
#
# Elastic Constant Matrix: (Units=GPa)
#
#
# Indices 1 2 3 4 5 6 
#
# 1 105.4169 46.9415 102.4124 0.0000 0.0000 0.0000
# 2 46.9415 32.5066 54.6254 0.0000 0.0000 0.0000
# 3 102.4124 54.6254 164.6033 0.0000 0.0000 0.0000
# 4 0.0000 0.0000 0.0000 27.5682 0.0000 0.0000
# 5 0.0000 0.0000 0.0000 0.0000 13.2191 0.0000
# 6 0.0000 0.0000 0.0000 0.0000 0.0000 3.9433
#
#
#
# Elastic Compliance Matrix: (Units=1/GPa)
#
#
# Indices 1 2 3 4 5 6 
#
# 1 0.033304 -0.030006 -0.010763 0.000000 0.000000 0.000000
# 2 -0.030006 0.096583 -0.013383 0.000000 0.000000 0.000000
# 3 -0.010763 -0.013383 0.017213 0.000000 0.000000 0.000000
# 4 0.000000 0.000000 0.000000 0.036274 0.000000 0.000000
# 5 0.000000 0.000000 0.000000 0.000000 0.075648 0.000000
# 6 0.000000 0.000000 0.000000 0.000000 0.000000 0.253593
#
#
# Mechanical properties :
#
#
# Convention : Reuss Voigt Hill
#
# Bulk Modulus (GPa) = 25.77621 78.94282 52.35952
# Shear Modulus (GPa) = 7.88828 15.51596 11.70212
#
# Velocity S-wave (km/s) = 2.17950 3.05671 2.65459
# Velocity P-wave (km/s) = 4.67501 7.74572 6.39734
#
# Compressibility (1/GPa) = 0.03879546
#
# Stress axis : x y z
#
# Youngs Moduli (GPa) = 30.02626 10.35379 58.09550
#
# Poissons Ratio (x) = 0.31068 0.62529
# Poissons Ratio (y) = 0.90098 0.77748
# Poissons Ratio (z) = 0.32318 0.13856
#
# Static dielectric constant tensor:
#      x y z
#    x 1.569880 0.000000 0.000000 
#    y 0.000000 1.547990 0.000000 
#    z 0.000000 0.000000 1.533810 
# 
# From -- ./inp_files/25998.got.cif
#   From: 2010.05.17/outbox.cif.g08.bks.cpg/sg44_13_cif.got.tgz:25998.got - 2010.06.03 19:37:08.
