data_PCOD9373820
_publ_section_title
;
Structure prediction by ZEFSAII (Michael W. Deem and Ramdas Pophale) SiO2 
 PCOD9373820
Probable space group: I M M 2
;
_chemical_formula_sum "Si O2"
_cell_formula_units_Z 48
_cell_length_a 12.861825
_cell_length_b 19.480428
_cell_length_c 7.339999
_cell_angle_alpha 90.000000
_cell_angle_beta 90.000000
_cell_angle_gamma 90.000000
_cell_volume 1839.065051
_symmetry_space_group_name_H-M "I M M 2"
_symmetry_group_IT_number 44
_symmetry_cell_setting 'orthorhombic'
loop_
_space_group_symop_operation_xyz
x,y,z
-x,-y,z
-x,y,z
x,-y,z
1/2+x,1/2+y,1/2+z
1/2-x,1/2-y,1/2+z
1/2-x,1/2+y,1/2+z
1/2+x,1/2-y,1/2+z
loop_
_atom_site_type_symbol
_atom_site_label
_atom_site_fract_x
_atom_site_fract_y
_atom_site_fract_z
Si Si1 0.614204 0.724559 0.390900
Si Si2 0.386981 0.872802 0.868622
Si Si3 0.161774 0.223295 0.320952
Si Si4 0.342761 0.424798 0.842044
Si Si5 0.387404 0.077928 0.469119
Si Si6 0.664237 0.574377 0.424028
O O1 0.500000 0.750240 0.342580
O O2 0.712912 0.767078 0.321373
O O3 0.625324 0.722980 0.611274
O O4 0.625481 0.644434 0.333841
O O5 0.500000 0.899801 0.919972
O O6 0.377403 0.792512 0.916454
O O7 0.379180 0.875417 0.647632
O O8 0.288657 0.915162 0.934444
O O9 0.126628 0.151206 0.408387
O O10 0.371726 0.500000 0.920214
O O11 0.216952 0.419924 0.854070
O O12 0.374723 0.426785 0.631159
O O13 0.500000 0.089892 0.379504
O O14 0.389852 0.000000 0.543037
O O15 0.640838 0.500000 0.340810
#
# Coordination Sequence:
#
# PCOD9373820 Si02
#       6
#     8   8   8   8   8   8
#     4  10  21  38  59  82 113 150 185 231 285 331
#     4  10  19  31  50  76 107 142 178 224 279 328
#     4  10  20  35  55  81 110 143 188 232 275 337
#     4   9  18  32  48  68  98 132 169 220 271 315
#     4   9  17  29  48  74 100 131 171 212 265 329
#     4   9  19  34  52  78 108 140 183 225 266 328
#
# _framework density 26.100218999999999
#
# number of rings (size 3 to 8) (size 9 to 14) (size 15 to 20)
#    0.000    2.500    0.000    2.000    0.000    4.000 
#    0.000    9.167    0.000    1.500    0.000    0.000 
#    0.000   17.333    0.000    0.000    0.000    0.000 
#
# Total GULP energy -134097.389313 kJ/mol
# GULP energy per Si atom -5587.391221 kJ/mol
# Density = 2.604081 g / cm^3
# Si number density = 26.100219 Si / 1000 Ang^3
#
#
#
# Elastic Constant Matrix: (Units=GPa)
#
#
# Indices 1 2 3 4 5 6 
#
# 1 156.7676 -1.2129 6.3887 0.0000 0.0000 0.0000
# 2 -1.2129 227.3568 2.7747 0.0000 0.0000 0.0000
# 3 6.3887 2.7747 84.2247 0.0001 -0.0003 -0.0001
# 4 0.0000 0.0000 0.0001 8.2379 -0.0001 0.0000
# 5 0.0000 0.0000 -0.0003 -0.0001 -29.8086 -0.0001
# 6 0.0000 0.0000 -0.0001 0.0000 -0.0001 -23.4247
#
#
#
# Elastic Compliance Matrix: (Units=1/GPa)
#
#
# Indices 1 2 3 4 5 6 
#
# 1 0.006399 0.000040 -0.000487 0.000000 0.000000 0.000000
# 2 0.000040 0.004400 -0.000148 0.000000 0.000000 0.000000
# 3 -0.000487 -0.000148 0.011915 0.000000 0.000000 0.000000
# 4 0.000000 0.000000 0.000000 0.121390 0.000000 0.000000
# 5 0.000000 0.000000 0.000000 0.000000 -0.033547 0.000000
# 6 0.000000 0.000000 0.000000 0.000000 0.000000 -0.042690
#
#
# Mechanical properties :
#
#
# Convention : Reuss Voigt Hill
#
# Bulk Modulus (GPa) = 46.45774 53.80555 50.13164
# Shear Modulus (GPa) = 65.59035 21.69417 43.64226
#
# Velocity S-wave (km/s) = 5.01844 2.88616 4.09357
# Velocity P-wave (km/s) = 7.17064 5.63616 6.44920
#
# Compressibility (1/GPa) = 0.02152494
#
# Stress axis : x y z
#
# Youngs Moduli (GPa) = 156.27406 227.25245 83.92923
#
# Poissons Ratio (x) = -0.00911 0.04085
# Poissons Ratio (y) = -0.00626 0.01242
# Poissons Ratio (z) = 0.07606 0.03363
#
# Static dielectric constant tensor:
#      x y z
#    x 2.020990 0.000000 0.000000 
#    y 0.000000 2.080120 0.000000 
#    z 0.000000 0.000000 2.028050 
# 
# From -- ./inp_files/7263.got.cif
#   From: 2010.05.17/outbox.cif.g08.bks.cpg/sg44_4_cif.got.tgz:7263.got - 2010.06.03 19:37:08.
