data_PCOD9373309
_publ_section_title
;
Structure prediction by ZEFSAII (Michael W. Deem and Ramdas Pophale) SiO2 
 PCOD9373309
Probable space group: I M M 2
;
_chemical_formula_sum "Si O2"
_cell_formula_units_Z 64
_cell_length_a 7.287013
_cell_length_b 29.540165
_cell_length_c 13.458080
_cell_angle_alpha 90.000000
_cell_angle_beta 90.000000
_cell_angle_gamma 90.000000
_cell_volume 2896.980465
_symmetry_space_group_name_H-M "I M M 2"
_symmetry_group_IT_number 44
_symmetry_cell_setting 'orthorhombic'
loop_
_space_group_symop_operation_xyz
x,y,z
-x,-y,z
-x,y,z
x,-y,z
1/2+x,1/2+y,1/2+z
1/2-x,1/2-y,1/2+z
1/2-x,1/2+y,1/2+z
1/2+x,1/2-y,1/2+z
loop_
_atom_site_type_symbol
_atom_site_label
_atom_site_fract_x
_atom_site_fract_y
_atom_site_fract_z
Si Si1 0.722465 0.742256 0.103210
Si Si2 0.223199 0.447165 0.525589
Si Si3 0.787910 0.637890 0.134339
Si Si4 0.775628 0.376922 0.911782
Si Si5 0.278296 0.776485 0.892382
Si Si6 0.723944 0.878826 0.853715
Si Si7 0.796544 0.302846 0.759729
Si Si8 0.277465 0.947916 0.247296
O O1 0.500000 0.743028 0.106869
O O2 0.783184 0.692744 0.138805
O O3 0.790870 0.788352 0.156629
O O4 0.776756 0.749318 0.989926
O O5 0.276297 0.500000 0.515029
O O6 0.283979 0.416297 0.433475
O O7 0.279210 0.431244 0.636923
O O8 0.000000 0.446223 0.525184
O O9 0.713100 0.618383 0.238435
O O10 0.000000 0.623642 0.132252
O O11 0.710186 0.624765 0.025721
O O12 0.714177 0.334393 0.844089
O O13 0.721315 0.419122 0.842884
O O14 0.000000 0.374993 0.917320
O O15 0.500000 0.774844 0.882566
O O16 0.225239 0.828695 0.891014
O O17 0.194802 0.747560 0.804270
O O18 0.500000 0.880353 0.851504
O O19 0.000000 0.321845 0.739403
O O20 0.500000 0.947000 0.247109
O O21 0.220647 0.000000 0.255669
#
# Coordination Sequence:
#
# PCOD9373309 Si02
#       8
#     8   8   8   8   8   8   8   8
#     4  10  20  30  42  63  90 119 154 192 224 253
#     4   8  14  25  41  61  86 115 145 179 221 267
#     4  10  18  30  45  62  88 123 151 177 222 269
#     4   9  17  27  41  60  85 117 150 179 216 267
#     4  10  19  30  44  64  90 121 153 186 221 261
#     4   9  17  27  41  60  85 117 150 179 216 267
#     4  10  19  30  44  64  90 121 153 186 221 261
#     4   8  14  25  41  61  86 115 145 179 221 267
#
# _framework density 22.091968000000001
#
# number of rings (size 3 to 8) (size 9 to 14) (size 15 to 20)
#    0.000    2.750    2.500    0.750    1.750    0.000 
#    0.000    0.625    0.000    3.750    0.000    0.000 
#    0.000    5.000    0.000   11.000    0.000   10.000 
#
# Total GULP energy -178399.597688 kJ/mol
# GULP energy per Si atom -5574.987428 kJ/mol
# Density = 2.204169 g / cm^3
# Si number density = 22.091968 Si / 1000 Ang^3
#
#
#
# Elastic Constant Matrix: (Units=GPa)
#
#
# Indices 1 2 3 4 5 6 
#
# 1 92.0805 -4.9607 -3.6237 0.0000 0.0000 0.0000
# 2 -4.9607 83.9681 53.5335 0.0000 0.0000 0.0000
# 3 -3.6237 53.5335 138.8565 0.0001 0.0000 0.0000
# 4 0.0000 0.0000 0.0001 45.1372 0.0000 0.0000
# 5 0.0000 0.0000 0.0000 0.0000 -6.8672 0.0000
# 6 0.0000 0.0000 0.0000 0.0000 0.0000 6.6884
#
#
#
# Elastic Compliance Matrix: (Units=1/GPa)
#
#
# Indices 1 2 3 4 5 6 
#
# 1 0.010895 0.000613 0.000048 0.000000 0.000000 0.000000
# 2 0.000613 0.015825 -0.006085 0.000000 0.000000 0.000000
# 3 0.000048 -0.006085 0.009549 0.000000 0.000000 0.000000
# 4 0.000000 0.000000 0.000000 0.022155 0.000000 0.000000
# 5 0.000000 0.000000 0.000000 0.000000 -0.145619 0.000000
# 6 0.000000 0.000000 0.000000 0.000000 0.000000 0.149512
#
#
# Mechanical properties :
#
#
# Convention : Reuss Voigt Hill
#
# Bulk Modulus (GPa) = 39.33770 44.97814 42.15792
# Shear Modulus (GPa) = 61.24640 26.98876 44.11758
#
# Velocity S-wave (km/s) = 5.27101 3.49901 4.47362
# Velocity P-wave (km/s) = 7.40876 6.06035 6.76822
#
# Compressibility (1/GPa) = 0.02542091
#
# Stress axis : x y z
#
# Youngs Moduli (GPa) = 91.78536 63.19117 104.72415
#
# Poissons Ratio (x) = -0.03874 -0.00502
# Poissons Ratio (y) = -0.05627 0.63725
# Poissons Ratio (z) = -0.00440 0.38452
#
# Static dielectric constant tensor:
#      x y z
#    x 1.366140 0.000000 0.000000 
#    y 0.000000 1.764040 0.000000 
#    z 0.000000 0.000000 1.826450 
# 
# From -- ./inp_files/12707.got.cif
#   From: 2010.05.17/outbox.cif.g08.bks.cpg/sg44_7_cif.got.tgz:12707.got - 2010.06.03 19:37:08.
