data_PCOD9373972
_publ_section_title
;
Structure prediction by ZEFSAII (Michael W. Deem and Ramdas Pophale) SiO2 
 PCOD9373972
Probable space group: I M M 2
;
_chemical_formula_sum "Si O2"
_cell_formula_units_Z 64
_cell_length_a 29.891433
_cell_length_b 9.246213
_cell_length_c 12.241122
_cell_angle_alpha 90.000000
_cell_angle_beta 90.000000
_cell_angle_gamma 90.000000
_cell_volume 3383.232591
_symmetry_space_group_name_H-M "I M M 2"
_symmetry_group_IT_number 44
_symmetry_cell_setting 'orthorhombic'
loop_
_space_group_symop_operation_xyz
x,y,z
-x,-y,z
-x,y,z
x,-y,z
1/2+x,1/2+y,1/2+z
1/2-x,1/2-y,1/2+z
1/2-x,1/2+y,1/2+z
1/2+x,1/2-y,1/2+z
loop_
_atom_site_type_symbol
_atom_site_label
_atom_site_fract_x
_atom_site_fract_y
_atom_site_fract_z
Si Si1 0.449331 0.674060 0.650190
Si Si2 0.166041 0.334156 0.833699
Si Si3 0.950355 0.664530 0.679989
Si Si4 0.804094 0.833608 0.436668
Si Si5 0.847695 0.176044 0.209705
Si Si6 0.218605 0.827704 0.009847
Si Si7 0.630749 0.337300 0.131624
Si Si8 0.567672 0.164723 0.429350
O O1 0.500000 0.718756 0.690578
O O2 0.448749 0.500000 0.654311
O O3 0.400473 0.722385 0.700831
O O4 0.445989 0.729210 0.525275
O O5 0.181733 0.500000 0.827837
O O6 0.154459 0.271490 0.715563
O O7 0.120586 0.331702 0.905114
O O8 0.198907 0.227413 0.895246
O O9 0.932035 0.500000 0.671678
O O10 0.919344 0.780391 0.624189
O O11 0.951628 0.697014 0.809589
O O12 0.000000 0.665467 0.635729
O O13 0.821112 0.777093 0.319206
O O14 0.767055 0.746184 0.505035
O O15 0.846846 0.836425 0.514675
O O16 0.788193 0.000000 0.422187
O O17 0.816243 0.217217 0.105971
O O18 0.848892 0.000000 0.211988
O O19 0.222544 0.000000 0.015019
O O20 0.632805 0.500000 0.176988
O O21 0.555170 0.000000 0.459033
#
# Coordination Sequence:
#
# PCOD9373972 Si02
#       8
#     8   8   8   8   8   8   8   8
#     4  10  19  32  54  82 111 147 190 232 280 341
#     4  10  20  35  56  81 114 153 187 224 285 347
#     4   9  18  33  53  78 112 155 196 235 288 349
#     4  10  23  42  60  81 115 156 193 238 293 350
#     4   9  20  40  60  82 117 153 187 236 295 348
#     4  11  22  37  61  89 114 144 187 237 287 348
#     4  10  21  36  56  83 115 147 192 244 283 331
#     4   9  17  30  49  76 111 147 180 221 275 337
#
# _framework density 18.916819
#
# number of rings (size 3 to 8) (size 9 to 14) (size 15 to 20)
#    0.000    2.250    1.250    2.250    1.750    4.000 
#    0.000    1.875    0.000    2.250    0.000    0.000 
#    0.000    0.000    0.000    0.000    0.000    0.000 
#
# Total GULP energy -178200.311976 kJ/mol
# GULP energy per Si atom -5568.759749 kJ/mol
# Density = 1.887376 g / cm^3
# Si number density = 18.916819 Si / 1000 Ang^3
#
#
#
# Elastic Constant Matrix: (Units=GPa)
#
#
# Indices 1 2 3 4 5 6 
#
# 1 96.3818 32.9334 29.5321 0.0000 0.0000 0.0000
# 2 32.9334 42.4000 25.2130 0.0000 0.0000 0.0000
# 3 29.5321 25.2130 52.5617 0.0000 0.0000 0.0000
# 4 0.0000 0.0000 0.0000 9.7208 0.0000 0.0000
# 5 0.0000 0.0000 0.0000 0.0000 227.5321 0.0000
# 6 0.0000 0.0000 0.0000 0.0000 0.0000 24.2214
#
#
#
# Elastic Compliance Matrix: (Units=1/GPa)
#
#
# Indices 1 2 3 4 5 6 
#
# 1 0.014670 -0.009085 -0.003885 0.000000 0.000000 0.000000
# 2 -0.009085 0.038623 -0.013422 0.000000 0.000000 0.000000
# 3 -0.003885 -0.013422 0.027646 0.000000 0.000000 0.000000
# 4 0.000000 0.000000 0.000000 0.102873 0.000000 0.000000
# 5 0.000000 0.000000 0.000000 0.000000 0.004395 0.000000
# 6 0.000000 0.000000 0.000000 0.000000 0.000000 0.041286
#
#
# Mechanical properties :
#
#
# Convention : Reuss Voigt Hill
#
# Bulk Modulus (GPa) = 35.51680 40.74448 38.13064
# Shear Modulus (GPa) = 17.14319 59.20586 38.17452
#
# Velocity S-wave (km/s) = 3.01365 5.60053 4.49711
# Velocity P-wave (km/s) = 5.56107 7.96284 6.86776
#
# Compressibility (1/GPa) = 0.02815569
#
# Stress axis : x y z
#
# Youngs Moduli (GPa) = 68.16699 25.89145 36.17109
#
# Poissons Ratio (x) = 0.23521 0.14051
# Poissons Ratio (y) = 0.61927 0.48551
# Poissons Ratio (z) = 0.26480 0.34753
#
# Static dielectric constant tensor:
#      x y z
#    x 1.715660 0.000000 0.000000 
#    y 0.000000 1.649300 0.000000 
#    z 0.000000 0.000000 1.625230 
# 
# From -- ./inp_files/11553.got.cif
#   From: 2010.05.17/outbox.cif.g08.bks.cpg/sg44_6_cif.got.tgz:11553.got - 2010.06.03 19:37:08.
