data_PCOD9373697
_publ_section_title
;
Structure prediction by ZEFSAII (Michael W. Deem and Ramdas Pophale) SiO2 
 PCOD9373697
Probable space group: I M M 2
;
_chemical_formula_sum "Si O2"
_cell_formula_units_Z 56
_cell_length_a 8.162856
_cell_length_b 16.966163
_cell_length_c 24.071916
_cell_angle_alpha 90.000000
_cell_angle_beta 90.000000
_cell_angle_gamma 90.000000
_cell_volume 3333.776106
_symmetry_space_group_name_H-M "I M M 2"
_symmetry_group_IT_number 44
_symmetry_cell_setting 'orthorhombic'
loop_
_space_group_symop_operation_xyz
x,y,z
-x,-y,z
-x,y,z
x,-y,z
1/2+x,1/2+y,1/2+z
1/2-x,1/2-y,1/2+z
1/2-x,1/2+y,1/2+z
1/2+x,1/2-y,1/2+z
loop_
_atom_site_type_symbol
_atom_site_label
_atom_site_fract_x
_atom_site_fract_y
_atom_site_fract_z
Si Si1 0.302532 0.591326 0.804940
Si Si2 0.299832 0.347927 0.686771
Si Si3 0.799711 0.588323 0.029938
Si Si4 0.193636 0.328024 0.478882
Si Si5 0.695967 0.500000 0.489120
Si Si6 0.199122 0.000000 0.115914
Si Si7 0.695957 0.825874 0.417696
Si Si8 0.802976 0.742064 0.090351
O O1 0.500000 0.587681 0.801733
O O2 0.243821 0.500000 0.806149
O O3 0.243641 0.636461 0.749429
O O4 0.256496 0.638728 0.860022
O O5 0.500000 0.345221 0.688403
O O6 0.252166 0.423570 0.650234
O O7 0.242895 0.274537 0.649410
O O8 0.743499 0.500000 0.041384
O O9 0.742668 0.656011 0.072118
O O10 0.000000 0.588043 0.030918
O O11 0.750441 0.617516 0.968574
O O12 0.247971 0.416615 0.464290
O O13 0.246871 0.261677 0.434572
O O14 0.265705 0.300788 0.538793
O O15 0.000000 0.326093 0.484039
O O16 0.500000 0.500000 0.489828
O O17 0.758922 0.500000 0.552968
O O18 0.000000 0.000000 0.113675
O O19 0.500000 0.825374 0.417254
O O20 0.500000 0.761553 0.593452
#
# Coordination Sequence:
#
# PCOD9373697 Si02
#       8
#     8   8   8   8   4   4   8   8
#     4  10  19  30  47  70  96 127 165 206 249 293
#     4   9  15  26  44  69  96 129 168 197 230 289
#     4   8  14  25  43  67  91 116 151 200 245 283
#     4  11  21  32  47  72 102 126 156 203 253 289
#     4  11  19  31  53  75  99 133 167 190 229 296
#     4   9  14  23  45  69  95 127 161 192 217 276
#     4  10  20  34  49  65  91 128 168 202 243 300
#     4   9  16  28  47  69  95 131 168 197 238 298
#
# _framework density 16.797768999999999
#
# number of rings (size 3 to 8) (size 9 to 14) (size 15 to 20)
#    0.000    2.429    2.143    3.214    0.000    0.857 
#    0.000    0.714    0.000    3.857    1.857    0.000 
#    0.000    0.000    0.000    0.000    0.000    0.000 
#
# Total GULP energy -156064.359389 kJ/mol
# GULP energy per Si atom -5573.727121 kJ/mol
# Density = 1.675954 g / cm^3
# Si number density = 16.797769 Si / 1000 Ang^3
#
#
#
# Elastic Constant Matrix: (Units=GPa)
#
#
# Indices 1 2 3 4 5 6 
#
# 1 13.9783 10.4318 11.0871 0.0000 0.0000 0.0000
# 2 10.4318 155.6519 81.8537 0.0000 0.0000 0.0000
# 3 11.0871 81.8537 126.1212 0.0000 0.0000 0.0000
# 4 0.0000 0.0000 0.0000 21.2143 0.0000 0.0000
# 5 0.0000 0.0000 0.0000 0.0000 16.6420 0.0000
# 6 0.0000 0.0000 0.0000 0.0000 0.0000 11.0728
#
#
#
# Elastic Compliance Matrix: (Units=1/GPa)
#
#
# Indices 1 2 3 4 5 6 
#
# 1 0.077511 -0.002447 -0.005226 0.000000 0.000000 0.000000
# 2 -0.002447 0.009831 -0.006165 0.000000 0.000000 0.000000
# 3 -0.005226 -0.006165 0.012389 0.000000 0.000000 0.000000
# 4 0.000000 0.000000 0.000000 0.047138 0.000000 0.000000
# 5 0.000000 0.000000 0.000000 0.000000 0.060089 0.000000
# 6 0.000000 0.000000 0.000000 0.000000 0.000000 0.090311
#
#
# Mechanical properties :
#
#
# Convention : Reuss Voigt Hill
#
# Bulk Modulus (GPa) = 13.87822 55.83297 34.85559
# Shear Modulus (GPa) = 14.32817 22.61106 18.46962
#
# Velocity S-wave (km/s) = 2.92375 3.67287 3.31951
# Velocity P-wave (km/s) = 4.43595 7.16220 5.95713
#
# Compressibility (1/GPa) = 0.07205537
#
# Stress axis : x y z
#
# Youngs Moduli (GPa) = 12.90148 101.72279 80.71353
#
# Poissons Ratio (x) = 0.24887 0.42181
# Poissons Ratio (y) = 0.03156 0.49761
# Poissons Ratio (z) = 0.06742 0.62713
#
# Static dielectric constant tensor:
#      x y z
#    x 1.591040 0.000000 0.000000 
#    y 0.000000 1.587870 0.000000 
#    z 0.000000 0.000000 1.561290 
# 
# From -- ./inp_files/23126.got.cif
#   From: 2010.05.17/outbox.cif.g08.bks.cpg/sg44_12_cif.got.tgz:23126.got - 2010.06.03 19:37:08.
