data_PCOD9373470
_publ_section_title
;
Structure prediction by ZEFSAII (Michael W. Deem and Ramdas Pophale) SiO2 
 PCOD9373470
Probable space group: I M M 2
;
_chemical_formula_sum "Si O2"
_cell_formula_units_Z 34
_cell_length_a 9.892134
_cell_length_b 19.361043
_cell_length_c 7.167634
_cell_angle_alpha 90.000000
_cell_angle_beta 90.000000
_cell_angle_gamma 90.000000
_cell_volume 1372.759826
_symmetry_space_group_name_H-M "I M M 2"
_symmetry_group_IT_number 44
_symmetry_cell_setting 'orthorhombic'
loop_
_space_group_symop_operation_xyz
x,y,z
-x,-y,z
-x,y,z
x,-y,z
1/2+x,1/2+y,1/2+z
1/2-x,1/2-y,1/2+z
1/2-x,1/2+y,1/2+z
1/2+x,1/2-y,1/2+z
loop_
_atom_site_type_symbol
_atom_site_label
_atom_site_fract_x
_atom_site_fract_y
_atom_site_fract_z
Si Si1 0.000000 0.500000 0.754210
Si Si2 0.500000 0.377697 0.151883
Si Si3 0.207692 0.392327 0.588870
Si Si4 0.000000 0.152694 0.101165
Si Si5 0.500000 0.190680 0.547974
Si Si6 0.291688 0.925636 0.658183
Si Si7 0.000000 0.277781 0.611218
O O1 0.883019 0.560873 0.721849
O O2 0.500000 0.362018 0.375814
O O3 0.636134 0.417465 0.105271
O O4 0.500000 0.301955 0.062049
O O5 0.358535 0.380520 0.662079
O O6 0.205154 0.425758 0.383583
O O7 0.133807 0.318952 0.551825
O O8 0.000000 0.234530 0.144809
O O9 0.625825 0.141357 0.595394
O O10 0.500000 0.211994 0.333609
O O11 0.349790 0.000000 0.594678
#
# Coordination Sequence:
#
# PCOD9373470 Si02
#       7
#     2   4   8   4   4   8   4
#     4  10  18  32  54  86 106 138 180 234 274 336
#     4   9  20  37  60  82 116 147 192 244 286 330
#     4  10  20  37  61  85 115 144 200 233 287 331
#     4   9  20  36  58  88 114 151 184 248 280 334
#     4  11  22  36  55  86 121 151 195 222 292 339
#     4  11  21  37  59  87 113 150 193 239 284 340
#     4  10  21  38  56  86 112 155 192 232 287 340
#
# _framework density 24.767626
#
# number of rings (size 3 to 8) (size 9 to 14) (size 15 to 20)
#    0.000    1.882    1.176    3.529    0.000    0.471 
#    8.471    3.529    0.000    0.000    0.000    0.000 
#    0.000    0.000    0.000    0.000    0.000    0.000 
#
# Total GULP energy -94945.332624 kJ/mol
# GULP energy per Si atom -5585.019566 kJ/mol
# Density = 2.471125 g / cm^3
# Si number density = 24.767626 Si / 1000 Ang^3
#
#
#
# Elastic Constant Matrix: (Units=GPa)
#
#
# Indices 1 2 3 4 5 6 
#
# 1 209.6871 62.3377 -8.5423 -0.0001 0.0000 0.0001
# 2 62.3377 161.2525 10.9765 -0.0003 0.0001 0.0005
# 3 -8.5423 10.9765 86.3606 -0.0007 0.0004 0.0013
# 4 -0.0001 -0.0003 -0.0007 31.9360 0.0002 0.0009
# 5 0.0000 0.0001 0.0004 0.0002 10.5186 -0.0002
# 6 0.0001 0.0005 0.0013 0.0009 -0.0002 28.0935
#
#
#
# Elastic Compliance Matrix: (Units=1/GPa)
#
#
# Indices 1 2 3 4 5 6 
#
# 1 0.005444 -0.002160 0.000813 0.000000 0.000000 0.000000
# 2 -0.002160 0.007113 -0.001118 0.000000 0.000000 0.000000
# 3 0.000813 -0.001118 0.011802 0.000000 0.000000 -0.000001
# 4 0.000000 0.000000 0.000000 0.031313 0.000000 -0.000001
# 5 0.000000 0.000000 0.000000 0.000000 0.095070 0.000001
# 6 0.000000 0.000000 -0.000001 -0.000001 0.000001 0.035595
#
#
# Mechanical properties :
#
#
# Convention : Reuss Voigt Hill
#
# Bulk Modulus (GPa) = 51.46834 65.20488 58.33661
# Shear Modulus (GPa) = 25.28544 40.27818 32.78181
#
# Velocity S-wave (km/s) = 3.19863 4.03705 3.64204
# Velocity P-wave (km/s) = 5.87088 6.93643 6.42578
#
# Compressibility (1/GPa) = 0.01942942
#
# Stress axis : x y z
#
# Youngs Moduli (GPa) = 183.67893 140.59626 84.73262
#
# Poissons Ratio (x) = 0.30369 -0.06889
# Poissons Ratio (y) = 0.39675 0.09470
# Poissons Ratio (z) = -0.14934 0.15714
#
# Static dielectric constant tensor:
#      x y z
#    x 1.906140 0.000000 0.000000 
#    y 0.000000 1.910420 0.000000 
#    z 0.000000 0.000000 2.045430 
# 
# From -- ./inp_files/4333.got.cif
#   From: 2010.05.17/outbox.cif.g08.bks.cpg/sg44_3_cif.got.tgz:4333.got - 2010.06.03 19:37:08.
