data_PCOD9373959
_publ_section_title
;
Structure prediction by ZEFSAII (Michael W. Deem and Ramdas Pophale) SiO2 
 PCOD9373959
Probable space group: I M M 2
;
_chemical_formula_sum "Si O2"
_cell_formula_units_Z 64
_cell_length_a 26.149010
_cell_length_b 7.420469
_cell_length_c 14.937910
_cell_angle_alpha 90.000000
_cell_angle_beta 90.000000
_cell_angle_gamma 90.000000
_cell_volume 2898.520957
_symmetry_space_group_name_H-M "I M M 2"
_symmetry_group_IT_number 44
_symmetry_cell_setting 'orthorhombic'
loop_
_space_group_symop_operation_xyz
x,y,z
-x,-y,z
-x,y,z
x,-y,z
1/2+x,1/2+y,1/2+z
1/2-x,1/2-y,1/2+z
1/2-x,1/2+y,1/2+z
1/2+x,1/2-y,1/2+z
loop_
_atom_site_type_symbol
_atom_site_label
_atom_site_fract_x
_atom_site_fract_y
_atom_site_fract_z
Si Si1 0.730614 0.280543 0.335420
Si Si2 0.336245 0.292925 0.044706
Si Si3 0.630953 0.279373 0.229217
Si Si4 0.058605 0.219912 0.887467
Si Si5 0.841939 0.705989 0.340242
Si Si6 0.277895 0.717057 0.544152
Si Si7 0.110249 0.218151 0.072337
Si Si8 0.443417 0.210507 0.753774
O O1 0.731894 0.500000 0.332851
O O2 0.684266 0.221007 0.274033
O O3 0.787354 0.213355 0.311295
O O4 0.719463 0.233616 0.438741
O O5 0.350131 0.500000 0.028949
O O6 0.369604 0.219464 0.126467
O O7 0.276840 0.286969 0.076184
O O8 0.340319 0.202346 0.948264
O O9 0.631304 0.500000 0.227285
O O10 0.586120 0.223508 0.296005
O O11 0.000000 0.277722 0.893324
O O12 0.059146 0.000000 0.887990
O O13 0.090398 0.276116 0.974930
O O14 0.841779 0.500000 0.307250
O O15 0.894502 0.790180 0.305652
O O16 0.275548 0.500000 0.549724
O O17 0.331070 0.777535 0.587919
O O18 0.072236 0.278331 0.149843
O O19 0.110649 0.000000 0.072586
O O20 0.500000 0.288192 0.768381
O O21 0.446426 0.000000 0.779505
#
# Coordination Sequence:
#
# PCOD9373959 Si02
#       8
#     8   8   8   8   8   8   8   8
#     4   8  13  26  47  68  92 128 167 196 234 297
#     4  10  20  31  50  78 108 135 170 220 264 299
#     4   9  16  27  45  72 102 132 167 206 247 296
#     4   9  16  28  48  73 102 135 169 202 242 302
#     4   9  19  36  56  71  95 139 179 212 261 318
#     4   9  17  31  50  73 106 142 171 199 245 311
#     4  10  19  32  53  81 108 136 170 211 258 311
#     4  10  22  38  55  76 101 134 180 225 267 323
#
# _framework density 22.080228999999999
#
# number of rings (size 3 to 8) (size 9 to 14) (size 15 to 20)
#    0.000    2.750    1.250    1.500    1.750    1.750 
#    0.000    0.625    0.000    3.000    0.000    0.000 
#    0.000    0.000    0.000    0.000    0.000    0.000 
#
# Total GULP energy -178665.298464 kJ/mol
# GULP energy per Si atom -5583.290577 kJ/mol
# Density = 2.202997 g / cm^3
# Si number density = 22.080229 Si / 1000 Ang^3
#
#
#
# Elastic Constant Matrix: (Units=GPa)
#
#
# Indices 1 2 3 4 5 6 
#
# 1 129.6863 -0.0464 25.1494 0.0000 0.0000 0.0000
# 2 -0.0464 72.5466 -7.6569 0.0000 0.0000 0.0000
# 3 25.1494 -7.6569 50.5089 0.0000 0.0000 0.0000
# 4 0.0000 0.0000 0.0000 11.2281 0.0000 0.0000
# 5 0.0000 0.0000 0.0000 0.0000 31.6338 0.0000
# 6 0.0000 0.0000 0.0000 0.0000 0.0000 5.0141
#
#
#
# Elastic Compliance Matrix: (Units=1/GPa)
#
#
# Indices 1 2 3 4 5 6 
#
# 1 0.008550 -0.000451 -0.004325 0.000000 0.000000 0.000000
# 2 -0.000451 0.014032 0.002352 0.000000 0.000000 0.000000
# 3 -0.004325 0.002352 0.022309 0.000000 0.000000 0.000000
# 4 0.000000 0.000000 0.000000 0.089063 0.000000 0.000000
# 5 0.000000 0.000000 0.000000 0.000000 0.031612 0.000000
# 6 0.000000 0.000000 0.000000 0.000000 0.000000 0.199438
#
#
# Mechanical properties :
#
#
# Convention : Reuss Voigt Hill
#
# Bulk Modulus (GPa) = 24.97428 31.95932 28.46680
# Shear Modulus (GPa) = 13.04805 25.26157 19.15481
#
# Velocity S-wave (km/s) = 2.43356 3.38610 2.94855
# Velocity P-wave (km/s) = 4.38538 5.45831 4.95099
#
# Compressibility (1/GPa) = 0.04004120
#
# Stress axis : x y z
#
# Youngs Moduli (GPa) = 116.96518 71.26482 44.82551
#
# Poissons Ratio (x) = 0.03214 0.19389
# Poissons Ratio (y) = 0.05276 -0.10542
# Poissons Ratio (z) = 0.50592 -0.16760
#
# Static dielectric constant tensor:
#      x y z
#    x 1.806640 0.000000 0.000000 
#    y 0.000000 1.856150 0.000000 
#    z 0.000000 0.000000 1.788840 
# 
# From -- ./inp_files/16770.got.cif
#   From: 2010.05.17/outbox.cif.g08.bks.cpg/sg44_9_cif.got.tgz:16770.got - 2010.06.03 19:37:08.
