data_PCOD9373595
_publ_section_title
;
Structure prediction by ZEFSAII (Michael W. Deem and Ramdas Pophale) SiO2 
 PCOD9373595
Probable space group: I M M 2
;
_chemical_formula_sum "Si O2"
_cell_formula_units_Z 64
_cell_length_a 19.211339
_cell_length_b 8.762682
_cell_length_c 22.092712
_cell_angle_alpha 90.000000
_cell_angle_beta 90.000000
_cell_angle_gamma 90.000000
_cell_volume 3719.150201
_symmetry_space_group_name_H-M "I M M 2"
_symmetry_group_IT_number 44
_symmetry_cell_setting 'orthorhombic'
loop_
_space_group_symop_operation_xyz
x,y,z
-x,-y,z
-x,y,z
x,-y,z
1/2+x,1/2+y,1/2+z
1/2-x,1/2-y,1/2+z
1/2-x,1/2+y,1/2+z
1/2+x,1/2-y,1/2+z
loop_
_atom_site_type_symbol
_atom_site_label
_atom_site_fract_x
_atom_site_fract_y
_atom_site_fract_z
Si Si1 0.313262 0.176880 0.153090
Si Si2 0.420973 0.184493 0.252789
Si Si3 0.077829 0.821228 0.421157
Si Si4 0.277193 0.818455 0.556235
Si Si5 0.076313 0.669574 0.546262
Si Si6 0.222783 0.317756 0.429928
Si Si7 0.128487 0.817561 0.878675
Si Si8 0.923214 0.682723 0.002891
O O1 0.357689 0.239076 0.209603
O O2 0.249587 0.263435 0.121546
O O3 0.368554 0.180912 0.098378
O O4 0.294344 0.000000 0.164859
O O5 0.500000 0.234747 0.236455
O O6 0.403656 0.237101 0.320441
O O7 0.420697 0.000000 0.248705
O O8 0.079398 0.792443 0.493587
O O9 0.149852 0.740842 0.402513
O O10 0.000000 0.765696 0.401616
O O11 0.081825 0.000000 0.407657
O O12 0.236939 0.745145 0.498219
O O13 0.358081 0.778391 0.545391
O O14 0.268003 0.000000 0.551713
O O15 0.083290 0.500000 0.517262
O O16 0.000000 0.676213 0.574671
O O17 0.221598 0.500000 0.433906
O O18 0.290601 0.273342 0.390692
O O19 0.088883 0.766116 0.939253
O O20 0.124525 0.000000 0.871795
O O21 0.919747 0.500000 0.992138
O O22 0.000000 0.718889 0.026917
#
# Coordination Sequence:
#
# PCOD9373595 Si02
#       8
#     8   8   8   8   8   8   8   8
#     4  10  19  31  47  67  95 130 166 200 234 283
#     4  10  21  36  52  71  97 133 174 206 237 286
#     4  10  19  28  41  66  96 122 154 196 238 282
#     4  10  19  30  47  71  97 125 159 202 247 291
#     4   9  16  26  41  60  86 124 161 189 223 269
#     4  10  19  32  48  67  94 129 164 199 244 299
#     4  10  21  34  50  73  99 127 165 210 251 288
#     4   9  18  33  52  73  98 129 162 198 246 302
#
# _framework density 17.208231000000001
#
# number of rings (size 3 to 8) (size 9 to 14) (size 15 to 20)
#    0.000    2.250    1.250    2.250    0.000    6.750 
#    0.000    0.000    0.000    2.250    0.000    0.875 
#    0.000    3.000    0.000    0.000    0.000    0.125 
#
# Total GULP energy -178234.004612 kJ/mol
# GULP energy per Si atom -5569.812644 kJ/mol
# Density = 1.716906 g / cm^3
# Si number density = 17.208231 Si / 1000 Ang^3
#
#
#
# Elastic Constant Matrix: (Units=GPa)
#
#
# Indices 1 2 3 4 5 6 
#
# 1 129.3327 26.4527 27.1443 0.0000 0.0000 0.0000
# 2 26.4527 27.0072 11.6607 0.0000 0.0000 0.0000
# 3 27.1443 11.6607 51.9628 0.0000 0.0000 0.0000
# 4 0.0000 0.0000 0.0000 -34.5601 0.0000 0.0000
# 5 0.0000 0.0000 0.0000 0.0000 18.3003 0.0000
# 6 0.0000 0.0000 0.0000 0.0000 0.0000 23.9939
#
#
#
# Elastic Compliance Matrix: (Units=1/GPa)
#
#
# Indices 1 2 3 4 5 6 
#
# 1 0.010188 -0.008505 -0.003413 0.000000 0.000000 0.000000
# 2 -0.008505 0.048100 -0.006351 0.000000 0.000000 0.000000
# 3 -0.003413 -0.006351 0.022453 0.000000 0.000000 0.000000
# 4 0.000000 0.000000 0.000000 -0.028935 0.000000 0.000000
# 5 0.000000 0.000000 0.000000 0.000000 0.054644 0.000000
# 6 0.000000 0.000000 0.000000 0.000000 0.000000 0.041677
#
#
# Mechanical properties :
#
#
# Convention : Reuss Voigt Hill
#
# Bulk Modulus (GPa) = 22.62359 37.64647 30.13503
# Shear Modulus (GPa) = 25.07532 11.08315 18.07923
#
# Velocity S-wave (km/s) = 3.82143 2.54059 3.24484
# Velocity P-wave (km/s) = 5.71372 5.52545 5.62038
#
# Compressibility (1/GPa) = 0.04420164
#
# Stress axis : x y z
#
# Youngs Moduli (GPa) = 98.15527 20.79016 44.53786
#
# Poissons Ratio (x) = 0.17682 0.15203
# Poissons Ratio (y) = 0.83481 0.28286
# Poissons Ratio (z) = 0.33504 0.13204
#
# Static dielectric constant tensor:
#      x y z
#    x 1.665230 0.000000 0.000000 
#    y 0.000000 1.820770 0.000000 
#    z 0.000000 0.000000 1.549230 
# 
# From -- ./inp_files/24464.got.cif
#   From: 2010.05.17/outbox.cif.g08.bks.cpg/sg44_13_cif.got.tgz:24464.got - 2010.06.03 19:37:08.
