data_PCOD9373577
_publ_section_title
;
Structure prediction by ZEFSAII (Michael W. Deem and Ramdas Pophale) SiO2 
 PCOD9373577
Probable space group: I M M 2
;
_chemical_formula_sum "Si O2"
_cell_formula_units_Z 64
_cell_length_a 9.170643
_cell_length_b 13.908545
_cell_length_c 35.116212
_cell_angle_alpha 90.000000
_cell_angle_beta 90.000000
_cell_angle_gamma 90.000000
_cell_volume 4479.083405
_symmetry_space_group_name_H-M "I M M 2"
_symmetry_group_IT_number 44
_symmetry_cell_setting 'orthorhombic'
loop_
_space_group_symop_operation_xyz
x,y,z
-x,-y,z
-x,y,z
x,-y,z
1/2+x,1/2+y,1/2+z
1/2-x,1/2-y,1/2+z
1/2-x,1/2+y,1/2+z
1/2+x,1/2-y,1/2+z
loop_
_atom_site_type_symbol
_atom_site_label
_atom_site_fract_x
_atom_site_fract_y
_atom_site_fract_z
Si Si1 0.826383 0.386502 0.803540
Si Si2 0.674322 0.709136 0.113993
Si Si3 0.826871 0.610488 0.184743
Si Si4 0.670518 0.616461 0.880328
Si Si5 0.827308 0.795853 0.231552
Si Si6 0.172297 0.384449 0.041926
Si Si7 0.174168 0.111547 0.150105
Si Si8 0.830415 0.116682 0.464865
O O1 0.787978 0.500000 0.799279
O O2 0.761191 0.351512 0.843811
O O3 0.760380 0.330144 0.767974
O O4 0.000000 0.378952 0.804143
O O5 0.500000 0.708960 0.113401
O O6 0.735225 0.641624 0.147972
O O7 0.740000 0.669343 0.074839
O O8 0.737157 0.814482 0.124144
O O9 0.800152 0.500000 0.194905
O O10 0.795683 0.687057 0.217964
O O11 0.000000 0.621167 0.175514
O O12 0.500000 0.640800 0.875624
O O13 0.680091 0.500000 0.880812
O O14 0.717364 0.649310 0.922610
O O15 0.795136 0.860447 0.194153
O O16 0.000000 0.804318 0.239329
O O17 0.194656 0.500000 0.045823
O O18 0.000000 0.366244 0.045337
O O19 0.232042 0.354400 0.000438
O O20 0.000000 0.126704 0.144580
O O21 0.207385 0.000000 0.143358
O O22 0.000000 0.144406 0.470509
O O23 0.827904 0.000000 0.464149
#
# Coordination Sequence:
#
# PCOD9373577 Si02
#       8
#     8   8   8   8   8   8   8   8
#     4  10  19  27  37  57  85 114 142 173 205 238
#     4  11  21  30  43  64  88 112 140 175 212 251
#     4   9  18  33  49  62  80 108 142 179 216 254
#     4   8  14  25  40  56  77 108 141 170 203 245
#     4   9  17  29  45  63  81 105 138 172 208 250
#     4  10  19  29  42  60  84 115 147 177 208 245
#     4   9  18  33  50  64  81 109 143 177 213 253
#     4   8  14  25  40  58  80 106 137 172 209 247
#
# _framework density 14.288638000000001
#
# number of rings (size 3 to 8) (size 9 to 14) (size 15 to 20)
#    0.000    2.750    0.000    4.125    0.000    6.500 
#    0.000    2.500    0.000    0.000    0.000    0.000 
#    0.000    1.000    0.000    8.250    0.000    4.375 
#
# Total GULP energy -178281.024368 kJ/mol
# GULP energy per Si atom -5571.282011 kJ/mol
# Density = 1.425612 g / cm^3
# Si number density = 14.288638 Si / 1000 Ang^3
#
#
#
# Elastic Constant Matrix: (Units=GPa)
#
#
# Indices 1 2 3 4 5 6 
#
# 1 71.8397 43.9984 74.7288 0.0000 0.0000 0.0000
# 2 43.9984 69.6653 49.2019 0.0000 0.0000 0.0000
# 3 74.7288 49.2019 134.1079 0.0000 0.0000 0.0000
# 4 0.0000 0.0000 0.0000 18.1167 0.0000 0.0000
# 5 0.0000 0.0000 0.0000 0.0000 26.5737 0.0000
# 6 0.0000 0.0000 0.0000 0.0000 0.0000 14.1400
#
#
#
# Elastic Compliance Matrix: (Units=1/GPa)
#
#
# Indices 1 2 3 4 5 6 
#
# 1 0.040207 -0.012917 -0.017665 0.000000 0.000000 0.000000
# 2 -0.012917 0.023524 -0.001433 0.000000 0.000000 0.000000
# 3 -0.017665 -0.001433 0.017826 0.000000 0.000000 0.000000
# 4 0.000000 0.000000 0.000000 0.055198 0.000000 0.000000
# 5 0.000000 0.000000 0.000000 0.000000 0.037631 0.000000
# 6 0.000000 0.000000 0.000000 0.000000 0.000000 0.070722
#
#
# Mechanical properties :
#
#
# Convention : Reuss Voigt Hill
#
# Bulk Modulus (GPa) = 57.05623 67.94125 62.49874
# Shear Modulus (GPa) = 15.87403 18.94499 17.40951
#
# Velocity S-wave (km/s) = 3.33671 3.64521 3.49437
# Velocity P-wave (km/s) = 7.40694 8.08512 7.75345
#
# Compressibility (1/GPa) = 0.01752657
#
# Stress axis : x y z
#
# Youngs Moduli (GPa) = 24.87157 42.50921 56.09771
#
# Poissons Ratio (x) = 0.54909 0.99098
# Poissons Ratio (y) = 0.32126 0.08039
# Poissons Ratio (z) = 0.43936 0.06092
#
# Static dielectric constant tensor:
#      x y z
#    x 1.473520 0.000000 0.000000 
#    y 0.000000 1.457630 0.000000 
#    z 0.000000 0.000000 1.468830 
# 
# From -- ./inp_files/27287.got.cif
#   From: 2010.05.17/outbox.cif.g08.bks.cpg/sg44_14_cif.got.tgz:27287.got - 2010.06.03 19:37:08.
