data_PCOD9373325
_publ_section_title
;
Structure prediction by ZEFSAII (Michael W. Deem and Ramdas Pophale) SiO2 
 PCOD9373325
Probable space group: I M M 2
;
_chemical_formula_sum "Si O2"
_cell_formula_units_Z 48
_cell_length_a 13.017058
_cell_length_b 7.282882
_cell_length_c 22.403967
_cell_angle_alpha 90.000000
_cell_angle_beta 90.000000
_cell_angle_gamma 90.000000
_cell_volume 2123.934100
_symmetry_space_group_name_H-M "I M M 2"
_symmetry_group_IT_number 44
_symmetry_cell_setting 'orthorhombic'
loop_
_space_group_symop_operation_xyz
x,y,z
-x,-y,z
-x,y,z
x,-y,z
1/2+x,1/2+y,1/2+z
1/2-x,1/2-y,1/2+z
1/2-x,1/2+y,1/2+z
1/2+x,1/2-y,1/2+z
loop_
_atom_site_type_symbol
_atom_site_label
_atom_site_fract_x
_atom_site_fract_y
_atom_site_fract_z
Si Si1 0.221651 0.776240 0.204330
Si Si2 0.330971 0.278696 0.429821
Si Si3 0.500000 0.276278 0.524407
Si Si4 0.386272 0.222647 0.107253
Si Si5 0.611560 0.785547 0.295227
Si Si6 0.000000 0.224283 0.163009
Si Si7 0.112622 0.723330 0.468884
O O1 0.292598 0.719632 0.148378
O O2 0.287453 0.713952 0.261652
O O3 0.104871 0.715522 0.195135
O O4 0.216937 0.000000 0.204942
O O5 0.330852 0.500000 0.432065
O O6 0.401021 0.218680 0.485518
O O7 0.376765 0.226973 0.366183
O O8 0.213749 0.214444 0.434926
O O9 0.500000 0.500000 0.525424
O O10 0.500000 0.218650 0.593241
O O11 0.500000 0.279460 0.128463
O O12 0.385584 0.000000 0.108089
O O13 0.376129 0.276644 0.038307
O O14 0.500000 0.706637 0.278390
O O15 0.607386 0.000000 0.278652
O O16 0.000000 0.000000 0.162625
O O17 0.112263 0.500000 0.467580
O O18 0.000000 0.783169 0.447485
#
# Coordination Sequence:
#
# PCOD9373325 Si02
#       7
#     8   8   4   8   8   4   8
#     4   9  16  26  40  61  90 122 152 185 231 280
#     4  10  18  30  48  70  95 122 155 194 233 276
#     4   9  16  26  45  73  99 119 148 197 248 284
#     4   8  12  20  37  61  87 113 143 183 230 273
#     4  10  20  33  47  65  92 124 160 196 229 273
#     4   9  16  26  42  67  97 123 148 191 248 290
#     4   8  14  24  40  65  94 119 146 184 231 278
#
# _framework density 22.599571000000001
#
# number of rings (size 3 to 8) (size 9 to 14) (size 15 to 20)
#    0.000    3.000    0.833    2.500    0.000    6.000 
#    1.500    0.000    0.000    0.000    0.000    5.833 
#    0.000    1.333    0.000    0.000    0.000    0.000 
#
# Total GULP energy -133997.073695 kJ/mol
# GULP energy per Si atom -5583.211404 kJ/mol
# Density = 2.254813 g / cm^3
# Si number density = 22.599571 Si / 1000 Ang^3
#
#
#
# Elastic Constant Matrix: (Units=GPa)
#
#
# Indices 1 2 3 4 5 6 
#
# 1 240.4523 8.6316 80.6310 0.0000 0.0000 0.0000
# 2 8.6316 95.9756 -2.2879 0.0000 0.0000 0.0000
# 3 80.6310 -2.2879 89.7875 0.0000 0.0000 0.0000
# 4 0.0000 0.0000 0.0000 1.8603 0.0000 0.0000
# 5 0.0000 0.0000 0.0000 0.0000 35.6429 0.0000
# 6 0.0000 0.0000 0.0000 0.0000 0.0000 -22.4201
#
#
#
# Elastic Compliance Matrix: (Units=1/GPa)
#
#
# Indices 1 2 3 4 5 6 
#
# 1 0.005993 -0.000668 -0.005399 0.000000 0.000000 0.000000
# 2 -0.000668 0.010500 0.000867 0.000000 0.000000 0.000000
# 3 -0.005399 0.000867 0.016008 0.000000 0.000000 0.000000
# 4 0.000000 0.000000 0.000000 0.537534 0.000000 0.000000
# 5 0.000000 0.000000 0.000000 0.000000 0.028056 0.000000
# 6 0.000000 0.000000 0.000000 0.000000 0.000000 -0.044603
#
#
# Mechanical properties :
#
#
# Convention : Reuss Voigt Hill
#
# Bulk Modulus (GPa) = 45.24470 66.68498 55.96484
# Shear Modulus (GPa) = 8.75265 25.63267 17.19266
#
# Velocity S-wave (km/s) = 1.97011 3.37146 2.76116
# Velocity P-wave (km/s) = 5.02382 6.68782 5.91463
#
# Compressibility (1/GPa) = 0.02210204
#
# Stress axis : x y z
#
# Youngs Moduli (GPa) = 166.85342 95.23775 62.46872
#
# Poissons Ratio (x) = 0.06359 0.33728
# Poissons Ratio (y) = 0.11141 -0.05417
# Poissons Ratio (z) = 0.90086 -0.08259
#
# Static dielectric constant tensor:
#      x y z
#    x 1.860160 0.000000 0.000000 
#    y 0.000000 1.917200 0.000000 
#    z 0.000000 0.000000 1.774860 
# 
# From -- ./inp_files/23727.got.cif
#   From: 2010.05.17/outbox.cif.g08.bks.cpg/sg44_12_cif.got.tgz:23727.got - 2010.06.03 19:37:08.
