data_PCOD9373371
_publ_section_title
;
Structure prediction by ZEFSAII (Michael W. Deem and Ramdas Pophale) SiO2 
 PCOD9373371
Probable space group: I M M 2
;
_chemical_formula_sum "Si O2"
_cell_formula_units_Z 28
_cell_length_a 9.018565
_cell_length_b 14.351130
_cell_length_c 9.182682
_cell_angle_alpha 90.000000
_cell_angle_beta 90.000000
_cell_angle_gamma 90.000000
_cell_volume 1188.483298
_symmetry_space_group_name_H-M "I M M 2"
_symmetry_group_IT_number 44
_symmetry_cell_setting 'orthorhombic'
loop_
_space_group_symop_operation_xyz
x,y,z
-x,-y,z
-x,y,z
x,-y,z
1/2+x,1/2+y,1/2+z
1/2-x,1/2-y,1/2+z
1/2-x,1/2+y,1/2+z
1/2+x,1/2-y,1/2+z
loop_
_atom_site_type_symbol
_atom_site_label
_atom_site_fract_x
_atom_site_fract_y
_atom_site_fract_z
Si Si1 0.332484 0.388555 0.962240
Si Si2 0.000000 0.725900 0.247665
Si Si3 0.500000 0.399784 0.538067
Si Si4 0.749844 0.105785 0.796954
Si Si5 0.000000 0.611593 0.950159
O O1 0.500000 0.351994 0.920931
O O2 0.337099 0.500000 0.935536
O O3 0.168207 0.358820 0.898376
O O4 0.320817 0.377186 0.137664
O O5 0.143529 0.691615 0.331294
O O6 0.000000 0.816102 0.148515
O O7 0.000000 0.645299 0.116825
O O8 0.500000 0.500000 0.614825
O O9 0.636275 0.395419 0.428677
O O10 0.686157 0.000000 0.791603
O O11 0.000000 0.500000 0.939522
#
# Coordination Sequence:
#
# PCOD9373371 Si02
#       5
#     8   4   4   8   4
#     4   8  11  18  35  60  89 121 156 200 256 308
#     4  10  18  30  53  80 106 140 186 233 274 327
#     4  10  20  34  55  81 110 146 185 225 281 343
#     4   9  16  30  52  78 107 140 181 230 277 328
#     4   8  14  22  38  67  96 122 163 216 267 310
#
# _framework density 23.559439999999999
#
# number of rings (size 3 to 8) (size 9 to 14) (size 15 to 20)
#    0.000    3.143    1.429    3.000    0.000    0.000 
#    0.000    1.429    0.000    5.143    0.000    0.000 
#    0.000    0.000    0.000    0.000    0.000    0.000 
#
# Total GULP energy -77955.784212 kJ/mol
# GULP energy per Si atom -5568.270301 kJ/mol
# Density = 2.350582 g / cm^3
# Si number density = 23.559440 Si / 1000 Ang^3
#
#
#
# Elastic Constant Matrix: (Units=GPa)
#
#
# Indices 1 2 3 4 5 6 
#
# 1 207.6182 74.1286 25.7281 0.0000 0.0000 0.0000
# 2 74.1286 125.9791 28.4169 -0.0001 0.0000 0.0000
# 3 25.7281 28.4169 69.9515 -0.0003 0.0003 0.0000
# 4 0.0000 -0.0001 -0.0003 11.4350 0.0002 0.0000
# 5 0.0000 0.0000 0.0003 0.0002 -25.3564 0.0001
# 6 0.0000 0.0000 0.0000 0.0000 0.0001 51.6623
#
#
#
# Elastic Compliance Matrix: (Units=1/GPa)
#
#
# Indices 1 2 3 4 5 6 
#
# 1 0.006145 -0.003420 -0.000871 0.000000 0.000000 0.000000
# 2 -0.003420 0.010641 -0.003065 0.000000 0.000000 0.000000
# 3 -0.000871 -0.003065 0.015861 0.000000 0.000000 0.000000
# 4 0.000000 0.000000 0.000000 0.087451 0.000001 0.000000
# 5 0.000000 0.000000 0.000000 0.000001 -0.039438 0.000000
# 6 0.000000 0.000000 0.000000 0.000000 0.000000 0.019356
#
#
# Mechanical properties :
#
#
# Convention : Reuss Voigt Hill
#
# Bulk Modulus (GPa) = 55.75317 73.34401 64.54859
# Shear Modulus (GPa) = 41.42229 25.89986 33.66107
#
# Velocity S-wave (km/s) = 4.19764 3.31923 3.78401
# Velocity P-wave (km/s) = 6.87094 6.77412 6.82271
#
# Compressibility (1/GPa) = 0.01793620
#
# Stress axis : x y z
#
# Youngs Moduli (GPa) = 162.72267 93.97261 63.04686
#
# Poissons Ratio (x) = 0.32135 0.05492
# Poissons Ratio (y) = 0.55645 0.19325
# Poissons Ratio (z) = 0.14175 0.28805
#
# Static dielectric constant tensor:
#      x y z
#    x 2.645350 0.000000 0.000000 
#    y 0.000000 2.273210 0.000000 
#    z 0.000000 0.000000 1.858370 
# 
# From -- ./inp_files/15638.got.cif
#   From: 2010.05.17/outbox.cif.g08.bks.cpg/sg44_8_cif.got.tgz:15638.got - 2010.06.03 19:37:08.
