data_PCOD9373758
_publ_section_title
;
Structure prediction by ZEFSAII (Michael W. Deem and Ramdas Pophale) SiO2 
 PCOD9373758
Probable space group: I M M 2
;
_chemical_formula_sum "Si O2"
_cell_formula_units_Z 64
_cell_length_a 19.357410
_cell_length_b 7.985954
_cell_length_c 22.331441
_cell_angle_alpha 90.000000
_cell_angle_beta 90.000000
_cell_angle_gamma 90.000000
_cell_volume 3452.159086
_symmetry_space_group_name_H-M "I M M 2"
_symmetry_group_IT_number 44
_symmetry_cell_setting 'orthorhombic'
loop_
_space_group_symop_operation_xyz
x,y,z
-x,-y,z
-x,y,z
x,-y,z
1/2+x,1/2+y,1/2+z
1/2-x,1/2-y,1/2+z
1/2-x,1/2+y,1/2+z
1/2+x,1/2-y,1/2+z
loop_
_atom_site_type_symbol
_atom_site_label
_atom_site_fract_x
_atom_site_fract_y
_atom_site_fract_z
Si Si1 0.221675 0.802093 0.034850
Si Si2 0.424381 0.193935 0.183132
Si Si3 0.628657 0.201915 0.711440
Si Si4 0.576922 0.696551 0.049200
Si Si5 0.775881 0.702519 0.664690
Si Si6 0.576111 0.797357 0.582626
Si Si7 0.673426 0.698060 0.945767
Si Si8 0.577129 0.799057 0.839614
O O1 0.260585 0.736312 0.095952
O O2 0.141311 0.762992 0.044792
O O3 0.231541 0.000000 0.034559
O O4 0.250900 0.733837 0.972091
O O5 0.500000 0.267792 0.201081
O O6 0.423439 0.204332 0.110871
O O7 0.347543 0.265900 0.194478
O O8 0.424948 0.000000 0.202475
O O9 0.708460 0.251011 0.702500
O O10 0.589718 0.258609 0.651228
O O11 0.596091 0.264252 0.773183
O O12 0.624588 0.000000 0.712223
O O13 0.500000 0.700448 0.023605
O O14 0.592530 0.500000 0.062625
O O15 0.627252 0.768994 0.000058
O O16 0.780764 0.500000 0.661715
O O17 0.500000 0.742339 0.562949
O O18 0.577458 0.000000 0.582311
O O19 0.663740 0.500000 0.944864
O O20 0.639707 0.760587 0.884777
O O21 0.500000 0.737860 0.857841
O O22 0.572960 0.000000 0.836647
#
# Coordination Sequence:
#
# PCOD9373758 Si02
#       8
#     8   8   8   8   8   8   8   8
#     4  10  19  31  47  70  99 129 164 203 246 299
#     4   9  16  26  41  62  90 123 157 191 230 280
#     4   9  18  32  51  72  95 128 168 206 246 294
#     4   9  17  27  39  58  86 120 156 192 228 270
#     4   9  17  29  45  68  96 125 160 202 248 294
#     4   9  17  31  52  76 101 129 161 201 251 303
#     4  11  21  32  47  67  96 131 167 204 244 290
#     4  10  21  36  52  71  97 131 171 210 246 290
#
# _framework density 18.539123
#
# number of rings (size 3 to 8) (size 9 to 14) (size 15 to 20)
#    0.000    2.500    1.250    1.500    0.000    4.500 
#    0.000    1.250    0.000    2.250    0.000    0.875 
#    0.000    3.000    0.000    0.000    0.000    0.125 
#
# Total GULP energy -178174.553501 kJ/mol
# GULP energy per Si atom -5567.954797 kJ/mol
# Density = 1.849693 g / cm^3
# Si number density = 18.539123 Si / 1000 Ang^3
#
#
#
# Elastic Constant Matrix: (Units=GPa)
#
#
# Indices 1 2 3 4 5 6 
#
# 1 123.6205 6.6622 31.7147 0.0000 0.0000 0.0000
# 2 6.6622 19.8333 6.5858 0.0000 0.0000 0.0000
# 3 31.7147 6.5858 63.5972 0.0000 0.0000 0.0000
# 4 0.0000 0.0000 0.0000 15.1940 0.0000 0.0000
# 5 0.0000 0.0000 0.0000 0.0000 20.1955 0.0000
# 6 0.0000 0.0000 0.0000 0.0000 0.0000 20.7966
#
#
#
# Elastic Compliance Matrix: (Units=1/GPa)
#
#
# Indices 1 2 3 4 5 6 
#
# 1 0.009328 -0.001645 -0.004481 0.000000 0.000000 0.000000
# 2 -0.001645 0.052506 -0.004617 0.000000 0.000000 0.000000
# 3 -0.004481 -0.004617 0.018437 0.000000 0.000000 0.000000
# 4 0.000000 0.000000 0.000000 0.065815 0.000000 0.000000
# 5 0.000000 0.000000 0.000000 0.000000 0.049516 0.000000
# 6 0.000000 0.000000 0.000000 0.000000 0.000000 0.048085
#
#
# Mechanical properties :
#
#
# Convention : Reuss Voigt Hill
#
# Bulk Modulus (GPa) = 17.01145 32.99736 25.00441
# Shear Modulus (GPa) = 17.55821 22.04311 19.80066
#
# Velocity S-wave (km/s) = 3.08082 3.45194 3.27165
# Velocity P-wave (km/s) = 4.67452 5.80734 5.27145
#
# Compressibility (1/GPa) = 0.05878392
#
# Stress axis : x y z
#
# Youngs Moduli (GPa) = 107.20915 19.04549 54.23970
#
# Poissons Ratio (x) = 0.03133 0.24305
# Poissons Ratio (y) = 0.17638 0.25041
# Poissons Ratio (z) = 0.48042 0.08793
#
# Static dielectric constant tensor:
#      x y z
#    x 1.731510 0.000000 0.000000 
#    y 0.000000 1.668070 0.000000 
#    z 0.000000 0.000000 1.623890 
# 
# From -- ./inp_files/23280.got.cif
#   From: 2010.05.17/outbox.cif.g08.bks.cpg/sg44_12_cif.got.tgz:23280.got - 2010.06.03 19:37:08.
