data_PCOD9374154
_publ_section_title
;
Structure prediction by ZEFSAII (Michael W. Deem and Ramdas Pophale) SiO2 
 PCOD9374154
Probable space group: I M M 2
;
_chemical_formula_sum "Si O2"
_cell_formula_units_Z 64
_cell_length_a 25.755851
_cell_length_b 7.428748
_cell_length_c 13.979955
_cell_angle_alpha 90.000000
_cell_angle_beta 90.000000
_cell_angle_gamma 90.000000
_cell_volume 2674.836888
_symmetry_space_group_name_H-M "I M M 2"
_symmetry_group_IT_number 44
_symmetry_cell_setting 'orthorhombic'
loop_
_space_group_symop_operation_xyz
x,y,z
-x,-y,z
-x,y,z
x,-y,z
1/2+x,1/2+y,1/2+z
1/2-x,1/2-y,1/2+z
1/2-x,1/2+y,1/2+z
1/2+x,1/2-y,1/2+z
loop_
_atom_site_type_symbol
_atom_site_label
_atom_site_fract_x
_atom_site_fract_y
_atom_site_fract_z
Si Si1 0.872582 0.220730 0.853630
Si Si2 0.263543 0.784875 0.089112
Si Si3 0.245542 0.219021 0.878666
Si Si4 0.560615 0.255228 0.744794
Si Si5 0.173254 0.287785 0.221374
Si Si6 0.058104 0.215777 0.031139
Si Si7 0.122489 0.207872 0.644977
Si Si8 0.059756 0.216806 0.461570
O O1 0.813062 0.278754 0.863612
O O2 0.892983 0.281638 0.749388
O O3 0.873947 0.000000 0.852556
O O4 0.903187 0.275495 0.948569
O O5 0.206564 0.729210 0.125088
O O6 0.314630 0.713873 0.142238
O O7 0.265985 0.000000 0.094645
O O8 0.267443 0.724972 0.980230
O O9 0.284575 0.276752 0.797409
O O10 0.244471 0.000000 0.876556
O O11 0.500000 0.322023 0.748302
O O12 0.620356 0.317781 0.734240
O O13 0.559717 0.187879 0.633862
O O14 0.564789 0.194788 0.856422
O O15 0.160871 0.500000 0.236362
O O16 0.000000 0.233618 0.992486
O O17 0.066208 0.000000 0.051317
O O18 0.097966 0.281640 0.546247
O O19 0.105773 0.000000 0.643965
O O20 0.000000 0.241082 0.493386
O O21 0.067552 0.000000 0.444414
#
# Coordination Sequence:
#
# PCOD9374154 Si02
#       8
#     8   8   8   8   8   8   8   8
#     4   9  16  29  50  73 103 142 182 223 268 323
#     4  11  22  36  57  83 111 144 188 237 282 336
#     4   9  18  33  53  76 105 142 181 224 274 326
#     4  10  20  34  53  78 112 147 185 234 285 336
#     4  11  22  38  58  80 110 147 187 227 280 343
#     4   9  17  29  49  78 109 144 185 227 272 324
#     4  10  19  34  56  80 115 153 185 230 287 341
#     4   9  18  32  53  84 118 152 191 239 291 337
#
# _framework density 23.926693
#
# number of rings (size 3 to 8) (size 9 to 14) (size 15 to 20)
#    0.000    2.250    1.250    2.250    0.000    4.250 
#    0.000    3.750    0.000    1.125    0.000    0.000 
#    0.000    0.000    0.000    0.000    0.000    0.000 
#
# Total GULP energy -178174.912632 kJ/mol
# GULP energy per Si atom -5567.966020 kJ/mol
# Density = 2.387224 g / cm^3
# Si number density = 23.926693 Si / 1000 Ang^3
#
#
#
# Elastic Constant Matrix: (Units=GPa)
#
#
# Indices 1 2 3 4 5 6 
#
# 1 144.5013 10.5948 49.2116 0.0000 0.0000 0.0000
# 2 10.5948 97.8319 12.6453 0.0000 0.0000 0.0000
# 3 49.2116 12.6453 153.8220 0.0000 0.0000 0.0000
# 4 0.0000 0.0000 0.0000 -35.0993 0.0000 0.0000
# 5 0.0000 0.0000 0.0000 0.0000 57.4514 0.0000
# 6 0.0000 0.0000 0.0000 0.0000 0.0000 -11.3051
#
#
#
# Elastic Compliance Matrix: (Units=1/GPa)
#
#
# Indices 1 2 3 4 5 6 
#
# 1 0.007793 -0.000527 -0.002450 0.000000 0.000000 0.000000
# 2 -0.000527 0.010367 -0.000684 0.000000 0.000000 0.000000
# 3 -0.002450 -0.000684 0.007341 0.000000 0.000000 0.000000
# 4 0.000000 0.000000 0.000000 -0.028491 0.000000 0.000000
# 5 0.000000 0.000000 0.000000 0.000000 0.017406 0.000000
# 6 0.000000 0.000000 0.000000 0.000000 0.000000 -0.088456
#
#
# Mechanical properties :
#
#
# Convention : Reuss Voigt Hill
#
# Bulk Modulus (GPa) = 55.00602 60.11761 57.56182
# Shear Modulus (GPa) = -82.43052 23.78964 -29.32044
#
# Velocity S-wave (km/s) = -5.87589 3.15663 -3.50441
# Velocity P-wave (km/s) = 4.79536 6.20210 2.78124
#
# Compressibility (1/GPa) = 0.01817983
#
# Stress axis : x y z
#
# Youngs Moduli (GPa) = 128.31405 96.45929 136.22090
#
# Poissons Ratio (x) = 0.05086 0.33374
# Poissons Ratio (y) = 0.06766 0.09311
# Poissons Ratio (z) = 0.31436 0.06593
#
# Static dielectric constant tensor:
#      x y z
#    x 2.059260 0.000000 0.000000 
#    y 0.000000 2.128720 0.000000 
#    z 0.000000 0.000000 1.900570 
# 
# From -- ./inp_files/19452.got.cif
#   From: 2010.05.17/outbox.cif.g08.bks.cpg/sg44_10_cif.got.tgz:19452.got - 2010.06.03 19:37:08.
