data_PCOD9374677
_publ_section_title
;
Structure prediction by ZEFSAII (Michael W. Deem and Ramdas Pophale) SiO2 
 PCOD9374677
Probable space group: I M M 2
;
_chemical_formula_sum "Si O2"
_cell_formula_units_Z 58
_cell_length_a 7.281991
_cell_length_b 15.328452
_cell_length_c 25.066087
_cell_angle_alpha 90.000000
_cell_angle_beta 90.000000
_cell_angle_gamma 90.000000
_cell_volume 2797.917978
_symmetry_space_group_name_H-M "I M M 2"
_symmetry_group_IT_number 44
_symmetry_cell_setting 'orthorhombic'
loop_
_space_group_symop_operation_xyz
x,y,z
-x,-y,z
-x,y,z
x,-y,z
1/2+x,1/2+y,1/2+z
1/2-x,1/2-y,1/2+z
1/2-x,1/2+y,1/2+z
1/2+x,1/2-y,1/2+z
loop_
_atom_site_type_symbol
_atom_site_label
_atom_site_fract_x
_atom_site_fract_y
_atom_site_fract_z
Si Si1 0.721791 0.399914 0.088910
Si Si2 0.223870 0.100118 0.709900
Si Si3 0.709639 0.749060 0.286541
Si Si4 0.223870 0.899882 0.082441
Si Si5 0.225932 0.334272 0.896171
Si Si6 0.790360 0.249059 0.005801
Si Si7 0.000000 0.000000 0.396171
Si Si8 0.778209 0.100086 0.203431
O O1 0.500000 0.398331 0.087465
O O2 0.777452 0.500000 0.077860
O O3 0.779988 0.377092 0.149267
O O4 0.787717 0.331524 0.045660
O O5 0.291629 0.168698 0.753382
O O6 0.000000 0.102669 0.709331
O O7 0.276502 0.000000 0.720295
O O8 0.500000 0.723389 0.297253
O O9 0.780883 0.780904 0.343177
O O10 0.712282 0.831524 0.246681
O O11 0.291629 0.831303 0.038959
O O12 0.279988 0.877091 0.143074
O O13 0.000000 0.897331 0.083010
O O14 0.276502 0.000000 0.072047
O O15 0.338408 0.423691 0.896171
O O16 0.000000 0.346978 0.896171
O O17 0.280883 0.280904 0.949164
O O18 0.000000 0.223389 0.995088
O O19 0.000000 0.101670 0.204876
O O20 0.722549 0.000000 0.214481
#
# Coordination Sequence:
#
# PCOD9374677 Si02
#       8
#     8   8   8   8   8   8   2   8
#     4   9  18  30  50  78 106 139 186 225 272 348
#     4   8  15  31  53  78 106 141 181 231 285 337
#     4  10  20  34  52  76 111 143 180 237 284 328
#     4   8  15  31  53  78 106 141 181 231 285 337
#     4  10  25  41  58  90 117 146 198 238 275 347
#     4  10  20  34  52  76 111 143 180 237 284 328
#     4  12  26  44  68  78 114 164 190 228 304 320
#     4   9  18  30  50  78 106 139 186 225 272 348
#
# _framework density 20.729699
#
# number of rings (size 3 to 8) (size 9 to 14) (size 15 to 20)
#    0.000    2.759    0.000    2.690    3.862    0.552 
#    0.000    0.690    0.000    6.621    0.000    0.966 
#    0.000    0.000    0.000    0.000    0.000    0.552 
#
# Total GULP energy -161594.437139 kJ/mol
# GULP energy per Si atom -5572.221970 kJ/mol
# Density = 2.068252 g / cm^3
# Si number density = 20.729699 Si / 1000 Ang^3
#
#
#
# Elastic Constant Matrix: (Units=GPa)
#
#
# Indices 1 2 3 4 5 6 
#
# 1 97.8191 -0.8188 7.7840 0.0000 0.0000 0.0000
# 2 -0.8188 109.2610 118.5127 0.0000 0.0000 0.0000
# 3 7.7840 118.5127 188.0498 0.0000 0.0000 0.0000
# 4 0.0000 0.0000 0.0000 -15.7728 0.0000 0.0000
# 5 0.0000 0.0000 0.0000 0.0000 -306.7855 0.0000
# 6 0.0000 0.0000 0.0000 0.0000 0.0000 4.0077
#
#
#
# Elastic Compliance Matrix: (Units=1/GPa)
#
#
# Indices 1 2 3 4 5 6 
#
# 1 0.010357 0.001715 -0.001510 0.000000 0.000000 0.000000
# 2 0.001715 0.029209 -0.018479 0.000000 0.000000 0.000000
# 3 -0.001510 -0.018479 0.017026 0.000000 0.000000 0.000000
# 4 0.000000 0.000000 0.000000 -0.063400 0.000000 0.000000
# 5 0.000000 0.000000 0.000000 0.000000 -0.003260 0.000000
# 6 0.000000 0.000000 0.000000 0.000000 0.000000 0.249520
#
#
# Mechanical properties :
#
#
# Convention : Reuss Voigt Hill
#
# Bulk Modulus (GPa) = 49.88710 71.78731 60.83720
# Shear Modulus (GPa) = 17.68775 -45.73330 -14.02278
#
# Velocity S-wave (km/s) = 2.92422 -4.70209 -2.60370
# Velocity P-wave (km/s) = 5.95980 2.28601 4.51359
#
# Compressibility (1/GPa) = 0.02004526
#
# Stress axis : x y z
#
# Youngs Moduli (GPa) = 96.54908 34.23586 58.73315
#
# Poissons Ratio (x) = -0.05871 0.08866
# Poissons Ratio (y) = -0.16558 1.08534
# Poissons Ratio (z) = 0.14574 0.63265
#
# Static dielectric constant tensor:
#      x y z
#    x 1.820400 0.000000 0.000000 
#    y 0.000000 1.707700 0.000000 
#    z 0.000000 0.000000 1.722970 
# 
# From -- ./inp_files/24989.got.cif
#   From: 2010.05.17/outbox.cif.g08.bks.cpg/sg44_13_cif.got.tgz:24989.got - 2010.06.03 19:37:08.
