data_PCOD9374156
_publ_section_title
;
Structure prediction by ZEFSAII (Michael W. Deem and Ramdas Pophale) SiO2 
 PCOD9374156
Probable space group: I M M 2
;
_chemical_formula_sum "Si O2"
_cell_formula_units_Z 40
_cell_length_a 7.529500
_cell_length_b 26.612633
_cell_length_c 9.202094
_cell_angle_alpha 90.000000
_cell_angle_beta 90.000000
_cell_angle_gamma 90.000000
_cell_volume 1843.913941
_symmetry_space_group_name_H-M "I M M 2"
_symmetry_group_IT_number 44
_symmetry_cell_setting 'orthorhombic'
loop_
_space_group_symop_operation_xyz
x,y,z
-x,-y,z
-x,y,z
x,-y,z
1/2+x,1/2+y,1/2+z
1/2-x,1/2-y,1/2+z
1/2-x,1/2+y,1/2+z
1/2+x,1/2-y,1/2+z
loop_
_atom_site_type_symbol
_atom_site_label
_atom_site_fract_x
_atom_site_fract_y
_atom_site_fract_z
Si Si1 0.282240 0.897711 0.433690
Si Si2 0.281612 0.000000 0.940125
Si Si3 0.706647 0.903961 0.762523
Si Si4 0.713916 0.201498 0.263766
Si Si5 0.716604 0.000000 0.274710
Si Si6 0.210210 0.198093 0.922177
O O1 0.500000 0.896554 0.432480
O O2 0.220037 0.896849 0.600532
O O3 0.222532 0.848682 0.345184
O O4 0.227577 0.949361 0.356545
O O5 0.220076 0.950394 0.854984
O O6 0.500000 0.000000 0.944058
O O7 0.225256 0.000000 0.107529
O O8 0.500000 0.916679 0.740276
O O9 0.716093 0.852723 0.852767
O O10 0.500000 0.201607 0.276119
O O11 0.780334 0.252047 0.341978
O O12 0.757450 0.200887 0.093878
O O13 0.500000 0.000000 0.275604
O O14 0.000000 0.196245 0.897712
#
# Coordination Sequence:
#
# PCOD9374156 Si02
#       6
#     8   4   8   8   4   8
#     4   9  17  30  51  78 106 137 175 221 268 315
#     4   9  17  29  52  83 110 143 184 222 264 317
#     4  10  19  34  56  81 110 144 182 223 269 320
#     4  10  21  37  55  76 106 143 180 220 269 325
#     4   9  15  25  45  77 110 133 168 224 272 309
#     4  11  23  37  55  81 109 140 180 224 273 325
#
# _framework density 21.692986999999999
#
# number of rings (size 3 to 8) (size 9 to 14) (size 15 to 20)
#    0.000    2.200    0.000    3.600    0.000    8.800 
#    0.000    1.500    0.000    0.000    0.000    1.400 
#    0.000    0.000    0.000    0.000    0.000    0.000 
#
# Total GULP energy -111798.322013 kJ/mol
# GULP energy per Si atom -5589.916101 kJ/mol
# Density = 2.164361 g / cm^3
# Si number density = 21.692987 Si / 1000 Ang^3
#
#
#
# Elastic Constant Matrix: (Units=GPa)
#
#
# Indices 1 2 3 4 5 6 
#
# 1 49.7082 -13.9548 -15.9831 0.0001 0.0000 0.0000
# 2 -13.9548 203.2496 114.4792 0.0002 -0.0001 0.0001
# 3 -15.9831 114.4792 219.6524 0.0012 -0.0004 0.0000
# 4 0.0001 0.0002 0.0012 40.7578 -0.0001 0.0000
# 5 0.0000 -0.0001 -0.0004 -0.0001 9.9649 0.0000
# 6 0.0000 0.0001 0.0000 0.0000 0.0000 -4.2559
#
#
#
# Elastic Compliance Matrix: (Units=1/GPa)
#
#
# Indices 1 2 3 4 5 6 
#
# 1 0.020693 0.000811 0.001083 0.000000 0.000000 0.000000
# 2 0.000811 0.006996 -0.003587 0.000000 0.000000 0.000000
# 3 0.001083 -0.003587 0.006501 0.000000 0.000000 0.000000
# 4 0.000000 0.000000 0.000000 0.024535 0.000000 0.000000
# 5 0.000000 0.000000 0.000000 0.000000 0.100352 0.000000
# 6 0.000000 0.000000 0.000000 0.000000 0.000000 -0.234967
#
#
# Mechanical properties :
#
#
# Convention : Reuss Voigt Hill
#
# Bulk Modulus (GPa) = 32.46354 71.29921 51.88137
# Shear Modulus (GPa) = -80.34187 35.16461 -22.58863
#
# Velocity S-wave (km/s) = -6.09231 4.03055 -3.23040
# Velocity P-wave (km/s) = 5.87289 7.38913 3.17083
#
# Compressibility (1/GPa) = 0.03080379
#
# Stress axis : x y z
#
# Youngs Moduli (GPa) = 48.32483 142.93318 153.81898
#
# Poissons Ratio (x) = -0.11586 -0.16663
# Poissons Ratio (y) = -0.03917 0.55180
# Poissons Ratio (z) = -0.05235 0.51275
#
# Static dielectric constant tensor:
#      x y z
#    x 1.845310 0.000000 0.000000 
#    y 0.000000 1.750460 0.000000 
#    z 0.000000 0.000000 1.733550 
# 
# From -- ./inp_files/4650.got.cif
#   From: 2010.05.17/outbox.cif.g08.bks.cpg/sg44_3_cif.got.tgz:4650.got - 2010.06.03 19:37:08.
