data_PCOD9374331
_publ_section_title
;
Structure prediction by ZEFSAII (Michael W. Deem and Ramdas Pophale) SiO2 
 PCOD9374331
Probable space group: I M M 2
;
_chemical_formula_sum "Si O2"
_cell_formula_units_Z 48
_cell_length_a 7.843534
_cell_length_b 20.518991
_cell_length_c 15.289950
_cell_angle_alpha 90.000000
_cell_angle_beta 90.000000
_cell_angle_gamma 90.000000
_cell_volume 2460.786013
_symmetry_space_group_name_H-M "I M M 2"
_symmetry_group_IT_number 44
_symmetry_cell_setting 'orthorhombic'
loop_
_space_group_symop_operation_xyz
x,y,z
-x,-y,z
-x,y,z
x,-y,z
1/2+x,1/2+y,1/2+z
1/2-x,1/2-y,1/2+z
1/2-x,1/2+y,1/2+z
1/2+x,1/2-y,1/2+z
loop_
_atom_site_type_symbol
_atom_site_label
_atom_site_fract_x
_atom_site_fract_y
_atom_site_fract_z
Si Si1 0.309239 0.383977 0.376460
Si Si2 0.500000 0.073973 0.559753
Si Si3 0.500000 0.072532 0.767346
Si Si4 0.201725 0.753961 0.343890
Si Si5 0.694816 0.330790 0.016095
Si Si6 0.292911 0.712074 0.644940
Si Si7 0.207171 0.072710 0.070077
O O1 0.500000 0.406834 0.356003
O O2 0.305406 0.306106 0.383973
O O3 0.253063 0.415723 0.467736
O O4 0.172958 0.396498 0.301780
O O5 0.500000 0.071855 0.664309
O O6 0.667178 0.114381 0.534856
O O7 0.500000 0.000000 0.525792
O O8 0.500000 0.000000 0.803727
O O9 0.215391 0.810705 0.414762
O O10 0.254574 0.770995 0.245112
O O11 0.000000 0.736250 0.341219
O O12 0.500000 0.351858 0.031132
O O13 0.727000 0.267226 0.077889
O O14 0.500000 0.713516 0.639814
O O15 0.235698 0.638558 0.619591
O O16 0.000000 0.072345 0.076342
O O17 0.266359 0.000000 0.097159
#
# Coordination Sequence:
#
# PCOD9374331 Si02
#       7
#     8   4   4   8   8   8   8
#     4  11  21  35  58  90 122 160 203 253 308 372
#     4  11  26  46  66  87 120 166 208 258 318 371
#     4  11  24  40  58  85 123 164 204 252 311 373
#     4  10  21  36  59  91 122 157 205 254 308 363
#     4  11  23  41  64  93 124 158 207 261 310 365
#     4  10  19  36  61  91 125 162 206 256 304 366
#     4   9  18  33  56  87 124 166 205 248 310 373
#
# _framework density 19.505960999999999
#
# number of rings (size 3 to 8) (size 9 to 14) (size 15 to 20)
#    0.000    1.667    3.333    1.500    1.167    4.000 
#    0.000    2.500    0.000    3.000    0.000    0.000 
#    0.000    0.000    0.000    0.000    0.000    0.000 
#
# Total GULP energy -133960.267110 kJ/mol
# GULP energy per Si atom -5581.677796 kJ/mol
# Density = 1.946156 g / cm^3
# Si number density = 19.505961 Si / 1000 Ang^3
#
#
#
# Elastic Constant Matrix: (Units=GPa)
#
#
# Indices 1 2 3 4 5 6 
#
# 1 78.0982 42.6136 24.9168 0.0000 0.0000 0.0000
# 2 42.6136 133.2106 29.7652 0.0000 0.0000 0.0000
# 3 24.9168 29.7652 83.1077 0.0000 0.0000 0.0000
# 4 0.0000 0.0000 0.0000 28.0878 0.0000 0.0000
# 5 0.0000 0.0000 0.0000 0.0000 57.9669 0.0000
# 6 0.0000 0.0000 0.0000 0.0000 0.0000 10.3787
#
#
#
# Elastic Compliance Matrix: (Units=1/GPa)
#
#
# Indices 1 2 3 4 5 6 
#
# 1 0.016296 -0.004480 -0.003281 0.000000 0.000000 0.000000
# 2 -0.004480 0.009391 -0.002020 0.000000 0.000000 0.000000
# 3 -0.003281 -0.002020 0.013740 0.000000 0.000000 0.000000
# 4 0.000000 0.000000 0.000000 0.035603 0.000000 0.000000
# 5 0.000000 0.000000 0.000000 0.000000 0.017251 0.000000
# 6 0.000000 0.000000 0.000000 0.000000 0.000000 0.096351
#
#
# Mechanical properties :
#
#
# Convention : Reuss Voigt Hill
#
# Bulk Modulus (GPa) = 50.34199 54.33420 52.33809
# Shear Modulus (GPa) = 23.27571 32.42807 27.85189
#
# Velocity S-wave (km/s) = 3.45811 4.08176 3.78281
# Velocity P-wave (km/s) = 6.46601 7.08026 6.78009
#
# Compressibility (1/GPa) = 0.01986413
#
# Stress axis : x y z
#
# Youngs Moduli (GPa) = 61.36639 106.48010 72.78037
#
# Poissons Ratio (x) = 0.47700 0.23881
# Poissons Ratio (y) = 0.27490 0.14705
# Poissons Ratio (z) = 0.20136 0.21514
#
# Static dielectric constant tensor:
#      x y z
#    x 1.608820 0.000000 0.000000 
#    y 0.000000 1.903660 0.000000 
#    z 0.000000 0.000000 1.651560 
# 
# From -- ./inp_files/16224.got.cif
#   From: 2010.05.17/outbox.cif.g08.bks.cpg/sg44_9_cif.got.tgz:16224.got - 2010.06.03 19:37:08.
