data_PCOD9374721
_publ_section_title
;
Structure prediction by ZEFSAII (Michael W. Deem and Ramdas Pophale) SiO2 
 PCOD9374721
Probable space group: I M M 2
;
_chemical_formula_sum "Si O2"
_cell_formula_units_Z 64
_cell_length_a 9.435945
_cell_length_b 15.968581
_cell_length_c 21.381950
_cell_angle_alpha 90.000000
_cell_angle_beta 90.000000
_cell_angle_gamma 90.000000
_cell_volume 3221.803404
_symmetry_space_group_name_H-M "I M M 2"
_symmetry_group_IT_number 44
_symmetry_cell_setting 'orthorhombic'
loop_
_space_group_symop_operation_xyz
x,y,z
-x,-y,z
-x,y,z
x,-y,z
1/2+x,1/2+y,1/2+z
1/2-x,1/2-y,1/2+z
1/2-x,1/2+y,1/2+z
1/2+x,1/2-y,1/2+z
loop_
_atom_site_type_symbol
_atom_site_label
_atom_site_fract_x
_atom_site_fract_y
_atom_site_fract_z
Si Si1 0.164629 0.397622 0.560300
Si Si2 0.161410 0.100550 0.695594
Si Si3 0.160555 0.157194 0.318287
Si Si4 0.839790 0.899646 0.941660
Si Si5 0.163393 0.899171 0.453309
Si Si6 0.663704 0.899076 0.199294
Si Si7 0.836433 0.397363 0.074628
Si Si8 0.661708 0.143151 0.819092
O O1 0.166373 0.500000 0.559483
O O2 0.262273 0.366987 0.503951
O O3 0.212052 0.371596 0.629931
O O4 0.000000 0.373326 0.551297
O O5 0.246276 0.131132 0.634668
O O6 0.249752 0.118267 0.757987
O O7 0.000000 0.133243 0.698754
O O8 0.152114 0.000000 0.689738
O O9 0.218760 0.126218 0.384983
O O10 0.247248 0.131764 0.257594
O O11 0.154630 0.256837 0.320583
O O12 0.000000 0.123123 0.313382
O O13 0.744232 0.884202 0.881081
O O14 0.000000 0.866900 0.934171
O O15 0.849542 0.000000 0.948608
O O16 0.259440 0.870209 0.510857
O O17 0.000000 0.868893 0.459473
O O18 0.159460 0.000000 0.455851
O O19 0.500000 0.873166 0.206039
O O20 0.667324 0.000000 0.199605
O O21 0.836101 0.500000 0.075063
O O22 0.000000 0.370912 0.078007
O O23 0.500000 0.110301 0.817145
#
# Coordination Sequence:
#
# PCOD9374721 Si02
#       8
#     8   8   8   8   8   8   8   8
#     4   8  15  30  52  78 106 133 164 206 255 305
#     4  10  20  35  56  80 104 132 169 212 258 310
#     4  10  22  37  52  74 105 141 179 216 255 303
#     4  10  20  34  54  80 105 131 169 214 259 309
#     4   9  17  32  54  77 102 134 171 210 253 301
#     4   9  18  33  55  82 108 136 173 214 256 305
#     4   9  17  30  51  80 108 131 162 208 258 305
#     4  11  23  37  52  73 104 140 177 215 256 305
#
# _framework density 19.864650999999999
#
# number of rings (size 3 to 8) (size 9 to 14) (size 15 to 20)
#    0.000    2.500    0.000    3.000    0.000    7.250 
#    0.000    3.750    0.000    1.500    0.000    0.000 
#    0.000    0.000    0.000    0.000    0.000    0.000 
#
# Total GULP energy -178597.099805 kJ/mol
# GULP energy per Si atom -5581.159369 kJ/mol
# Density = 1.981944 g / cm^3
# Si number density = 19.864651 Si / 1000 Ang^3
#
#
#
# Elastic Constant Matrix: (Units=GPa)
#
#
# Indices 1 2 3 4 5 6 
#
# 1 155.9257 11.3621 125.6836 0.0000 0.0000 0.0000
# 2 11.3621 10.0704 10.0790 0.0000 0.0000 0.0000
# 3 125.6836 10.0790 222.0233 0.0000 0.0000 0.0000
# 4 0.0000 0.0000 0.0000 -50.8802 0.0000 0.0000
# 5 0.0000 0.0000 0.0000 0.0000 42.1678 0.0000
# 6 0.0000 0.0000 0.0000 0.0000 0.0000 13.5849
#
#
#
# Elastic Compliance Matrix: (Units=1/GPa)
#
#
# Indices 1 2 3 4 5 6 
#
# 1 0.012277 -0.007225 -0.006622 0.000000 0.000000 0.000000
# 2 -0.007225 0.108279 -0.000826 0.000000 0.000000 0.000000
# 3 -0.006622 -0.000826 0.008290 0.000000 0.000000 0.000000
# 4 0.000000 0.000000 0.000000 -0.019654 0.000000 0.000000
# 5 0.000000 0.000000 0.000000 0.000000 0.023715 0.000000
# 6 0.000000 0.000000 0.000000 0.000000 0.000000 0.073611
#
#
# Mechanical properties :
#
#
# Convention : Reuss Voigt Hill
#
# Bulk Modulus (GPa) = 10.05008 75.80764 42.92886
# Shear Modulus (GPa) = 18.58526 17.03416 17.80971
#
# Velocity S-wave (km/s) = 3.06207 2.93151 2.99750
# Velocity P-wave (km/s) = 4.19189 7.05005 5.79979
#
# Compressibility (1/GPa) = 0.09950167
#
# Stress axis : x y z
#
# Youngs Moduli (GPa) = 81.44986 9.23542 120.62465
#
# Poissons Ratio (x) = 0.06672 0.79879
# Poissons Ratio (y) = 0.58844 0.09961
# Poissons Ratio (z) = 0.53937 0.00763
#
# Static dielectric constant tensor:
#      x y z
#    x 1.699370 0.000000 0.000000 
#    y 0.000000 1.702640 0.000000 
#    z 0.000000 0.000000 1.677080 
# 
# From -- ./inp_files/23319.got.cif
#   From: 2010.05.17/outbox.cif.g08.bks.cpg/sg44_12_cif.got.tgz:23319.got - 2010.06.03 19:37:08.
