data_PCOD9374698
_publ_section_title
;
Structure prediction by ZEFSAII (Michael W. Deem and Ramdas Pophale) SiO2 
 PCOD9374698
Probable space group: I M M 2
;
_chemical_formula_sum "Si O2"
_cell_formula_units_Z 56
_cell_length_a 9.645639
_cell_length_b 15.710967
_cell_length_c 18.514608
_cell_angle_alpha 90.000000
_cell_angle_beta 90.000000
_cell_angle_gamma 90.000000
_cell_volume 2805.746577
_symmetry_space_group_name_H-M "I M M 2"
_symmetry_group_IT_number 44
_symmetry_cell_setting 'orthorhombic'
loop_
_space_group_symop_operation_xyz
x,y,z
-x,-y,z
-x,y,z
x,-y,z
1/2+x,1/2+y,1/2+z
1/2-x,1/2-y,1/2+z
1/2-x,1/2+y,1/2+z
1/2+x,1/2-y,1/2+z
loop_
_atom_site_type_symbol
_atom_site_label
_atom_site_fract_x
_atom_site_fract_y
_atom_site_fract_z
Si Si1 0.156895 0.399519 0.307250
Si Si2 0.341667 0.652676 0.699681
Si Si3 0.658034 0.152878 0.650297
Si Si4 0.667803 0.401350 0.856410
Si Si5 0.344863 0.099746 0.072492
Si Si6 0.340783 0.604652 0.440124
Si Si7 0.660620 0.396635 0.014146
O O1 0.144372 0.500000 0.321169
O O2 0.207388 0.389007 0.225333
O O3 0.260599 0.366561 0.368077
O O4 0.000000 0.362141 0.312213
O O5 0.500000 0.617687 0.694465
O O6 0.344966 0.747862 0.669557
O O7 0.298504 0.648805 0.783492
O O8 0.233508 0.606129 0.648332
O O9 0.500000 0.123105 0.637332
O O10 0.750843 0.134510 0.581428
O O11 0.500000 0.401849 0.861824
O O12 0.711445 0.500000 0.846485
O O13 0.715445 0.369257 0.934877
O O14 0.500000 0.137072 0.073738
O O15 0.358806 0.000000 0.055519
O O16 0.246600 0.135115 0.009359
O O17 0.500000 0.632690 0.442972
O O18 0.343860 0.500000 0.440637
O O19 0.500000 0.370277 0.022243
O O20 0.662866 0.500000 0.013087
#
# Coordination Sequence:
#
# PCOD9374698 Si02
#       7
#     8   8   8   8   8   8   8
#     4   9  17  31  50  71 101 141 180 218 259 305
#     4  10  20  35  54  77 108 142 178 218 266 326
#     4  10  21  35  51  77 113 146 177 216 268 328
#     4   8  15  31  56  81 102 132 179 230 273 315
#     4  10  20  34  53  77 105 137 175 219 266 316
#     4   9  17  30  50  76 102 130 169 213 256 304
#     4   9  18  34  57  82 106 137 184 235 276 321
#
# _framework density 19.959036999999999
#
# number of rings (size 3 to 8) (size 9 to 14) (size 15 to 20)
#    0.000    2.714    0.000    2.571    0.000    5.143 
#    2.571    2.143    0.000    0.857    0.000    0.000 
#    0.000    0.000    0.000    0.000    0.000    0.000 
#
# Total GULP energy -156134.962179 kJ/mol
# GULP energy per Si atom -5576.248649 kJ/mol
# Density = 1.991361 g / cm^3
# Si number density = 19.959037 Si / 1000 Ang^3
#
#
#
# Elastic Constant Matrix: (Units=GPa)
#
#
# Indices 1 2 3 4 5 6 
#
# 1 111.8528 10.4435 104.6944 0.0000 0.0000 0.0000
# 2 10.4435 13.4254 12.8994 0.0000 0.0000 0.0000
# 3 104.6944 12.8994 213.4324 0.0000 0.0000 0.0000
# 4 0.0000 0.0000 0.0000 20.0011 0.0000 0.0000
# 5 0.0000 0.0000 0.0000 0.0000 19.4716 0.0000
# 6 0.0000 0.0000 0.0000 0.0000 0.0000 6.5141
#
#
#
# Elastic Compliance Matrix: (Units=1/GPa)
#
#
# Indices 1 2 3 4 5 6 
#
# 1 0.016904 -0.005502 -0.007959 0.000000 0.000000 0.000000
# 2 -0.005502 0.080868 -0.002189 0.000000 0.000000 0.000000
# 3 -0.007959 -0.002189 0.008722 0.000000 0.000000 0.000000
# 4 0.000000 0.000000 0.000000 0.049997 0.000000 0.000000
# 5 0.000000 0.000000 0.000000 0.000000 0.051357 0.000000
# 6 0.000000 0.000000 0.000000 0.000000 0.000000 0.153514
#
#
# Mechanical properties :
#
#
# Convention : Reuss Voigt Hill
#
# Bulk Modulus (GPa) = 13.29890 66.08725 39.69307
# Shear Modulus (GPa) = 11.96956 23.24225 17.60590
#
# Velocity S-wave (km/s) = 2.45155 3.41618 2.97324
# Velocity P-wave (km/s) = 3.83288 6.98167 5.63181
#
# Compressibility (1/GPa) = 0.07519420
#
# Stress axis : x y z
#
# Youngs Moduli (GPa) = 59.15771 12.36580 114.65435
#
# Poissons Ratio (x) = 0.06804 0.91257
# Poissons Ratio (y) = 0.32548 0.25094
# Poissons Ratio (z) = 0.47086 0.02706
#
# Static dielectric constant tensor:
#      x y z
#    x 1.698150 0.000000 0.000000 
#    y 0.000000 1.716530 0.000000 
#    z 0.000000 0.000000 1.700870 
# 
# From -- ./inp_files/20653.got.cif
#   From: 2010.05.17/outbox.cif.g08.bks.cpg/sg44_11_cif.got.tgz:20653.got - 2010.06.03 19:37:08.
