data_PCOD9374327
_publ_section_title
;
Structure prediction by ZEFSAII (Michael W. Deem and Ramdas Pophale) SiO2 
 PCOD9374327
Probable space group: I M M 2
;
_chemical_formula_sum "Si O2"
_cell_formula_units_Z 40
_cell_length_a 8.892258
_cell_length_b 9.880297
_cell_length_c 26.241501
_cell_angle_alpha 90.000000
_cell_angle_beta 90.000000
_cell_angle_gamma 90.000000
_cell_volume 2305.529732
_symmetry_space_group_name_H-M "I M M 2"
_symmetry_group_IT_number 44
_symmetry_cell_setting 'orthorhombic'
loop_
_space_group_symop_operation_xyz
x,y,z
-x,-y,z
-x,y,z
x,-y,z
1/2+x,1/2+y,1/2+z
1/2-x,1/2-y,1/2+z
1/2-x,1/2+y,1/2+z
1/2+x,1/2-y,1/2+z
loop_
_atom_site_type_symbol
_atom_site_label
_atom_site_fract_x
_atom_site_fract_y
_atom_site_fract_z
Si Si1 0.818541 0.000000 0.934820
Si Si2 0.822280 0.000000 0.663026
Si Si3 0.179222 0.500000 0.830118
Si Si4 0.822504 0.500000 0.273328
Si Si5 0.820874 0.000000 0.219208
Si Si6 0.682851 0.500000 0.552598
Si Si7 0.320031 0.782083 0.860374
Si Si8 0.680347 0.721090 0.633397
O O1 0.752903 0.869878 0.905466
O O2 0.772102 0.000000 0.993965
O O3 0.000000 0.000000 0.931585
O O4 0.756822 0.865064 0.637711
O O5 0.770388 0.000000 0.721924
O O6 0.000000 0.000000 0.659989
O O7 0.228632 0.500000 0.770885
O O8 0.248666 0.635029 0.854735
O O9 0.000000 0.500000 0.834684
O O10 0.792564 0.369439 0.308762
O O11 0.000000 0.500000 0.260293
O O12 0.789677 0.869805 0.183716
O O13 0.000000 0.000000 0.231205
O O14 0.500000 0.500000 0.553900
O O15 0.729893 0.631374 0.585038
O O16 0.500000 0.774560 0.866872
O O17 0.500000 0.737824 0.630853
#
# Coordination Sequence:
#
# PCOD9374327 Si02
#       8
#     4   4   4   4   4   4   8   8
#     4  10  19  36  61  85 105 126 167 224 272 311
#     4  12  23  31  45  77 114 140 168 213 262 299
#     4  12  23  33  50  79 112 142 174 219 268 303
#     4   9  19  35  54  73  99 143 186 210 241 305
#     4   9  18  33  54  77 103 139 180 214 249 307
#     4   8  17  36  62  83  97 126 173 218 258 309
#     4  10  21  37  55  77 106 142 181 213 254 317
#     4   9  18  35  56  76 101 138 179 210 247 308
#
# _framework density 17.349592000000001
#
# number of rings (size 3 to 8) (size 9 to 14) (size 15 to 20)
#    0.000    2.200    0.000    5.700    0.000    8.000 
#    0.000    4.500    0.000    2.400    0.000    0.000 
#    0.000    0.000    0.000    0.000    0.000    0.000 
#
# Total GULP energy -111681.848125 kJ/mol
# GULP energy per Si atom -5584.092406 kJ/mol
# Density = 1.731010 g / cm^3
# Si number density = 17.349592 Si / 1000 Ang^3
#
#
#
# Elastic Constant Matrix: (Units=GPa)
#
#
# Indices 1 2 3 4 5 6 
#
# 1 73.3998 80.6092 64.3960 0.0000 0.0000 0.0000
# 2 80.6092 195.1453 86.1914 0.0000 0.0000 0.0000
# 3 64.3960 86.1914 134.8068 0.0000 0.0000 0.0000
# 4 0.0000 0.0000 0.0000 -4.0940 0.0000 0.0000
# 5 0.0000 0.0000 0.0000 0.0000 23.0657 0.0000
# 6 0.0000 0.0000 0.0000 0.0000 0.0000 18.9349
#
#
#
# Elastic Compliance Matrix: (Units=1/GPa)
#
#
# Indices 1 2 3 4 5 6 
#
# 1 0.031713 -0.008931 -0.009439 0.000000 0.000000 0.000000
# 2 -0.008931 0.009656 -0.001908 0.000000 0.000000 0.000000
# 3 -0.009439 -0.001908 0.013147 0.000000 0.000000 0.000000
# 4 0.000000 0.000000 0.000000 -0.244258 0.000000 0.000000
# 5 0.000000 0.000000 0.000000 0.000000 0.043354 0.000000
# 6 0.000000 0.000000 0.000000 0.000000 0.000000 0.052813
#
#
# Mechanical properties :
#
#
# Convention : Reuss Voigt Hill
#
# Bulk Modulus (GPa) = 71.62832 96.19390 83.91111
# Shear Modulus (GPa) = -103.37641 19.05833 -42.15904
#
# Velocity S-wave (km/s) = -7.72746 3.31794 -4.93482
# Velocity P-wave (km/s) = 6.18412 8.38112 3.99999
#
# Compressibility (1/GPa) = 0.01396096
#
# Stress axis : x y z
#
# Youngs Moduli (GPa) = 31.53261 103.56227 76.06545
#
# Poissons Ratio (x) = 0.92490 0.71798
# Poissons Ratio (y) = 0.28161 0.14510
# Poissons Ratio (z) = 0.29764 0.19755
#
# Static dielectric constant tensor:
#      x y z
#    x 1.574350 0.000000 0.000000 
#    y 0.000000 1.579800 0.000000 
#    z 0.000000 0.000000 1.571140 
# 
# From -- ./inp_files/26003.got.cif
#   From: 2010.05.17/outbox.cif.g08.bks.cpg/sg44_14_cif.got.tgz:26003.got - 2010.06.03 19:37:08.
