data_PCOD9374045
_publ_section_title
;
Structure prediction by ZEFSAII (Michael W. Deem and Ramdas Pophale) SiO2 
 PCOD9374045
Probable space group: I M M 2
;
_chemical_formula_sum "Si O2"
_cell_formula_units_Z 64
_cell_length_a 7.711339
_cell_length_b 29.247910
_cell_length_c 12.910542
_cell_angle_alpha 90.000000
_cell_angle_beta 90.000000
_cell_angle_gamma 90.000000
_cell_volume 2911.850731
_symmetry_space_group_name_H-M "I M M 2"
_symmetry_group_IT_number 44
_symmetry_cell_setting 'orthorhombic'
loop_
_space_group_symop_operation_xyz
x,y,z
-x,-y,z
-x,y,z
x,-y,z
1/2+x,1/2+y,1/2+z
1/2-x,1/2-y,1/2+z
1/2-x,1/2+y,1/2+z
1/2+x,1/2-y,1/2+z
loop_
_atom_site_type_symbol
_atom_site_label
_atom_site_fract_x
_atom_site_fract_y
_atom_site_fract_z
Si Si1 0.203353 0.666104 0.724460
Si Si2 0.798937 0.548837 0.897646
Si Si3 0.696431 0.433166 0.670641
Si Si4 0.289307 0.306326 0.508301
Si Si5 0.198510 0.876901 0.553715
Si Si6 0.711884 0.590782 0.451141
Si Si7 0.787612 0.052349 0.727399
Si Si8 0.795191 0.290230 0.933598
O O1 0.303460 0.621006 0.690952
O O2 0.221902 0.698029 0.625364
O O3 0.275259 0.687605 0.828675
O O4 0.000000 0.653508 0.739383
O O5 0.726768 0.500000 0.934642
O O6 0.788225 0.549095 0.773325
O O7 0.000000 0.551952 0.926801
O O8 0.708337 0.591599 0.950660
O O9 0.500000 0.450232 0.671247
O O10 0.770429 0.436585 0.554477
O O11 0.500000 0.306613 0.509495
O O12 0.234730 0.355779 0.462354
O O13 0.226890 0.260563 0.452022
O O14 0.272728 0.909881 0.643646
O O15 0.275329 0.827657 0.524604
O O16 0.000000 0.868127 0.581539
O O17 0.500000 0.590133 0.454936
O O18 0.763425 0.568351 0.342836
O O19 0.000000 0.052091 0.723508
O O20 0.731566 0.000000 0.706693
O O21 0.000000 0.284786 0.916040
#
# Coordination Sequence:
#
# PCOD9374045 Si02
#       8
#     8   8   8   8   8   8   8   8
#     4  10  19  33  54  78 109 147 183 227 283 340
#     4  11  23  37  54  78 111 148 183 227 287 346
#     4  10  19  33  56  83 109 141 182 229 279 336
#     4   9  19  35  54  79 110 148 192 237 285 339
#     4  11  22  35  56  83 111 145 192 242 283 342
#     4   8  16  32  54  79 111 147 183 227 284 339
#     4   9  18  33  54  82 115 148 184 234 291 343
#     4  10  21  36  55  78 110 151 190 235 293 348
#
# _framework density 21.979149
#
# number of rings (size 3 to 8) (size 9 to 14) (size 15 to 20)
#    0.000    2.250    1.250    2.625    0.000    4.000 
#    0.000    3.750    0.000    9.000    0.000    1.750 
#    0.000    0.000    0.000    0.000    0.000    0.000 
#
# Total GULP energy -178538.304162 kJ/mol
# GULP energy per Si atom -5579.322005 kJ/mol
# Density = 2.192912 g / cm^3
# Si number density = 21.979149 Si / 1000 Ang^3
#
#
#
# Elastic Constant Matrix: (Units=GPa)
#
#
# Indices 1 2 3 4 5 6 
#
# 1 41.1135 0.3813 -5.9073 -0.0001 0.0000 0.0001
# 2 0.3813 79.1822 22.0721 -0.0016 0.0000 -0.0013
# 3 -5.9073 22.0721 109.3326 0.0010 0.0002 0.0022
# 4 -0.0001 -0.0016 0.0010 -31.1785 -0.0003 -0.0079
# 5 0.0000 0.0000 0.0002 -0.0003 -0.6258 -0.0005
# 6 0.0001 -0.0013 0.0022 -0.0079 -0.0005 122.5923
#
#
#
# Elastic Compliance Matrix: (Units=1/GPa)
#
#
# Indices 1 2 3 4 5 6 
#
# 1 0.024533 -0.000517 0.001430 0.000000 0.000001 0.000000
# 2 -0.000517 0.013393 -0.002732 -0.000001 -0.000001 0.000000
# 3 0.001430 -0.002732 0.009775 0.000000 0.000004 0.000000
# 4 0.000000 -0.000001 0.000000 -0.032073 0.000017 -0.000002
# 5 0.000001 -0.000001 0.000004 0.000017 -1.598013 -0.000006
# 6 0.000000 0.000000 0.000000 -0.000002 -0.000006 0.008157
#
#
# Mechanical properties :
#
#
# Convention : Reuss Voigt Hill
#
# Bulk Modulus (GPa) = 22.69417 29.19118 25.94267
# Shear Modulus (GPa) = -3.21357 32.36309 14.57476
#
# Velocity S-wave (km/s) = -1.21048 3.84141 2.57790
# Velocity P-wave (km/s) = 2.89725 5.74329 4.54859
#
# Compressibility (1/GPa) = 0.04406417
#
# Stress axis : x y z
#
# Youngs Moduli (GPa) = 40.76119 74.66552 102.30038
#
# Poissons Ratio (x) = 0.03858 -0.14627
# Poissons Ratio (y) = 0.02106 0.27946
# Poissons Ratio (z) = -0.05828 0.20396
#
# Static dielectric constant tensor:
#      x y z
#    x 1.816070 0.000000 0.000000 
#    y 0.000000 1.858720 0.000000 
#    z 0.000000 0.000000 1.820720 
# 
# From -- ./inp_files/11540.got.cif
#   From: 2010.05.17/outbox.cif.g08.bks.cpg/sg44_6_cif.got.tgz:11540.got - 2010.06.03 19:37:08.
