data_PCOD9374345
_publ_section_title
;
Structure prediction by ZEFSAII (Michael W. Deem and Ramdas Pophale) SiO2 
 PCOD9374345
Probable space group: I M M 2
;
_chemical_formula_sum "Si O2"
_cell_formula_units_Z 58
_cell_length_a 7.461873
_cell_length_b 26.864485
_cell_length_c 12.229765
_cell_angle_alpha 90.000000
_cell_angle_beta 90.000000
_cell_angle_gamma 90.000000
_cell_volume 2451.571052
_symmetry_space_group_name_H-M "I M M 2"
_symmetry_group_IT_number 44
_symmetry_cell_setting 'orthorhombic'
loop_
_space_group_symop_operation_xyz
x,y,z
-x,-y,z
-x,y,z
x,-y,z
1/2+x,1/2+y,1/2+z
1/2-x,1/2-y,1/2+z
1/2-x,1/2+y,1/2+z
1/2+x,1/2-y,1/2+z
loop_
_atom_site_type_symbol
_atom_site_label
_atom_site_fract_x
_atom_site_fract_y
_atom_site_fract_z
Si Si1 0.719887 0.215821 0.886130
Si Si2 0.292495 0.589479 0.981224
Si Si3 0.000000 0.500000 0.005618
Si Si4 0.716879 0.854886 0.697837
Si Si5 0.703646 0.554193 0.599383
Si Si6 0.714950 0.053412 0.848005
Si Si7 0.295742 0.677603 0.847239
Si Si8 0.797089 0.334130 0.609354
O O1 0.500000 0.215201 0.884092
O O2 0.775362 0.192349 0.769700
O O3 0.784587 0.272353 0.897985
O O4 0.774680 0.182739 0.990996
O O5 0.500000 0.572973 0.965389
O O6 0.223790 0.623482 0.879759
O O7 0.287122 0.629972 0.079963
O O8 0.157977 0.544245 0.004514
O O9 0.500000 0.853512 0.689739
O O10 0.770062 0.901340 0.774372
O O11 0.500000 0.557463 0.640857
O O12 0.778394 0.500000 0.634712
O O13 0.701745 0.553059 0.467392
O O14 0.796523 0.606157 0.621725
O O15 0.500000 0.057393 0.864728
O O16 0.750074 0.000000 0.793725
O O17 0.500000 0.675495 0.885540
O O18 0.296967 0.685456 0.717226
O O19 0.000000 0.315818 0.614333
#
# Coordination Sequence:
#
# PCOD9374345 Si02
#       8
#     8   8   2   8   8   8   8   8
#     4   9  20  40  66  99 136 183 230 289 359 418
#     4  11  26  46  73 105 143 190 242 301 371 429
#     4  12  26  52  80 102 146 192 246 312 358 456
#     4  10  19  36  64  96 139 187 231 286 350 424
#     4  10  20  35  54  83 125 168 212 267 330 391
#     4   9  17  29  52  82 122 169 212 263 326 390
#     4  10  24  46  67  96 139 178 228 295 354 419
#     4  11  22  40  67  95 126 171 227 275 337 420
#
# _framework density 23.658297999999998
#
# number of rings (size 3 to 8) (size 9 to 14) (size 15 to 20)
#    0.000    1.931    2.069    1.034    3.862    1.379 
#    1.241    1.379    0.000    0.000    0.000    0.000 
#    0.000    0.000    0.000    0.000    0.000    0.000 
#
# Total GULP energy -161611.821863 kJ/mol
# GULP energy per Si atom -5572.821444 kJ/mol
# Density = 2.360445 g / cm^3
# Si number density = 23.658298 Si / 1000 Ang^3
#
#
#
# Elastic Constant Matrix: (Units=GPa)
#
#
# Indices 1 2 3 4 5 6 
#
# 1 99.3679 24.9650 12.1155 0.0000 0.0000 0.0000
# 2 24.9650 105.9167 35.3414 0.0000 0.0000 0.0000
# 3 12.1155 35.3414 82.9643 0.0000 0.0000 -0.0001
# 4 0.0000 0.0000 0.0000 11.9449 0.0000 0.0000
# 5 0.0000 0.0000 0.0000 0.0000 21.3516 0.0000
# 6 0.0000 0.0000 -0.0001 0.0000 0.0000 -2.7602
#
#
#
# Elastic Compliance Matrix: (Units=1/GPa)
#
#
# Indices 1 2 3 4 5 6 
#
# 1 0.010720 -0.002337 -0.000570 0.000000 0.000000 0.000000
# 2 -0.002337 0.011515 -0.004564 0.000000 0.000000 0.000000
# 3 -0.000570 -0.004564 0.014081 0.000000 0.000000 -0.000001
# 4 0.000000 0.000000 0.000000 0.083718 0.000000 -0.000001
# 5 0.000000 0.000000 0.000000 0.000000 0.046835 0.000000
# 6 0.000000 0.000000 -0.000001 -0.000001 0.000000 -0.362290
#
#
# Mechanical properties :
#
#
# Convention : Reuss Voigt Hill
#
# Bulk Modulus (GPa) = 46.78452 48.12140 47.45296
# Shear Modulus (GPa) = -28.84251 20.49573 -4.17339
#
# Velocity S-wave (km/s) = -3.49539 2.94653 -1.32961
# Velocity P-wave (km/s) = 1.87822 5.65335 4.21237
#
# Compressibility (1/GPa) = 0.02137459
#
# Stress axis : x y z
#
# Youngs Moduli (GPa) = 93.28225 86.84341 71.01862
#
# Poissons Ratio (x) = 0.20291 0.04049
# Poissons Ratio (y) = 0.21796 0.32413
# Poissons Ratio (z) = 0.05319 0.39635
#
# Static dielectric constant tensor:
#      x y z
#    x 1.907270 0.000000 0.000000 
#    y 0.000000 1.918610 0.000000 
#    z 0.000000 0.000000 1.910100 
# 
# From -- ./inp_files/11307.got.cif
#   From: 2010.05.17/outbox.cif.g08.bks.cpg/sg44_6_cif.got.tgz:11307.got - 2010.06.03 19:37:08.
