data_PCOD9374091
_publ_section_title
;
Structure prediction by ZEFSAII (Michael W. Deem and Ramdas Pophale) SiO2 
 PCOD9374091
Probable space group: I M M 2
;
_chemical_formula_sum "Si O2"
_cell_formula_units_Z 64
_cell_length_a 8.699584
_cell_length_b 29.338079
_cell_length_c 12.850820
_cell_angle_alpha 90.000000
_cell_angle_beta 90.000000
_cell_angle_gamma 90.000000
_cell_volume 3279.903000
_symmetry_space_group_name_H-M "I M M 2"
_symmetry_group_IT_number 44
_symmetry_cell_setting 'orthorhombic'
loop_
_space_group_symop_operation_xyz
x,y,z
-x,-y,z
-x,y,z
x,-y,z
1/2+x,1/2+y,1/2+z
1/2-x,1/2-y,1/2+z
1/2-x,1/2+y,1/2+z
1/2+x,1/2-y,1/2+z
loop_
_atom_site_type_symbol
_atom_site_label
_atom_site_fract_x
_atom_site_fract_y
_atom_site_fract_z
Si Si1 0.814129 0.552641 0.259180
Si Si2 0.177008 0.334697 0.768947
Si Si3 0.684478 0.406723 0.047080
Si Si4 0.177146 0.308258 0.000159
Si Si5 0.316348 0.952037 0.108081
Si Si6 0.822022 0.927487 0.319301
Si Si7 0.812194 0.620821 0.443713
Si Si8 0.817114 0.288356 0.547017
O O1 0.765954 0.500000 0.280765
O O2 0.755384 0.568913 0.146913
O O3 0.764287 0.590783 0.344118
O O4 0.000000 0.552711 0.260304
O O5 0.297114 0.374733 0.788657
O O6 0.205833 0.308627 0.662495
O O7 0.000000 0.353417 0.762367
O O8 0.183929 0.305777 0.874355
O O9 0.500000 0.408722 0.051642
O O10 0.735125 0.353753 0.037627
O O11 0.733515 0.430735 0.938247
O O12 0.240316 0.260616 0.040172
O O13 0.000000 0.314422 0.030619
O O14 0.500000 0.950935 0.100959
O O15 0.269335 0.951353 0.227739
O O16 0.262944 0.000000 0.060332
O O17 0.260690 0.908716 0.043765
O O18 0.000000 0.940534 0.315157
O O19 0.762521 0.672923 0.464416
O O20 0.000000 0.622053 0.442776
O O21 0.000000 0.282612 0.531813
#
# Coordination Sequence:
#
# PCOD9374091 Si02
#       8
#     8   8   8   8   8   8   8   8
#     4  10  21  38  61  88 118 155 201 250 295 345
#     4   9  18  35  56  76 105 145 184 226 278 339
#     4  10  22  40  59  80 112 154 196 238 292 349
#     4  10  21  36  56  84 114 146 191 244 292 342
#     4  10  19  33  56  83 111 145 183 223 275 340
#     4  10  20  34  54  79 108 141 180 231 285 335
#     4   9  18  35  58  84 114 150 191 236 286 342
#     4  10  19  34  57  82 113 151 190 233 289 352
#
# _framework density 19.512771999999998
#
# number of rings (size 3 to 8) (size 9 to 14) (size 15 to 20)
#    0.000    2.250    1.250    1.500    0.000    6.000 
#    0.000    6.250    0.000    1.500    0.000    0.000 
#    0.000    0.000    0.000    0.000    0.000    0.000 
#
# Total GULP energy -178398.531216 kJ/mol
# GULP energy per Si atom -5574.954100 kJ/mol
# Density = 1.946836 g / cm^3
# Si number density = 19.512772 Si / 1000 Ang^3
#
#
#
# Elastic Constant Matrix: (Units=GPa)
#
#
# Indices 1 2 3 4 5 6 
#
# 1 6.7407 3.4529 7.3086 0.0000 0.0000 0.0000
# 2 3.4529 56.0046 12.2536 0.0000 0.0000 0.0000
# 3 7.3086 12.2536 78.8398 -0.0001 0.0000 0.0000
# 4 0.0000 0.0000 -0.0001 13.2190 0.0000 0.0000
# 5 0.0000 0.0000 0.0000 0.0000 17.7774 0.0000
# 6 0.0000 0.0000 0.0000 0.0000 0.0000 14.9940
#
#
#
# Elastic Compliance Matrix: (Units=1/GPa)
#
#
# Indices 1 2 3 4 5 6 
#
# 1 0.167674 -0.007181 -0.014428 0.000000 0.000000 0.000000
# 2 -0.007181 0.018792 -0.002255 0.000000 0.000000 0.000000
# 3 -0.014428 -0.002255 0.014372 0.000000 0.000000 0.000000
# 4 0.000000 0.000000 0.000000 0.075649 0.000000 0.000000
# 5 0.000000 0.000000 0.000000 0.000000 0.056251 0.000000
# 6 0.000000 0.000000 0.000000 0.000000 0.000000 0.066693
#
#
# Mechanical properties :
#
#
# Convention : Reuss Voigt Hill
#
# Bulk Modulus (GPa) = 6.53125 20.84616 13.68870
# Shear Modulus (GPa) = 10.03623 17.10276 13.56949
#
# Velocity S-wave (km/s) = 2.27037 2.96377 2.63993
# Velocity P-wave (km/s) = 3.19800 4.73481 4.04015
#
# Compressibility (1/GPa) = 0.15311011
#
# Stress axis : x y z
#
# Youngs Moduli (GPa) = 5.96395 53.21467 69.58021
#
# Poissons Ratio (x) = 0.38214 1.00388
# Poissons Ratio (y) = 0.04283 0.15690
# Poissons Ratio (z) = 0.08605 0.12000
#
# Static dielectric constant tensor:
#      x y z
#    x 1.676180 0.000000 0.000000 
#    y 0.000000 1.702960 0.000000 
#    z 0.000000 0.000000 1.689620 
# 
# From -- ./inp_files/11535.got.cif
#   From: 2010.05.17/outbox.cif.g08.bks.cpg/sg44_6_cif.got.tgz:11535.got - 2010.06.03 19:37:08.
