data_PCOD9374567
_publ_section_title
;
Structure prediction by ZEFSAII (Michael W. Deem and Ramdas Pophale) SiO2 
 PCOD9374567
Probable space group: I M M 2
;
_chemical_formula_sum "Si O2"
_cell_formula_units_Z 48
_cell_length_a 9.043065
_cell_length_b 9.533463
_cell_length_c 32.127554
_cell_angle_alpha 90.000000
_cell_angle_beta 90.000000
_cell_angle_gamma 90.000000
_cell_volume 2769.771869
_symmetry_space_group_name_H-M "I M M 2"
_symmetry_group_IT_number 44
_symmetry_cell_setting 'orthorhombic'
loop_
_space_group_symop_operation_xyz
x,y,z
-x,-y,z
-x,y,z
x,-y,z
1/2+x,1/2+y,1/2+z
1/2-x,1/2-y,1/2+z
1/2-x,1/2+y,1/2+z
1/2+x,1/2-y,1/2+z
loop_
_atom_site_type_symbol
_atom_site_label
_atom_site_fract_x
_atom_site_fract_y
_atom_site_fract_z
Si Si1 0.829358 0.829407 0.413760
Si Si2 0.324121 0.834128 0.753934
Si Si3 0.680492 0.161315 0.085507
Si Si4 0.822512 0.835131 0.666609
Si Si5 0.680528 0.662251 0.005614
Si Si6 0.674904 0.167277 0.328712
O O1 0.774024 0.786466 0.459592
O O2 0.735771 0.786509 0.373815
O O3 0.000000 0.784641 0.408469
O O4 0.829489 0.000000 0.415078
O O5 0.500000 0.815455 0.752833
O O6 0.254163 0.792430 0.709616
O O7 0.255174 0.747714 0.791643
O O8 0.292360 0.000000 0.759564
O O9 0.500000 0.162932 0.085074
O O10 0.725397 0.243904 0.127078
O O11 0.729054 0.242367 0.043930
O O12 0.728008 0.000000 0.085962
O O13 0.000000 0.821321 0.671242
O O14 0.790900 0.000000 0.659011
O O15 0.500000 0.662019 0.004881
O O16 0.725962 0.500000 0.011583
O O17 0.500000 0.190085 0.326334
O O18 0.702950 0.000000 0.325044
#
# Coordination Sequence:
#
# PCOD9374567 Si02
#       6
#     8   8   8   8   8   8
#     4   8  14  26  45  68  94 125 161 199 236 277
#     4  10  21  36  53  73  97 126 162 203 246 293
#     4   9  16  25  40  66  97 123 151 193 239 279
#     4   9  17  30  48  68  92 124 159 194 235 285
#     4   8  13  23  41  63  87 120 161 198 233 276
#     4  10  20  33  51  75 101 129 162 200 243 292
#
# _framework density 17.329948000000002
#
# number of rings (size 3 to 8) (size 9 to 14) (size 15 to 20)
#    0.000    3.000    0.000    2.500    0.000    4.667 
#    0.000    2.500    0.000    4.000    0.000    4.667 
#    0.000    0.000    0.000    0.000    0.000    0.000 
#
# Total GULP energy -133748.701667 kJ/mol
# GULP energy per Si atom -5572.862569 kJ/mol
# Density = 1.729050 g / cm^3
# Si number density = 17.329948 Si / 1000 Ang^3
#
#
#
# Elastic Constant Matrix: (Units=GPa)
#
#
# Indices 1 2 3 4 5 6 
#
# 1 25.1912 31.5801 53.9545 0.0000 0.0000 0.0000
# 2 31.5801 65.1975 88.8458 0.0000 0.0000 0.0000
# 3 53.9545 88.8458 213.4692 0.0000 0.0000 0.0000
# 4 0.0000 0.0000 0.0000 30.5858 0.0000 0.0000
# 5 0.0000 0.0000 0.0000 0.0000 24.0657 0.0000
# 6 0.0000 0.0000 0.0000 0.0000 0.0000 13.9744
#
#
#
# Elastic Compliance Matrix: (Units=1/GPa)
#
#
# Indices 1 2 3 4 5 6 
#
# 1 0.116225 -0.037579 -0.013736 0.000000 0.000000 0.000000
# 2 -0.037579 0.047586 -0.010307 0.000000 0.000000 0.000000
# 3 -0.013736 -0.010307 0.012446 0.000000 0.000000 0.000000
# 4 0.000000 0.000000 0.000000 0.032695 0.000000 0.000000
# 5 0.000000 0.000000 0.000000 0.000000 0.041553 0.000000
# 6 0.000000 0.000000 0.000000 0.000000 0.000000 0.071560
#
#
# Mechanical properties :
#
#
# Convention : Reuss Voigt Hill
#
# Bulk Modulus (GPa) = 18.86299 72.51318 45.68809
# Shear Modulus (GPa) = 10.79961 22.35702 16.57832
#
# Velocity S-wave (km/s) = 2.49906 3.59566 3.09630
# Velocity P-wave (km/s) = 4.38581 7.69233 6.26128
#
# Compressibility (1/GPa) = 0.05301385
#
# Stress axis : x y z
#
# Youngs Moduli (GPa) = 8.60400 21.01450 80.34639
#
# Poissons Ratio (x) = 0.78970 1.10361
# Poissons Ratio (y) = 0.32333 0.82815
# Poissons Ratio (z) = 0.11818 0.21660
#
# Static dielectric constant tensor:
#      x y z
#    x 1.579930 0.000000 0.000000 
#    y 0.000000 1.579760 0.000000 
#    z 0.000000 0.000000 1.585280 
# 
# From -- ./inp_files/26867.got.cif
#   From: 2010.05.17/outbox.cif.g08.bks.cpg/sg44_14_cif.got.tgz:26867.got - 2010.06.03 19:37:08.
