data_PCOD9374069
_publ_section_title
;
Structure prediction by ZEFSAII (Michael W. Deem and Ramdas Pophale) SiO2 
 PCOD9374069
Probable space group: I M M 2
;
_chemical_formula_sum "Si O2"
_cell_formula_units_Z 64
_cell_length_a 20.034820
_cell_length_b 8.928440
_cell_length_c 21.263980
_cell_angle_alpha 90.000000
_cell_angle_beta 90.000000
_cell_angle_gamma 90.000000
_cell_volume 3803.694114
_symmetry_space_group_name_H-M "I M M 2"
_symmetry_group_IT_number 44
_symmetry_cell_setting 'orthorhombic'
loop_
_space_group_symop_operation_xyz
x,y,z
-x,-y,z
-x,y,z
x,-y,z
1/2+x,1/2+y,1/2+z
1/2-x,1/2-y,1/2+z
1/2-x,1/2+y,1/2+z
1/2+x,1/2-y,1/2+z
loop_
_atom_site_type_symbol
_atom_site_label
_atom_site_fract_x
_atom_site_fract_y
_atom_site_fract_z
Si Si1 0.924031 0.320870 0.594010
Si Si2 0.707632 0.321256 0.143663
Si Si3 0.925008 0.679116 0.833580
Si Si4 0.796175 0.319658 0.402451
Si Si5 0.713000 0.320433 0.528947
Si Si6 0.076235 0.822195 0.455677
Si Si7 0.924958 0.820888 0.971559
Si Si8 0.707221 0.679949 0.283728
O O1 0.915860 0.500000 0.593864
O O2 0.866283 0.245807 0.634371
O O3 0.916191 0.259711 0.522929
O O4 0.000000 0.286123 0.614334
O O5 0.704351 0.500000 0.137913
O O6 0.753584 0.256688 0.088512
O O7 0.731973 0.282543 0.213845
O O8 0.920246 0.500000 0.832454
O O9 0.865387 0.749934 0.794412
O O10 0.000000 0.721653 0.812380
O O11 0.917676 0.737860 0.905073
O O12 0.803981 0.500000 0.401064
O O13 0.753188 0.282759 0.464936
O O14 0.867582 0.242482 0.410140
O O15 0.755804 0.272531 0.340369
O O16 0.717520 0.500000 0.536890
O O17 0.635838 0.279313 0.516904
O O18 0.000000 0.796299 0.434245
O O19 0.085311 0.000000 0.464718
O O20 0.000000 0.791845 0.995584
O O21 0.919072 0.000000 0.959568
O O22 0.700890 0.500000 0.288099
#
# Coordination Sequence:
#
# PCOD9374069 Si02
#       8
#     8   8   8   8   8   8   8   8
#     4  10  20  34  52  74 104 142 178 211 252 305
#     4  11  23  36  53  76 105 140 176 216 261 307
#     4  10  20  32  49  77 109 139 173 213 257 304
#     4  10  19  34  56  79 103 135 177 217 256 306
#     4  10  19  33  55  80 105 135 174 218 259 305
#     4  10  20  33  52  80 109 134 168 215 263 309
#     4   9  17  32  55  79 104 137 175 213 255 305
#     4  10  22  39  54  73 103 141 181 215 253 309
#
# _framework density 16.825748000000001
#
# number of rings (size 3 to 8) (size 9 to 14) (size 15 to 20)
#    0.000    2.000    2.500    1.500    0.000    4.750 
#    0.000    2.500    0.000    0.750    0.000    3.500 
#    0.000    0.000    0.000    0.000    0.000    0.000 
#
# Total GULP energy -178580.549942 kJ/mol
# GULP energy per Si atom -5580.642186 kJ/mol
# Density = 1.678745 g / cm^3
# Si number density = 16.825748 Si / 1000 Ang^3
#
#
#
# Elastic Constant Matrix: (Units=GPa)
#
#
# Indices 1 2 3 4 5 6 
#
# 1 106.9922 37.3251 65.4126 0.0000 0.0000 0.0000
# 2 37.3251 27.6946 38.8676 0.0000 0.0000 0.0000
# 3 65.4126 38.8676 113.4379 0.0000 0.0000 0.0000
# 4 0.0000 0.0000 0.0000 21.0399 0.0000 0.0000
# 5 0.0000 0.0000 0.0000 0.0000 22.0680 0.0000
# 6 0.0000 0.0000 0.0000 0.0000 0.0000 25.1874
#
#
#
# Elastic Compliance Matrix: (Units=1/GPa)
#
#
# Indices 1 2 3 4 5 6 
#
# 1 0.018586 -0.019278 -0.004112 0.000000 0.000000 0.000000
# 2 -0.019278 0.089550 -0.019567 0.000000 0.000000 0.000000
# 3 -0.004112 -0.019567 0.017891 0.000000 0.000000 0.000000
# 4 0.000000 0.000000 0.000000 0.047529 0.000000 0.000000
# 5 0.000000 0.000000 0.000000 0.000000 0.045314 0.000000
# 6 0.000000 0.000000 0.000000 0.000000 0.000000 0.039702
#
#
# Mechanical properties :
#
#
# Convention : Reuss Voigt Hill
#
# Bulk Modulus (GPa) = 24.92910 59.03727 41.98318
# Shear Modulus (GPa) = 13.97211 20.76035 17.36623
#
# Velocity S-wave (km/s) = 2.88479 3.51642 3.21615
# Velocity P-wave (km/s) = 5.09355 7.18683 6.22876
#
# Compressibility (1/GPa) = 0.04011377
#
# Stress axis : x y z
#
# Youngs Moduli (GPa) = 53.80496 11.16695 55.89490
#
# Poissons Ratio (x) = 0.21527 0.22984
# Poissons Ratio (y) = 1.03723 1.09367
# Poissons Ratio (z) = 0.22125 0.21850
#
# Static dielectric constant tensor:
#      x y z
#    x 1.578470 0.000000 0.000000 
#    y 0.000000 1.561680 0.000000 
#    z 0.000000 0.000000 1.554950 
# 
# From -- ./inp_files/20743.got.cif
#   From: 2010.05.17/outbox.cif.g08.bks.cpg/sg44_11_cif.got.tgz:20743.got - 2010.06.03 19:37:08.
