data_PCOD9374497
_publ_section_title
;
Structure prediction by ZEFSAII (Michael W. Deem and Ramdas Pophale) SiO2 
 PCOD9374497
Probable space group: I M M 2
;
_chemical_formula_sum "Si O2"
_cell_formula_units_Z 34
_cell_length_a 7.497382
_cell_length_b 24.216049
_cell_length_c 6.989997
_cell_angle_alpha 90.000000
_cell_angle_beta 90.000000
_cell_angle_gamma 90.000000
_cell_volume 1269.082675
_symmetry_space_group_name_H-M "I M M 2"
_symmetry_group_IT_number 44
_symmetry_cell_setting 'orthorhombic'
loop_
_space_group_symop_operation_xyz
x,y,z
-x,-y,z
-x,y,z
x,-y,z
1/2+x,1/2+y,1/2+z
1/2-x,1/2-y,1/2+z
1/2-x,1/2+y,1/2+z
1/2+x,1/2-y,1/2+z
loop_
_atom_site_type_symbol
_atom_site_label
_atom_site_fract_x
_atom_site_fract_y
_atom_site_fract_z
Si Si1 0.000000 0.500000 0.402851
Si Si2 0.216928 0.203136 0.178784
Si Si3 0.289740 0.559577 0.986653
Si Si4 0.698825 0.824000 0.604888
Si Si5 0.714254 0.412074 0.539076
O O1 0.843616 0.451889 0.426204
O O2 0.297794 0.182767 0.375455
O O3 0.000000 0.204152 0.193166
O O4 0.287111 0.265545 0.158358
O O5 0.251635 0.154316 0.025789
O O6 0.500000 0.553324 0.990169
O O7 0.204544 0.500000 0.038385
O O8 0.261618 0.613204 0.118109
O O9 0.247121 0.571747 0.763522
O O10 0.500000 0.821850 0.680083
O O11 0.500000 0.420562 0.507935
#
# Coordination Sequence:
#
# PCOD9374497 Si02
#       5
#     2   8   8   8   8
#     4  12  18  24  48  78  92 138 176 204 256 324
#     4   9  20  36  48  74 108 137 166 215 265 303
#     4   9  17  29  44  69 102 132 160 210 266 300
#     4  10  20  32  53  77 101 134 176 210 256 313
#     4   9  18  30  44  68 109 132 161 216 264 302
#
# _framework density 26.791004000000001
#
# number of rings (size 3 to 8) (size 9 to 14) (size 15 to 20)
#    0.000    2.588    1.176    2.471    6.588    2.353 
#    0.000    0.000    0.000    0.000    3.059    0.000 
#    0.000    0.000    0.000    0.000    0.000    0.000 
#
# Total GULP energy -94715.185789 kJ/mol
# GULP energy per Si atom -5571.481517 kJ/mol
# Density = 2.673003 g / cm^3
# Si number density = 26.791004 Si / 1000 Ang^3
#
#
#
# Elastic Constant Matrix: (Units=GPa)
#
#
# Indices 1 2 3 4 5 6 
#
# 1 98.4259 68.5057 26.0115 0.0009 -0.0008 -0.0006
# 2 68.5057 302.2747 51.8556 0.0004 0.0003 0.0003
# 3 26.0115 51.8556 57.9643 -0.0046 0.0003 0.0000
# 4 0.0009 0.0004 -0.0046 44.5944 -0.0001 -0.0005
# 5 -0.0008 0.0003 0.0003 -0.0001 5.5710 0.0015
# 6 -0.0006 0.0003 0.0000 -0.0005 0.0015 40.8300
#
#
#
# Elastic Compliance Matrix: (Units=1/GPa)
#
#
# Indices 1 2 3 4 5 6 
#
# 1 0.012697 -0.002245 -0.003690 -0.000001 0.000002 0.000000
# 2 -0.002245 0.004305 -0.002844 0.000000 0.000000 0.000000
# 3 -0.003690 -0.002844 0.021452 0.000002 -0.000002 0.000000
# 4 -0.000001 0.000000 0.000002 0.022424 0.000001 0.000000
# 5 0.000002 0.000000 -0.000002 0.000001 0.179501 -0.000007
# 6 0.000000 0.000000 0.000000 0.000000 -0.000007 0.024492
#
#
# Mechanical properties :
#
#
# Convention : Reuss Voigt Hill
#
# Bulk Modulus (GPa) = 47.85278 83.49004 65.67141
# Shear Modulus (GPa) = 17.27750 39.01857 28.14803
#
# Velocity S-wave (km/s) = 2.54224 3.82043 3.24489
# Velocity P-wave (km/s) = 5.14953 7.11983 6.21328
#
# Compressibility (1/GPa) = 0.02089743
#
# Stress axis : x y z
#
# Youngs Moduli (GPa) = 78.75649 232.29714 46.61581
#
# Poissons Ratio (x) = 0.52143 0.17200
# Poissons Ratio (y) = 0.17678 0.13257
# Poissons Ratio (z) = 0.29060 0.66062
#
# Static dielectric constant tensor:
#      x y z
#    x 1.985670 0.000000 0.000000 
#    y 0.000000 2.320170 0.000000 
#    z 0.000000 0.000000 2.184430 
# 
# From -- ./inp_files/4379.got.cif
#   From: 2010.05.17/outbox.cif.g08.bks.cpg/sg44_3_cif.got.tgz:4379.got - 2010.06.03 19:37:08.
