data_PCOD9374752
_publ_section_title
;
Structure prediction by ZEFSAII (Michael W. Deem and Ramdas Pophale) SiO2 
 PCOD9374752
Probable space group: I M M 2
;
_chemical_formula_sum "Si O2"
_cell_formula_units_Z 48
_cell_length_a 17.230012
_cell_length_b 7.735854
_cell_length_c 17.592101
_cell_angle_alpha 90.000000
_cell_angle_beta 90.000000
_cell_angle_gamma 90.000000
_cell_volume 2344.831039
_symmetry_space_group_name_H-M "I M M 2"
_symmetry_group_IT_number 44
_symmetry_cell_setting 'orthorhombic'
loop_
_space_group_symop_operation_xyz
x,y,z
-x,-y,z
-x,y,z
x,-y,z
1/2+x,1/2+y,1/2+z
1/2-x,1/2-y,1/2+z
1/2-x,1/2+y,1/2+z
1/2+x,1/2-y,1/2+z
loop_
_atom_site_type_symbol
_atom_site_label
_atom_site_fract_x
_atom_site_fract_y
_atom_site_fract_z
Si Si1 0.861662 0.298618 0.195170
Si Si2 0.000000 0.293565 0.916036
Si Si3 0.151222 0.795399 0.819833
Si Si4 0.500000 0.212809 0.589568
Si Si5 0.322535 0.211583 0.860656
Si Si6 0.910745 0.288124 0.512505
Si Si7 0.690063 0.798972 0.154567
O O1 0.881729 0.500000 0.203956
O O2 0.924456 0.227903 0.136482
O O3 0.859407 0.226359 0.280945
O O4 0.774201 0.286314 0.163957
O O5 0.076812 0.239067 0.870846
O O6 0.000000 0.500000 0.918705
O O7 0.000000 0.227361 0.002557
O O8 0.231994 0.735947 0.858400
O O9 0.147299 0.716283 0.735645
O O10 0.158596 0.000000 0.808061
O O11 0.500000 0.000000 0.586545
O O12 0.324093 0.000000 0.860347
O O13 0.368260 0.267496 0.935193
O O14 0.911230 0.500000 0.513195
O O15 0.862172 0.230455 0.586002
O O16 0.000000 0.232115 0.515081
O O17 0.705446 0.000000 0.139200
#
# Coordination Sequence:
#
# PCOD9374752 Si02
#       7
#     8   4   8   4   8   8   8
#     4   9  18  35  57  80 109 146 187 227 272 331
#     4  11  23  37  55  82 113 144 186 233 283 335
#     4  10  21  38  58  80 108 144 186 229 278 335
#     4   9  20  35  55  84 113 146 186 231 283 337
#     4   8  16  31  53  78 105 138 179 222 265 320
#     4   9  18  30  49  80 110 137 175 225 271 314
#     4  10  20  34  55  81 111 146 183 227 279 331
#
# _framework density 20.470556999999999
#
# number of rings (size 3 to 8) (size 9 to 14) (size 15 to 20)
#    0.000    2.667    0.000    2.250    4.667    0.000 
#    0.000    1.250    0.000    1.000    0.000    0.000 
#    0.000    0.000    0.000    0.000    0.000    0.000 
#
# Total GULP energy -133949.627717 kJ/mol
# GULP energy per Si atom -5581.234488 kJ/mol
# Density = 2.042396 g / cm^3
# Si number density = 20.470557 Si / 1000 Ang^3
#
#
#
# Elastic Constant Matrix: (Units=GPa)
#
#
# Indices 1 2 3 4 5 6 
#
# 1 133.1956 -11.7517 129.4781 0.0000 0.0000 0.0000
# 2 -11.7517 28.3967 -9.6568 0.0000 0.0000 0.0000
# 3 129.4781 -9.6568 194.3416 0.0000 0.0000 0.0000
# 4 0.0000 0.0000 0.0000 11.7440 0.0000 0.0000
# 5 0.0000 0.0000 0.0000 0.0000 34.2274 0.0000
# 6 0.0000 0.0000 0.0000 0.0000 0.0000 16.2294
#
#
#
# Elastic Compliance Matrix: (Units=1/GPa)
#
#
# Indices 1 2 3 4 5 6 
#
# 1 0.021777 0.004148 -0.014303 0.000000 0.000000 0.000000
# 2 0.004148 0.036611 -0.000945 0.000000 0.000000 0.000000
# 3 -0.014303 -0.000945 0.014628 0.000000 0.000000 0.000000
# 4 0.000000 0.000000 0.000000 0.085150 0.000000 0.000000
# 5 0.000000 0.000000 0.000000 0.000000 0.029216 0.000000
# 6 0.000000 0.000000 0.000000 0.000000 0.000000 0.061616
#
#
# Mechanical properties :
#
#
# Convention : Reuss Voigt Hill
#
# Bulk Modulus (GPa) = 19.67809 63.56368 41.62089
# Shear Modulus (GPa) = 17.35291 28.96445 23.15868
#
# Velocity S-wave (km/s) = 2.91469 3.76564 3.36715
# Velocity P-wave (km/s) = 4.57831 7.07286 5.95762
#
# Compressibility (1/GPa) = 0.05081793
#
# Stress axis : x y z
#
# Youngs Moduli (GPa) = 45.91918 27.31427 68.36324
#
# Poissons Ratio (x) = -0.11331 0.97779
# Poissons Ratio (y) = -0.19049 0.06458
# Poissons Ratio (z) = 0.65677 0.02580
#
# Static dielectric constant tensor:
#      x y z
#    x 1.673630 0.000000 0.000000 
#    y 0.000000 1.770020 0.000000 
#    z 0.000000 0.000000 1.710010 
# 
# From -- ./inp_files/16214.got.cif
#   From: 2010.05.17/outbox.cif.g08.bks.cpg/sg44_9_cif.got.tgz:16214.got - 2010.06.03 19:37:08.
