data_PCOD9374963
_publ_section_title
;
Structure prediction by ZEFSAII (Michael W. Deem and Ramdas Pophale) SiO2 
 PCOD9374963
Probable space group: I M M 2
;
_chemical_formula_sum "Si O2"
_cell_formula_units_Z 64
_cell_length_a 8.012418
_cell_length_b 29.871750
_cell_length_c 13.330880
_cell_angle_alpha 90.000000
_cell_angle_beta 90.000000
_cell_angle_gamma 90.000000
_cell_volume 3190.678772
_symmetry_space_group_name_H-M "I M M 2"
_symmetry_group_IT_number 44
_symmetry_cell_setting 'orthorhombic'
loop_
_space_group_symop_operation_xyz
x,y,z
-x,-y,z
-x,y,z
x,-y,z
1/2+x,1/2+y,1/2+z
1/2-x,1/2-y,1/2+z
1/2-x,1/2+y,1/2+z
1/2+x,1/2-y,1/2+z
loop_
_atom_site_type_symbol
_atom_site_label
_atom_site_fract_x
_atom_site_fract_y
_atom_site_fract_z
Si Si1 0.696361 0.250050 0.770750
Si Si2 0.704223 0.121718 0.088959
Si Si3 0.200136 0.448886 0.423645
Si Si4 0.798607 0.291232 0.469456
Si Si5 0.302439 0.449197 0.204663
Si Si6 0.190401 0.207473 0.577330
Si Si7 0.192084 0.386180 0.026249
Si Si8 0.297258 0.147878 0.310766
O O1 0.500000 0.248657 0.745082
O O2 0.727843 0.210835 0.851717
O O3 0.807306 0.236165 0.677854
O O4 0.734555 0.300795 0.805006
O O5 0.500000 0.121535 0.087965
O O6 0.752988 0.123891 0.205985
O O7 0.760559 0.081411 0.016450
O O8 0.761877 0.167287 0.033745
O O9 0.265057 0.500000 0.428256
O O10 0.236590 0.430614 0.311535
O O11 0.000000 0.450612 0.432526
O O12 0.729954 0.243283 0.502653
O O13 0.000000 0.289139 0.484997
O O14 0.500000 0.451446 0.216345
O O15 0.234582 0.500000 0.194695
O O16 0.267931 0.421334 0.104179
O O17 0.290599 0.161962 0.579756
O O18 0.000000 0.196082 0.548815
O O19 0.000000 0.398846 0.013961
O O20 0.259965 0.376924 0.913125
O O21 0.500000 0.149513 0.313714
#
# Coordination Sequence:
#
# PCOD9374963 Si02
#       8
#     8   8   8   8   8   8   8   8
#     4  11  21  33  50  77 109 147 191 235 281 330
#     4   9  17  33  55  79 110 146 183 225 280 339
#     4   9  18  34  60  89 113 141 180 230 284 338
#     4   9  18  31  50  73 104 146 185 224 274 326
#     4  10  22  41  63  85 112 146 182 226 284 343
#     4  11  21  36  54  76 108 150 192 231 280 333
#     4  11  23  37  57  86 115 147 190 236 281 332
#     4  10  20  36  56  78 109 152 191 230 280 333
#
# _framework density 20.058426999999998
#
# number of rings (size 3 to 8) (size 9 to 14) (size 15 to 20)
#    0.000    2.000    2.500    1.500    1.750    1.250 
#    0.000    1.250    0.000    2.250    0.000    1.750 
#    0.000    0.000    0.000    0.000    0.000    0.000 
#
# Total GULP energy -178331.298496 kJ/mol
# GULP energy per Si atom -5572.853078 kJ/mol
# Density = 2.001277 g / cm^3
# Si number density = 20.058427 Si / 1000 Ang^3
#
#
#
# Elastic Constant Matrix: (Units=GPa)
#
#
# Indices 1 2 3 4 5 6 
#
# 1 26.1974 1.4902 12.9764 0.0000 0.0000 0.0001
# 2 1.4902 76.4695 62.4314 0.0000 0.0000 0.0001
# 3 12.9764 62.4314 147.2081 0.0001 0.0000 0.0003
# 4 0.0000 0.0000 0.0001 36.1816 0.0000 0.0001
# 5 0.0000 0.0000 0.0000 0.0000 9.3117 0.0000
# 6 0.0001 0.0001 0.0003 0.0001 0.0000 -5.6232
#
#
#
# Elastic Compliance Matrix: (Units=1/GPa)
#
#
# Indices 1 2 3 4 5 6 
#
# 1 0.040435 0.003246 -0.004941 0.000000 0.000000 0.000000
# 2 0.003246 0.020264 -0.008880 0.000000 0.000000 0.000000
# 3 -0.004941 -0.008880 0.010995 0.000000 0.000000 0.000000
# 4 0.000000 0.000000 0.000000 0.027638 0.000000 0.000001
# 5 0.000000 0.000000 0.000000 0.000000 0.107392 0.000001
# 6 0.000000 0.000000 0.000000 0.000001 0.000001 -0.177835
#
#
# Mechanical properties :
#
#
# Convention : Reuss Voigt Hill
#
# Bulk Modulus (GPa) = 19.78519 44.85233 32.31876
# Shear Modulus (GPa) = 74.75347 19.50581 47.12964
#
# Velocity S-wave (km/s) = 6.11136 3.12180 4.85254
# Velocity P-wave (km/s) = 7.72551 5.95009 6.89518
#
# Compressibility (1/GPa) = 0.05054285
#
# Stress axis : x y z
#
# Youngs Moduli (GPa) = 24.73134 49.34935 90.95308
#
# Poissons Ratio (x) = -0.16018 0.44939
# Poissons Ratio (y) = -0.08028 0.80766
# Poissons Ratio (z) = 0.12219 0.43822
#
# Static dielectric constant tensor:
#      x y z
#    x 1.707690 0.000000 0.000000 
#    y 0.000000 1.695150 0.000000 
#    z 0.000000 0.000000 1.777750 
# 
# From -- ./inp_files/11490.got.cif
#   From: 2010.05.17/outbox.cif.g08.bks.cpg/sg44_6_cif.got.tgz:11490.got - 2010.06.03 19:37:08.
