data_PCOD9374953
_publ_section_title
;
Structure prediction by ZEFSAII (Michael W. Deem and Ramdas Pophale) SiO2 
 PCOD9374953
Probable space group: I M M 2
;
_chemical_formula_sum "Si O2"
_cell_formula_units_Z 64
_cell_length_a 17.779932
_cell_length_b 13.835737
_cell_length_c 12.277005
_cell_angle_alpha 90.000000
_cell_angle_beta 90.000000
_cell_angle_gamma 90.000000
_cell_volume 3020.124361
_symmetry_space_group_name_H-M "I M M 2"
_symmetry_group_IT_number 44
_symmetry_cell_setting 'orthorhombic'
loop_
_space_group_symop_operation_xyz
x,y,z
-x,-y,z
-x,y,z
x,-y,z
1/2+x,1/2+y,1/2+z
1/2-x,1/2-y,1/2+z
1/2-x,1/2+y,1/2+z
1/2+x,1/2-y,1/2+z
loop_
_atom_site_type_symbol
_atom_site_label
_atom_site_fract_x
_atom_site_fract_y
_atom_site_fract_z
Si Si1 0.152121 0.613383 0.219570
Si Si2 0.414309 0.883943 0.956585
Si Si3 0.087565 0.117578 0.506462
Si Si4 0.339965 0.616421 0.464792
Si Si5 0.801123 0.887695 0.317957
Si Si6 0.327185 0.384150 0.220305
Si Si7 0.417880 0.307181 0.652878
Si Si8 0.295556 0.882226 0.126160
O O1 0.133925 0.500000 0.199264
O O2 0.134436 0.633440 0.347327
O O3 0.239424 0.630014 0.192418
O O4 0.105906 0.695286 0.157957
O O5 0.500000 0.849685 0.943579
O O6 0.417666 0.000000 0.962699
O O7 0.372915 0.853155 0.067513
O O8 0.153261 0.152429 0.422568
O O9 0.115956 0.146336 0.626417
O O10 0.000000 0.144080 0.486026
O O11 0.089056 0.000000 0.499397
O O12 0.338526 0.500000 0.463749
O O13 0.339096 0.652851 0.342119
O O14 0.410510 0.654905 0.531076
O O15 0.267906 0.647327 0.537389
O O16 0.863780 0.874074 0.224664
O O17 0.728784 0.849257 0.248183
O O18 0.785177 0.000000 0.342378
O O19 0.336124 0.500000 0.227220
O O20 0.500000 0.317188 0.699284
O O21 0.294144 0.000000 0.130848
#
# Coordination Sequence:
#
# PCOD9374953 Si02
#       8
#     8   8   8   8   8   8   8   8
#     4  10  20  36  54  75 110 151 193 240 287 337
#     4   9  15  25  47  77 105 136 180 240 295 325
#     4   9  17  30  51  80 111 145 188 232 275 332
#     4   9  17  32  54  79 113 151 184 228 288 349
#     4   9  18  33  52  75 113 155 180 217 283 353
#     4   9  17  33  56  79 108 149 195 238 281 334
#     4  11  22  33  50  83 116 145 187 232 282 347
#     4   8  13  25  46  72 104 140 176 216 271 342
#
# _framework density 21.191181
#
# number of rings (size 3 to 8) (size 9 to 14) (size 15 to 20)
#    0.000    2.750    1.250    1.875    0.000    2.750 
#    2.250    1.250    0.000    0.000    0.000    1.750 
#    0.000   12.000    0.000    0.250    0.000    0.000 
#
# Total GULP energy -178299.620832 kJ/mol
# GULP energy per Si atom -5571.863151 kJ/mol
# Density = 2.114295 g / cm^3
# Si number density = 21.191181 Si / 1000 Ang^3
#
#
#
# Elastic Constant Matrix: (Units=GPa)
#
#
# Indices 1 2 3 4 5 6 
#
# 1 67.7121 -10.2612 35.2385 0.0000 0.0000 0.0000
# 2 -10.2612 65.6819 -0.8195 0.0000 0.0000 0.0000
# 3 35.2385 -0.8195 93.1791 0.0000 0.0000 0.0000
# 4 0.0000 0.0000 0.0000 2.7589 0.0000 0.0000
# 5 0.0000 0.0000 0.0000 0.0000 17.3928 0.0000
# 6 0.0000 0.0000 0.0000 0.0000 0.0000 -10.5244
#
#
#
# Elastic Compliance Matrix: (Units=1/GPa)
#
#
# Indices 1 2 3 4 5 6 
#
# 1 0.018912 0.002866 -0.007127 0.000000 0.000000 0.000000
# 2 0.002866 0.015661 -0.000946 0.000000 0.000000 0.000000
# 3 -0.007127 -0.000946 0.013419 0.000000 0.000000 0.000000
# 4 0.000000 0.000000 0.000000 0.362469 0.000000 0.000000
# 5 0.000000 0.000000 0.000000 0.000000 0.057495 0.000000
# 6 0.000000 0.000000 0.000000 0.000000 0.000000 -0.095018
#
#
# Mechanical properties :
#
#
# Convention : Reuss Voigt Hill
#
# Bulk Modulus (GPa) = 26.61212 30.54318 28.57765
# Shear Modulus (GPa) = 12.63019 15.41982 14.02500
#
# Velocity S-wave (km/s) = 2.44398 2.70043 2.57540
# Velocity P-wave (km/s) = 4.53315 4.91605 4.72848
#
# Compressibility (1/GPa) = 0.03757686
#
# Stress axis : x y z
#
# Youngs Moduli (GPa) = 52.87780 63.85380 74.52174
#
# Poissons Ratio (x) = -0.18298 0.53110
# Poissons Ratio (y) = -0.15152 0.07049
# Poissons Ratio (z) = 0.37685 0.06040
#
# Static dielectric constant tensor:
#      x y z
#    x 1.812880 0.000000 0.000000 
#    y 0.000000 1.808990 0.000000 
#    z 0.000000 0.000000 1.794080 
# 
# From -- ./inp_files/13985.got.cif
#   From: 2010.05.17/outbox.cif.g08.bks.cpg/sg44_7_cif.got.tgz:13985.got - 2010.06.03 19:37:08.
