data_PCOD9374891
_publ_section_title
;
Structure prediction by ZEFSAII (Michael W. Deem and Ramdas Pophale) SiO2 
 PCOD9374891
Probable space group: I M M 2
;
_chemical_formula_sum "Si O2"
_cell_formula_units_Z 48
_cell_length_a 13.082901
_cell_length_b 15.029368
_cell_length_c 9.957865
_cell_angle_alpha 90.000000
_cell_angle_beta 90.000000
_cell_angle_gamma 90.000000
_cell_volume 1957.992427
_symmetry_space_group_name_H-M "I M M 2"
_symmetry_group_IT_number 44
_symmetry_cell_setting 'orthorhombic'
loop_
_space_group_symop_operation_xyz
x,y,z
-x,-y,z
-x,y,z
x,-y,z
1/2+x,1/2+y,1/2+z
1/2-x,1/2-y,1/2+z
1/2-x,1/2+y,1/2+z
1/2+x,1/2-y,1/2+z
loop_
_atom_site_type_symbol
_atom_site_label
_atom_site_fract_x
_atom_site_fract_y
_atom_site_fract_z
Si Si1 0.892158 0.099479 0.460870
Si Si2 0.667017 0.897282 0.412871
Si Si3 0.328082 0.153042 0.123002
Si Si4 0.390475 0.708011 0.525347
Si Si5 0.885774 0.394696 0.322202
Si Si6 0.836904 0.842632 0.732491
O O1 0.784693 0.137725 0.415078
O O2 0.879067 0.091409 0.621645
O O3 0.000000 0.144096 0.429036
O O4 0.893625 0.000000 0.403083
O O5 0.641503 0.900986 0.255324
O O6 0.614642 0.814438 0.489000
O O7 0.658185 0.000000 0.465900
O O8 0.365577 0.250788 0.160472
O O9 0.206022 0.168354 0.104211
O O10 0.370985 0.119853 0.982066
O O11 0.500000 0.688522 0.588221
O O12 0.382472 0.659734 0.380116
O O13 0.880762 0.500000 0.295706
O O14 0.785727 0.352688 0.252344
O O15 0.000000 0.363470 0.283978
#
# Coordination Sequence:
#
# PCOD9374891 Si02
#       6
#     8   8   8   8   8   8
#     4  10  20  35  57  83 113 154 197 237 289 351
#     4  10  21  38  58  85 118 153 194 244 295 347
#     4  10  21  38  57  85 117 154 194 240 291 350
#     4  10  21  37  57  84 115 153 196 239 293 347
#     4  10  22  40  64  91 119 155 198 247 303 357
#     4  10  20  38  57  85 116 153 193 242 290 346
#
# _framework density 24.514906
#
# number of rings (size 3 to 8) (size 9 to 14) (size 15 to 20)
#    0.000    2.000    1.667    1.500    0.000    5.000 
#    0.000    0.000    0.000    9.500    0.000    0.000 
#    0.000    0.000    0.000    0.000    0.000    0.000 
#
# Total GULP energy -133963.162985 kJ/mol
# GULP energy per Si atom -5581.798458 kJ/mol
# Density = 2.445911 g / cm^3
# Si number density = 24.514906 Si / 1000 Ang^3
#
#
#
# Elastic Constant Matrix: (Units=GPa)
#
#
# Indices 1 2 3 4 5 6 
#
# 1 146.7555 2.7824 -5.7900 0.0000 0.0000 0.0000
# 2 2.7824 72.3009 1.8508 0.0000 0.0000 0.0000
# 3 -5.7900 1.8508 92.8572 0.0000 0.0000 0.0000
# 4 0.0000 0.0000 0.0000 17.5577 0.0000 0.0000
# 5 0.0000 0.0000 0.0000 0.0000 -5.4507 0.0000
# 6 0.0000 0.0000 0.0000 0.0000 0.0000 15.7646
#
#
#
# Elastic Compliance Matrix: (Units=1/GPa)
#
#
# Indices 1 2 3 4 5 6 
#
# 1 0.006836 -0.000274 0.000432 0.000000 0.000000 0.000000
# 2 -0.000274 0.013849 -0.000293 0.000000 0.000000 0.000000
# 3 0.000432 -0.000293 0.010802 0.000000 0.000000 0.000000
# 4 0.000000 0.000000 0.000000 0.056955 0.000000 0.000000
# 5 0.000000 0.000000 0.000000 0.000000 -0.183463 0.000000
# 6 0.000000 0.000000 0.000000 0.000000 0.000000 0.063433
#
#
# Mechanical properties :
#
#
# Convention : Reuss Voigt Hill
#
# Bulk Modulus (GPa) = 32.03450 34.40000 33.21725
# Shear Modulus (GPa) = -239.11001 26.44570 -106.33216
#
# Velocity S-wave (km/s) = -9.88678 3.28801 -6.59308
# Velocity P-wave (km/s) = 10.82753 5.33643 6.66175
#
# Compressibility (1/GPa) = 0.03121634
#
# Stress axis : x y z
#
# Youngs Moduli (GPa) = 146.27826 72.20670 92.57556
#
# Poissons Ratio (x) = 0.01979 -0.03997
# Poissons Ratio (y) = 0.04010 0.02714
# Poissons Ratio (z) = -0.06315 0.02117
#
# Static dielectric constant tensor:
#      x y z
#    x 2.058470 0.000000 0.000000 
#    y 0.000000 1.980120 0.000000 
#    z 0.000000 0.000000 1.952050 
# 
# From -- ./inp_files/12275.got.cif
#   From: 2010.05.17/outbox.cif.g08.bks.cpg/sg44_7_cif.got.tgz:12275.got - 2010.06.03 19:37:08.
