data_PCOD9374815
_publ_section_title
;
Structure prediction by ZEFSAII (Michael W. Deem and Ramdas Pophale) SiO2 
 PCOD9374815
Probable space group: I M M 2
;
_chemical_formula_sum "Si O2"
_cell_formula_units_Z 64
_cell_length_a 17.823291
_cell_length_b 19.694845
_cell_length_c 7.857956
_cell_angle_alpha 90.000000
_cell_angle_beta 90.000000
_cell_angle_gamma 90.000000
_cell_volume 2758.354356
_symmetry_space_group_name_H-M "I M M 2"
_symmetry_group_IT_number 44
_symmetry_cell_setting 'orthorhombic'
loop_
_space_group_symop_operation_xyz
x,y,z
-x,-y,z
-x,y,z
x,-y,z
1/2+x,1/2+y,1/2+z
1/2-x,1/2-y,1/2+z
1/2-x,1/2+y,1/2+z
1/2+x,1/2-y,1/2+z
loop_
_atom_site_type_symbol
_atom_site_label
_atom_site_fract_x
_atom_site_fract_y
_atom_site_fract_z
Si Si1 0.080458 0.218883 0.660860
Si Si2 0.918955 0.676495 0.962100
Si Si3 0.797223 0.720380 0.407252
Si Si4 0.805668 0.574734 0.799432
Si Si5 0.369785 0.574233 0.830806
Si Si6 0.621277 0.424328 0.230860
Si Si7 0.846283 0.199623 0.117153
Si Si8 0.790930 0.576025 0.385802
O O1 0.075680 0.281803 0.786626
O O2 0.148321 0.240226 0.537831
O O3 0.089630 0.150252 0.775272
O O4 0.000000 0.212823 0.567969
O O5 0.852774 0.624792 0.917478
O O6 0.000000 0.644576 0.999646
O O7 0.901538 0.737615 0.091653
O O8 0.789217 0.776278 0.264207
O O9 0.714046 0.700512 0.466673
O O10 0.828103 0.647945 0.336500
O O11 0.839216 0.500000 0.821772
O O12 0.719829 0.573877 0.855929
O O13 0.796453 0.583729 0.593577
O O14 0.393345 0.500000 0.766387
O O15 0.384308 0.632005 0.690581
O O16 0.394569 0.581226 0.026295
O O17 0.592585 0.500000 0.281310
O O18 0.707772 0.425207 0.298320
O O19 0.821911 0.500000 0.347876
#
# Coordination Sequence:
#
# PCOD9374815 Si02
#       8
#     8   8   8   8   8   8   8   8
#     4  11  23  40  59  86 126 168 210 257 316 385
#     4  11  25  43  59  86 128 170 210 258 318 387
#     4  12  22  36  62  89 123 159 209 264 322 374
#     4  10  20  38  63  92 122 157 205 257 315 377
#     4  10  20  36  60  92 125 156 202 265 315 366
#     4  10  21  38  60  92 127 161 205 258 315 369
#     4  12  23  37  62  91 122 161 212 263 324 375
#     4  10  20  34  59  92 123 154 197 258 317 365
#
# _framework density 23.20224
#
# number of rings (size 3 to 8) (size 9 to 14) (size 15 to 20)
#    0.000    1.250    3.750    3.000    1.750    1.000 
#    0.000    0.000    0.000    1.500    0.000    0.000 
#    0.000    0.000    0.000    0.000    0.000    0.000 
#
# Total GULP energy -178153.207470 kJ/mol
# GULP energy per Si atom -5567.287733 kJ/mol
# Density = 2.314943 g / cm^3
# Si number density = 23.202240 Si / 1000 Ang^3
#
#
#
# Elastic Constant Matrix: (Units=GPa)
#
#
# Indices 1 2 3 4 5 6 
#
# 1 55.1894 -1.9175 3.0801 0.0000 0.0000 0.0000
# 2 -1.9175 98.4794 -8.4818 0.0000 0.0000 0.0000
# 3 3.0801 -8.4818 36.5641 0.0000 0.0000 0.0000
# 4 0.0000 0.0000 0.0000 36.8903 0.0000 0.0000
# 5 0.0000 0.0000 0.0000 0.0000 9.4576 0.0000
# 6 0.0000 0.0000 0.0000 0.0000 0.0000 -15.2412
#
#
#
# Elastic Compliance Matrix: (Units=1/GPa)
#
#
# Indices 1 2 3 4 5 6 
#
# 1 0.018210 0.000227 -0.001481 0.000000 0.000000 0.000000
# 2 0.000227 0.010364 0.002385 0.000000 0.000000 0.000000
# 3 -0.001481 0.002385 0.028027 0.000000 0.000000 0.000000
# 4 0.000000 0.000000 0.000000 0.027107 0.000000 0.000000
# 5 0.000000 0.000000 0.000000 0.000000 0.105735 0.000000
# 6 0.000000 0.000000 0.000000 0.000000 0.000000 -0.065612
#
#
# Mechanical properties :
#
#
# Convention : Reuss Voigt Hill
#
# Bulk Modulus (GPa) = 16.98862 19.51052 18.24957
# Shear Modulus (GPa) = 35.41278 19.39147 27.40213
#
# Velocity S-wave (km/s) = 3.91098 2.89409 3.44031
# Velocity P-wave (km/s) = 5.26614 4.42660 4.86452
#
# Compressibility (1/GPa) = 0.05886292
#
# Stress axis : x y z
#
# Youngs Moduli (GPa) = 54.91496 96.48549 35.67954
#
# Poissons Ratio (x) = -0.02190 0.05285
# Poissons Ratio (y) = -0.01246 -0.08510
# Poissons Ratio (z) = 0.08135 -0.23013
#
# Static dielectric constant tensor:
#      x y z
#    x 1.937740 0.000000 0.000000 
#    y 0.000000 1.952120 0.000000 
#    z 0.000000 0.000000 2.036230 
# 
# From -- ./inp_files/8480.got.cif
#   From: 2010.05.17/outbox.cif.g08.bks.cpg/sg44_5_cif.got.tgz:8480.got - 2010.06.03 19:37:08.
