data_PCOD9374313
_publ_section_title
;
Structure prediction by ZEFSAII (Michael W. Deem and Ramdas Pophale) SiO2 
 PCOD9374313
Probable space group: I M M 2
;
_chemical_formula_sum "Si O2"
_cell_formula_units_Z 34
_cell_length_a 7.683025
_cell_length_b 14.163160
_cell_length_c 12.523983
_cell_angle_alpha 90.000000
_cell_angle_beta 90.000000
_cell_angle_gamma 90.000000
_cell_volume 1362.808637
_symmetry_space_group_name_H-M "I M M 2"
_symmetry_group_IT_number 44
_symmetry_cell_setting 'orthorhombic'
loop_
_space_group_symop_operation_xyz
x,y,z
-x,-y,z
-x,y,z
x,-y,z
1/2+x,1/2+y,1/2+z
1/2-x,1/2-y,1/2+z
1/2-x,1/2+y,1/2+z
1/2+x,1/2-y,1/2+z
loop_
_atom_site_type_symbol
_atom_site_label
_atom_site_fract_x
_atom_site_fract_y
_atom_site_fract_z
Si Si1 0.293401 0.818065 0.216990
Si Si2 0.292330 0.343721 0.945617
Si Si3 0.789035 0.101986 0.680698
Si Si4 0.689806 0.366632 0.487157
Si Si5 0.500000 0.000000 0.917809
O O1 0.500000 0.814500 0.196750
O O2 0.258230 0.872894 0.326604
O O3 0.233169 0.706702 0.221186
O O4 0.210133 0.868935 0.115337
O O5 0.500000 0.333696 0.948077
O O6 0.246830 0.397649 0.054008
O O7 0.204228 0.242751 0.959054
O O8 0.000000 0.100509 0.692035
O O9 0.719870 0.000000 0.722760
O O10 0.500000 0.399737 0.453461
O O11 0.847462 0.419269 0.433194
#
# Coordination Sequence:
#
# PCOD9374313 Si02
#       5
#     8   8   8   8   2
#     4  10  19  36  59  86 121 161 202 248 305 368
#     4  10  19  36  59  86 121 161 202 248 305 368
#     4   8  16  33  56  82 113 150 201 255 293 344
#     4  11  22  40  63  87 122 166 198 251 316 367
#     4  12  22  44  60  90 126 146 214 256 300 370
#
# _framework density 24.948474999999998
#
# number of rings (size 3 to 8) (size 9 to 14) (size 15 to 20)
#    0.000    2.118    2.353    3.176    0.000    0.000 
#    4.235    0.000    0.000   24.000    0.000    0.000 
#    0.000    0.000    0.000    0.000    0.000    0.000 
#
# Total GULP energy -94790.456675 kJ/mol
# GULP energy per Si atom -5575.909216 kJ/mol
# Density = 2.489169 g / cm^3
# Si number density = 24.948475 Si / 1000 Ang^3
#
#
#
# Elastic Constant Matrix: (Units=GPa)
#
#
# Indices 1 2 3 4 5 6 
#
# 1 137.6705 24.6528 -11.8793 0.0000 0.0000 0.0000
# 2 24.6528 101.3210 3.0982 0.0000 0.0000 0.0000
# 3 -11.8793 3.0982 164.4001 0.0000 0.0000 0.0000
# 4 0.0000 0.0000 0.0000 13.2458 0.0000 0.0000
# 5 0.0000 0.0000 0.0000 0.0000 -11.3856 0.0000
# 6 0.0000 0.0000 0.0000 0.0000 0.0000 -0.3450
#
#
#
# Elastic Compliance Matrix: (Units=1/GPa)
#
#
# Indices 1 2 3 4 5 6 
#
# 1 0.007651 -0.001880 0.000588 0.000000 0.000000 0.000000
# 2 -0.001880 0.010337 -0.000331 0.000000 0.000000 0.000000
# 3 0.000588 -0.000331 0.006131 0.000000 0.000000 0.000000
# 4 0.000000 0.000000 0.000000 0.075495 0.000000 0.000000
# 5 0.000000 0.000000 0.000000 0.000000 -0.087831 0.000000
# 6 0.000000 0.000000 0.000000 0.000000 0.000000 -2.898554
#
#
# Mechanical properties :
#
#
# Convention : Reuss Voigt Hill
#
# Bulk Modulus (GPa) = 47.90256 48.34830 48.12543
# Shear Modulus (GPa) = -1.73818 26.13772 12.19977
#
# Velocity S-wave (km/s) = -0.83560 3.24028 2.21373
# Velocity P-wave (km/s) = 4.27917 5.78105 5.08586
#
# Compressibility (1/GPa) = 0.02087571
#
# Stress axis : x y z
#
# Youngs Moduli (GPa) = 130.70077 96.73922 163.09327
#
# Poissons Ratio (x) = 0.18183 -0.09594
# Poissons Ratio (y) = 0.24566 0.05392
# Poissons Ratio (z) = -0.07689 0.03198
#
# Static dielectric constant tensor:
#      x y z
#    x 1.903570 0.000000 0.000000 
#    y 0.000000 1.992310 0.000000 
#    z 0.000000 0.000000 2.044940 
# 
# From -- ./inp_files/15648.got.cif
#   From: 2010.05.17/outbox.cif.g08.bks.cpg/sg44_8_cif.got.tgz:15648.got - 2010.06.03 19:37:08.
