data_PCOD9375252
_publ_section_title
;
Structure prediction by ZEFSAII (Michael W. Deem and Ramdas Pophale) SiO2 
 PCOD9375252
Probable space group: I M M 2
;
_chemical_formula_sum "Si O2"
_cell_formula_units_Z 64
_cell_length_a 7.821279
_cell_length_b 17.169222
_cell_length_c 22.515470
_cell_angle_alpha 90.000000
_cell_angle_beta 90.000000
_cell_angle_gamma 90.000000
_cell_volume 3023.496091
_symmetry_space_group_name_H-M "I M M 2"
_symmetry_group_IT_number 44
_symmetry_cell_setting 'orthorhombic'
loop_
_space_group_symop_operation_xyz
x,y,z
-x,-y,z
-x,y,z
x,-y,z
1/2+x,1/2+y,1/2+z
1/2-x,1/2-y,1/2+z
1/2-x,1/2+y,1/2+z
1/2+x,1/2-y,1/2+z
loop_
_atom_site_type_symbol
_atom_site_label
_atom_site_fract_x
_atom_site_fract_y
_atom_site_fract_z
Si Si1 0.293256 0.916641 0.305980
Si Si2 0.295138 0.120835 0.438481
Si Si3 0.192949 0.749377 0.261894
Si Si4 0.695503 0.260893 0.137870
Si Si5 0.303324 0.087596 0.120011
Si Si6 0.699075 0.588418 0.486868
Si Si7 0.205507 0.791046 0.892487
Si Si8 0.798661 0.085995 0.571389
O O1 0.500000 0.910079 0.305373
O O2 0.240649 0.915250 0.375376
O O3 0.223785 0.841284 0.273380
O O4 0.244563 0.000000 0.279788
O O5 0.500000 0.109488 0.443069
O O6 0.257267 0.211399 0.427384
O O7 0.218320 0.092805 0.500070
O O8 0.305172 0.719446 0.207630
O O9 0.225045 0.711974 0.326099
O O10 0.000000 0.735737 0.243432
O O11 0.500000 0.251224 0.115807
O O12 0.773447 0.172773 0.136235
O O13 0.772025 0.334019 0.101197
O O14 0.500000 0.086903 0.142432
O O15 0.231385 0.000000 0.134438
O O16 0.297771 0.091706 0.048536
O O17 0.500000 0.611244 0.499279
O O18 0.697655 0.500000 0.466347
O O19 0.768756 0.641176 0.434665
O O20 0.000000 0.795722 0.886652
O O21 0.000000 0.085102 0.586687
O O22 0.727908 0.000000 0.588557
#
# Coordination Sequence:
#
# PCOD9375252 Si02
#       8
#     8   8   8   8   8   8   8   8
#     4   9  18  34  55  78 107 142 172 198 242 309
#     4   9  17  30  51  78 105 134 166 200 245 305
#     4  11  23  36  52  75 100 129 173 223 263 299
#     4  10  21  38  55  70  98 140 179 214 257 312
#     4   9  18  32  52  79 107 135 167 202 247 308
#     4   9  17  30  51  79 106 131 163 206 255 306
#     4   9  18  34  53  73 102 138 171 203 250 315
#     4  10  21  35  52  76 103 133 172 217 263 308
#
# _framework density 21.167546999999999
#
# number of rings (size 3 to 8) (size 9 to 14) (size 15 to 20)
#    0.000    2.500    0.000    3.000    0.000    5.000 
#    0.000    1.875    0.000    3.750    0.000    0.000 
#    0.000    0.000    0.000    0.000    0.000    0.000 
#
# Total GULP energy -178386.338693 kJ/mol
# GULP energy per Si atom -5574.573084 kJ/mol
# Density = 2.111937 g / cm^3
# Si number density = 21.167547 Si / 1000 Ang^3
#
#
#
# Elastic Constant Matrix: (Units=GPa)
#
#
# Indices 1 2 3 4 5 6 
#
# 1 31.0558 12.7743 -3.5242 0.0000 0.0000 0.0000
# 2 12.7743 98.6649 58.7089 0.0000 0.0000 0.0000
# 3 -3.5242 58.7089 91.7481 0.0000 0.0000 0.0000
# 4 0.0000 0.0000 0.0000 -13.1935 0.0000 0.0000
# 5 0.0000 0.0000 0.0000 0.0000 20.3231 0.0000
# 6 0.0000 0.0000 0.0000 0.0000 0.0000 8.2687
#
#
#
# Elastic Compliance Matrix: (Units=1/GPa)
#
#
# Indices 1 2 3 4 5 6 
#
# 1 0.036733 -0.009036 0.007193 0.000000 0.000000 0.000000
# 2 -0.009036 0.018590 -0.012243 0.000000 0.000000 0.000000
# 3 0.007193 -0.012243 0.019010 0.000000 0.000000 0.000000
# 4 0.000000 0.000000 0.000000 -0.075795 0.000000 0.000000
# 5 0.000000 0.000000 0.000000 0.000000 0.049205 0.000000
# 6 0.000000 0.000000 0.000000 0.000000 0.000000 0.120939
#
#
# Mechanical properties :
#
#
# Convention : Reuss Voigt Hill
#
# Bulk Modulus (GPa) = 21.66300 39.70965 30.68632
# Shear Modulus (GPa) = 23.55822 13.31364 18.43593
#
# Velocity S-wave (km/s) = 3.33970 2.51064 2.95439
# Velocity P-wave (km/s) = 5.01275 5.21582 5.11530
#
# Compressibility (1/GPa) = 0.04616165
#
# Stress axis : x y z
#
# Youngs Moduli (GPa) = 27.22329 53.79224 52.60469
#
# Poissons Ratio (x) = 0.48607 -0.37839
# Poissons Ratio (y) = 0.24599 0.64402
# Poissons Ratio (z) = -0.19582 0.65856
#
# Static dielectric constant tensor:
#      x y z
#    x 1.800630 0.000000 0.000000 
#    y 0.000000 1.820550 0.000000 
#    z 0.000000 0.000000 1.729070 
# 
# From -- ./inp_files/23322.got.cif
#   From: 2010.05.17/outbox.cif.g08.bks.cpg/sg44_12_cif.got.tgz:23322.got - 2010.06.03 19:37:08.
