data_PCOD9375172
_publ_section_title
;
Structure prediction by ZEFSAII (Michael W. Deem and Ramdas Pophale) SiO2 
 PCOD9375172
Probable space group: I M M 2
;
_chemical_formula_sum "Si O2"
_cell_formula_units_Z 48
_cell_length_a 16.592148
_cell_length_b 14.374480
_cell_length_c 8.923556
_cell_angle_alpha 90.000000
_cell_angle_beta 90.000000
_cell_angle_gamma 90.000000
_cell_volume 2128.299335
_symmetry_space_group_name_H-M "I M M 2"
_symmetry_group_IT_number 44
_symmetry_cell_setting 'orthorhombic'
loop_
_space_group_symop_operation_xyz
x,y,z
-x,-y,z
-x,y,z
x,-y,z
1/2+x,1/2+y,1/2+z
1/2-x,1/2-y,1/2+z
1/2-x,1/2+y,1/2+z
1/2+x,1/2-y,1/2+z
loop_
_atom_site_type_symbol
_atom_site_label
_atom_site_fract_x
_atom_site_fract_y
_atom_site_fract_z
Si Si1 0.406871 0.801649 0.154860
Si Si2 0.805978 0.185125 0.888827
Si Si3 0.162047 0.691271 0.162602
Si Si4 0.906524 0.500000 0.676621
Si Si5 0.825176 0.000000 0.495658
Si Si6 0.598516 0.500000 0.331229
Si Si7 0.865737 0.500000 0.026179
Si Si8 0.412294 0.332178 0.870460
O O1 0.500000 0.814521 0.203810
O O2 0.359092 0.752597 0.285176
O O3 0.370829 0.903166 0.120639
O O4 0.408628 0.735758 0.012559
O O5 0.725680 0.164777 0.792794
O O6 0.859171 0.091229 0.903482
O O7 0.791581 0.248920 0.034712
O O8 0.116916 0.598832 0.104792
O O9 0.101694 0.766990 0.229717
O O10 0.000000 0.500000 0.628601
O O11 0.898498 0.500000 0.857034
O O12 0.875109 0.000000 0.653179
O O13 0.846798 0.089739 0.398600
O O14 0.731348 0.000000 0.526636
O O15 0.500000 0.500000 0.341298
O O16 0.500000 0.377568 0.865920
#
# Coordination Sequence:
#
# PCOD9375172 Si02
#       8
#     8   8   8   4   4   4   4   8
#     4  10  20  38  64  94 128 169 219 269 325 396
#     4  12  23  43  66  98 134 172 229 276 337 406
#     4  12  26  43  68  96 137 179 223 284 338 404
#     4  10  22  37  63 101 133 176 225 272 330 403
#     4  12  22  45  69  99 137 179 233 276 346 416
#     4  12  24  41  73 105 136 181 228 284 343 409
#     4  12  22  43  67  97 138 178 234 276 343 412
#     4  11  25  43  68 101 136 178 224 283 343 403
#
# _framework density 22.553218000000001
#
# number of rings (size 3 to 8) (size 9 to 14) (size 15 to 20)
#    0.000    0.667    5.000    3.250    0.000    3.333 
#    0.000    4.167    0.000    0.000    0.000    0.000 
#    0.000    0.000    0.000    0.000    0.000    0.000 
#
# Total GULP energy -134203.572255 kJ/mol
# GULP energy per Si atom -5591.815511 kJ/mol
# Density = 2.250189 g / cm^3
# Si number density = 22.553218 Si / 1000 Ang^3
#
#
#
# Elastic Constant Matrix: (Units=GPa)
#
#
# Indices 1 2 3 4 5 6 
#
# 1 42.0121 -0.6702 0.1559 0.0000 0.0000 0.0000
# 2 -0.6702 152.3088 11.0754 0.0000 0.0000 0.0000
# 3 0.1559 11.0754 52.2749 0.0000 0.0000 0.0000
# 4 0.0000 0.0000 0.0000 27.9092 0.0000 0.0000
# 5 0.0000 0.0000 0.0000 0.0000 16.3410 0.0000
# 6 0.0000 0.0000 0.0000 0.0000 0.0000 -28.1660
#
#
#
# Elastic Compliance Matrix: (Units=1/GPa)
#
#
# Indices 1 2 3 4 5 6 
#
# 1 0.023805 0.000112 -0.000095 0.000000 0.000000 0.000000
# 2 0.000112 0.006669 -0.001413 0.000000 0.000000 0.000000
# 3 -0.000095 -0.001413 0.019429 0.000000 0.000000 0.000000
# 4 0.000000 0.000000 0.000000 0.035830 0.000000 0.000000
# 5 0.000000 0.000000 0.000000 0.000000 0.061196 0.000000
# 6 0.000000 0.000000 0.000000 0.000000 0.000000 -0.035504
#
#
# Mechanical properties :
#
#
# Convention : Reuss Voigt Hill
#
# Bulk Modulus (GPa) = 21.22669 29.74644 25.48657
# Shear Modulus (GPa) = 38.48475 18.95249 28.71862
#
# Velocity S-wave (km/s) = 4.13534 2.90202 3.57230
# Velocity P-wave (km/s) = 5.67747 4.94439 5.32356
#
# Compressibility (1/GPa) = 0.04711049
#
# Stress axis : x y z
#
# Youngs Moduli (GPa) = 42.00838 149.95054 51.46850
#
# Poissons Ratio (x) = -0.01674 0.00487
# Poissons Ratio (y) = -0.00469 0.07274
# Poissons Ratio (z) = 0.00398 0.21192
#
# Static dielectric constant tensor:
#      x y z
#    x 1.851170 0.000000 0.000000 
#    y 0.000000 1.845130 0.000000 
#    z 0.000000 0.000000 1.855260 
# 
# From -- ./inp_files/8159.got.cif
#   From: 2010.05.17/outbox.cif.g08.bks.cpg/sg44_5_cif.got.tgz:8159.got - 2010.06.03 19:37:08.
