data_PCOD9375012
_publ_section_title
;
Structure prediction by ZEFSAII (Michael W. Deem and Ramdas Pophale) SiO2 
 PCOD9375012
Probable space group: I M M 2
;
_chemical_formula_sum "Si O2"
_cell_formula_units_Z 48
_cell_length_a 8.810400
_cell_length_b 15.490667
_cell_length_c 19.449081
_cell_angle_alpha 90.000000
_cell_angle_beta 90.000000
_cell_angle_gamma 90.000000
_cell_volume 2654.390592
_symmetry_space_group_name_H-M "I M M 2"
_symmetry_group_IT_number 44
_symmetry_cell_setting 'orthorhombic'
loop_
_space_group_symop_operation_xyz
x,y,z
-x,-y,z
-x,y,z
x,-y,z
1/2+x,1/2+y,1/2+z
1/2-x,1/2-y,1/2+z
1/2-x,1/2+y,1/2+z
1/2+x,1/2-y,1/2+z
loop_
_atom_site_type_symbol
_atom_site_label
_atom_site_fract_x
_atom_site_fract_y
_atom_site_fract_z
Si Si1 0.181379 0.649639 0.856140
Si Si2 0.820107 0.000000 0.447914
Si Si3 0.316727 0.159039 0.197215
Si Si4 0.681909 0.649413 0.351874
Si Si5 0.815395 0.500000 0.603102
Si Si6 0.317255 0.000000 0.599621
Si Si7 0.817982 0.653705 0.201850
Si Si8 0.817421 0.500000 0.444494
O O1 0.262756 0.583800 0.906397
O O2 0.218672 0.632485 0.775927
O O3 0.218139 0.750437 0.868540
O O4 0.000000 0.638885 0.863954
O O5 0.754318 0.000000 0.524662
O O6 0.000000 0.000000 0.450604
O O7 0.500000 0.169408 0.193871
O O8 0.240328 0.250919 0.183425
O O9 0.267845 0.085232 0.144491
O O10 0.500000 0.640610 0.351091
O O11 0.745461 0.631132 0.275628
O O12 0.754358 0.583652 0.405352
O O13 0.768120 0.500000 0.524022
O O14 0.000000 0.500000 0.604320
O O15 0.274714 0.916066 0.644407
O O16 0.500000 0.000000 0.592479
O O17 0.000000 0.653363 0.208732
O O18 0.000000 0.500000 0.441674
#
# Coordination Sequence:
#
# PCOD9375012 Si02
#       8
#     8   4   8   8   4   4   8   4
#     4   9  19  37  60  81 107 144 184 226 275 329
#     4  12  25  36  54  83 112 144 185 232 276 320
#     4   9  18  36  60  83 107 142 184 223 267 326
#     4  10  21  38  60  83 108 146 189 226 267 326
#     4   9  19  35  55  79 111 149 184 217 266 328
#     4  10  23  40  55  75 111 152 181 212 272 340
#     4  10  20  36  59  85 109 138 179 230 280 323
#     4  11  22  35  54  83 118 151 180 225 278 318
#
# _framework density 18.083245999999999
#
# number of rings (size 3 to 8) (size 9 to 14) (size 15 to 20)
#    0.000    2.167    0.000    4.000    0.000    8.000 
#    0.000    5.417    0.000    0.000    0.000    0.000 
#    0.000    0.000    0.000    0.000    0.000    0.000 
#
# Total GULP energy -134040.493090 kJ/mol
# GULP energy per Si atom -5585.020545 kJ/mol
# Density = 1.804209 g / cm^3
# Si number density = 18.083246 Si / 1000 Ang^3
#
#
#
# Elastic Constant Matrix: (Units=GPa)
#
#
# Indices 1 2 3 4 5 6 
#
# 1 54.0415 62.2077 66.2780 0.0000 0.0000 0.0000
# 2 62.2077 144.5957 141.0528 0.0000 0.0000 0.0000
# 3 66.2780 141.0528 181.7023 0.0000 0.0000 0.0000
# 4 0.0000 0.0000 0.0000 -5.9274 0.0000 0.0000
# 5 0.0000 0.0000 0.0000 0.0000 25.8239 0.0000
# 6 0.0000 0.0000 0.0000 0.0000 0.0000 34.4534
#
#
#
# Elastic Compliance Matrix: (Units=1/GPa)
#
#
# Indices 1 2 3 4 5 6 
#
# 1 0.037638 -0.011535 -0.004774 0.000000 0.000000 0.000000
# 2 -0.011535 0.032027 -0.020654 0.000000 0.000000 0.000000
# 3 -0.004774 -0.020654 0.023278 0.000000 0.000000 0.000000
# 4 0.000000 0.000000 0.000000 -0.168709 0.000000 0.000000
# 5 0.000000 0.000000 0.000000 0.000000 0.038724 0.000000
# 6 0.000000 0.000000 0.000000 0.000000 0.000000 0.029025
#
#
# Mechanical properties :
#
#
# Convention : Reuss Voigt Hill
#
# Bulk Modulus (GPa) = 52.58819 102.15739 77.37279
# Shear Modulus (GPa) = 69.20574 18.25672 43.73123
#
# Velocity S-wave (km/s) = 6.19304 3.18086 4.92299
# Velocity P-wave (km/s) = 8.96006 8.37293 8.67146
#
# Compressibility (1/GPa) = 0.01901568
#
# Stress axis : x y z
#
# Youngs Moduli (GPa) = 26.56901 31.22398 42.95819
#
# Poissons Ratio (x) = 0.36018 0.20509
# Poissons Ratio (y) = 0.30648 0.88727
# Poissons Ratio (z) = 0.12684 0.64491
#
# Static dielectric constant tensor:
#      x y z
#    x 1.605010 0.000000 0.000000 
#    y 0.000000 1.605270 0.000000 
#    z 0.000000 0.000000 1.591790 
# 
# From -- ./inp_files/20400.got.cif
#   From: 2010.05.17/outbox.cif.g08.bks.cpg/sg44_11_cif.got.tgz:20400.got - 2010.06.03 19:37:08.
