data_PCOD9375132
_publ_section_title
;
Structure prediction by ZEFSAII (Michael W. Deem and Ramdas Pophale) SiO2 
 PCOD9375132
Probable space group: I M M 2
;
_chemical_formula_sum "Si O2"
_cell_formula_units_Z 48
_cell_length_a 8.437547
_cell_length_b 10.238399
_cell_length_c 28.908441
_cell_angle_alpha 90.000000
_cell_angle_beta 90.000000
_cell_angle_gamma 90.000000
_cell_volume 2497.312705
_symmetry_space_group_name_H-M "I M M 2"
_symmetry_group_IT_number 44
_symmetry_cell_setting 'orthorhombic'
loop_
_space_group_symop_operation_xyz
x,y,z
-x,-y,z
-x,y,z
x,-y,z
1/2+x,1/2+y,1/2+z
1/2-x,1/2-y,1/2+z
1/2-x,1/2+y,1/2+z
1/2+x,1/2-y,1/2+z
loop_
_atom_site_type_symbol
_atom_site_label
_atom_site_fract_x
_atom_site_fract_y
_atom_site_fract_z
Si Si1 0.807071 0.000000 0.350940
Si Si2 0.810296 0.346493 0.009587
Si Si3 0.191909 0.500000 0.351532
Si Si4 0.808038 0.247363 0.410531
Si Si5 0.190613 0.250150 0.188839
Si Si6 0.188499 0.000000 0.745132
Si Si7 0.693055 0.500000 0.746955
Si Si8 0.310021 0.846483 0.090044
O O1 0.758801 0.126717 0.378722
O O2 0.747917 0.000000 0.298978
O O3 0.000000 0.000000 0.349381
O O4 0.754744 0.500000 0.012415
O O5 0.747318 0.249487 0.049287
O O6 0.000000 0.350114 0.012539
O O7 0.759594 0.281608 0.961040
O O8 0.240732 0.624366 0.382289
O O9 0.251085 0.500000 0.298480
O O10 0.000000 0.500000 0.348506
O O11 0.000000 0.250291 0.414548
O O12 0.251548 0.376436 0.215697
O O13 0.242101 0.127405 0.219627
O O14 0.253313 0.220096 0.137686
O O15 0.000000 0.255943 0.186811
O O16 0.000000 0.000000 0.746570
O O17 0.500000 0.500000 0.748128
O O18 0.500000 0.850245 0.089245
O O19 0.254864 0.000000 0.086867
#
# Coordination Sequence:
#
# PCOD9375132 Si02
#       8
#     4   8   4   8   8   4   4   8
#     4   9  16  30  56  87 118 155 197 245 300 361
#     4  11  25  43  64  92 128 167 211 259 315 380
#     4  10  22  40  63  92 125 166 215 263 312 374
#     4  10  20  37  62  90 125 162 206 260 313 371
#     4  11  22  41  67  94 127 165 210 262 314 376
#     4  12  26  42  61  92 133 176 216 259 315 374
#     4   9  18  34  62  95 122 155 202 253 309 367
#     4  11  25  44  67  95 128 163 207 261 322 385
#
# _framework density 19.220662000000001
#
# number of rings (size 3 to 8) (size 9 to 14) (size 15 to 20)
#    0.000    1.500    1.667    3.250    2.333    5.333 
#    0.000    0.000    0.000    1.000    0.000    0.000 
#    0.000    0.000    0.000    0.000    0.000    0.000 
#
# Total GULP energy -134009.983619 kJ/mol
# GULP energy per Si atom -5583.749317 kJ/mol
# Density = 1.917691 g / cm^3
# Si number density = 19.220662 Si / 1000 Ang^3
#
#
#
# Elastic Constant Matrix: (Units=GPa)
#
#
# Indices 1 2 3 4 5 6 
#
# 1 52.2565 46.1626 45.7472 0.0000 0.0000 0.0000
# 2 46.1626 224.6915 135.4454 0.0000 0.0000 0.0000
# 3 45.7472 135.4454 241.3810 0.0000 0.0000 0.0000
# 4 0.0000 0.0000 0.0000 48.6559 0.0000 0.0000
# 5 0.0000 0.0000 0.0000 0.0000 37.8176 0.0000
# 6 0.0000 0.0000 0.0000 0.0000 0.0000 21.9380
#
#
#
# Elastic Compliance Matrix: (Units=1/GPa)
#
#
# Indices 1 2 3 4 5 6 
#
# 1 0.024533 -0.003381 -0.002752 0.000000 0.000000 0.000000
# 2 -0.003381 0.007191 -0.003394 0.000000 0.000000 0.000000
# 3 -0.002752 -0.003394 0.006569 0.000000 0.000000 0.000000
# 4 0.000000 0.000000 0.000000 0.020553 0.000000 0.000000
# 5 0.000000 0.000000 0.000000 0.000000 0.026443 0.000000
# 6 0.000000 0.000000 0.000000 0.000000 0.000000 0.045583
#
#
# Mechanical properties :
#
#
# Convention : Reuss Voigt Hill
#
# Bulk Modulus (GPa) = 51.98182 108.11548 80.04865
# Shear Modulus (GPa) = 31.98163 41.08054 36.53108
#
# Velocity S-wave (km/s) = 4.08354 4.62812 4.36433
# Velocity P-wave (km/s) = 7.02405 9.21581 8.19354
#
# Compressibility (1/GPa) = 0.01923750
#
# Stress axis : x y z
#
# Youngs Moduli (GPa) = 40.76199 139.05458 152.22582
#
# Poissons Ratio (x) = 0.47016 0.41896
# Poissons Ratio (y) = 0.13782 0.51673
# Poissons Ratio (z) = 0.11219 0.47202
#
# Static dielectric constant tensor:
#      x y z
#    x 1.666490 0.000000 0.000000 
#    y 0.000000 1.668680 0.000000 
#    z 0.000000 0.000000 1.657180 
# 
# From -- ./inp_files/27043.got.cif
#   From: 2010.05.17/outbox.cif.g08.bks.cpg/sg44_14_cif.got.tgz:27043.got - 2010.06.03 19:37:08.
