data_PCOD9375592
_publ_section_title
;
Structure prediction by ZEFSAII (Michael W. Deem and Ramdas Pophale) SiO2 
 PCOD9375592
Probable space group: I M M 2
;
_chemical_formula_sum "Si O2"
_cell_formula_units_Z 58
_cell_length_a 16.250247
_cell_length_b 10.564017
_cell_length_c 17.098594
_cell_angle_alpha 90.000000
_cell_angle_beta 90.000000
_cell_angle_gamma 90.000000
_cell_volume 2935.279478
_symmetry_space_group_name_H-M "I M M 2"
_symmetry_group_IT_number 44
_symmetry_cell_setting 'orthorhombic'
loop_
_space_group_symop_operation_xyz
x,y,z
-x,-y,z
-x,y,z
x,-y,z
1/2+x,1/2+y,1/2+z
1/2-x,1/2-y,1/2+z
1/2-x,1/2+y,1/2+z
1/2+x,1/2-y,1/2+z
loop_
_atom_site_type_symbol
_atom_site_label
_atom_site_fract_x
_atom_site_fract_y
_atom_site_fract_z
Si Si1 0.837505 0.141729 0.006030
Si Si2 0.337183 0.858013 0.797621
Si Si3 0.901738 0.861318 0.409780
Si Si4 0.149720 0.305521 0.535573
Si Si5 0.904250 0.645607 0.704606
Si Si6 0.901482 0.644413 0.122292
Si Si7 0.358403 0.357860 0.324484
Si Si8 0.000000 0.500000 0.503673
O O1 0.738105 0.146554 0.006752
O O2 0.869514 0.250856 0.062551
O O3 0.862675 0.000000 0.031348
O O4 0.867977 0.160798 0.917310
O O5 0.373601 0.749506 0.852035
O O6 0.362851 0.836786 0.708061
O O7 0.239114 0.856657 0.806674
O O8 0.367205 0.000000 0.820067
O O9 0.865625 0.828866 0.494945
O O10 0.000000 0.861567 0.413329
O O11 0.873574 0.000000 0.383070
O O12 0.147096 0.309478 0.629428
O O13 0.073424 0.391468 0.507894
O O14 0.881375 0.500000 0.724380
O O15 0.895894 0.744439 0.774492
O O16 0.000000 0.641660 0.679548
O O17 0.881288 0.500000 0.097231
O O18 0.000000 0.653568 0.129164
O O19 0.389078 0.500000 0.304469
#
# Coordination Sequence:
#
# PCOD9375592 Si02
#       8
#     8   8   8   8   8   8   8   2
#     4  11  23  40  65  93 124 163 210 261 316 378
#     4  10  21  40  65  88 119 160 207 255 306 369
#     4  11  24  36  54  90 132 163 196 243 304 370
#     4  12  21  39  65  93 127 161 210 255 308 376
#     4  11  22  39  62  91 121 159 212 258 308 372
#     4  10  23  43  65  93 123 163 217 266 317 373
#     4  10  23  40  60  90 124 158 204 256 313 377
#     4  12  20  36  70 100 122 168 208 260 300 380
#
# _framework density 19.759618
#
# number of rings (size 3 to 8) (size 9 to 14) (size 15 to 20)
#    0.000    1.241    4.138    1.241    0.966    4.690 
#    0.000    2.759    0.000    0.000    0.000    0.000 
#    0.000    0.000    0.000    0.000    0.000    0.000 
#
# Total GULP energy -161746.028537 kJ/mol
# GULP energy per Si atom -5577.449260 kJ/mol
# Density = 1.971464 g / cm^3
# Si number density = 19.759618 Si / 1000 Ang^3
#
#
#
# Elastic Constant Matrix: (Units=GPa)
#
#
# Indices 1 2 3 4 5 6 
#
# 1 22.5096 23.2019 13.4739 0.0000 0.0000 0.0000
# 2 23.2019 167.0061 90.3232 0.0000 0.0000 0.0000
# 3 13.4739 90.3232 98.2656 0.0000 0.0000 0.0000
# 4 0.0000 0.0000 0.0000 25.0378 0.0000 0.0000
# 5 0.0000 0.0000 0.0000 0.0000 24.4344 0.0000
# 6 0.0000 0.0000 0.0000 0.0000 0.0000 23.2714
#
#
#
# Elastic Compliance Matrix: (Units=1/GPa)
#
#
# Indices 1 2 3 4 5 6 
#
# 1 0.051897 -0.006684 -0.000972 0.000000 0.000000 0.000000
# 2 -0.006684 0.012768 -0.010820 0.000000 0.000000 0.000000
# 3 -0.000972 -0.010820 0.020255 0.000000 0.000000 0.000000
# 4 0.000000 0.000000 0.000000 0.039940 0.000000 0.000000
# 5 0.000000 0.000000 0.000000 0.000000 0.040926 0.000000
# 6 0.000000 0.000000 0.000000 0.000000 0.000000 0.042971
#
#
# Mechanical properties :
#
#
# Convention : Reuss Voigt Hill
#
# Bulk Modulus (GPa) = 20.84708 60.19771 40.52240
# Shear Modulus (GPa) = 19.10601 25.26753 22.18677
#
# Velocity S-wave (km/s) = 3.11291 3.57984 3.35451
# Velocity P-wave (km/s) = 4.84701 6.90059 5.96287
#
# Compressibility (1/GPa) = 0.04796835
#
# Stress axis : x y z
#
# Youngs Moduli (GPa) = 19.26892 78.32042 49.37094
#
# Poissons Ratio (x) = 0.52352 0.04799
# Poissons Ratio (y) = 0.12880 0.53417
# Poissons Ratio (z) = 0.01873 0.84739
#
# Static dielectric constant tensor:
#      x y z
#    x 1.683140 0.000000 0.000000 
#    y 0.000000 1.709140 0.000000 
#    z 0.000000 0.000000 1.695910 
# 
# From -- ./inp_files/22131.got.cif
#   From: 2010.05.17/outbox.cif.g08.bks.cpg/sg44_12_cif.got.tgz:22131.got - 2010.06.03 19:37:08.
