data_PCOD9375314
_publ_section_title
;
Structure prediction by ZEFSAII (Michael W. Deem and Ramdas Pophale) SiO2 
 PCOD9375314
Probable space group: I M M 2
;
_chemical_formula_sum "Si O2"
_cell_formula_units_Z 64
_cell_length_a 32.823658
_cell_length_b 7.741910
_cell_length_c 12.273217
_cell_angle_alpha 90.000000
_cell_angle_beta 90.000000
_cell_angle_gamma 90.000000
_cell_volume 3118.842978
_symmetry_space_group_name_H-M "I M M 2"
_symmetry_group_IT_number 44
_symmetry_cell_setting 'orthorhombic'
loop_
_space_group_symop_operation_xyz
x,y,z
-x,-y,z
-x,y,z
x,-y,z
1/2+x,1/2+y,1/2+z
1/2-x,1/2-y,1/2+z
1/2-x,1/2+y,1/2+z
1/2+x,1/2-y,1/2+z
loop_
_atom_site_type_symbol
_atom_site_label
_atom_site_fract_x
_atom_site_fract_y
_atom_site_fract_z
Si Si1 0.547111 0.290856 0.404730
Si Si2 0.317987 0.199014 0.338387
Si Si3 0.851872 0.203242 0.276141
Si Si4 0.404071 0.302809 0.965546
Si Si5 0.373745 0.204743 0.531979
Si Si6 0.451441 0.704143 0.165252
Si Si7 0.770306 0.298826 0.399480
Si Si8 0.824532 0.288748 0.594245
O O1 0.500000 0.235068 0.422824
O O2 0.546312 0.500000 0.400050
O O3 0.579871 0.238144 0.494666
O O4 0.561632 0.227420 0.284196
O O5 0.344678 0.276932 0.435794
O O6 0.270253 0.202676 0.365141
O O7 0.323055 0.273140 0.217786
O O8 0.331439 0.000000 0.329464
O O9 0.889124 0.274861 0.350777
O O10 0.861474 0.224684 0.149707
O O11 0.808848 0.277775 0.318176
O O12 0.849298 0.000000 0.300997
O O13 0.418098 0.500000 0.944028
O O14 0.434844 0.219223 0.052465
O O15 0.362518 0.296236 0.034610
O O16 0.367323 0.000000 0.539441
O O17 0.500000 0.714293 0.166160
O O18 0.440009 0.500000 0.163528
O O19 0.759582 0.500000 0.402844
O O20 0.785759 0.245743 0.519478
O O21 0.828524 0.500000 0.589833
#
# Coordination Sequence:
#
# PCOD9375314 Si02
#       8
#     8   8   8   8   8   8   8   8
#     4   9  18  34  57  84 113 145 181 225 280 338
#     4  10  22  37  53  77 108 139 175 224 273 325
#     4  10  21  37  55  75 107 147 185 227 275 325
#     4   9  17  31  53  78 101 133 175 215 261 316
#     4  11  23  37  55  81 111 147 191 234 277 328
#     4   8  14  27  51  82 111 134 165 216 270 322
#     4  10  21  36  55  79 103 135 177 219 272 331
#     4   9  19  35  52  72 100 132 166 209 266 317
#
# _framework density 20.520432
#
# number of rings (size 3 to 8) (size 9 to 14) (size 15 to 20)
#    0.000    2.500    0.000    2.625    1.750    2.750 
#    0.000    0.625    0.000    3.375    0.000    0.000 
#    0.000    0.000    0.000    0.000    0.000    0.000 
#
# Total GULP energy -178399.783195 kJ/mol
# GULP energy per Si atom -5574.993225 kJ/mol
# Density = 2.047373 g / cm^3
# Si number density = 20.520432 Si / 1000 Ang^3
#
#
#
# Elastic Constant Matrix: (Units=GPa)
#
#
# Indices 1 2 3 4 5 6 
#
# 1 49.3652 -7.7463 43.3904 0.0000 0.0000 0.0000
# 2 -7.7463 34.7245 -0.7305 0.0000 0.0000 0.0000
# 3 43.3904 -0.7305 165.8641 0.0000 0.0000 0.0000
# 4 0.0000 0.0000 0.0000 9.7329 0.0000 0.0000
# 5 0.0000 0.0000 0.0000 0.0000 21.4613 0.0000
# 6 0.0000 0.0000 0.0000 0.0000 0.0000 12.5755
#
#
#
# Elastic Compliance Matrix: (Units=1/GPa)
#
#
# Indices 1 2 3 4 5 6 
#
# 1 0.027495 0.005983 -0.007166 0.000000 0.000000 0.000000
# 2 0.005983 0.030103 -0.001433 0.000000 0.000000 0.000000
# 3 -0.007166 -0.001433 0.007897 0.000000 0.000000 0.000000
# 4 0.000000 0.000000 0.000000 0.102744 0.000000 0.000000
# 5 0.000000 0.000000 0.000000 0.000000 0.046596 0.000000
# 6 0.000000 0.000000 0.000000 0.000000 0.000000 0.079520
#
#
# Mechanical properties :
#
#
# Convention : Reuss Voigt Hill
#
# Bulk Modulus (GPa) = 16.59400 35.53122 26.06261
# Shear Modulus (GPa) = 15.64091 23.08995 19.36543
#
# Velocity S-wave (km/s) = 2.76381 3.35807 3.07533
# Velocity P-wave (km/s) = 4.27657 5.69106 5.03374
#
# Compressibility (1/GPa) = 0.06026276
#
# Stress axis : x y z
#
# Youngs Moduli (GPa) = 36.37027 33.21976 126.62298
#
# Poissons Ratio (x) = -0.19875 0.90743
# Poissons Ratio (y) = -0.21760 0.18139
# Poissons Ratio (z) = 0.26064 0.04759
#
# Static dielectric constant tensor:
#      x y z
#    x 1.725860 0.000000 0.000000 
#    y 0.000000 1.800010 0.000000 
#    z 0.000000 0.000000 1.776000 
# 
# From -- ./inp_files/11555.got.cif
#   From: 2010.05.17/outbox.cif.g08.bks.cpg/sg44_6_cif.got.tgz:11555.got - 2010.06.03 19:37:08.
