data_PCOD9375268
_publ_section_title
;
Structure prediction by ZEFSAII (Michael W. Deem and Ramdas Pophale) SiO2 
 PCOD9375268
Probable space group: I M M 2
;
_chemical_formula_sum "Si O2"
_cell_formula_units_Z 58
_cell_length_a 14.054314
_cell_length_b 13.787675
_cell_length_c 12.388535
_cell_angle_alpha 90.000000
_cell_angle_beta 90.000000
_cell_angle_gamma 90.000000
_cell_volume 2400.604645
_symmetry_space_group_name_H-M "I M M 2"
_symmetry_group_IT_number 44
_symmetry_cell_setting 'orthorhombic'
loop_
_space_group_symop_operation_xyz
x,y,z
-x,-y,z
-x,y,z
x,-y,z
1/2+x,1/2+y,1/2+z
1/2-x,1/2-y,1/2+z
1/2-x,1/2+y,1/2+z
1/2+x,1/2-y,1/2+z
loop_
_atom_site_type_symbol
_atom_site_label
_atom_site_fract_x
_atom_site_fract_y
_atom_site_fract_z
Si Si1 0.108581 0.216255 0.435670
Si Si2 0.396536 0.316676 0.640090
Si Si3 0.609588 0.607870 0.167630
Si Si4 0.609411 0.195149 0.245865
Si Si5 0.291402 0.112005 0.043893
Si Si6 0.112380 0.606216 0.161425
Si Si7 0.705526 0.889086 0.429218
Si Si8 0.000000 0.000000 0.218268
O O1 0.107003 0.150353 0.546436
O O2 0.138964 0.324861 0.468766
O O3 0.203516 0.169814 0.387465
O O4 0.000000 0.211315 0.394389
O O5 0.500000 0.303578 0.583030
O O6 0.312554 0.339233 0.556321
O O7 0.378629 0.216629 0.706287
O O8 0.417978 0.413662 0.708516
O O9 0.500000 0.598367 0.202822
O O10 0.651218 0.500000 0.172155
O O11 0.651209 0.695801 0.236818
O O12 0.500000 0.198696 0.209496
O O13 0.665140 0.126654 0.163388
O O14 0.617648 0.153717 0.364061
O O15 0.284786 0.000000 0.013980
O O16 0.132826 0.500000 0.214512
O O17 0.178483 0.613782 0.055276
O O18 0.000000 0.600124 0.134283
O O19 0.721406 0.000000 0.401871
#
# Coordination Sequence:
#
# PCOD9375268 Si02
#       8
#     8   8   8   8   8   8   8   2
#     4  10  21  35  54  81 108 140 184 235 279 326
#     4   9  16  30  49  75 107 138 175 218 267 322
#     4   8  15  32  57  78 102 135 174 221 271 321
#     4  10  22  36  53  79 113 146 182 226 277 338
#     4  11  19  34  57  83 111 145 185 228 278 330
#     4   9  17  29  49  74 104 137 173 219 266 317
#     4  11  21  34  52  76 108 142 177 220 278 334
#     4   8  16  28  50  72 110 144 164 222 266 320
#
# _framework density 24.160581000000001
#
# number of rings (size 3 to 8) (size 9 to 14) (size 15 to 20)
#    0.414    1.931    2.069    2.483    0.000    3.310 
#    0.000    1.379    1.517    1.655    0.000    0.000 
#    0.000    3.586    0.000    0.000    0.000    0.000 
#
# Total GULP energy -161439.194823 kJ/mol
# GULP energy per Si atom -5566.868787 kJ/mol
# Density = 2.410559 g / cm^3
# Si number density = 24.160581 Si / 1000 Ang^3
#
#
#
# Elastic Constant Matrix: (Units=GPa)
#
#
# Indices 1 2 3 4 5 6 
#
# 1 141.0770 27.7664 4.1405 0.0000 0.0000 0.0000
# 2 27.7664 220.4248 11.3226 0.0000 0.0000 0.0000
# 3 4.1405 11.3226 17.0344 0.0000 0.0000 0.0000
# 4 0.0000 0.0000 0.0000 9.6394 0.0000 0.0000
# 5 0.0000 0.0000 0.0000 0.0000 20.9847 0.0000
# 6 0.0000 0.0000 0.0000 0.0000 0.0000 38.8717
#
#
#
# Elastic Compliance Matrix: (Units=1/GPa)
#
#
# Indices 1 2 3 4 5 6 
#
# 1 0.007292 -0.000857 -0.001203 0.000000 0.000000 0.000000
# 2 -0.000857 0.004798 -0.002981 0.000000 0.000000 0.000000
# 3 -0.001203 -0.002981 0.060978 0.000000 0.000000 0.000000
# 4 0.000000 0.000000 0.000000 0.103741 0.000000 0.000000
# 5 0.000000 0.000000 0.000000 0.000000 0.047654 0.000000
# 6 0.000000 0.000000 0.000000 0.000000 0.000000 0.025726
#
#
# Mechanical properties :
#
#
# Convention : Reuss Voigt Hill
#
# Bulk Modulus (GPa) = 15.87621 51.66614 33.77117
# Shear Modulus (GPa) = 17.77678 36.25294 27.01486
#
# Velocity S-wave (km/s) = 2.71546 3.87783 3.34748
# Velocity P-wave (km/s) = 4.05179 6.44057 5.38043
#
# Compressibility (1/GPa) = 0.06298732
#
# Stress axis : x y z
#
# Youngs Moduli (GPa) = 137.13153 208.43158 16.39923
#
# Poissons Ratio (x) = 0.17858 0.01973
# Poissons Ratio (y) = 0.11749 0.04888
# Poissons Ratio (z) = 0.16497 0.62129
#
# Static dielectric constant tensor:
#      x y z
#    x 1.947830 0.000000 0.000000 
#    y 0.000000 1.946610 0.000000 
#    z 0.000000 0.000000 1.934590 
# 
# From -- ./inp_files/21876.got.cif
#   From: 2010.05.17/outbox.cif.g08.bks.cpg/sg44_11_cif.got.tgz:21876.got - 2010.06.03 19:37:08.
