data_PCOD9375322
_publ_section_title
;
Structure prediction by ZEFSAII (Michael W. Deem and Ramdas Pophale) SiO2 
 PCOD9375322
Probable space group: I M M 2
;
_chemical_formula_sum "Si O2"
_cell_formula_units_Z 40
_cell_length_a 29.774930
_cell_length_b 9.105722
_cell_length_c 7.376187
_cell_angle_alpha 90.000000
_cell_angle_beta 90.000000
_cell_angle_gamma 90.000000
_cell_volume 1999.848306
_symmetry_space_group_name_H-M "I M M 2"
_symmetry_group_IT_number 44
_symmetry_cell_setting 'orthorhombic'
loop_
_space_group_symop_operation_xyz
x,y,z
-x,-y,z
-x,y,z
x,-y,z
1/2+x,1/2+y,1/2+z
1/2-x,1/2-y,1/2+z
1/2-x,1/2+y,1/2+z
1/2+x,1/2-y,1/2+z
loop_
_atom_site_type_symbol
_atom_site_label
_atom_site_fract_x
_atom_site_fract_y
_atom_site_fract_z
Si Si1 0.121164 0.677263 0.493380
Si Si2 0.693036 0.835638 0.512994
Si Si3 0.551601 0.825728 0.310968
Si Si4 0.894414 0.825524 0.106008
Si Si5 0.281632 0.835544 0.935642
O O1 0.120940 0.500000 0.466454
O O2 0.086012 0.713446 0.650330
O O3 0.107549 0.755461 0.306337
O O4 0.173249 0.716249 0.538743
O O5 0.649862 0.732776 0.499911
O O6 0.702344 0.845504 0.728364
O O7 0.738903 0.768894 0.437949
O O8 0.683630 0.000000 0.443493
O O9 0.500000 0.800999 0.257241
O O10 0.564362 0.736163 0.489890
O O11 0.557273 0.000000 0.347947
O O12 0.894225 0.000000 0.117349
O O13 0.269036 0.000000 0.998791
#
# Coordination Sequence:
#
# PCOD9375322 Si02
#       5
#     8   8   8   8   8
#     4   9  20  40  62  87 120 158 202 250 300 356
#     4  10  21  36  55  81 115 156 200 240 289 353
#     4  10  22  41  66  93 119 156 205 252 303 360
#     4  11  23  39  60  88 124 161 199 246 303 359
#     4   9  19  34  52  81 115 150 195 243 294 349
#
# _framework density 20.001515999999999
#
# number of rings (size 3 to 8) (size 9 to 14) (size 15 to 20)
#    0.000    2.200    0.000    3.600    2.800    6.000 
#    0.000    2.000    0.000    0.000    0.000    0.000 
#    0.000    0.000    0.000    0.000    0.000    0.000 
#
# Total GULP energy -111699.385775 kJ/mol
# GULP energy per Si atom -5584.969289 kJ/mol
# Density = 1.995599 g / cm^3
# Si number density = 20.001516 Si / 1000 Ang^3
#
#
#
# Elastic Constant Matrix: (Units=GPa)
#
#
# Indices 1 2 3 4 5 6 
#
# 1 86.4868 32.4346 23.2103 0.0000 0.0000 0.0000
# 2 32.4346 66.2096 29.2939 0.0000 0.0000 0.0000
# 3 23.2103 29.2939 55.0773 0.0000 0.0000 0.0000
# 4 0.0000 0.0000 0.0000 17.1190 0.0000 0.0000
# 5 0.0000 0.0000 0.0000 0.0000 35.7214 0.0000
# 6 0.0000 0.0000 0.0000 0.0000 0.0000 23.3246
#
#
#
# Elastic Compliance Matrix: (Units=1/GPa)
#
#
# Indices 1 2 3 4 5 6 
#
# 1 0.014549 -0.005773 -0.003061 0.000000 0.000000 0.000000
# 2 -0.005773 0.022042 -0.009291 0.000000 0.000000 0.000000
# 3 -0.003061 -0.009291 0.024388 0.000000 0.000000 0.000000
# 4 0.000000 0.000000 0.000000 0.058415 0.000000 0.000000
# 5 0.000000 0.000000 0.000000 0.000000 0.027994 0.000000
# 6 0.000000 0.000000 0.000000 0.000000 0.000000 0.042873
#
#
# Mechanical properties :
#
#
# Convention : Reuss Voigt Hill
#
# Bulk Modulus (GPa) = 40.43689 41.96126 41.19908
# Shear Modulus (GPa) = 21.29901 23.42201 22.36051
#
# Velocity S-wave (km/s) = 3.26677 3.42572 3.34719
# Velocity P-wave (km/s) = 5.87281 6.05574 5.96498
#
# Compressibility (1/GPa) = 0.02472989
#
# Stress axis : x y z
#
# Youngs Moduli (GPa) = 68.73405 45.36746 41.00458
#
# Poissons Ratio (x) = 0.26191 0.12550
# Poissons Ratio (y) = 0.39680 0.38096
# Poissons Ratio (z) = 0.21037 0.42150
#
# Static dielectric constant tensor:
#      x y z
#    x 1.720410 0.000000 0.000000 
#    y 0.000000 1.695970 0.000000 
#    z 0.000000 0.000000 1.736100 
# 
# From -- ./inp_files/4443.got.cif
#   From: 2010.05.17/outbox.cif.g08.bks.cpg/sg44_3_cif.got.tgz:4443.got - 2010.06.03 19:37:08.
