data_PCOD9375939
_publ_section_title
;
Structure prediction by ZEFSAII (Michael W. Deem and Ramdas Pophale) SiO2 
 PCOD9375939
Probable space group: I M M 2
;
_chemical_formula_sum "Si O2"
_cell_formula_units_Z 56
_cell_length_a 19.401790
_cell_length_b 19.401789
_cell_length_c 6.946992
_cell_angle_alpha 90.000000
_cell_angle_beta 90.000000
_cell_angle_gamma 90.000000
_cell_volume 2615.052279
_symmetry_space_group_name_H-M "I M M 2"
_symmetry_group_IT_number 44
_symmetry_cell_setting 'orthorhombic'
loop_
_space_group_symop_operation_xyz
x,y,z
-x,-y,z
-x,y,z
x,-y,z
1/2+x,1/2+y,1/2+z
1/2-x,1/2-y,1/2+z
1/2-x,1/2+y,1/2+z
1/2+x,1/2-y,1/2+z
loop_
_atom_site_type_symbol
_atom_site_label
_atom_site_fract_x
_atom_site_fract_y
_atom_site_fract_z
Si Si1 0.799133 0.317191 0.678510
Si Si2 0.922705 0.922705 0.704341
Si Si3 0.727281 0.424012 0.182663
Si Si4 0.682809 0.799134 0.730174
Si Si5 0.308741 0.420587 0.641506
Si Si6 0.924012 0.227281 0.726020
Si Si7 0.420587 0.691259 0.767177
O O1 0.738817 0.261183 0.704342
O O2 0.819842 0.319843 0.454342
O O3 0.762014 0.388737 0.727930
O O4 0.864600 0.281132 0.776061
O O5 0.849628 0.920833 0.591921
O O6 0.920833 0.849628 0.816762
O O7 0.000000 0.921305 0.610172
O O8 0.921305 0.000000 0.798511
O O9 0.756089 0.500000 0.151952
O O10 0.781132 0.364600 0.132622
O O11 0.706174 0.417182 0.410170
O O12 0.611263 0.762014 0.680753
O O13 0.319661 0.500000 0.690730
O O14 0.371505 0.371505 0.704341
O O15 0.917182 0.206174 0.498513
O O16 0.000000 0.256089 0.756731
O O17 0.500000 0.680340 0.717953
#
# Coordination Sequence:
#
# PCOD9375939 Si02
#       7
#     8   8   8   8   8   8   8
#     4   9  16  28  45  62  84 113 144 182 216 256
#     4   9  16  24  36  58  86 110 131 162 202 244
#     4   9  16  27  43  62  84 112 144 175 212 256
#     4   9  16  28  45  62  84 113 144 182 216 256
#     4   9  18  29  42  61  84 113 143 174 215 260
#     4   9  16  27  43  62  84 112 144 175 212 256
#     4   9  18  29  42  61  84 113 143 174 215 260
#
# _framework density 21.414486
#
# number of rings (size 3 to 8) (size 9 to 14) (size 15 to 20)
#    0.000    3.000    1.429    0.000    0.000    1.429 
#    0.000    2.857    0.000    0.857    0.000    6.000 
#    0.000    0.000    0.000    6.571    0.000    9.714 
#
# Total GULP energy -155948.489755 kJ/mol
# GULP energy per Si atom -5569.588920 kJ/mol
# Density = 2.136575 g / cm^3
# Si number density = 21.414486 Si / 1000 Ang^3
#
#
#
# Elastic Constant Matrix: (Units=GPa)
#
#
# Indices 1 2 3 4 5 6 
#
# 1 151.1096 104.4030 4.1030 0.0000 0.0000 0.0000
# 2 104.4030 151.1082 4.1026 0.0000 0.0000 0.0000
# 3 4.1030 4.1026 97.0591 0.0000 0.0000 0.0000
# 4 0.0000 0.0000 0.0000 12.9775 0.0000 0.0000
# 5 0.0000 0.0000 0.0000 0.0000 12.9775 0.0000
# 6 0.0000 0.0000 0.0000 0.0000 0.0000 42.5931
#
#
#
# Elastic Compliance Matrix: (Units=1/GPa)
#
#
# Indices 1 2 3 4 5 6 
#
# 1 0.012665 -0.008746 -0.000166 0.000000 0.000000 0.000000
# 2 -0.008746 0.012665 -0.000166 0.000000 0.000000 0.000000
# 3 -0.000166 -0.000166 0.010317 0.000000 0.000000 0.000000
# 4 0.000000 0.000000 0.000000 0.077056 0.000000 0.000000
# 5 0.000000 0.000000 0.000000 0.000000 0.077056 0.000000
# 6 0.000000 0.000000 0.000000 0.000000 0.000000 0.023478
#
#
# Mechanical properties :
#
#
# Convention : Reuss Voigt Hill
#
# Bulk Modulus (GPa) = 57.16761 69.38823 63.27792
# Shear Modulus (GPa) = 21.07725 32.82083 26.94904
#
# Velocity S-wave (km/s) = 3.14068 3.91915 3.55131
# Velocity P-wave (km/s) = 6.31709 7.27684 6.81388
#
# Compressibility (1/GPa) = 0.01749242
#
# Stress axis : x y z
#
# Youngs Moduli (GPa) = 78.95933 78.95860 96.92735
#
# Poissons Ratio (x) = 0.69055 0.01606
# Poissons Ratio (y) = 0.69056 0.01605
# Poissons Ratio (z) = 0.01308 0.01308
#
# Static dielectric constant tensor:
#      x y z
#    x 1.774840 0.000000 0.000000 
#    y 0.000000 1.774840 0.000000 
#    z 0.000000 0.000000 2.023910 
# 
# From -- ./inp_files/8387.got.cif
#   From: 2010.05.17/outbox.cif.g08.bks.cpg/sg44_5_cif.got.tgz:8387.got - 2010.06.03 19:37:08.
