data_PCOD9375421
_publ_section_title
;
Structure prediction by ZEFSAII (Michael W. Deem and Ramdas Pophale) SiO2 
 PCOD9375421
Probable space group: I M M 2
;
_chemical_formula_sum "Si O2"
_cell_formula_units_Z 64
_cell_length_a 14.039715
_cell_length_b 9.121050
_cell_length_c 24.558856
_cell_angle_alpha 90.000000
_cell_angle_beta 90.000000
_cell_angle_gamma 90.000000
_cell_volume 3144.932011
_symmetry_space_group_name_H-M "I M M 2"
_symmetry_group_IT_number 44
_symmetry_cell_setting 'orthorhombic'
loop_
_space_group_symop_operation_xyz
x,y,z
-x,-y,z
-x,y,z
x,-y,z
1/2+x,1/2+y,1/2+z
1/2-x,1/2-y,1/2+z
1/2-x,1/2+y,1/2+z
1/2+x,1/2-y,1/2+z
loop_
_atom_site_type_symbol
_atom_site_label
_atom_site_fract_x
_atom_site_fract_y
_atom_site_fract_z
Si Si1 0.884968 0.167925 0.550090
Si Si2 0.389704 0.176958 0.280618
Si Si3 0.614849 0.829030 0.718295
Si Si4 0.884305 0.832809 0.109547
Si Si5 0.611722 0.825483 0.497361
Si Si6 0.787398 0.675072 0.449718
Si Si7 0.284783 0.176030 0.829707
Si Si8 0.884017 0.331191 0.658774
O O1 0.848452 0.256989 0.498363
O O2 0.852164 0.238860 0.607010
O O3 0.000000 0.170315 0.550396
O O4 0.853025 0.000000 0.546323
O O5 0.500000 0.215843 0.289821
O O6 0.317581 0.250209 0.321838
O O7 0.360578 0.224580 0.219210
O O8 0.383189 0.000000 0.282141
O O9 0.500000 0.822778 0.719669
O O10 0.648506 0.731969 0.667300
O O11 0.653568 0.780397 0.777051
O O12 0.641231 0.000000 0.709342
O O13 0.861987 0.731136 0.057973
O O14 0.000000 0.835082 0.112197
O O15 0.852525 0.000000 0.100498
O O16 0.500000 0.792316 0.488255
O O17 0.681867 0.741139 0.457175
O O18 0.624035 0.000000 0.493471
O O19 0.784993 0.500000 0.455022
O O20 0.824403 0.713857 0.389316
O O21 0.275601 0.000000 0.828141
O O22 0.853368 0.500000 0.653562
O O23 0.000000 0.332644 0.657970
#
# Coordination Sequence:
#
# PCOD9375421 Si02
#       8
#     8   8   8   8   8   8   8   8
#     4  10  21  37  58  85 115 146 182 227 278 329
#     4   9  19  36  58  83 111 144 179 217 267 326
#     4   9  18  35  57  79 108 145 182 223 271 323
#     4   9  17  31  54  85 116 143 176 219 269 328
#     4  10  21  38  60  84 111 145 183 226 279 333
#     4  11  24  40  57  79 109 147 192 235 274 324
#     4  10  23  39  55  79 107 141 188 233 272 318
#     4   8  15  31  55  82 111 143 180 220 268 330
#
# _framework density 20.350200000000001
#
# number of rings (size 3 to 8) (size 9 to 14) (size 15 to 20)
#    0.000    2.500    0.000    2.250    0.000    7.250 
#    0.000    7.500    0.000    1.500    0.000    0.000 
#    0.000    0.000    0.000    0.000    0.000    0.000 
#
# Total GULP energy -178751.409087 kJ/mol
# GULP energy per Si atom -5585.981534 kJ/mol
# Density = 2.030388 g / cm^3
# Si number density = 20.350200 Si / 1000 Ang^3
#
#
#
# Elastic Constant Matrix: (Units=GPa)
#
#
# Indices 1 2 3 4 5 6 
#
# 1 29.2734 -1.1785 -1.8857 0.0000 0.0000 0.0000
# 2 -1.1785 58.5136 35.5251 0.0000 0.0000 0.0000
# 3 -1.8857 35.5251 101.3748 0.0000 0.0000 0.0000
# 4 0.0000 0.0000 0.0000 29.4003 0.0000 0.0000
# 5 0.0000 0.0000 0.0000 0.0000 26.8119 0.0000
# 6 0.0000 0.0000 0.0000 0.0000 0.0000 24.2421
#
#
#
# Elastic Compliance Matrix: (Units=1/GPa)
#
#
# Indices 1 2 3 4 5 6 
#
# 1 0.034208 0.000384 0.000502 0.000000 0.000000 0.000000
# 2 0.000384 0.021713 -0.007602 0.000000 0.000000 0.000000
# 3 0.000502 -0.007602 0.012538 0.000000 0.000000 0.000000
# 4 0.000000 0.000000 0.000000 0.034013 0.000000 0.000000
# 5 0.000000 0.000000 0.000000 0.000000 0.037297 0.000000
# 6 0.000000 0.000000 0.000000 0.000000 0.000000 0.041251
#
#
# Mechanical properties :
#
#
# Convention : Reuss Voigt Hill
#
# Bulk Modulus (GPa) = 18.17268 28.23150 23.20209
# Shear Modulus (GPa) = 23.49691 26.53759 25.01725
#
# Velocity S-wave (km/s) = 3.40167 3.61508 3.50999
# Velocity P-wave (km/s) = 4.93739 5.59714 5.27758
#
# Compressibility (1/GPa) = 0.05502765
#
# Stress axis : x y z
#
# Youngs Moduli (GPa) = 29.23252 46.05527 79.75974
#
# Poissons Ratio (x) = -0.01771 -0.04001
# Poissons Ratio (y) = -0.01124 0.60632
# Poissons Ratio (z) = -0.01466 0.35010
#
# Static dielectric constant tensor:
#      x y z
#    x 1.760210 0.000000 0.000000 
#    y 0.000000 1.681700 0.000000 
#    z 0.000000 0.000000 1.713090 
# 
# From -- ./inp_files/25130.got.cif
#   From: 2010.05.17/outbox.cif.g08.bks.cpg/sg44_13_cif.got.tgz:25130.got - 2010.06.03 19:37:08.
