data_PCOD9375124
_publ_section_title
;
Structure prediction by ZEFSAII (Michael W. Deem and Ramdas Pophale) SiO2 
 PCOD9375124
Probable space group: I M M 2
;
_chemical_formula_sum "Si O2"
_cell_formula_units_Z 48
_cell_length_a 8.542607
_cell_length_b 14.842691
_cell_length_c 20.876991
_cell_angle_alpha 90.000000
_cell_angle_beta 90.000000
_cell_angle_gamma 90.000000
_cell_volume 2647.103837
_symmetry_space_group_name_H-M "I M M 2"
_symmetry_group_IT_number 44
_symmetry_cell_setting 'orthorhombic'
loop_
_space_group_symop_operation_xyz
x,y,z
-x,-y,z
-x,y,z
x,-y,z
1/2+x,1/2+y,1/2+z
1/2-x,1/2-y,1/2+z
1/2-x,1/2+y,1/2+z
1/2+x,1/2-y,1/2+z
loop_
_atom_site_type_symbol
_atom_site_label
_atom_site_fract_x
_atom_site_fract_y
_atom_site_fract_z
Si Si1 0.812107 0.694881 0.937070
Si Si2 0.689697 0.197044 0.673668
Si Si3 0.687696 0.311660 0.797457
Si Si4 0.309656 0.000000 0.635983
Si Si5 0.686075 0.500000 0.599834
Si Si6 0.690375 0.000000 0.487478
Si Si7 0.686681 0.000000 0.244789
Si Si8 0.813658 0.311958 0.553757
O O1 0.758407 0.715748 0.865418
O O2 0.759393 0.592531 0.954034
O O3 0.000000 0.697414 0.941612
O O4 0.742660 0.762173 0.989639
O O5 0.500000 0.200912 0.668044
O O6 0.733902 0.244759 0.739865
O O7 0.739514 0.092999 0.668729
O O8 0.759202 0.251687 0.614056
O O9 0.500000 0.312437 0.801650
O O10 0.746651 0.410736 0.778033
O O11 0.259781 0.000000 0.561663
O O12 0.500000 0.000000 0.635789
O O13 0.500000 0.500000 0.608685
O O14 0.763751 0.500000 0.670312
O O15 0.738514 0.410094 0.563285
O O16 0.500000 0.000000 0.486793
O O17 0.500000 0.000000 0.249934
O O18 0.000000 0.320201 0.554076
#
# Coordination Sequence:
#
# PCOD9375124 Si02
#       8
#     8   8   8   4   4   4   4   8
#     4  11  22  39  61  87 123 165 205 249 306 365
#     4  10  20  37  62  86 117 158 202 249 303 360
#     4  11  23  38  58  88 124 163 206 252 305 364
#     4   9  16  33  60  89 113 146 198 245 288 349
#     4  12  24  41  64  91 120 156 204 254 308 365
#     4   9  17  31  58  88 113 149 198 244 292 356
#     4  12  23  37  60  92 126 161 200 249 312 374
#     4  12  24  39  61  90 123 157 201 252 305 367
#
# _framework density 18.133023999999999
#
# number of rings (size 3 to 8) (size 9 to 14) (size 15 to 20)
#    0.000    1.167    3.333    4.500    0.000    1.333 
#    0.000    3.333    0.000    2.000    0.000    0.000 
#    0.000    0.000    0.000    0.000    0.000    0.000 
#
# Total GULP energy -134174.711938 kJ/mol
# GULP energy per Si atom -5590.612997 kJ/mol
# Density = 1.809175 g / cm^3
# Si number density = 18.133024 Si / 1000 Ang^3
#
#
#
# Elastic Constant Matrix: (Units=GPa)
#
#
# Indices 1 2 3 4 5 6 
#
# 1 29.5459 11.7985 3.7826 0.0000 0.0000 0.0000
# 2 11.7985 132.9266 54.6460 0.0000 0.0000 0.0000
# 3 3.7826 54.6460 122.4947 0.0000 0.0000 0.0000
# 4 0.0000 0.0000 0.0000 17.6126 0.0000 0.0000
# 5 0.0000 0.0000 0.0000 0.0000 30.6057 0.0000
# 6 0.0000 0.0000 0.0000 0.0000 0.0000 -5.5986
#
#
#
# Elastic Compliance Matrix: (Units=1/GPa)
#
#
# Indices 1 2 3 4 5 6 
#
# 1 0.035103 -0.003270 0.000375 0.000000 0.000000 0.000000
# 2 -0.003270 0.009517 -0.004145 0.000000 0.000000 0.000000
# 3 0.000375 -0.004145 0.010001 0.000000 0.000000 0.000000
# 4 0.000000 0.000000 0.000000 0.056778 0.000000 0.000000
# 5 0.000000 0.000000 0.000000 0.000000 0.032674 0.000000
# 6 0.000000 0.000000 0.000000 0.000000 0.000000 -0.178615
#
#
# Mechanical properties :
#
#
# Convention : Reuss Voigt Hill
#
# Bulk Modulus (GPa) = 24.66581 47.26906 35.96743
# Shear Modulus (GPa) = -719.55587 22.83994 -348.35797
#
# Velocity S-wave (km/s) = -19.94197 3.55290 -13.87550
# Velocity P-wave (km/s) = 22.72907 6.55403 15.38921
#
# Compressibility (1/GPa) = 0.04054196
#
# Stress axis : x y z
#
# Youngs Moduli (GPa) = 28.48724 105.07462 99.98978
#
# Poissons Ratio (x) = 0.34357 -0.03747
# Poissons Ratio (y) = 0.09315 0.41442
# Poissons Ratio (z) = -0.01067 0.43550
#
# Static dielectric constant tensor:
#      x y z
#    x 1.613570 0.000000 0.000000 
#    y 0.000000 1.613040 0.000000 
#    z 0.000000 0.000000 1.593440 
# 
# From -- ./inp_files/20376.got.cif
#   From: 2010.05.17/outbox.cif.g08.bks.cpg/sg44_11_cif.got.tgz:20376.got - 2010.06.03 19:37:08.
