data_PCOD9375922
_publ_section_title
;
Structure prediction by ZEFSAII (Michael W. Deem and Ramdas Pophale) SiO2 
 PCOD9375922
Probable space group: I M M 2
;
_chemical_formula_sum "Si O2"
_cell_formula_units_Z 64
_cell_length_a 15.632053
_cell_length_b 22.750815
_cell_length_c 7.059588
_cell_angle_alpha 90.000000
_cell_angle_beta 90.000000
_cell_angle_gamma 90.000000
_cell_volume 2510.685613
_symmetry_space_group_name_H-M "I M M 2"
_symmetry_group_IT_number 44
_symmetry_cell_setting 'orthorhombic'
loop_
_space_group_symop_operation_xyz
x,y,z
-x,-y,z
-x,y,z
x,-y,z
1/2+x,1/2+y,1/2+z
1/2-x,1/2-y,1/2+z
1/2-x,1/2+y,1/2+z
1/2+x,1/2-y,1/2+z
loop_
_atom_site_type_symbol
_atom_site_label
_atom_site_fract_x
_atom_site_fract_y
_atom_site_fract_z
Si Si1 0.872965 0.062917 0.485770
Si Si2 0.097993 0.936588 0.037739
Si Si3 0.654733 0.188652 0.594659
Si Si4 0.827220 0.185419 0.088211
Si Si5 0.595810 0.063344 0.952545
Si Si6 0.357099 0.686737 0.043733
Si Si7 0.874470 0.687229 0.527337
Si Si8 0.830060 0.564174 0.047291
O O1 0.901505 0.063186 0.267949
O O2 0.899127 0.123704 0.583242
O O3 0.769154 0.064058 0.487432
O O4 0.899899 0.000000 0.568119
O O5 0.142326 0.874840 0.994407
O O6 0.000000 0.935442 0.975475
O O7 0.138073 0.000000 0.982755
O O8 0.637009 0.252788 0.508953
O O9 0.758797 0.187102 0.619231
O O10 0.611723 0.187591 0.800215
O O11 0.632636 0.127899 0.490490
O O12 0.847638 0.186250 0.312991
O O13 0.726038 0.187319 0.068297
O O14 0.500000 0.061975 0.868110
O O15 0.597994 0.121424 0.078951
O O16 0.661317 0.066728 0.777084
O O17 0.610122 0.000000 0.048526
O O18 0.402260 0.748092 0.093715
O O19 0.866767 0.500000 0.993553
#
# Coordination Sequence:
#
# PCOD9375922 Si02
#       8
#     8   8   8   8   8   8   8   8
#     4   8  13  23  40  59  79 107 141 171 202 248
#     4   9  17  28  41  61  89 114 138 177 224 258
#     4   8  14  25  40  61  86 110 137 176 218 249
#     4   9  16  26  41  62  84 111 145 177 209 251
#     4   9  17  28  41  61  89 114 138 177 224 258
#     4   8  14  25  40  61  86 110 137 176 218 249
#     4   9  16  26  41  62  84 111 145 177 209 251
#     4   8  13  23  40  59  79 107 141 171 202 248
#
# _framework density 25.491046000000001
#
# number of rings (size 3 to 8) (size 9 to 14) (size 15 to 20)
#    0.000    3.500    0.000    0.000    0.000    0.500 
#    0.000   10.000    0.000    0.000    0.000   42.000 
#    0.000   66.000    0.000    0.000    0.000    0.000 
#
# Total GULP energy -178358.501033 kJ/mol
# GULP energy per Si atom -5573.703157 kJ/mol
# Density = 2.543303 g / cm^3
# Si number density = 25.491046 Si / 1000 Ang^3
#
#
#
# Elastic Constant Matrix: (Units=GPa)
#
#
# Indices 1 2 3 4 5 6 
#
# 1 22.6120 30.0405 25.2904 0.0000 0.0000 0.0000
# 2 30.0405 338.6539 0.2924 0.0000 0.0000 0.0000
# 3 25.2904 0.2924 95.8270 0.0000 0.0000 0.0000
# 4 0.0000 0.0000 0.0000 -11.8909 0.0000 0.0000
# 5 0.0000 0.0000 0.0000 0.0000 -1.0345 0.0000
# 6 0.0000 0.0000 0.0000 0.0000 0.0000 26.7817
#
#
#
# Elastic Compliance Matrix: (Units=1/GPa)
#
#
# Indices 1 2 3 4 5 6 
#
# 1 0.075265 -0.006659 -0.019843 0.000000 0.000000 0.000000
# 2 -0.006659 0.003542 0.001747 0.000000 0.000000 0.000000
# 3 -0.019843 0.001747 0.015667 0.000000 0.000000 0.000000
# 4 0.000000 0.000000 0.000000 -0.084098 0.000000 0.000000
# 5 0.000000 0.000000 0.000000 0.000000 -0.966618 0.000000
# 6 0.000000 0.000000 0.000000 0.000000 0.000000 0.037339
#
#
# Mechanical properties :
#
#
# Convention : Reuss Voigt Hill
#
# Bulk Modulus (GPa) = 22.24084 63.14885 42.69485
# Shear Modulus (GPa) = -5.85204 29.53589 11.84192
#
# Velocity S-wave (km/s) = -1.51681 3.40763 2.15769
# Velocity P-wave (km/s) = 2.38250 6.34896 4.79508
#
# Compressibility (1/GPa) = 0.04496233
#
# Stress axis : x y z
#
# Youngs Moduli (GPa) = 13.28633 282.32003 63.82767
#
# Poissons Ratio (x) = 1.88006 1.26656
# Poissons Ratio (y) = 0.08848 -0.11149
# Poissons Ratio (z) = 0.26365 -0.49313
#
# Static dielectric constant tensor:
#      x y z
#    x 1.638680 0.000000 0.000000 
#    y 0.000000 2.145600 0.000000 
#    z 0.000000 0.000000 1.949200 
# 
# From -- ./inp_files/14100.got.cif
#   From: 2010.05.17/outbox.cif.g08.bks.cpg/sg44_8_cif.got.tgz:14100.got - 2010.06.03 19:37:08.
