data_PCOD9375797
_publ_section_title
;
Structure prediction by ZEFSAII (Michael W. Deem and Ramdas Pophale) SiO2 
 PCOD9375797
Probable space group: I M M 2
;
_chemical_formula_sum "Si O2"
_cell_formula_units_Z 56
_cell_length_a 14.314966
_cell_length_b 13.306652
_cell_length_c 16.991431
_cell_angle_alpha 90.000000
_cell_angle_beta 90.000000
_cell_angle_gamma 90.000000
_cell_volume 3236.600346
_symmetry_space_group_name_H-M "I M M 2"
_symmetry_group_IT_number 44
_symmetry_cell_setting 'orthorhombic'
loop_
_space_group_symop_operation_xyz
x,y,z
-x,-y,z
-x,y,z
x,-y,z
1/2+x,1/2+y,1/2+z
1/2-x,1/2-y,1/2+z
1/2-x,1/2+y,1/2+z
1/2+x,1/2-y,1/2+z
loop_
_atom_site_type_symbol
_atom_site_label
_atom_site_fract_x
_atom_site_fract_y
_atom_site_fract_z
Si Si1 0.258252 0.737042 0.609420
Si Si2 0.601460 0.878933 0.895121
Si Si3 0.111682 0.618565 0.212500
Si Si4 0.292028 0.380714 0.465654
Si Si5 0.108672 0.811445 0.807114
Si Si6 0.891438 0.883347 0.630967
Si Si7 0.609803 0.882260 0.213778
O O1 0.328280 0.802648 0.663058
O O2 0.317822 0.682069 0.542378
O O3 0.181115 0.818379 0.581770
O O4 0.190727 0.656580 0.654533
O O5 0.500000 0.837223 0.915488
O O6 0.625110 0.855149 0.804692
O O7 0.682991 0.854428 0.954163
O O8 0.595656 0.000000 0.895853
O O9 0.138103 0.500000 0.200644
O O10 0.000000 0.625227 0.197043
O O11 0.303819 0.500000 0.476597
O O12 0.338344 0.349159 0.383500
O O13 0.133175 0.864358 0.723738
O O14 0.119806 0.693060 0.787914
O O15 0.000000 0.832959 0.820132
O O16 0.000000 0.853330 0.621715
O O17 0.883434 0.000000 0.613828
O O18 0.500000 0.869027 0.186683
O O19 0.621603 0.000000 0.230069
#
# Coordination Sequence:
#
# PCOD9375797 Si02
#       7
#     8   8   8   8   8   8   8
#     4  11  20  30  47  73 105 137 164 195 243 304
#     4   8  15  29  49  70  90 116 153 197 242 284
#     4   9  18  34  55  75  95 126 172 219 252 281
#     4  11  22  32  45  71 104 132 158 196 249 302
#     4   9  18  33  53  74  94 123 164 205 244 286
#     4   9  17  31  53  77  97 122 161 208 252 291
#     4   9  18  34  55  77 101 130 165 204 245 294
#
# _framework density 17.302105999999998
#
# number of rings (size 3 to 8) (size 9 to 14) (size 15 to 20)
#    0.000    2.571    0.000    5.143    0.000    3.714 
#    0.000    2.857    0.000    3.000    0.000    0.000 
#    0.000    0.000    0.000    0.000    0.000    0.000 
#
# Total GULP energy -155881.938382 kJ/mol
# GULP energy per Si atom -5567.212085 kJ/mol
# Density = 1.726273 g / cm^3
# Si number density = 17.302106 Si / 1000 Ang^3
#
#
#
# Elastic Constant Matrix: (Units=GPa)
#
#
# Indices 1 2 3 4 5 6 
#
# 1 33.4314 18.4415 11.8963 0.0000 0.0000 0.0000
# 2 18.4415 90.2700 12.2772 0.0000 0.0000 0.0000
# 3 11.8963 12.2772 21.3369 0.0000 0.0000 0.0000
# 4 0.0000 0.0000 0.0000 21.6576 0.0000 0.0000
# 5 0.0000 0.0000 0.0000 0.0000 9.0449 0.0000
# 6 0.0000 0.0000 0.0000 0.0000 0.0000 25.3423
#
#
#
# Elastic Compliance Matrix: (Units=1/GPa)
#
#
# Indices 1 2 3 4 5 6 
#
# 1 0.039710 -0.005534 -0.018956 0.000000 0.000000 0.000000
# 2 -0.005534 0.012790 -0.004273 0.000000 0.000000 0.000000
# 3 -0.018956 -0.004273 0.059895 0.000000 0.000000 0.000000
# 4 0.000000 0.000000 0.000000 0.046173 0.000000 0.000000
# 5 0.000000 0.000000 0.000000 0.000000 0.110559 0.000000
# 6 0.000000 0.000000 0.000000 0.000000 0.000000 0.039460
#
#
# Mechanical properties :
#
#
# Convention : Reuss Voigt Hill
#
# Bulk Modulus (GPa) = 18.22575 25.58536 21.90556
# Shear Modulus (GPa) = 13.00718 18.03720 15.52219
#
# Velocity S-wave (km/s) = 2.74481 3.23226 2.99846
# Velocity P-wave (km/s) = 4.53895 5.36186 4.96747
#
# Compressibility (1/GPa) = 0.05486742
#
# Stress axis : x y z
#
# Youngs Moduli (GPa) = 25.18250 78.18775 16.69593
#
# Poissons Ratio (x) = 0.43272 0.31648
# Poissons Ratio (y) = 0.13937 0.07135
# Poissons Ratio (z) = 0.47735 0.33413
#
# Static dielectric constant tensor:
#      x y z
#    x 1.653260 0.000000 0.000000 
#    y 0.000000 1.588500 0.000000 
#    z 0.000000 0.000000 1.585070 
# 
# From -- ./inp_files/18487.got.cif
#   From: 2010.05.17/outbox.cif.g08.bks.cpg/sg44_10_cif.got.tgz:18487.got - 2010.06.03 19:37:08.
