data_PCOD9375950
_publ_section_title
;
Structure prediction by ZEFSAII (Michael W. Deem and Ramdas Pophale) SiO2 
 PCOD9375950
Probable space group: I M M 2
;
_chemical_formula_sum "Si O2"
_cell_formula_units_Z 32
_cell_length_a 9.000000
_cell_length_b 15.000000
_cell_length_c 30.000000
_cell_angle_alpha 90.000000
_cell_angle_beta 90.000000
_cell_angle_gamma 90.000000
_cell_volume 4050.000000
_symmetry_space_group_name_H-M "I M M 2"
_symmetry_group_IT_number 44
_symmetry_cell_setting 'orthorhombic'
loop_
_space_group_symop_operation_xyz
x,y,z
-x,-y,z
-x,y,z
x,-y,z
1/2+x,1/2+y,1/2+z
1/2-x,1/2-y,1/2+z
1/2-x,1/2+y,1/2+z
1/2+x,1/2-y,1/2+z
loop_
_atom_site_type_symbol
_atom_site_label
_atom_site_fract_x
_atom_site_fract_y
_atom_site_fract_z
Si Si1 0.675538 0.106644 0.057410
Si Si2 0.180194 0.773194 0.699411
Si Si3 0.680453 0.396412 0.386758
Si Si4 0.178947 0.602896 0.018546
Si Si5 0.319840 0.286692 0.474985
Si Si6 0.180666 0.896237 0.783871
Si Si7 0.822596 0.895700 0.614303
Si Si8 0.321281 0.605366 0.654207
O O1 0.500000 0.128481 0.060288
O O2 0.752801 0.125907 0.105127
O O3 0.689844 0.000000 0.050033
O O4 0.750315 0.158181 0.016227
O O5 0.225565 0.826561 0.744819
O O6 0.218748 0.834933 0.656469
O O7 0.253126 0.676840 0.689034
O O8 0.000000 0.763828 0.700530
O O9 0.500000 0.394837 0.386496
O O10 0.724377 0.500000 0.395710
O O11 0.726722 0.330828 0.427371
O O12 0.726377 0.374547 0.335351
O O13 0.225834 0.500000 0.007890
O O14 0.243337 0.625944 0.067530
O O15 0.000000 0.602373 0.021338
O O16 0.219727 0.682390 0.984181
O O17 0.500000 0.293506 0.477211
O O18 0.000000 0.895974 0.783464
O O19 0.225098 0.000000 0.774625
O O20 0.000000 0.886566 0.607792
O O21 0.791628 0.000000 0.624297
O O22 0.500000 0.614354 0.652705
O O23 0.287367 0.500000 0.663723
#
# Coordination Sequence:
#
# PCOD9375950 Si02
#       8
#     8   8   8   8   8   8   8   8
#     4  10  20  32  46  67  95 122 148 184 230 275
#     4  10  18  28  47  71  92 116 148 187 228 268
#     4   8  14  25  43  68  94 118 148 186 225 269
#     4   9  18  30  41  57  85 119 151 184 222 259
#     4  10  18  28  46  68  90 121 159 193 225 267
#     4   8  14  26  45  70  98 123 147 180 225 275
#     4   9  17  28  42  63  90 117 145 177 216 266
#     4  10  21  35  48  63  88 123 158 189 223 267
#
# _framework density 7.9012349999999998
#
# number of rings (size 3 to 8) (size 9 to 14) (size 15 to 20)
#    0.000    2.750    0.000    3.000    0.000    6.500 
#    0.000    0.000    0.000    2.625    0.000    5.250 
#    0.000    2.000    0.000    0.000    0.000    0.000 
#
# Total GULP energy -178299.607549 kJ/mol
# GULP energy per Si atom -5571.862736 kJ/mol
# Density = 0.788325 g / cm^3
# Si number density = 7.901235 Si / 1000 Ang^3
#
#
#
# Elastic Constant Matrix: (Units=GPa)
#
#
# Indices 1 2 3 4 5 6 
#
# 1 25.0714 27.0470 23.6012 0.0000 0.0000 0.0000
# 2 27.0470 119.0252 88.6354 0.0000 0.0000 0.0000
# 3 23.6012 88.6354 133.4690 0.0000 0.0000 0.0000
# 4 0.0000 0.0000 0.0000 36.5137 0.0000 0.0000
# 5 0.0000 0.0000 0.0000 0.0000 19.7952 0.0000
# 6 0.0000 0.0000 0.0000 0.0000 0.0000 22.9561
#
#
#
# Elastic Compliance Matrix: (Units=1/GPa)
#
#
# Indices 1 2 3 4 5 6 
#
# 1 0.053339 -0.010084 -0.002736 0.000000 0.000000 0.000000
# 2 -0.010084 0.018528 -0.010521 0.000000 0.000000 0.000000
# 3 -0.002736 -0.010521 0.014963 0.000000 0.000000 0.000000
# 4 0.000000 0.000000 0.000000 0.027387 0.000000 0.000000
# 5 0.000000 0.000000 0.000000 0.000000 0.050517 0.000000
# 6 0.000000 0.000000 0.000000 0.000000 0.000000 0.043561
#
#
# Mechanical properties :
#
#
# Convention : Reuss Voigt Hill
#
# Bulk Modulus (GPa) = 24.90676 61.79253 43.34964
# Shear Modulus (GPa) = 18.63176 25.07180 21.85178
#
# Velocity S-wave (km/s) = 3.43744 3.98750 3.72265
# Velocity P-wave (km/s) = 5.61696 7.77099 6.78006
#
# Compressibility (1/GPa) = 0.04014974
#
# Stress axis : x y z
#
# Youngs Moduli (GPa) = 18.74793 53.97333 66.83172
#
# Poissons Ratio (x) = 0.54424 0.18282
# Poissons Ratio (y) = 0.18905 0.70313
# Poissons Ratio (z) = 0.05129 0.56785
#
# Static dielectric constant tensor:
#      x y z
#    x 1.530770 0.000000 0.000000 
#    y 0.000000 1.554280 0.000000 
#    z 0.000000 0.000000 1.517720 
# 
# From -- ./inp_files/27310.got.cif
#   From: 2010.05.17/outbox.ucp.g08.bks.cvg/sg44_14_cif.got.tgz:27310.got - 2010.06.11 16:32:36.
