data_PCOD9375122
_publ_section_title
;
Structure prediction by ZEFSAII (Michael W. Deem and Ramdas Pophale) SiO2 
 PCOD9375122
Probable space group: I M M 2
;
_chemical_formula_sum "Si O2"
_cell_formula_units_Z 48
_cell_length_a 10.557550
_cell_length_b 26.419216
_cell_length_c 8.028276
_cell_angle_alpha 90.000000
_cell_angle_beta 90.000000
_cell_angle_gamma 90.000000
_cell_volume 2239.264355
_symmetry_space_group_name_H-M "I M M 2"
_symmetry_group_IT_number 44
_symmetry_cell_setting 'orthorhombic'
loop_
_space_group_symop_operation_xyz
x,y,z
-x,-y,z
-x,y,z
x,-y,z
1/2+x,1/2+y,1/2+z
1/2-x,1/2-y,1/2+z
1/2-x,1/2+y,1/2+z
1/2+x,1/2-y,1/2+z
loop_
_atom_site_type_symbol
_atom_site_label
_atom_site_fract_x
_atom_site_fract_y
_atom_site_fract_z
Si Si1 0.271317 0.174224 0.035730
Si Si2 0.139952 0.584493 0.731091
Si Si3 0.141220 0.748104 0.241874
Si Si4 0.857015 0.109258 0.796540
Si Si5 0.157472 0.000000 0.324691
Si Si6 0.861989 0.350562 0.065813
Si Si7 0.848995 0.000000 0.725818
O O1 0.351947 0.124913 0.081477
O O2 0.235494 0.207090 0.196248
O O3 0.328407 0.212296 0.898866
O O4 0.150509 0.146863 0.952240
O O5 0.262313 0.547732 0.750062
O O6 0.000000 0.559395 0.727609
O O7 0.141316 0.621028 0.892141
O O8 0.142653 0.710147 0.082104
O O9 0.000000 0.768572 0.263819
O O10 0.758850 0.130989 0.665456
O O11 0.811592 0.051376 0.818981
O O12 0.000000 0.108265 0.731650
O O13 0.181780 0.000000 0.527122
O O14 0.000000 0.000000 0.299228
O O15 0.000000 0.363891 0.143528
O O16 0.000000 0.000000 0.731897
#
# Coordination Sequence:
#
# PCOD9375122 Si02
#       7
#     8   8   8   8   4   8   4
#     4  11  23  39  62  91 125 169 212 265 315 372
#     4  11  23  41  64  93 129 168 212 261 316 377
#     4  10  21  40  61  88 125 166 214 262 315 374
#     4  10  20  37  61  91 125 162 208 258 314 375
#     4  11  23  40  67  96 128 166 207 259 318 379
#     4   9  19  36  61  89 122 162 209 262 314 373
#     4   9  18  36  61  90 124 158 197 247 308 373
#
# _framework density 21.43561
#
# number of rings (size 3 to 8) (size 9 to 14) (size 15 to 20)
#    0.000    1.833    1.667    2.250    0.000    2.667 
#    0.000   12.083    0.000    0.000    0.000    0.000 
#    0.000    0.000    0.000    0.000    0.000    0.000 
#
# Total GULP energy -133609.285402 kJ/mol
# GULP energy per Si atom -5567.053558 kJ/mol
# Density = 2.138682 g / cm^3
# Si number density = 21.435610 Si / 1000 Ang^3
#
#
#
# Elastic Constant Matrix: (Units=GPa)
#
#
# Indices 1 2 3 4 5 6 
#
# 1 126.4201 45.7314 24.2544 -0.0003 0.0001 0.0002
# 2 45.7314 92.0352 25.9482 -0.0006 0.0000 -0.0001
# 3 24.2544 25.9482 59.6435 -0.0018 -0.0009 -0.0011
# 4 -0.0003 -0.0006 -0.0018 32.1355 0.0002 -0.0001
# 5 0.0001 0.0000 -0.0009 0.0002 15.2614 -0.0004
# 6 0.0002 -0.0001 -0.0011 -0.0001 -0.0004 27.7170
#
#
#
# Elastic Compliance Matrix: (Units=1/GPa)
#
#
# Indices 1 2 3 4 5 6 
#
# 1 0.009878 -0.004304 -0.002145 0.000000 0.000000 0.000000
# 2 -0.004304 0.014260 -0.004454 0.000000 0.000000 0.000000
# 3 -0.002145 -0.004454 0.019576 0.000001 0.000001 0.000001
# 4 0.000000 0.000000 0.000001 0.031118 0.000000 0.000000
# 5 0.000000 0.000000 0.000001 0.000000 0.065525 0.000001
# 6 0.000000 0.000000 0.000001 0.000000 0.000001 0.036079
#
#
# Mechanical properties :
#
#
# Convention : Reuss Voigt Hill
#
# Bulk Modulus (GPa) = 45.64158 52.21854 48.93006
# Shear Modulus (GPa) = 24.32575 27.16708 25.74642
#
# Velocity S-wave (km/s) = 3.37238 3.56389 3.46946
# Velocity P-wave (km/s) = 6.04173 6.43029 6.23904
#
# Compressibility (1/GPa) = 0.02190985
#
# Stress axis : x y z
#
# Youngs Moduli (GPa) = 101.22996 70.12835 51.08295
#
# Poissons Ratio (x) = 0.30182 0.10956
# Poissons Ratio (y) = 0.43568 0.22750
# Poissons Ratio (z) = 0.21711 0.31232
#
# Static dielectric constant tensor:
#      x y z
#    x 1.795370 0.000000 0.000000 
#    y 0.000000 1.820380 0.000000 
#    z 0.000000 0.000000 1.832690 
# 
# From -- ./inp_files/4978.got.cif
#   From: 2010.05.17/outbox.cif.g08.bks.cpg/sg44_3_cif.got.tgz:4978.got - 2010.06.03 19:37:08.
