data_PCOD9375175
_publ_section_title
;
Structure prediction by ZEFSAII (Michael W. Deem and Ramdas Pophale) SiO2 
 PCOD9375175
Probable space group: I M M 2
;
_chemical_formula_sum "Si O2"
_cell_formula_units_Z 64
_cell_length_a 25.219614
_cell_length_b 14.745340
_cell_length_c 8.783150
_cell_angle_alpha 90.000000
_cell_angle_beta 90.000000
_cell_angle_gamma 90.000000
_cell_volume 3266.205652
_symmetry_space_group_name_H-M "I M M 2"
_symmetry_group_IT_number 44
_symmetry_cell_setting 'orthorhombic'
loop_
_space_group_symop_operation_xyz
x,y,z
-x,-y,z
-x,y,z
x,-y,z
1/2+x,1/2+y,1/2+z
1/2-x,1/2-y,1/2+z
1/2-x,1/2+y,1/2+z
1/2+x,1/2-y,1/2+z
loop_
_atom_site_type_symbol
_atom_site_label
_atom_site_fract_x
_atom_site_fract_y
_atom_site_fract_z
Si Si1 0.836725 0.170700 0.652900
Si Si2 0.783697 0.363649 0.636320
Si Si3 0.059752 0.282177 0.609618
Si Si4 0.742635 0.901797 0.478041
Si Si5 0.561797 0.106293 0.424247
Si Si6 0.624801 0.101289 0.912232
Si Si7 0.851098 0.708337 0.121840
Si Si8 0.827266 0.104052 0.993220
O O1 0.801062 0.261065 0.671294
O O2 0.894743 0.205757 0.605308
O O3 0.802885 0.115519 0.529275
O O4 0.839335 0.121589 0.815554
O O5 0.765068 0.401732 0.797538
O O6 0.835595 0.403272 0.555959
O O7 0.735303 0.379892 0.521802
O O8 0.066334 0.339080 0.765921
O O9 0.071446 0.353542 0.475116
O O10 0.000000 0.246909 0.602877
O O11 0.702630 0.827499 0.543933
O O12 0.725955 0.000000 0.540543
O O13 0.500000 0.110317 0.471288
O O14 0.600592 0.156046 0.540823
O O15 0.576051 0.000000 0.405224
O O16 0.649466 0.172609 0.793714
O O17 0.618175 0.000000 0.848930
O O18 0.854431 0.815809 0.091979
O O19 0.840230 0.000000 0.033602
#
# Coordination Sequence:
#
# PCOD9375175 Si02
#       8
#     8   8   8   8   8   8   8   8
#     4  11  21  40  63  90 126 162 206 260 319 375
#     4  11  22  40  58  91 131 170 205 249 306 375
#     4  10  22  40  64  90 122 165 208 258 317 379
#     4  12  23  37  63  93 127 165 207 255 312 383
#     4  10  20  38  65  95 128 163 203 251 308 379
#     4  11  23  37  60  92 134 173 208 251 305 382
#     4  12  23  39  61  93 131 172 211 254 310 368
#     4  12  24  40  61  88 125 167 213 262 314 370
#
# _framework density 19.594601000000001
#
# number of rings (size 3 to 8) (size 9 to 14) (size 15 to 20)
#    0.000    0.875    3.750    4.500    3.500    1.250 
#    0.000    0.000    0.000    2.625    0.000    0.000 
#    0.000    0.000    0.000    0.000    0.000    0.000 
#
# Total GULP energy -178723.335392 kJ/mol
# GULP energy per Si atom -5585.104231 kJ/mol
# Density = 1.955000 g / cm^3
# Si number density = 19.594601 Si / 1000 Ang^3
#
#
#
# Elastic Constant Matrix: (Units=GPa)
#
#
# Indices 1 2 3 4 5 6 
#
# 1 102.9042 32.7474 38.3205 0.0000 0.0000 0.0000
# 2 32.7474 127.3212 31.6791 0.0000 0.0000 0.0000
# 3 38.3205 31.6791 68.9527 0.0000 0.0000 0.0000
# 4 0.0000 0.0000 0.0000 16.7965 0.0000 0.0000
# 5 0.0000 0.0000 0.0000 0.0000 26.0784 0.0000
# 6 0.0000 0.0000 0.0000 0.0000 0.0000 18.4480
#
#
#
# Elastic Compliance Matrix: (Units=1/GPa)
#
#
# Indices 1 2 3 4 5 6 
#
# 1 0.012567 -0.001687 -0.006209 0.000000 0.000000 0.000000
# 2 -0.001687 0.009094 -0.003240 0.000000 0.000000 0.000000
# 3 -0.006209 -0.003240 0.019442 0.000000 0.000000 0.000000
# 4 0.000000 0.000000 0.000000 0.059536 0.000000 0.000000
# 5 0.000000 0.000000 0.000000 0.000000 0.038346 0.000000
# 6 0.000000 0.000000 0.000000 0.000000 0.000000 0.054206
#
#
# Mechanical properties :
#
#
# Convention : Reuss Voigt Hill
#
# Bulk Modulus (GPa) = 53.10697 56.07468 54.59082
# Shear Modulus (GPa) = 22.54876 25.36000 23.95438
#
# Velocity S-wave (km/s) = 3.39597 3.60145 3.50022
# Velocity P-wave (km/s) = 6.52216 6.78037 6.65252
#
# Compressibility (1/GPa) = 0.01882992
#
# Stress axis : x y z
#
# Youngs Moduli (GPa) = 79.57439 109.95732 51.43498
#
# Poissons Ratio (x) = 0.18554 0.31935
# Poissons Ratio (y) = 0.13427 0.16668
# Poissons Ratio (z) = 0.49406 0.35632
#
# Static dielectric constant tensor:
#      x y z
#    x 1.670090 0.000000 0.000000 
#    y 0.000000 1.716880 0.000000 
#    z 0.000000 0.000000 1.720320 
# 
# From -- ./inp_files/9484.got.cif
#   From: 2010.05.17/outbox.cif.g08.bks.cpg/sg44_5_cif.got.tgz:9484.got - 2010.06.03 19:37:08.
