data_PCOD9375715
_publ_section_title
;
Structure prediction by ZEFSAII (Michael W. Deem and Ramdas Pophale) SiO2 
 PCOD9375715
Probable space group: I M M 2
;
_chemical_formula_sum "Si O2"
_cell_formula_units_Z 56
_cell_length_a 12.923221
_cell_length_b 32.054989
_cell_length_c 7.092644
_cell_angle_alpha 90.000000
_cell_angle_beta 90.000000
_cell_angle_gamma 90.000000
_cell_volume 2938.154069
_symmetry_space_group_name_H-M "I M M 2"
_symmetry_group_IT_number 44
_symmetry_cell_setting 'orthorhombic'
loop_
_space_group_symop_operation_xyz
x,y,z
-x,-y,z
-x,y,z
x,-y,z
1/2+x,1/2+y,1/2+z
1/2-x,1/2-y,1/2+z
1/2-x,1/2+y,1/2+z
1/2+x,1/2-y,1/2+z
loop_
_atom_site_type_symbol
_atom_site_label
_atom_site_fract_x
_atom_site_fract_y
_atom_site_fract_z
Si Si1 0.116455 0.882358 0.050820
Si Si2 0.795162 0.951012 0.784939
Si Si3 0.116335 0.450208 0.569628
Si Si4 0.381794 0.837190 0.554676
Si Si5 0.233009 0.309147 0.417443
Si Si6 0.741592 0.410318 0.890574
Si Si7 0.120381 0.262142 0.758313
O O1 0.144891 0.898015 0.259970
O O2 0.000000 0.866154 0.040543
O O3 0.131008 0.920554 0.904268
O O4 0.200153 0.847157 0.000129
O O5 0.790299 0.938665 0.566829
O O6 0.819258 0.000000 0.809539
O O7 0.682835 0.942716 0.881111
O O8 0.111415 0.500000 0.592933
O O9 0.178923 0.432066 0.745806
O O10 0.000000 0.433350 0.558213
O O11 0.500000 0.852888 0.545362
O O12 0.347990 0.826402 0.765790
O O13 0.300553 0.870211 0.472861
O O14 0.376264 0.795359 0.429233
O O15 0.172698 0.284520 0.579969
O O16 0.312573 0.277880 0.314775
O O17 0.000000 0.251887 0.721827
#
# Coordination Sequence:
#
# PCOD9375715 Si02
#       7
#     8   8   8   8   8   8   8
#     4  11  25  43  65  92 126 165 212 267 320 371
#     4  10  22  41  63  88 126 167 213 266 314 375
#     4   9  19  35  57  88 124 161 202 252 312 373
#     4  11  23  39  62  93 125 162 203 251 313 376
#     4  12  22  45  64  94 127 163 209 258 311 373
#     4  11  21  40  60  92 123 160 211 260 316 372
#     4  11  24  41  65  94 127 163 204 255 311 372
#
# _framework density 19.059584999999998
#
# number of rings (size 3 to 8) (size 9 to 14) (size 15 to 20)
#    0.000    1.286    4.286    1.714    0.000    2.571 
#    0.000    2.857    0.000    0.000    0.000    0.000 
#    0.000    0.000    0.000    0.000    0.000    0.000 
#
# Total GULP energy -156453.158448 kJ/mol
# GULP energy per Si atom -5587.612802 kJ/mol
# Density = 1.901620 g / cm^3
# Si number density = 19.059585 Si / 1000 Ang^3
#
#
#
# Elastic Constant Matrix: (Units=GPa)
#
#
# Indices 1 2 3 4 5 6 
#
# 1 55.5305 -3.8390 11.3465 -0.0027 0.0045 0.0003
# 2 -3.8390 44.0650 17.3191 -0.0029 0.0023 0.0013
# 3 11.3465 17.3191 115.7737 -0.0119 0.0224 0.0001
# 4 -0.0027 -0.0029 -0.0119 40.0699 0.0026 0.0003
# 5 0.0045 0.0023 0.0224 0.0026 11.8616 -0.0006
# 6 0.0003 0.0013 0.0001 0.0003 -0.0006 17.2502
#
#
#
# Elastic Compliance Matrix: (Units=1/GPa)
#
#
# Indices 1 2 3 4 5 6 
#
# 1 0.018629 0.002487 -0.002198 0.000001 -0.000003 -0.000001
# 2 0.002487 0.024443 -0.003900 0.000001 0.000002 -0.000002
# 3 -0.002198 -0.003900 0.009436 0.000002 -0.000016 0.000000
# 4 0.000001 0.000001 0.000002 0.024956 -0.000005 0.000000
# 5 -0.000003 0.000002 -0.000016 -0.000005 0.084306 0.000003
# 6 -0.000001 -0.000002 0.000000 0.000000 0.000003 0.057970
#
#
# Mechanical properties :
#
#
# Convention : Reuss Voigt Hill
#
# Bulk Modulus (GPa) = 22.08172 29.44692 25.76432
# Shear Modulus (GPa) = 20.65608 26.53917 23.59763
#
# Velocity S-wave (km/s) = 3.29563 3.73558 3.52248
# Velocity P-wave (km/s) = 5.10806 5.83862 5.48552
#
# Compressibility (1/GPa) = 0.04528632
#
# Stress axis : x y z
#
# Youngs Moduli (GPa) = 53.67944 40.91087 105.97261
#
# Poissons Ratio (x) = -0.10174 0.23290
# Poissons Ratio (y) = -0.13349 0.41333
# Poissons Ratio (z) = 0.11797 0.15957
#
# Static dielectric constant tensor:
#      x y z
#    x 1.640020 0.000000 0.000000 
#    y 0.000000 1.650160 0.000000 
#    z 0.000000 0.000000 1.637940 
# 
# From -- ./inp_files/1692.got.cif
#   From: 2010.05.17/outbox.cif.g08.bks.cpg/sg44_1_cif.got.tgz:1692.got - 2010.06.03 19:37:08.
