data_PCOD9375759
_publ_section_title
;
Structure prediction by ZEFSAII (Michael W. Deem and Ramdas Pophale) SiO2 
 PCOD9375759
Probable space group: I M M 2
;
_chemical_formula_sum "Si O2"
_cell_formula_units_Z 56
_cell_length_a 14.575588
_cell_length_b 9.517933
_cell_length_c 20.999977
_cell_angle_alpha 90.000000
_cell_angle_beta 90.000000
_cell_angle_gamma 90.000000
_cell_volume 2913.315680
_symmetry_space_group_name_H-M "I M M 2"
_symmetry_group_IT_number 44
_symmetry_cell_setting 'orthorhombic'
loop_
_space_group_symop_operation_xyz
x,y,z
-x,-y,z
-x,y,z
x,-y,z
1/2+x,1/2+y,1/2+z
1/2-x,1/2-y,1/2+z
1/2-x,1/2+y,1/2+z
1/2+x,1/2-y,1/2+z
loop_
_atom_site_type_symbol
_atom_site_label
_atom_site_fract_x
_atom_site_fract_y
_atom_site_fract_z
Si Si1 0.782620 0.332647 0.153770
Si Si2 0.108799 0.160578 0.051094
Si Si3 0.394469 0.163562 0.171884
Si Si4 0.396109 0.335051 0.908249
Si Si5 0.607025 0.662578 0.755141
Si Si6 0.606376 0.161985 0.325127
Si Si7 0.722268 0.662732 0.422192
O O1 0.780421 0.500000 0.155954
O O2 0.846336 0.272264 0.097931
O O3 0.681824 0.266425 0.144688
O O4 0.827174 0.267003 0.217796
O O5 0.000000 0.179041 0.047338
O O6 0.126569 0.000000 0.074267
O O7 0.154165 0.173170 0.981935
O O8 0.500000 0.195092 0.154163
O O9 0.388204 0.174819 0.248893
O O10 0.375852 0.000000 0.155571
O O11 0.500000 0.295904 0.926517
O O12 0.382980 0.500000 0.922415
O O13 0.389009 0.320056 0.831303
O O14 0.316766 0.241488 0.937499
O O15 0.500000 0.682124 0.736002
O O16 0.632188 0.500000 0.741099
O O17 0.500000 0.188410 0.342918
O O18 0.673680 0.263095 0.362519
O O19 0.628698 0.000000 0.341290
O O20 0.739840 0.500000 0.408439
#
# Coordination Sequence:
#
# PCOD9375759 Si02
#       7
#     8   8   8   8   8   8   8
#     4  12  24  35  53  83 113 140 176 227 282 324
#     4  10  23  43  61  76 102 144 188 223 260 318
#     4   9  19  37  59  81 108 146 187 219 255 317
#     4   9  19  36  57  81 110 146 185 220 260 318
#     4   9  18  34  56  80 109 148 187 219 259 319
#     4   9  18  33  55  83 113 146 182 218 261 318
#     4  11  22  35  55  83 111 141 180 226 275 321
#
# _framework density 19.222085
#
# number of rings (size 3 to 8) (size 9 to 14) (size 15 to 20)
#    0.000    2.143    0.000    5.143    0.000    9.429 
#    0.000    3.571    0.000    0.857    0.000    0.000 
#    0.000    0.000    0.000    0.000    0.000    0.000 
#
# Total GULP energy -156450.548745 kJ/mol
# GULP energy per Si atom -5587.519598 kJ/mol
# Density = 1.917833 g / cm^3
# Si number density = 19.222085 Si / 1000 Ang^3
#
#
#
# Elastic Constant Matrix: (Units=GPa)
#
#
# Indices 1 2 3 4 5 6 
#
# 1 132.3508 92.7967 20.8003 0.0000 0.0000 0.0000
# 2 92.7967 117.9058 19.4918 0.0000 0.0000 0.0000
# 3 20.8003 19.4918 9.8283 0.0000 0.0000 0.0000
# 4 0.0000 0.0000 0.0000 17.0818 0.0000 0.0000
# 5 0.0000 0.0000 0.0000 0.0000 24.1465 0.0000
# 6 0.0000 0.0000 0.0000 0.0000 0.0000 25.0387
#
#
#
# Elastic Compliance Matrix: (Units=1/GPa)
#
#
# Indices 1 2 3 4 5 6 
#
# 1 0.018247 -0.011868 -0.015080 0.000000 0.000000 0.000000
# 2 -0.011868 0.020338 -0.015217 0.000000 0.000000 0.000000
# 3 -0.015080 -0.015217 0.163842 0.000000 0.000000 0.000000
# 4 0.000000 0.000000 0.000000 0.058542 0.000000 0.000000
# 5 0.000000 0.000000 0.000000 0.000000 0.041414 0.000000
# 6 0.000000 0.000000 0.000000 0.000000 0.000000 0.039938
#
#
# Mechanical properties :
#
#
# Convention : Reuss Voigt Hill
#
# Bulk Modulus (GPa) = 8.46771 58.47363 33.47067
# Shear Modulus (GPa) = 10.72925 21.71981 16.22453
#
# Velocity S-wave (km/s) = 2.36513 3.36511 2.90842
# Velocity P-wave (km/s) = 3.44576 6.75164 5.35994
#
# Compressibility (1/GPa) = 0.11809567
#
# Stress axis : x y z
#
# Youngs Moduli (GPa) = 54.80401 49.16993 6.10345
#
# Poissons Ratio (x) = 0.58355 0.09204
# Poissons Ratio (y) = 0.65042 0.09288
# Poissons Ratio (z) = 0.82645 0.74823
#
# Static dielectric constant tensor:
#      x y z
#    x 1.684020 0.000000 0.000000 
#    y 0.000000 1.637460 0.000000 
#    z 0.000000 0.000000 1.670350 
# 
# From -- ./inp_files/23005.got.cif
#   From: 2010.05.17/outbox.cif.g08.bks.cpg/sg44_12_cif.got.tgz:23005.got - 2010.06.03 19:37:08.
