data_PCOD9375957
_publ_section_title
;
Structure prediction by ZEFSAII (Michael W. Deem and Ramdas Pophale) SiO2 
 PCOD9375957
Probable space group: I M M 2
;
_chemical_formula_sum "Si O2"
_cell_formula_units_Z 32
_cell_length_a 9.000000
_cell_length_b 21.000000
_cell_length_c 21.000000
_cell_angle_alpha 90.000000
_cell_angle_beta 90.000000
_cell_angle_gamma 90.000000
_cell_volume 3969.000000
_symmetry_space_group_name_H-M "I M M 2"
_symmetry_group_IT_number 44
_symmetry_cell_setting 'orthorhombic'
loop_
_space_group_symop_operation_xyz
x,y,z
-x,-y,z
-x,y,z
x,-y,z
1/2+x,1/2+y,1/2+z
1/2-x,1/2-y,1/2+z
1/2-x,1/2+y,1/2+z
1/2+x,1/2-y,1/2+z
loop_
_atom_site_type_symbol
_atom_site_label
_atom_site_fract_x
_atom_site_fract_y
_atom_site_fract_z
Si Si1 0.320825 0.124599 0.963080
Si Si2 0.680058 0.682420 0.111233
Si Si3 0.180681 0.229760 0.326001
Si Si4 0.679679 0.189102 0.193809
Si Si5 0.679526 0.371610 0.329138
Si Si6 0.321605 0.275597 0.970208
Si Si7 0.678159 0.074647 0.700814
Si Si8 0.180583 0.427754 0.601549
O O1 0.500000 0.117911 0.954280
O O2 0.238650 0.104262 0.898066
O O3 0.289141 0.199906 0.973441
O O4 0.277179 0.089620 0.028627
O O5 0.500000 0.674439 0.111899
O O6 0.711539 0.747196 0.151761
O O7 0.755410 0.623386 0.148206
O O8 0.729313 0.692045 0.036900
O O9 0.242325 0.193972 0.263114
O O10 0.252613 0.300284 0.322758
O O11 0.222425 0.203968 0.397610
O O12 0.000000 0.233914 0.323397
O O13 0.500000 0.187083 0.202709
O O14 0.725358 0.127300 0.151729
O O15 0.500000 0.370221 0.327502
O O16 0.744075 0.409811 0.268672
O O17 0.500000 0.281788 0.971648
O O18 0.500000 0.084733 0.706393
O O19 0.703283 0.000000 0.684939
O O20 0.228397 0.500000 0.617272
O O21 0.000000 0.426738 0.601929
#
# Coordination Sequence:
#
# PCOD9375957 Si02
#       8
#     8   8   8   8   8   8   8   8
#     4   9  16  30  50  73 104 141 179 212 247 296
#     4  10  18  32  55  78 101 132 172 219 263 303
#     4  10  19  32  53  78 105 136 173 214 259 307
#     4  10  18  30  52  80 107 136 174 219 260 300
#     4  11  21  33  50  75 106 139 174 210 254 306
#     4   8  15  29  50  75 101 132 167 209 256 305
#     4  11  24  39  53  73 103 138 175 214 258 311
#     4   9  17  30  51  78 107 142 181 214 251 305
#
# _framework density 8.0624839999999995
#
# number of rings (size 3 to 8) (size 9 to 14) (size 15 to 20)
#    0.000    2.250    2.500    2.625    0.000    1.500 
#    0.000    5.000    0.000    1.875    0.000    3.500 
#    0.000    0.000    0.000    0.000    0.000    0.000 
#
# Total GULP energy -178344.754166 kJ/mol
# GULP energy per Si atom -5573.273568 kJ/mol
# Density = 0.804413 g / cm^3
# Si number density = 8.062484 Si / 1000 Ang^3
#
#
#
# Elastic Constant Matrix: (Units=GPa)
#
#
# Indices 1 2 3 4 5 6 
#
# 1 61.8196 32.1376 42.8170 0.0000 0.0000 0.0000
# 2 32.1376 102.2569 72.0168 0.0000 0.0000 0.0000
# 3 42.8170 72.0168 170.4159 0.0000 0.0000 0.0000
# 4 0.0000 0.0000 0.0000 28.2347 0.0000 0.0000
# 5 0.0000 0.0000 0.0000 0.0000 34.0681 0.0000
# 6 0.0000 0.0000 0.0000 0.0000 0.0000 19.0760
#
#
#
# Elastic Compliance Matrix: (Units=1/GPa)
#
#
# Indices 1 2 3 4 5 6 
#
# 1 0.020697 -0.004047 -0.003490 0.000000 0.000000 0.000000
# 2 -0.004047 0.014714 -0.005201 0.000000 0.000000 0.000000
# 3 -0.003490 -0.005201 0.008943 0.000000 0.000000 0.000000
# 4 0.000000 0.000000 0.000000 0.035417 0.000000 0.000000
# 5 0.000000 0.000000 0.000000 0.000000 0.029353 0.000000
# 6 0.000000 0.000000 0.000000 0.000000 0.000000 0.052422
#
#
# Mechanical properties :
#
#
# Convention : Reuss Voigt Hill
#
# Bulk Modulus (GPa) = 52.97198 69.82614 61.39906
# Shear Modulus (GPa) = 25.86441 28.77716 27.32079
#
# Velocity S-wave (km/s) = 4.00934 4.22908 4.12067
# Velocity P-wave (km/s) = 7.37260 8.20024 7.79741
#
# Compressibility (1/GPa) = 0.01887791
#
# Stress axis : x y z
#
# Youngs Moduli (GPa) = 48.31591 67.96068 111.81984
#
# Poissons Ratio (x) = 0.27503 0.39025
# Poissons Ratio (y) = 0.19553 0.58162
# Poissons Ratio (z) = 0.16862 0.35349
#
# Static dielectric constant tensor:
#      x y z
#    x 1.540700 0.000000 0.000000 
#    y 0.000000 1.538280 0.000000 
#    z 0.000000 0.000000 1.560080 
# 
# From -- ./inp_files/22301.got.cif
#   From: 2010.05.17/outbox.ucp.g08.bks.cvg/sg44_12_cif.got.tgz:22301.got - 2010.06.11 16:32:36.
