data_PCOD9375147
_publ_section_title
;
Structure prediction by ZEFSAII (Michael W. Deem and Ramdas Pophale) SiO2 
 PCOD9375147
Probable space group: I M M 2
;
_chemical_formula_sum "Si O2"
_cell_formula_units_Z 58
_cell_length_a 16.470643
_cell_length_b 15.052938
_cell_length_c 12.998720
_cell_angle_alpha 90.000000
_cell_angle_beta 90.000000
_cell_angle_gamma 90.000000
_cell_volume 3222.793030
_symmetry_space_group_name_H-M "I M M 2"
_symmetry_group_IT_number 44
_symmetry_cell_setting 'orthorhombic'
loop_
_space_group_symop_operation_xyz
x,y,z
-x,-y,z
-x,y,z
x,-y,z
1/2+x,1/2+y,1/2+z
1/2-x,1/2-y,1/2+z
1/2-x,1/2+y,1/2+z
1/2+x,1/2-y,1/2+z
loop_
_atom_site_type_symbol
_atom_site_label
_atom_site_fract_x
_atom_site_fract_y
_atom_site_fract_z
Si Si1 0.659168 0.896106 0.194670
Si Si2 0.402582 0.785258 0.388367
Si Si3 0.098954 0.603394 0.092260
Si Si4 0.000000 0.500000 0.427003
Si Si5 0.168029 0.902466 0.934438
Si Si6 0.405257 0.226152 0.778419
Si Si7 0.646651 0.596870 0.674477
Si Si8 0.144819 0.360647 0.465060
O O1 0.623271 0.845847 0.292185
O O2 0.756933 0.896561 0.197015
O O3 0.632401 0.000000 0.189887
O O4 0.635224 0.849754 0.087218
O O5 0.500000 0.776548 0.391030
O O6 0.377266 0.837036 0.493552
O O7 0.363448 0.687259 0.381681
O O8 0.124583 0.500000 0.085479
O O9 0.126566 0.651725 0.197373
O O10 0.000000 0.602816 0.094246
O O11 0.927793 0.575589 0.430423
O O12 0.265554 0.899335 0.946031
O O13 0.145338 0.000000 0.891288
O O14 0.135601 0.898013 0.051670
O O15 0.500000 0.209888 0.791341
O O16 0.394918 0.320841 0.726731
O O17 0.362016 0.221985 0.888328
O O18 0.618196 0.500000 0.709513
#
# Coordination Sequence:
#
# PCOD9375147 Si02
#       8
#     8   8   8   2   8   8   8   8
#     4  10  21  37  57  80 112 147 185 231 278 333
#     4  11  22  35  55  82 112 149 189 227 276 332
#     4   9  19  32  47  74 112 146 176 219 278 332
#     4  12  20  36  56  92 110 140 188 232 280 346
#     4  10  20  38  58  80 114 147 188 234 278 325
#     4  11  21  32  54  82 114 143 181 232 281 335
#     4   9  19  37  57  79 108 150 189 230 278 326
#     4  11  22  35  58  86 113 142 184 232 285 332
#
# _framework density 17.996811999999998
#
# number of rings (size 3 to 8) (size 9 to 14) (size 15 to 20)
#    0.000    1.793    3.448    2.069    1.931    1.379 
#    0.000    1.379    0.000    0.828    0.000    1.931 
#    0.000    0.000    0.000    0.000    0.000    0.000 
#
# Total GULP energy -161436.502742 kJ/mol
# GULP energy per Si atom -5566.775957 kJ/mol
# Density = 1.795585 g / cm^3
# Si number density = 17.996812 Si / 1000 Ang^3
#
#
#
# Elastic Constant Matrix: (Units=GPa)
#
#
# Indices 1 2 3 4 5 6 
#
# 1 19.9168 8.4796 23.3814 0.0000 0.0000 0.0000
# 2 8.4796 98.3704 55.9801 0.0000 0.0000 0.0000
# 3 23.3814 55.9801 98.5640 0.0000 0.0000 0.0000
# 4 0.0000 0.0000 0.0000 -30.8008 0.0000 0.0000
# 5 0.0000 0.0000 0.0000 0.0000 18.8790 0.0000
# 6 0.0000 0.0000 0.0000 0.0000 0.0000 24.8193
#
#
#
# Elastic Compliance Matrix: (Units=1/GPa)
#
#
# Indices 1 2 3 4 5 6 
#
# 1 0.071305 0.005141 -0.019835 0.000000 0.000000 0.000000
# 2 0.005141 0.015391 -0.009961 0.000000 0.000000 0.000000
# 3 -0.019835 -0.009961 0.020508 0.000000 0.000000 0.000000
# 4 0.000000 0.000000 0.000000 -0.032467 0.000000 0.000000
# 5 0.000000 0.000000 0.000000 0.000000 0.052969 0.000000
# 6 0.000000 0.000000 0.000000 0.000000 0.000000 0.040291
#
#
# Mechanical properties :
#
#
# Convention : Reuss Voigt Hill
#
# Bulk Modulus (GPa) = 17.27269 43.61480 30.44375
# Shear Modulus (GPa) = 21.13213 11.18016 16.15615
#
# Velocity S-wave (km/s) = 3.43040 2.49515 2.99945
# Velocity P-wave (km/s) = 5.03077 5.70862 5.38038
#
# Compressibility (1/GPa) = 0.05789486
#
# Stress axis : x y z
#
# Youngs Moduli (GPa) = 14.02419 64.97282 48.76056
#
# Poissons Ratio (x) = -0.33403 0.96716
# Poissons Ratio (y) = -0.07210 0.48570
# Poissons Ratio (z) = 0.27817 0.64719
#
# Static dielectric constant tensor:
#      x y z
#    x 1.615020 0.000000 0.000000 
#    y 0.000000 1.670010 0.000000 
#    z 0.000000 0.000000 1.632110 
# 
# From -- ./inp_files/13388.got.cif
#   From: 2010.05.17/outbox.cif.g08.bks.cpg/sg44_7_cif.got.tgz:13388.got - 2010.06.03 19:37:08.
