data_PCOD9375204
_publ_section_title
;
Structure prediction by ZEFSAII (Michael W. Deem and Ramdas Pophale) SiO2 
 PCOD9375204
Probable space group: I M M 2
;
_chemical_formula_sum "Si O2"
_cell_formula_units_Z 44
_cell_length_a 7.809149
_cell_length_b 15.580119
_cell_length_c 17.413402
_cell_angle_alpha 90.000000
_cell_angle_beta 90.000000
_cell_angle_gamma 90.000000
_cell_volume 2118.644578
_symmetry_space_group_name_H-M "I M M 2"
_symmetry_group_IT_number 44
_symmetry_cell_setting 'orthorhombic'
loop_
_space_group_symop_operation_xyz
x,y,z
-x,-y,z
-x,y,z
x,-y,z
1/2+x,1/2+y,1/2+z
1/2-x,1/2-y,1/2+z
1/2-x,1/2+y,1/2+z
1/2+x,1/2-y,1/2+z
loop_
_atom_site_type_symbol
_atom_site_label
_atom_site_fract_x
_atom_site_fract_y
_atom_site_fract_z
Si Si1 0.000000 0.597443 0.097930
Si Si2 0.500000 0.103162 0.918195
Si Si3 0.193428 0.105089 0.499410
Si Si4 0.500000 0.175427 0.747967
Si Si5 0.201405 0.102229 0.327616
Si Si6 0.800156 0.897392 0.037944
Si Si7 0.308645 0.792553 0.189051
O O1 0.829310 0.637018 0.061256
O O2 0.000000 0.500000 0.069433
O O3 0.000000 0.596687 0.188853
O O4 0.500000 0.151515 0.836918
O O5 0.500000 0.000000 0.904374
O O6 0.332202 0.123327 0.969500
O O7 0.249200 0.130670 0.413587
O O8 0.000000 0.135500 0.512768
O O9 0.184921 0.000000 0.500772
O O10 0.668325 0.226279 0.720480
O O11 0.308700 0.139640 0.258862
O O12 0.000000 0.124779 0.316584
O O13 0.212211 0.000000 0.326638
O O14 0.752363 0.842081 0.112762
O O15 0.000000 0.883151 0.018261
O O16 0.779860 0.000000 0.054765
O O17 0.500000 0.757418 0.178188
#
# Coordination Sequence:
#
# PCOD9375204 Si02
#       7
#     4   4   8   4   8   8   8
#     4  10  21  40  65  85 108 157 214 260 299 354
#     4  10  23  46  73  95 122 174 231 279 323 379
#     4   8  16  32  55  87 118 145 190 240 290 355
#     4  12  27  46  57  90 134 167 209 267 323 387
#     4   9  17  33  58  88 127 166 198 244 301 368
#     4  10  20  40  72 102 126 162 221 282 329 382
#     4  12  24  39  59  92 134 171 207 253 328 398
#
# _framework density 20.767993000000001
#
# number of rings (size 3 to 8) (size 9 to 14) (size 15 to 20)
#    0.000    2.000    2.727    1.909    1.273    4.000 
#    3.273    0.000    0.000    5.455    0.000    0.000 
#    0.000    0.000    0.000    0.000    0.000    0.000 
#
# Total GULP energy -122826.533385 kJ/mol
# GULP energy per Si atom -5583.024245 kJ/mol
# Density = 2.072072 g / cm^3
# Si number density = 20.767993 Si / 1000 Ang^3
#
#
#
# Elastic Constant Matrix: (Units=GPa)
#
#
# Indices 1 2 3 4 5 6 
#
# 1 165.6483 44.6513 93.8518 0.0000 0.0000 0.0000
# 2 44.6513 40.1258 50.2686 0.0000 0.0000 0.0000
# 3 93.8518 50.2686 182.4167 0.0000 0.0000 0.0000
# 4 0.0000 0.0000 0.0000 20.8836 0.0000 0.0000
# 5 0.0000 0.0000 0.0000 0.0000 47.3394 0.0000
# 6 0.0000 0.0000 0.0000 0.0000 0.0000 8.2776
#
#
#
# Elastic Compliance Matrix: (Units=1/GPa)
#
#
# Indices 1 2 3 4 5 6 
#
# 1 0.009622 -0.006881 -0.003054 0.000000 0.000000 0.000000
# 2 -0.006881 0.042982 -0.008304 0.000000 0.000000 0.000000
# 3 -0.003054 -0.008304 0.009342 0.000000 0.000000 0.000000
# 4 0.000000 0.000000 0.000000 0.047884 0.000000 0.000000
# 5 0.000000 0.000000 0.000000 0.000000 0.021124 0.000000
# 6 0.000000 0.000000 0.000000 0.000000 0.000000 0.120809
#
#
# Mechanical properties :
#
#
# Convention : Reuss Voigt Hill
#
# Bulk Modulus (GPa) = 39.26685 85.08158 62.17422
# Shear Modulus (GPa) = 16.85023 28.59473 22.72248
#
# Velocity S-wave (km/s) = 2.85152 3.71464 3.31132
# Velocity P-wave (km/s) = 5.45802 7.71068 6.67999
#
# Compressibility (1/GPa) = 0.02546677
#
# Stress axis : x y z
#
# Youngs Moduli (GPa) = 103.92620 23.26539 107.04550
#
# Poissons Ratio (x) = 0.16009 0.32695
# Poissons Ratio (y) = 0.71512 0.88895
# Poissons Ratio (z) = 0.31742 0.19320
#
# Static dielectric constant tensor:
#      x y z
#    x 1.738940 0.000000 0.000000 
#    y 0.000000 1.825630 0.000000 
#    z 0.000000 0.000000 1.710960 
# 
# From -- ./inp_files/16044.got.cif
#   From: 2010.05.17/outbox.cif.g08.bks.cpg/sg44_9_cif.got.tgz:16044.got - 2010.06.03 19:37:08.
