data_PCOD9376522
_publ_section_title
;
Structure prediction by ZEFSAII (Michael W. Deem and Ramdas Pophale) SiO2 
 PCOD9376522
Probable space group: I B A 2
;
_chemical_formula_sum "Si O2"
_cell_formula_units_Z 44
_cell_length_a 26.265590
_cell_length_b 9.723826
_cell_length_c 8.937756
_cell_angle_alpha 90.000000
_cell_angle_beta 90.000000
_cell_angle_gamma 90.000000
_cell_volume 2282.720999
_symmetry_space_group_name_H-M "I B A 2"
_symmetry_group_IT_number 45
_symmetry_cell_setting 'orthorhombic'
loop_
_space_group_symop_operation_xyz
x,y,z
-x,-y,z
-x,y,1/2+z
x,-y,1/2+z
1/2+x,1/2+y,1/2+z
1/2-x,1/2-y,1/2+z
1/2-x,1/2+y,z
1/2+x,1/2-y,z
loop_
_atom_site_type_symbol
_atom_site_label
_atom_site_fract_x
_atom_site_fract_y
_atom_site_fract_z
Si Si1 0.932267 0.119073 0.952520
Si Si2 0.164070 0.642526 0.587879
Si Si3 0.143297 0.646293 0.934461
Si Si4 0.214635 0.863417 0.084894
Si Si5 0.000000 0.000000 0.712419
Si Si6 0.160626 0.087988 0.901585
O O1 0.906097 0.265216 0.979313
O O2 0.887705 0.013969 0.899822
O O3 0.974293 0.111488 0.822178
O O4 0.957803 0.064333 0.103685
O O5 0.143412 0.642834 0.755547
O O6 0.147783 0.503997 0.503835
O O7 0.225352 0.649757 0.603017
O O8 0.147555 0.775091 0.492915
O O9 0.191114 0.735958 0.993756
O O10 0.183828 0.875648 0.240417
O O11 0.202719 0.001032 0.991915
#
# Coordination Sequence:
#
# PCOD9376522 Si02
#       6
#     8   8   8   8   4   8
#     4  10  21  40  62  90 106 142 185 245 297 348
#     4  12  22  36  56  84 122 166 193 231 275 333
#     4  11  24  37  56  84 122 152 196 235 284 336
#     4  11  21  36  55  85 119 164 204 232 264 325
#     4  10  20  38  70  86 106 132 190 242 302 364
#     4  11  22  37  60  84 122 153 199 242 281 332
#
# _framework density 19.275241000000001
#
# number of rings (size 3 to 8) (size 9 to 14) (size 15 to 20)
#    0.000    1.091    0.000    9.818    0.000    0.000 
#    0.000    0.000    0.000   18.545    0.000    0.000 
#    0.000    0.000    0.000    0.000    0.000    0.000 
#
# Total GULP energy -123030.602243 kJ/mol
# GULP energy per Si atom -5592.300102 kJ/mol
# Density = 1.923137 g / cm^3
# Si number density = 19.275241 Si / 1000 Ang^3
#
#
#
# Elastic Constant Matrix: (Units=GPa)
#
#
# Indices 1 2 3 4 5 6 
#
# 1 40.0143 -24.4252 -17.4376 0.0000 0.0000 0.0000
# 2 -24.4252 81.6402 4.8565 0.0000 0.0000 0.0000
# 3 -17.4376 4.8565 88.2997 0.0000 0.0000 0.0000
# 4 0.0000 0.0000 0.0000 29.3955 0.0000 0.0000
# 5 0.0000 0.0000 0.0000 0.0000 24.6283 0.0000
# 6 0.0000 0.0000 0.0000 0.0000 0.0000 22.2966
#
#
#
# Elastic Compliance Matrix: (Units=1/GPa)
#
#
# Indices 1 2 3 4 5 6 
#
# 1 0.033553 0.009676 0.006094 0.000000 0.000000 0.000000
# 2 0.009676 0.015079 0.001081 0.000000 0.000000 0.000000
# 3 0.006094 0.001081 0.012469 0.000000 0.000000 0.000000
# 4 0.000000 0.000000 0.000000 0.034019 0.000000 0.000000
# 5 0.000000 0.000000 0.000000 0.000000 0.040604 0.000000
# 6 0.000000 0.000000 0.000000 0.000000 0.000000 0.044850
#
#
# Mechanical properties :
#
#
# Convention : Reuss Voigt Hill
#
# Bulk Modulus (GPa) = 10.54808 15.10462 12.82635
# Shear Modulus (GPa) = 28.01552 31.72812 29.87182
#
# Velocity S-wave (km/s) = 3.81654 4.06156 3.94096
# Velocity P-wave (km/s) = 4.99055 5.46336 5.23230
#
# Compressibility (1/GPa) = 0.09480402
#
# Stress axis : x y z
#
# Youngs Moduli (GPa) = 29.80360 66.31564 80.19870
#
# Poissons Ratio (x) = -0.64167 -0.48872
# Poissons Ratio (y) = -0.28838 -0.08673
# Poissons Ratio (z) = -0.18162 -0.07172
#
# Static dielectric constant tensor:
#      x y z
#    x 1.724510 0.000000 0.000000 
#    y 0.000000 1.647990 0.000000 
#    z 0.000000 0.000000 1.664390 
# 
# From -- ./inp_files/1031.got.cif
#   From: 2010.05.17/outbox.cif.g08.bks.cpg/sg45_1_cif.got.tgz:1031.got - 2010.06.03 19:51:22.
