data_PCOD9376534
_publ_section_title
;
Structure prediction by ZEFSAII (Michael W. Deem and Ramdas Pophale) SiO2 
 PCOD9376534
Probable space group: I B A 2
;
_chemical_formula_sum "Si O2"
_cell_formula_units_Z 64
_cell_length_a 10.455244
_cell_length_b 23.604980
_cell_length_c 11.425073
_cell_angle_alpha 90.000000
_cell_angle_beta 90.000000
_cell_angle_gamma 90.000000
_cell_volume 2819.660323
_symmetry_space_group_name_H-M "I B A 2"
_symmetry_group_IT_number 45
_symmetry_cell_setting 'orthorhombic'
loop_
_space_group_symop_operation_xyz
x,y,z
-x,-y,z
-x,y,1/2+z
x,-y,1/2+z
1/2+x,1/2+y,1/2+z
1/2-x,1/2-y,1/2+z
1/2-x,1/2+y,z
1/2+x,1/2-y,z
loop_
_atom_site_type_symbol
_atom_site_label
_atom_site_fract_x
_atom_site_fract_y
_atom_site_fract_z
Si Si1 0.692023 0.846981 0.353820
Si Si2 0.071841 0.684060 0.936463
Si Si3 0.908514 0.913904 0.665298
Si Si4 0.807175 0.459783 0.506140
Si Si5 0.812466 0.904398 0.155721
Si Si6 0.081301 0.806285 0.998261
Si Si7 0.837167 0.858338 0.893302
Si Si8 0.576263 0.064007 0.560398
O O1 0.548903 0.823068 0.349644
O O2 0.690952 0.910653 0.409312
O O3 0.773444 0.851158 0.235182
O O4 0.777788 0.812193 0.444431
O O5 0.057175 0.740021 0.014820
O O6 0.212405 0.681053 0.878515
O O7 0.068451 0.627817 0.014924
O O8 0.825262 0.951813 0.576058
O O9 0.922173 0.851272 0.604306
O O10 0.841993 0.902818 0.788444
O O11 0.054300 0.932391 0.690506
O O12 0.857408 0.521475 0.465358
O O13 0.929956 0.448394 0.590256
O O14 0.682445 0.940413 0.160544
O O15 0.828084 0.887764 0.020312
O O16 0.972851 0.826233 0.905135
#
# Coordination Sequence:
#
# PCOD9376534 Si02
#       8
#     8   8   8   8   8   8   8   8
#     4  10  20  39  63  93 124 168 212 264 329 383
#     4  10  21  38  63  89 130 163 213 263 326 392
#     4  10  21  39  67  88 128 172 212 269 325 384
#     4   9  20  40  67  91 125 162 216 270 329 383
#     4  10  21  39  62  90 129 165 213 265 318 390
#     4  10  20  40  61  92 124 168 217 263 321 386
#     4  10  21  40  57  92 130 163 212 267 311 390
#     4   9  20  41  60  94 124 161 214 272 321 389
#
# _framework density 22.697769999999998
#
# number of rings (size 3 to 8) (size 9 to 14) (size 15 to 20)
#    0.000    2.250    1.250    0.750    1.750    0.500 
#   13.500    1.250    0.000    0.000    0.000    0.000 
#    0.000    0.000    0.000    0.000    0.000    0.000 
#
# Total GULP energy -178136.094427 kJ/mol
# GULP energy per Si atom -5566.752951 kJ/mol
# Density = 2.264611 g / cm^3
# Si number density = 22.697770 Si / 1000 Ang^3
#
#
#
# Elastic Constant Matrix: (Units=GPa)
#
#
# Indices 1 2 3 4 5 6 
#
# 1 143.9566 0.8965 16.3289 0.0000 -0.0003 0.0001
# 2 0.8965 97.7559 4.2326 -0.0001 0.0000 0.0000
# 3 16.3289 4.2326 67.2271 -0.0005 -0.0006 0.0002
# 4 0.0000 -0.0001 -0.0005 14.7442 -0.0001 0.0000
# 5 -0.0003 0.0000 -0.0006 -0.0001 20.0399 0.0001
# 6 0.0001 0.0000 0.0002 0.0000 0.0001 20.7871
#
#
#
# Elastic Compliance Matrix: (Units=1/GPa)
#
#
# Indices 1 2 3 4 5 6 
#
# 1 0.007143 0.000010 -0.001736 0.000000 0.000000 0.000000
# 2 0.000010 0.010258 -0.000648 0.000000 0.000000 0.000000
# 3 -0.001736 -0.000648 0.015337 0.000001 0.000000 0.000000
# 4 0.000000 0.000000 0.000001 0.067823 0.000000 0.000000
# 5 0.000000 0.000000 0.000000 0.000000 0.049901 0.000000
# 6 0.000000 0.000000 0.000000 0.000000 0.000000 0.048107
#
#
# Mechanical properties :
#
#
# Convention : Reuss Voigt Hill
#
# Bulk Modulus (GPa) = 35.72718 39.09504 37.41111
# Shear Modulus (GPa) = 23.51313 30.27967 26.89640
#
# Velocity S-wave (km/s) = 3.22207 3.65641 3.44609
# Velocity P-wave (km/s) = 5.44214 5.92346 5.68789
#
# Compressibility (1/GPa) = 0.02798989
#
# Stress axis : x y z
#
# Youngs Moduli (GPa) = 139.99031 97.48925 65.20033
#
# Poissons Ratio (x) = -0.00094 0.11317
# Poissons Ratio (y) = -0.00135 0.04226
# Poissons Ratio (z) = 0.24298 0.06319
#
# Static dielectric constant tensor:
#      x y z
#    x 1.950350 0.000000 0.000000 
#    y 0.000000 1.988530 0.000000 
#    z 0.000000 0.000000 1.851780 
# 
# From -- ./inp_files/3881.got.cif
#   From: 2010.05.17/outbox.cif.g08.bks.cpg/sg45_2_cif.got.tgz:3881.got - 2010.06.03 19:51:22.
