data_PCOD9376550
_publ_section_title
;
Structure prediction by ZEFSAII (Michael W. Deem and Ramdas Pophale) SiO2 
 PCOD9376550
Probable space group: I B A 2
;
_chemical_formula_sum "Si O2"
_cell_formula_units_Z 44
_cell_length_a 19.631663
_cell_length_b 7.337935
_cell_length_c 14.770257
_cell_angle_alpha 90.000000
_cell_angle_beta 90.000000
_cell_angle_gamma 90.000000
_cell_volume 2127.742178
_symmetry_space_group_name_H-M "I B A 2"
_symmetry_group_IT_number 45
_symmetry_cell_setting 'orthorhombic'
loop_
_space_group_symop_operation_xyz
x,y,z
-x,-y,z
-x,y,1/2+z
x,-y,1/2+z
1/2+x,1/2+y,1/2+z
1/2-x,1/2-y,1/2+z
1/2-x,1/2+y,z
1/2+x,1/2-y,z
loop_
_atom_site_type_symbol
_atom_site_label
_atom_site_fract_x
_atom_site_fract_y
_atom_site_fract_z
Si Si1 0.653143 0.402214 0.606000
Si Si2 0.859217 0.415330 0.965110
Si Si3 0.397341 0.886942 0.268992
Si Si4 0.030112 0.747897 0.207752
Si Si5 0.500000 0.000000 0.041365
Si Si6 0.801666 0.310097 0.601684
O O1 0.638945 0.273819 0.519947
O O2 0.589600 0.386018 0.675767
O O3 0.724849 0.316376 0.639820
O O4 0.671285 0.608409 0.580809
O O5 0.853173 0.377416 0.859480
O O6 0.933204 0.504361 0.981556
O O7 0.808260 0.554918 0.015448
O O8 0.459179 0.738020 0.263499
O O9 0.351248 0.877101 0.180345
O O10 0.431463 0.085632 0.260084
O O11 0.004163 0.668527 0.110970
#
# Coordination Sequence:
#
# PCOD9376550 Si02
#       6
#     8   8   8   8   4   8
#     4  11  23  42  66  88 136 175 218 273 337 393
#     4  11  21  42  66  95 131 168 221 269 328 406
#     4  10  20  39  70  94 128 171 221 265 334 393
#     4   9  17  39  66  92 125 176 206 263 334 381
#     4   8  14  34  66  82 124 160 194 260 322 360
#     4  12  22  44  64  96 132 177 218 277 336 397
#
# _framework density 20.679196999999998
#
# number of rings (size 3 to 8) (size 9 to 14) (size 15 to 20)
#    0.000    1.818    7.273    1.091    0.000    0.727 
#    9.818    0.000    4.000    0.000    0.000    0.000 
#    0.000    0.000    0.000    0.000    0.000    0.000 
#
# Total GULP energy -122529.617718 kJ/mol
# GULP energy per Si atom -5569.528078 kJ/mol
# Density = 2.063213 g / cm^3
# Si number density = 20.679197 Si / 1000 Ang^3
#
#
#
# Elastic Constant Matrix: (Units=GPa)
#
#
# Indices 1 2 3 4 5 6 
#
# 1 87.0158 6.7621 31.1678 0.0000 0.0000 0.0000
# 2 6.7621 100.6697 37.4547 0.0000 0.0000 0.0000
# 3 31.1678 37.4547 82.1332 0.0000 0.0000 0.0000
# 4 0.0000 0.0000 0.0000 5.3084 0.0000 0.0000
# 5 0.0000 0.0000 0.0000 0.0000 14.1380 0.0000
# 6 0.0000 0.0000 0.0000 0.0000 0.0000 16.7257
#
#
#
# Elastic Compliance Matrix: (Units=1/GPa)
#
#
# Indices 1 2 3 4 5 6 
#
# 1 0.013418 0.001196 -0.005638 0.000000 0.000000 0.000000
# 2 0.001196 0.012070 -0.005958 0.000000 0.000000 0.000000
# 3 -0.005638 -0.005958 0.017032 0.000000 0.000000 0.000000
# 4 0.000000 0.000000 0.000000 0.188380 0.000000 0.000000
# 5 0.000000 0.000000 0.000000 0.000000 0.070731 0.000000
# 6 0.000000 0.000000 0.000000 0.000000 0.000000 0.059788
#
#
# Mechanical properties :
#
#
# Convention : Reuss Voigt Hill
#
# Bulk Modulus (GPa) = 46.03802 46.73199 46.38500
# Shear Modulus (GPa) = 12.83832 20.19668 16.51750
#
# Velocity S-wave (km/s) = 2.49435 3.12856 2.82928
# Velocity P-wave (km/s) = 5.53236 5.97479 5.75783
#
# Compressibility (1/GPa) = 0.02172118
#
# Stress axis : x y z
#
# Youngs Moduli (GPa) = 74.52402 82.85106 58.71415
#
# Poissons Ratio (x) = -0.09910 0.33100
# Poissons Ratio (y) = -0.08914 0.34982
# Poissons Ratio (z) = 0.42013 0.49363
#
# Static dielectric constant tensor:
#      x y z
#    x 1.813770 0.000000 0.000000 
#    y 0.000000 1.799700 0.000000 
#    z 0.000000 0.000000 1.723750 
# 
# From -- ./inp_files/6723.got.cif
#   From: 2010.05.17/outbox.cif.g08.bks.cpg/sg45_4_cif.got.tgz:6723.got - 2010.06.03 19:51:22.
