data_PCOD9376206
_publ_section_title
;
Structure prediction by ZEFSAII (Michael W. Deem and Ramdas Pophale) SiO2 
 PCOD9376206
Probable space group: I B A 2
;
_chemical_formula_sum "Si O2"
_cell_formula_units_Z 48
_cell_length_a 8.937564
_cell_length_b 22.024915
_cell_length_c 8.805605
_cell_angle_alpha 90.000000
_cell_angle_beta 90.000000
_cell_angle_gamma 90.000000
_cell_volume 1733.375308
_symmetry_space_group_name_H-M "I B A 2"
_symmetry_group_IT_number 45
_symmetry_cell_setting 'orthorhombic'
loop_
_space_group_symop_operation_xyz
x,y,z
-x,-y,z
-x,y,1/2+z
x,-y,1/2+z
1/2+x,1/2+y,1/2+z
1/2-x,1/2-y,1/2+z
1/2-x,1/2+y,z
1/2+x,1/2-y,z
loop_
_atom_site_type_symbol
_atom_site_label
_atom_site_fract_x
_atom_site_fract_y
_atom_site_fract_z
Si Si1 0.918458 0.302933 0.121630
Si Si2 0.186939 0.571986 0.590734
Si Si3 0.261122 0.032609 0.892081
Si Si4 0.473398 0.383286 0.559946
Si Si5 0.358806 0.738799 0.942728
Si Si6 0.224897 0.403756 0.770989
O O1 0.874220 0.268074 0.277069
O O2 0.889079 0.374460 0.149768
O O3 0.807272 0.282681 0.986688
O O4 0.083144 0.284091 0.074064
O O5 0.158565 0.503064 0.528625
O O6 0.148509 0.572079 0.769301
O O7 0.365549 0.589415 0.595928
O O8 0.152450 0.608299 0.435388
O O9 0.124619 0.068880 0.963355
O O10 0.219515 0.972860 0.793753
O O11 0.463777 0.319919 0.471569
O O12 0.377084 0.372411 0.713359
#
# Coordination Sequence:
#
# PCOD9376206 Si02
#       6
#     8   8   8   8   8   8
#     4  11  25  47  68 102 137 193 240 306 351 442
#     4  10  20  29  52  86 133 170 208 282 354 424
#     4  10  19  30  52  89 129 170 208 281 362 422
#     4  11  21  32  54  92 133 170 220 287 361 419
#     4  11  27  43  71  98 144 183 249 293 368 429
#     4   9  21  36  54  86 132 171 221 270 347 435
#
# _framework density 27.691637
#
# number of rings (size 3 to 8) (size 9 to 14) (size 15 to 20)
#    1.000    0.667    1.667    2.500   11.667    0.000 
#    0.000    0.000    0.000    0.000    0.000   46.667 
#    0.000    0.000    0.000    0.000    0.000    0.000 
#
# Total GULP energy -133900.443883 kJ/mol
# GULP energy per Si atom -5579.185162 kJ/mol
# Density = 2.762861 g / cm^3
# Si number density = 27.691637 Si / 1000 Ang^3
#
#
#
# Elastic Constant Matrix: (Units=GPa)
#
#
# Indices 1 2 3 4 5 6 
#
# 1 58.8612 28.4836 2.8314 -0.0001 0.0001 0.0035
# 2 28.4836 141.9402 17.7422 -0.0001 0.0000 0.0022
# 3 2.8314 17.7422 154.3875 -0.0006 0.0002 0.0376
# 4 -0.0001 -0.0001 -0.0006 50.0212 0.0000 0.0024
# 5 0.0001 0.0000 0.0002 0.0000 37.1793 0.0005
# 6 0.0035 0.0022 0.0376 0.0024 0.0005 744.3816
#
#
#
# Elastic Compliance Matrix: (Units=1/GPa)
#
#
# Indices 1 2 3 4 5 6 
#
# 1 0.018818 -0.003787 0.000090 0.000000 0.000000 0.000000
# 2 -0.003787 0.007910 -0.000840 0.000000 0.000000 0.000000
# 3 0.000090 -0.000840 0.006572 0.000000 0.000000 0.000000
# 4 0.000000 0.000000 0.000000 0.019992 0.000000 0.000000
# 5 0.000000 0.000000 0.000000 0.000000 0.026897 0.000000
# 6 0.000000 0.000000 0.000000 0.000000 0.000000 0.001343
#
#
# Mechanical properties :
#
#
# Convention : Reuss Voigt Hill
#
# Bulk Modulus (GPa) = 41.27787 50.36703 45.82245
# Shear Modulus (GPa) = 50.66856 186.72521 118.69689
#
# Velocity S-wave (km/s) = 4.28219 8.22050 6.55415
# Velocity P-wave (km/s) = 6.27600 10.40818 8.59413
#
# Compressibility (1/GPa) = 0.02422606
#
# Stress axis : x y z
#
# Youngs Moduli (GPa) = 53.14181 126.41897 152.15976
#
# Poissons Ratio (x) = 0.47881 -0.01372
# Poissons Ratio (y) = 0.20127 0.12775
# Poissons Ratio (z) = -0.00479 0.10614
#
# Static dielectric constant tensor:
#      x y z
#    x 2.199240 0.000000 0.000000 
#    y 0.000000 2.231120 0.000000 
#    z 0.000000 0.000000 2.231960 
# 
# From -- ./inp_files/1394.got.cif
#   From: 2010.05.17/outbox.cif.g08.bks.cpg/sg45_1_cif.got.tgz:1394.got - 2010.06.03 19:51:22.
