data_PCOD9376952
_publ_section_title
;
Structure prediction by ZEFSAII (Michael W. Deem and Ramdas Pophale) SiO2 
 PCOD9376952
Probable space group: I B A 2
;
_chemical_formula_sum "Si O2"
_cell_formula_units_Z 64
_cell_length_a 30.118733
_cell_length_b 7.464860
_cell_length_c 12.020671
_cell_angle_alpha 90.000000
_cell_angle_beta 90.000000
_cell_angle_gamma 90.000000
_cell_volume 2702.633008
_symmetry_space_group_name_H-M "I B A 2"
_symmetry_group_IT_number 45
_symmetry_cell_setting 'orthorhombic'
loop_
_space_group_symop_operation_xyz
x,y,z
-x,-y,z
-x,y,1/2+z
x,-y,1/2+z
1/2+x,1/2+y,1/2+z
1/2-x,1/2-y,1/2+z
1/2-x,1/2+y,z
1/2+x,1/2-y,z
loop_
_atom_site_type_symbol
_atom_site_label
_atom_site_fract_x
_atom_site_fract_y
_atom_site_fract_z
Si Si1 0.949705 0.287633 0.160000
Si Si2 0.288708 0.425081 0.745176
Si Si3 0.421362 0.188964 0.916435
Si Si4 0.671266 0.705226 0.960930
Si Si5 0.610460 0.162343 0.846028
Si Si6 0.190180 0.663323 0.192698
Si Si7 0.358885 0.337029 0.569576
Si Si8 0.549965 0.224087 0.185995
O O1 0.920655 0.216923 0.264364
O O2 0.947297 0.506141 0.172870
O O3 0.000463 0.227625 0.150540
O O4 0.929762 0.248315 0.039877
O O5 0.293046 0.352082 0.870427
O O6 0.237057 0.426031 0.716487
O O7 0.305918 0.629323 0.734757
O O8 0.319024 0.308494 0.659019
O O9 0.370013 0.222864 0.892114
O O10 0.448801 0.269975 0.816876
O O11 0.424312 0.975225 0.902491
O O12 0.684305 0.838279 0.059477
O O13 0.652775 0.533662 0.025694
O O14 0.647143 0.092310 0.757403
O O15 0.637434 0.232313 0.952476
O O16 0.407050 0.308724 0.626755
#
# Coordination Sequence:
#
# PCOD9376952 Si02
#       8
#     8   8   8   8   8   8   8   8
#     4  10  22  38  65 103 128 168 226 275 325 390
#     4  11  26  43  66  98 130 171 220 269 335 394
#     4  11  22  40  67  93 130 172 218 272 323 394
#     4  11  24  44  67  90 136 172 217 270 326 401
#     4  11  23  41  66  96 129 173 218 273 329 390
#     4  11  26  43  66  97 129 169 219 273 327 400
#     4  11  23  44  66  91 134 180 210 271 336 393
#     4  10  22  38  66  97 131 169 219 278 331 384
#
# _framework density 23.680610999999999
#
# number of rings (size 3 to 8) (size 9 to 14) (size 15 to 20)
#    0.000    1.250    5.000    0.000    5.250    2.000 
#    0.000    0.625    0.000    0.000    0.000    0.000 
#    0.000    0.000    0.000    0.000    0.000    0.000 
#
# Total GULP energy -178642.964029 kJ/mol
# GULP energy per Si atom -5582.592626 kJ/mol
# Density = 2.362671 g / cm^3
# Si number density = 23.680611 Si / 1000 Ang^3
#
#
#
# Elastic Constant Matrix: (Units=GPa)
#
#
# Indices 1 2 3 4 5 6 
#
# 1 127.4058 2.9750 33.2506 0.0000 0.0000 0.0000
# 2 2.9750 25.1769 18.0820 0.0000 0.0000 0.0000
# 3 33.2506 18.0820 119.5437 0.0000 0.0000 0.0000
# 4 0.0000 0.0000 0.0000 26.1759 0.0000 0.0000
# 5 0.0000 0.0000 0.0000 0.0000 30.5921 0.0000
# 6 0.0000 0.0000 0.0000 0.0000 0.0000 17.9003
#
#
#
# Elastic Compliance Matrix: (Units=1/GPa)
#
#
# Indices 1 2 3 4 5 6 
#
# 1 0.008477 0.000776 -0.002475 0.000000 0.000000 0.000000
# 2 0.000776 0.044631 -0.006967 0.000000 0.000000 0.000000
# 3 -0.002475 -0.006967 0.010107 0.000000 0.000000 0.000000
# 4 0.000000 0.000000 0.000000 0.038203 0.000000 0.000000
# 5 0.000000 0.000000 0.000000 0.000000 0.032688 0.000000
# 6 0.000000 0.000000 0.000000 0.000000 0.000000 0.055865
#
#
# Mechanical properties :
#
#
# Convention : Reuss Voigt Hill
#
# Bulk Modulus (GPa) = 21.79444 42.30462 32.04953
# Shear Modulus (GPa) = 22.46213 29.45493 25.95853
#
# Velocity S-wave (km/s) = 3.08319 3.53064 3.31447
# Velocity P-wave (km/s) = 4.67955 5.87571 5.31141
#
# Compressibility (1/GPa) = 0.04588326
#
# Stress axis : x y z
#
# Youngs Moduli (GPa) = 117.96918 22.40613 98.93778
#
# Poissons Ratio (x) = -0.01739 0.24489
# Poissons Ratio (y) = -0.09155 0.68926
# Poissons Ratio (z) = 0.29199 0.15609
#
# Static dielectric constant tensor:
#      x y z
#    x 1.850520 0.000000 0.000000 
#    y 0.000000 2.050780 0.000000 
#    z 0.000000 0.000000 1.887280 
# 
# From -- ./inp_files/3417.got.cif
#   From: 2010.05.17/outbox.cif.g08.bks.cpg/sg45_2_cif.got.tgz:3417.got - 2010.06.03 19:51:22.
