data_PCOD9376841
_publ_section_title
;
Structure prediction by ZEFSAII (Michael W. Deem and Ramdas Pophale) SiO2 
 PCOD9376841
Probable space group: I B A 2
;
_chemical_formula_sum "Si O2"
_cell_formula_units_Z 56
_cell_length_a 13.486973
_cell_length_b 12.647121
_cell_length_c 13.702635
_cell_angle_alpha 90.000000
_cell_angle_beta 90.000000
_cell_angle_gamma 90.000000
_cell_volume 2337.277354
_symmetry_space_group_name_H-M "I B A 2"
_symmetry_group_IT_number 45
_symmetry_cell_setting 'orthorhombic'
loop_
_space_group_symop_operation_xyz
x,y,z
-x,-y,z
-x,y,1/2+z
x,-y,1/2+z
1/2+x,1/2+y,1/2+z
1/2-x,1/2-y,1/2+z
1/2-x,1/2+y,z
1/2+x,1/2-y,z
loop_
_atom_site_type_symbol
_atom_site_label
_atom_site_fract_x
_atom_site_fract_y
_atom_site_fract_z
Si Si1 0.116059 0.003612 0.920960
Si Si2 0.397687 0.939870 0.347788
Si Si3 0.736700 0.389176 0.267865
Si Si4 0.365361 0.209010 0.681366
Si Si5 0.967251 0.682912 0.519559
Si Si6 0.703869 0.347806 0.550538
Si Si7 0.647460 0.255484 0.893330
O O1 0.145827 0.919232 0.838824
O O2 0.148881 0.119664 0.891888
O O3 0.172164 0.962735 0.015923
O O4 0.000000 0.000000 0.938015
O O5 0.388603 0.829855 0.289881
O O6 0.406046 0.912211 0.464829
O O7 0.500000 0.000000 0.325037
O O8 0.311412 0.014366 0.301600
O O9 0.674347 0.331298 0.179727
O O10 0.813239 0.294767 0.294343
O O11 0.457172 0.174236 0.611590
O O12 0.270509 0.144007 0.644641
O O13 0.041201 0.719640 0.433163
O O14 0.890907 0.772648 0.552276
O O15 0.776183 0.293339 0.471461
#
# Coordination Sequence:
#
# PCOD9376841 Si02
#       7
#     8   8   8   8   8   8   8
#     4  11  21  40  74 106 135 195 254 305 383 469
#     4  12  26  49  78 110 153 210 260 320 400 484
#     4  11  24  46  68 107 151 194 251 324 389 455
#     4  11  28  46  71 115 154 197 265 327 392 469
#     4  11  23  47  75 109 149 205 259 318 399 482
#     4  10  23  43  67 101 148 191 245 322 384 454
#     4  10  21  41  70 101 142 189 251 315 378 465
#
# _framework density 23.959502000000001
#
# number of rings (size 3 to 8) (size 9 to 14) (size 15 to 20)
#    0.000    1.143    2.857    3.429    2.000    2.857 
#    2.571    0.000    0.000    0.000    0.000    0.000 
#    0.000    0.000    0.000    0.000    0.000    0.000 
#
# Total GULP energy -156047.117605 kJ/mol
# GULP energy per Si atom -5573.111343 kJ/mol
# Density = 2.390497 g / cm^3
# Si number density = 23.959502 Si / 1000 Ang^3
#
#
#
# Elastic Constant Matrix: (Units=GPa)
#
#
# Indices 1 2 3 4 5 6 
#
# 1 117.5375 35.8024 31.7016 0.0000 0.0000 0.0000
# 2 35.8024 125.7062 26.7658 0.0000 0.0000 0.0000
# 3 31.7016 26.7658 63.7513 0.0000 0.0000 0.0000
# 4 0.0000 0.0000 0.0000 18.7466 0.0000 0.0000
# 5 0.0000 0.0000 0.0000 0.0000 33.6895 0.0000
# 6 0.0000 0.0000 0.0000 0.0000 0.0000 46.2841
#
#
#
# Elastic Compliance Matrix: (Units=1/GPa)
#
#
# Indices 1 2 3 4 5 6 
#
# 1 0.010272 -0.002018 -0.004260 0.000000 0.000000 0.000000
# 2 -0.002018 0.009133 -0.002831 0.000000 0.000000 0.000000
# 3 -0.004260 -0.002831 0.018993 0.000000 0.000000 0.000000
# 4 0.000000 0.000000 0.000000 0.053343 0.000000 0.000000
# 5 0.000000 0.000000 0.000000 0.000000 0.029683 0.000000
# 6 0.000000 0.000000 0.000000 0.000000 0.000000 0.021606
#
#
# Mechanical properties :
#
#
# Convention : Reuss Voigt Hill
#
# Bulk Modulus (GPa) = 49.55767 55.05939 52.30853
# Shear Modulus (GPa) = 29.76652 33.92573 31.84613
#
# Velocity S-wave (km/s) = 3.52855 3.76701 3.64973
# Velocity P-wave (km/s) = 6.10980 6.47692 6.29604
#
# Compressibility (1/GPa) = 0.02017851
#
# Stress axis : x y z
#
# Youngs Moduli (GPa) = 97.35358 109.49768 52.65104
#
# Poissons Ratio (x) = 0.22101 0.22432
# Poissons Ratio (y) = 0.19650 0.14904
# Poissons Ratio (z) = 0.41477 0.30995
#
# Static dielectric constant tensor:
#      x y z
#    x 1.950580 0.000000 0.000000 
#    y 0.000000 2.025780 0.000000 
#    z 0.000000 0.000000 2.000930 
# 
# From -- ./inp_files/6530.got.cif
#   From: 2010.05.17/outbox.cif.g08.bks.cpg/sg45_4_cif.got.tgz:6530.got - 2010.06.03 19:51:22.
