data_PCOD9376606
_publ_section_title
;
Structure prediction by ZEFSAII (Michael W. Deem and Ramdas Pophale) SiO2 
 PCOD9376606
Probable space group: I B A 2
;
_chemical_formula_sum "Si O2"
_cell_formula_units_Z 56
_cell_length_a 22.123131
_cell_length_b 10.034272
_cell_length_c 12.917361
_cell_angle_alpha 90.000000
_cell_angle_beta 90.000000
_cell_angle_gamma 90.000000
_cell_volume 2867.518690
_symmetry_space_group_name_H-M "I B A 2"
_symmetry_group_IT_number 45
_symmetry_cell_setting 'orthorhombic'
loop_
_space_group_symop_operation_xyz
x,y,z
-x,-y,z
-x,y,1/2+z
x,-y,1/2+z
1/2+x,1/2+y,1/2+z
1/2-x,1/2-y,1/2+z
1/2-x,1/2+y,z
1/2+x,1/2-y,z
loop_
_atom_site_type_symbol
_atom_site_label
_atom_site_fract_x
_atom_site_fract_y
_atom_site_fract_z
Si Si1 0.087956 0.317461 0.906600
Si Si2 0.282167 0.575946 0.765687
Si Si3 0.672876 0.642690 0.054838
Si Si4 0.500000 0.500000 0.238491
Si Si5 0.902885 0.024274 0.395558
Si Si6 0.000000 0.500000 0.536454
Si Si7 0.435690 0.230281 0.167554
Si Si8 0.228192 0.334812 0.882509
O O1 0.070628 0.164657 0.935797
O O2 0.074700 0.321319 0.784076
O O3 0.159863 0.330377 0.923633
O O4 0.050725 0.428653 0.966390
O O5 0.292320 0.560545 0.644023
O O6 0.347274 0.560374 0.820205
O O7 0.240017 0.472973 0.824730
O O8 0.261612 0.723221 0.795354
O O9 0.629883 0.746319 0.114828
O O10 0.625312 0.556990 0.988730
O O11 0.723460 0.689793 0.973751
O O12 0.551098 0.449861 0.319523
O O13 0.470952 0.374010 0.177817
O O14 0.028195 0.380995 0.604635
#
# Coordination Sequence:
#
# PCOD9376606 Si02
#       8
#     8   8   8   4   8   4   8   8
#     4  10  23  48  61  96 142 164 218 276 317 401
#     4  10  21  43  59  95 130 162 212 276 313 391
#     4  11  22  40  69  96 125 172 224 270 332 385
#     4  10  20  42  70  92 132 168 216 290 314 378
#     4   9  21  39  64  94 127 167 220 272 320 377
#     4  12  28  40  70  98 136 184 210 264 344 412
#     4  11  25  44  67  95 135 171 221 268 334 392
#     4  10  23  40  68  91 130 171 215 268 331 381
#
# _framework density 19.529077999999998
#
# number of rings (size 3 to 8) (size 9 to 14) (size 15 to 20)
#    0.000    1.714    4.286    0.429    8.000    4.571 
#    0.000    1.429    0.000    0.000    0.000    0.000 
#    0.000    0.000    0.000    0.000    0.000    0.000 
#
# Total GULP energy -156165.736002 kJ/mol
# GULP energy per Si atom -5577.347714 kJ/mol
# Density = 1.948463 g / cm^3
# Si number density = 19.529078 Si / 1000 Ang^3
#
#
#
# Elastic Constant Matrix: (Units=GPa)
#
#
# Indices 1 2 3 4 5 6 
#
# 1 98.1595 48.6428 46.6892 0.0000 0.0000 0.0000
# 2 48.6428 72.7422 35.5364 0.0000 0.0000 0.0000
# 3 46.6892 35.5364 116.1506 0.0000 0.0000 0.0000
# 4 0.0000 0.0000 0.0000 26.6999 0.0000 0.0000
# 5 0.0000 0.0000 0.0000 0.0000 34.7869 0.0000
# 6 0.0000 0.0000 0.0000 0.0000 0.0000 27.6141
#
#
#
# Elastic Compliance Matrix: (Units=1/GPa)
#
#
# Indices 1 2 3 4 5 6 
#
# 1 0.016581 -0.009208 -0.003848 0.000000 0.000000 0.000000
# 2 -0.009208 0.021276 -0.002808 0.000000 0.000000 0.000000
# 3 -0.003848 -0.002808 0.011015 0.000000 0.000000 0.000000
# 4 0.000000 0.000000 0.000000 0.037453 0.000000 0.000000
# 5 0.000000 0.000000 0.000000 0.000000 0.028746 0.000000
# 6 0.000000 0.000000 0.000000 0.000000 0.000000 0.036213
#
#
# Mechanical properties :
#
#
# Convention : Reuss Voigt Hill
#
# Bulk Modulus (GPa) = 58.32703 60.97658 59.65181
# Shear Modulus (GPa) = 26.49317 28.23242 27.36279
#
# Velocity S-wave (km/s) = 3.68720 3.80631 3.74723
# Velocity P-wave (km/s) = 6.93245 7.11397 7.02380
#
# Compressibility (1/GPa) = 0.01714471
#
# Stress axis : x y z
#
# Youngs Moduli (GPa) = 60.31168 47.00074 90.78182
#
# Poissons Ratio (x) = 0.43277 0.34931
# Poissons Ratio (y) = 0.55533 0.25494
# Poissons Ratio (z) = 0.23207 0.13199
#
# Static dielectric constant tensor:
#      x y z
#    x 1.701630 0.000000 0.000000 
#    y 0.000000 1.710290 0.000000 
#    z 0.000000 0.000000 1.699610 
# 
# From -- ./inp_files/4645.got.cif
#   From: 2010.05.17/outbox.cif.g08.bks.cpg/sg45_3_cif.got.tgz:4645.got - 2010.06.03 19:51:22.
