data_PCOD9376982
_publ_section_title
;
Structure prediction by ZEFSAII (Michael W. Deem and Ramdas Pophale) SiO2 
 PCOD9376982
Probable space group: I B A 2
;
_chemical_formula_sum "Si O2"
_cell_formula_units_Z 64
_cell_length_a 9.382096
_cell_length_b 14.526984
_cell_length_c 23.852597
_cell_angle_alpha 90.000000
_cell_angle_beta 90.000000
_cell_angle_gamma 90.000000
_cell_volume 3250.955324
_symmetry_space_group_name_H-M "I B A 2"
_symmetry_group_IT_number 45
_symmetry_cell_setting 'orthorhombic'
loop_
_space_group_symop_operation_xyz
x,y,z
-x,-y,z
-x,y,1/2+z
x,-y,1/2+z
1/2+x,1/2+y,1/2+z
1/2-x,1/2-y,1/2+z
1/2-x,1/2+y,z
1/2+x,1/2-y,z
loop_
_atom_site_type_symbol
_atom_site_label
_atom_site_fract_x
_atom_site_fract_y
_atom_site_fract_z
Si Si1 0.235410 0.252892 0.397250
Si Si2 0.192304 0.153948 0.622928
Si Si3 0.536969 0.903730 0.582667
Si Si4 0.477610 0.785751 0.971539
Si Si5 0.488285 0.385627 0.347984
Si Si6 0.961493 0.099400 0.530783
Si Si7 0.746382 0.356799 0.126121
Si Si8 0.481245 0.393210 0.714854
O O1 0.350237 0.189769 0.429712
O O2 0.130368 0.301179 0.442746
O O3 0.339144 0.330022 0.365942
O O4 0.121619 0.181119 0.367995
O O5 0.320384 0.083098 0.618557
O O6 0.085301 0.131503 0.573145
O O7 0.269322 0.249603 0.612304
O O8 0.104467 0.157447 0.679806
O O9 0.539837 0.833854 0.531112
O O10 0.412662 0.875640 0.624879
O O11 0.500000 0.000000 0.555234
O O12 0.455251 0.676878 0.983936
O O13 0.500000 0.500000 0.361396
O O14 0.501303 0.380888 0.280476
O O15 0.827971 0.093569 0.573138
O O16 0.000000 0.000000 0.507442
O O17 0.667491 0.370091 0.184804
O O18 0.500000 0.500000 0.700861
#
# Coordination Sequence:
#
# PCOD9376982 Si02
#       8
#     8   8   8   8   8   8   8   8
#     4  10  24  42  68  92 126 162 220 282 320 380
#     4  11  20  36  56  89 128 162 200 244 298 373
#     4  12  22  34  55  89 130 160 193 244 301 367
#     4  11  21  39  59  92 128 163 212 260 313 374
#     4  10  24  48  71  94 125 165 218 277 335 383
#     4  11  21  37  60  85 126 174 206 237 300 378
#     4  11  20  36  56  89 128 162 200 244 298 373
#     4  10  22  40  62  86 117 162 208 250 312 386
#
# _framework density 19.686520999999999
#
# number of rings (size 3 to 8) (size 9 to 14) (size 15 to 20)
#    0.000    1.250    2.500    5.250    1.750    3.000 
#    0.000    1.875    0.000    3.000    0.000    0.000 
#    0.000    0.000    0.000    0.000    0.000    0.000 
#
# Total GULP energy -178186.024331 kJ/mol
# GULP energy per Si atom -5568.313260 kJ/mol
# Density = 1.964171 g / cm^3
# Si number density = 19.686521 Si / 1000 Ang^3
#
#
#
# Elastic Constant Matrix: (Units=GPa)
#
#
# Indices 1 2 3 4 5 6 
#
# 1 109.8002 1.6612 53.1200 0.0000 0.0000 0.0000
# 2 1.6612 97.3812 25.9619 0.0000 0.0000 0.0000
# 3 53.1200 25.9619 84.3528 0.0000 0.0000 0.0000
# 4 0.0000 0.0000 0.0000 17.9471 0.0000 0.0000
# 5 0.0000 0.0000 0.0000 0.0000 2.9697 0.0000
# 6 0.0000 0.0000 0.0000 0.0000 0.0000 24.1913
#
#
#
# Elastic Compliance Matrix: (Units=1/GPa)
#
#
# Indices 1 2 3 4 5 6 
#
# 1 0.013525 0.002222 -0.009201 0.000000 0.000000 0.000000
# 2 0.002222 0.011552 -0.004955 0.000000 0.000000 0.000000
# 3 -0.009201 -0.004955 0.019174 0.000000 0.000000 0.000000
# 4 0.000000 0.000000 0.000000 0.055719 0.000000 0.000000
# 5 0.000000 0.000000 0.000000 0.000000 0.336739 0.000000
# 6 0.000000 0.000000 0.000000 0.000000 0.000000 0.041337
#
#
# Mechanical properties :
#
#
# Convention : Reuss Voigt Hill
#
# Bulk Modulus (GPa) = 49.05847 50.33561 49.69704
# Shear Modulus (GPa) = 9.82878 23.07434 16.45156
#
# Velocity S-wave (km/s) = 2.23685 3.42729 2.89394
# Velocity P-wave (km/s) = 5.62541 6.42541 6.03867
#
# Compressibility (1/GPa) = 0.02038384
#
# Stress axis : x y z
#
# Youngs Moduli (GPa) = 73.93517 86.56502 52.15272
#
# Poissons Ratio (x) = -0.19238 0.47988
# Poissons Ratio (y) = -0.16431 0.25841
# Poissons Ratio (z) = 0.68031 0.42893
#
# Static dielectric constant tensor:
#      x y z
#    x 1.758190 0.000000 0.000000 
#    y 0.000000 1.800010 0.000000 
#    z 0.000000 0.000000 1.688950 
# 
# From -- ./inp_files/9603.got.cif
#   From: 2010.05.17/outbox.cif.g08.bks.cpg/sg45_5_cif.got.tgz:9603.got - 2010.06.03 19:51:22.
