data_PCOD9376541
_publ_section_title
;
Structure prediction by ZEFSAII (Michael W. Deem and Ramdas Pophale) SiO2 
 PCOD9376541
Probable space group: I B A 2
;
_chemical_formula_sum "Si O2"
_cell_formula_units_Z 52
_cell_length_a 7.643457
_cell_length_b 14.982080
_cell_length_c 20.007052
_cell_angle_alpha 90.000000
_cell_angle_beta 90.000000
_cell_angle_gamma 90.000000
_cell_volume 2291.105244
_symmetry_space_group_name_H-M "I B A 2"
_symmetry_group_IT_number 45
_symmetry_cell_setting 'orthorhombic'
loop_
_space_group_symop_operation_xyz
x,y,z
-x,-y,z
-x,y,1/2+z
x,-y,1/2+z
1/2+x,1/2+y,1/2+z
1/2-x,1/2-y,1/2+z
1/2-x,1/2+y,z
1/2+x,1/2-y,z
loop_
_atom_site_type_symbol
_atom_site_label
_atom_site_fract_x
_atom_site_fract_y
_atom_site_fract_z
Si Si1 0.500000 0.500000 0.545881
Si Si2 0.197445 0.459758 0.798625
Si Si3 0.699967 0.964649 0.149099
Si Si4 0.107158 0.344435 0.540399
Si Si5 0.735899 0.612546 0.397893
Si Si6 0.401571 0.791562 0.864313
Si Si7 0.781037 0.151500 0.000204
O O1 0.338471 0.505216 0.597762
O O2 0.432697 0.578853 0.498318
O O3 0.268200 0.474549 0.724175
O O4 0.279853 0.518224 0.859317
O O5 0.186373 0.352413 0.807281
O O6 0.000000 0.500000 0.798073
O O7 0.500000 0.000000 0.148040
O O8 0.681890 0.868628 0.112840
O O9 0.210392 0.391586 0.477418
O O10 0.130555 0.239909 0.529576
O O11 0.903344 0.370702 0.536471
O O12 0.592845 0.684674 0.372523
O O13 0.907190 0.665620 0.370179
O O14 0.294065 0.822401 0.928841
#
# Coordination Sequence:
#
# PCOD9376541 Si02
#       7
#     4   8   8   8   8   8   8
#     4  12  24  40  60  98 128 166 220 268 310 400
#     4   9  20  40  62  87 125 171 212 255 324 391
#     4  11  23  42  63  89 131 171 212 265 321 380
#     4  10  20  39  65  94 130 171 209 271 326 380
#     4   9  19  37  65  89 126 164 212 263 317 385
#     4   9  19  39  60  92 121 163 210 261 322 380
#     4  10  21  38  64  97 128 162 219 266 324 386
#
# _framework density 22.696467999999999
#
# number of rings (size 3 to 8) (size 9 to 14) (size 15 to 20)
#    0.000    2.154    1.538    0.923    2.154    1.846 
#    5.538    1.538    0.000    0.000    0.000    0.000 
#    0.000    0.000    0.000    0.000    0.000    0.000 
#
# Total GULP energy -144757.863307 kJ/mol
# GULP energy per Si atom -5567.610127 kJ/mol
# Density = 2.264481 g / cm^3
# Si number density = 22.696468 Si / 1000 Ang^3
#
#
#
# Elastic Constant Matrix: (Units=GPa)
#
#
# Indices 1 2 3 4 5 6 
#
# 1 91.6311 -2.9602 -9.7797 0.0000 0.0000 0.0000
# 2 -2.9602 56.7457 33.9283 0.0000 0.0000 0.0000
# 3 -9.7797 33.9283 69.4237 0.0000 0.0000 0.0000
# 4 0.0000 0.0000 0.0000 17.2212 0.0000 0.0000
# 5 0.0000 0.0000 0.0000 0.0000 27.8734 0.0000
# 6 0.0000 0.0000 0.0000 0.0000 0.0000 16.6229
#
#
#
# Elastic Compliance Matrix: (Units=1/GPa)
#
#
# Indices 1 2 3 4 5 6 
#
# 1 0.011090 -0.000502 0.001808 0.000000 0.000000 0.000000
# 2 -0.000502 0.024920 -0.012250 0.000000 0.000000 0.000000
# 3 0.001808 -0.012250 0.020646 0.000000 0.000000 0.000000
# 4 0.000000 0.000000 0.000000 0.058068 0.000000 0.000000
# 5 0.000000 0.000000 0.000000 0.000000 0.035876 0.000000
# 6 0.000000 0.000000 0.000000 0.000000 0.000000 0.060158
#
#
# Mechanical properties :
#
#
# Convention : Reuss Voigt Hill
#
# Bulk Modulus (GPa) = 28.76258 28.90861 28.83559
# Shear Modulus (GPa) = 20.47201 25.45099 22.96150
#
# Velocity S-wave (km/s) = 3.00657 3.35231 3.18414
# Velocity P-wave (km/s) = 4.97523 5.26770 5.12355
#
# Compressibility (1/GPa) = 0.03476739
#
# Stress axis : x y z
#
# Youngs Moduli (GPa) = 90.17105 40.12783 48.43658
#
# Poissons Ratio (x) = 0.02016 -0.08756
# Poissons Ratio (y) = 0.04530 0.59333
# Poissons Ratio (z) = -0.16301 0.49155
#
# Static dielectric constant tensor:
#      x y z
#    x 1.616020 0.000000 0.000000 
#    y 0.000000 1.945480 0.000000 
#    z 0.000000 0.000000 1.850890 
# 
# From -- ./inp_files/7659.got.cif
#   From: 2010.05.17/outbox.cif.g08.bks.cpg/sg45_4_cif.got.tgz:7659.got - 2010.06.03 19:51:22.
