data_PCOD9376313
_publ_section_title
;
Structure prediction by ZEFSAII (Michael W. Deem and Ramdas Pophale) SiO2 
 PCOD9376313
Probable space group: I B A 2
;
_chemical_formula_sum "Si O2"
_cell_formula_units_Z 64
_cell_length_a 8.297836
_cell_length_b 23.235330
_cell_length_c 17.625257
_cell_angle_alpha 90.000000
_cell_angle_beta 90.000000
_cell_angle_gamma 90.000000
_cell_volume 3398.201681
_symmetry_space_group_name_H-M "I B A 2"
_symmetry_group_IT_number 45
_symmetry_cell_setting 'orthorhombic'
loop_
_space_group_symop_operation_xyz
x,y,z
-x,-y,z
-x,y,1/2+z
x,-y,1/2+z
1/2+x,1/2+y,1/2+z
1/2-x,1/2-y,1/2+z
1/2-x,1/2+y,z
1/2+x,1/2-y,z
loop_
_atom_site_type_symbol
_atom_site_label
_atom_site_fract_x
_atom_site_fract_y
_atom_site_fract_z
Si Si1 0.562056 0.940907 0.252280
Si Si2 0.832336 0.967399 0.143414
Si Si3 0.788694 0.765450 0.079570
Si Si4 0.518763 0.643493 0.129277
Si Si5 0.012356 0.329325 0.005455
Si Si6 0.671569 0.281810 0.743196
Si Si7 0.988071 0.321691 0.826197
Si Si8 0.652784 0.073717 0.099732
O O1 0.736714 0.956751 0.220583
O O2 0.555943 0.883186 0.299722
O O3 0.452578 0.928589 0.176886
O O4 0.500000 0.000000 0.289780
O O5 0.882989 0.904587 0.116827
O O6 0.720854 0.008639 0.091188
O O7 0.000000 0.000000 0.156204
O O8 0.952212 0.803289 0.081316
O O9 0.836085 0.710678 0.029392
O O10 0.642899 0.804000 0.049111
O O11 0.747130 0.744243 0.165048
O O12 0.543114 0.670914 0.213094
O O13 0.687922 0.612812 0.112034
O O14 0.052204 0.393686 0.035116
O O15 0.985244 0.322500 0.916583
O O16 0.811216 0.312299 0.790709
O O17 0.592493 0.230520 0.791015
#
# Coordination Sequence:
#
# PCOD9376313 Si02
#       8
#     8   8   8   8   8   8   8   8
#     4  10  20  39  63  87 120 162 217 271 311 382
#     4   9  20  34  61  95 113 149 211 275 313 356
#     4  12  21  38  61  87 119 168 212 258 310 384
#     4  11  19  34  62  91 115 150 211 268 301 360
#     4  12  23  38  57  89 133 165 204 262 336 390
#     4  12  21  37  62  87 124 164 214 262 308 381
#     4  12  25  38  58  94 129 168 208 265 339 395
#     4  10  19  38  61  86 120 157 206 265 310 380
#
# _framework density 18.833490999999999
#
# number of rings (size 3 to 8) (size 9 to 14) (size 15 to 20)
#    0.000    1.000    5.000    3.000    0.000    0.000 
#    0.000    3.125    0.000    2.250    0.000    0.000 
#    0.000    0.000    0.000    0.000    0.000    0.000 
#
# Total GULP energy -178458.273868 kJ/mol
# GULP energy per Si atom -5576.821058 kJ/mol
# Density = 1.879062 g / cm^3
# Si number density = 18.833491 Si / 1000 Ang^3
#
#
#
# Elastic Constant Matrix: (Units=GPa)
#
#
# Indices 1 2 3 4 5 6 
#
# 1 62.6306 26.6846 25.0161 0.0000 0.0000 0.0000
# 2 26.6846 130.0053 45.9216 0.0000 0.0000 0.0000
# 3 25.0161 45.9216 102.6330 0.0001 0.0000 0.0000
# 4 0.0000 0.0000 0.0001 15.3065 0.0000 0.0000
# 5 0.0000 0.0000 0.0000 0.0000 19.3904 0.0000
# 6 0.0000 0.0000 0.0000 0.0000 0.0000 33.6249
#
#
#
# Elastic Compliance Matrix: (Units=1/GPa)
#
#
# Indices 1 2 3 4 5 6 
#
# 1 0.018402 -0.002604 -0.003320 0.000000 0.000000 0.000000
# 2 -0.002604 0.009505 -0.003618 0.000000 0.000000 0.000000
# 3 -0.003320 -0.003618 0.012171 0.000000 0.000000 0.000000
# 4 0.000000 0.000000 0.000000 0.065332 0.000000 0.000000
# 5 0.000000 0.000000 0.000000 0.000000 0.051572 0.000000
# 6 0.000000 0.000000 0.000000 0.000000 0.000000 0.029740
#
#
# Mechanical properties :
#
#
# Convention : Reuss Voigt Hill
#
# Bulk Modulus (GPa) = 47.63374 54.50150 51.06762
# Shear Modulus (GPa) = 23.49572 26.84079 25.16826
#
# Velocity S-wave (km/s) = 3.53590 3.77923 3.65959
# Velocity P-wave (km/s) = 6.48206 6.93144 6.71051
#
# Compressibility (1/GPa) = 0.02099352
#
# Stress axis : x y z
#
# Youngs Moduli (GPa) = 54.34064 105.21328 82.15941
#
# Poissons Ratio (x) = 0.27403 0.27278
# Poissons Ratio (y) = 0.14153 0.29724
# Poissons Ratio (z) = 0.18042 0.38064
#
# Static dielectric constant tensor:
#      x y z
#    x 1.701570 0.000000 0.000000 
#    y 0.000000 1.711750 0.000000 
#    z 0.000000 0.000000 1.600900 
# 
# From -- ./inp_files/5854.got.cif
#   From: 2010.05.17/outbox.cif.g08.bks.cpg/sg45_3_cif.got.tgz:5854.got - 2010.06.03 19:51:22.
