data_PCOD9376859
_publ_section_title
;
Structure prediction by ZEFSAII (Michael W. Deem and Ramdas Pophale) SiO2 
 PCOD9376859
Probable space group: I B A 2
;
_chemical_formula_sum "Si O2"
_cell_formula_units_Z 60
_cell_length_a 12.158987
_cell_length_b 16.352458
_cell_length_c 12.962247
_cell_angle_alpha 90.000000
_cell_angle_beta 90.000000
_cell_angle_gamma 90.000000
_cell_volume 2577.274812
_symmetry_space_group_name_H-M "I B A 2"
_symmetry_group_IT_number 45
_symmetry_cell_setting 'orthorhombic'
loop_
_space_group_symop_operation_xyz
x,y,z
-x,-y,z
-x,y,1/2+z
x,-y,1/2+z
1/2+x,1/2+y,1/2+z
1/2-x,1/2-y,1/2+z
1/2-x,1/2+y,z
1/2+x,1/2-y,z
loop_
_atom_site_type_symbol
_atom_site_label
_atom_site_fract_x
_atom_site_fract_y
_atom_site_fract_z
Si Si1 0.052657 0.584310 0.004000
Si Si2 0.598388 0.184292 0.138323
Si Si3 0.224925 0.870363 0.405332
Si Si4 0.000000 0.500000 0.306686
Si Si5 0.131217 0.225533 0.348448
Si Si6 0.030269 0.170619 0.024450
Si Si7 0.577735 0.571079 0.713764
Si Si8 0.276061 0.963974 0.198621
O O1 0.000000 0.500000 0.042889
O O2 0.011475 0.648865 0.086798
O O3 0.180768 0.594715 0.981347
O O4 0.004832 0.577635 0.885957
O O5 0.585652 0.215822 0.255395
O O6 0.617922 0.263643 0.069880
O O7 0.687705 0.112470 0.127844
O O8 0.259286 0.776233 0.378328
O O9 0.104190 0.881173 0.448075
O O10 0.230934 0.920698 0.300778
O O11 0.889887 0.496542 0.239878
O O12 0.127415 0.136623 0.294448
O O13 0.061525 0.213139 0.453423
O O14 0.004780 0.118251 0.126519
O O15 0.500000 0.500000 0.757265
O O16 0.683958 0.526800 0.663304
#
# Coordination Sequence:
#
# PCOD9376859 Si02
#       8
#     8   8   8   4   8   8   8   8
#     4   9  19  37  62  96 132 162 216 268 337 400
#     4  10  22  40  64  94 130 169 217 275 330 397
#     4  10  21  42  65  94 130 173 217 271 338 396
#     4   8  20  34  64  98 128 164 202 268 344 382
#     4  10  23  47  63  93 136 178 225 267 335 399
#     4  11  24  43  67  94 128 182 224 267 336 406
#     4  11  26  44  67  99 133 179 231 275 329 399
#     4  10  22  40  62  99 133 163 219 276 331 392
#
# _framework density 23.280407
#
# number of rings (size 3 to 8) (size 9 to 14) (size 15 to 20)
#    0.400    1.600    1.333    0.800    2.800    3.733 
#    7.200    0.000    0.000    0.000    0.000    0.000 
#    0.000    0.000    0.000    0.000    0.000    0.000 
#
# Total GULP energy -167075.508263 kJ/mol
# GULP energy per Si atom -5569.183609 kJ/mol
# Density = 2.322742 g / cm^3
# Si number density = 23.280407 Si / 1000 Ang^3
#
#
#
# Elastic Constant Matrix: (Units=GPa)
#
#
# Indices 1 2 3 4 5 6 
#
# 1 25.6752 12.1220 1.7438 0.0000 0.0000 0.0000
# 2 12.1220 94.9084 27.2024 0.0000 0.0000 0.0000
# 3 1.7438 27.2024 66.9394 0.0000 0.0000 0.0000
# 4 0.0000 0.0000 0.0000 4.5650 0.0000 0.0000
# 5 0.0000 0.0000 0.0000 0.0000 37.9836 0.0000
# 6 0.0000 0.0000 0.0000 0.0000 0.0000 25.3556
#
#
#
# Elastic Compliance Matrix: (Units=1/GPa)
#
#
# Indices 1 2 3 4 5 6 
#
# 1 0.041535 -0.005653 0.001215 0.000000 0.000000 0.000000
# 2 -0.005653 0.012695 -0.005012 0.000000 0.000000 0.000000
# 3 0.001215 -0.005012 0.016944 0.000000 0.000000 0.000000
# 4 0.000000 0.000000 0.000000 0.219058 0.000000 0.000000
# 5 0.000000 0.000000 0.000000 0.000000 0.026327 0.000000
# 6 0.000000 0.000000 0.000000 0.000000 0.000000 0.039439
#
#
# Mechanical properties :
#
#
# Convention : Reuss Voigt Hill
#
# Bulk Modulus (GPa) = 19.12985 29.96215 24.54600
# Shear Modulus (GPa) = 12.74464 23.34448 18.04456
#
# Velocity S-wave (km/s) = 2.34228 3.17006 2.78708
# Velocity P-wave (km/s) = 3.94335 5.12807 4.57423
#
# Compressibility (1/GPa) = 0.05227431
#
# Stress axis : x y z
#
# Youngs Moduli (GPa) = 24.07631 78.77147 59.01852
#
# Poissons Ratio (x) = 0.44532 -0.07173
# Poissons Ratio (y) = 0.13611 0.29578
# Poissons Ratio (z) = -0.02926 0.39477
#
# Static dielectric constant tensor:
#      x y z
#    x 1.809500 0.000000 0.000000 
#    y 0.000000 1.979230 0.000000 
#    z 0.000000 0.000000 1.909970 
# 
# From -- ./inp_files/6258.got.cif
#   From: 2010.05.17/outbox.cif.g08.bks.cpg/sg45_4_cif.got.tgz:6258.got - 2010.06.03 19:51:22.
