data_PCOD9376844
_publ_section_title
;
Structure prediction by ZEFSAII (Michael W. Deem and Ramdas Pophale) SiO2 
 PCOD9376844
Probable space group: I B A 2
;
_chemical_formula_sum "Si O2"
_cell_formula_units_Z 64
_cell_length_a 12.732738
_cell_length_b 9.634744
_cell_length_c 22.369456
_cell_angle_alpha 90.000000
_cell_angle_beta 90.000000
_cell_angle_gamma 90.000000
_cell_volume 2744.210395
_symmetry_space_group_name_H-M "I B A 2"
_symmetry_group_IT_number 45
_symmetry_cell_setting 'orthorhombic'
loop_
_space_group_symop_operation_xyz
x,y,z
-x,-y,z
-x,y,1/2+z
x,-y,1/2+z
1/2+x,1/2+y,1/2+z
1/2-x,1/2-y,1/2+z
1/2-x,1/2+y,z
1/2+x,1/2-y,z
loop_
_atom_site_type_symbol
_atom_site_label
_atom_site_fract_x
_atom_site_fract_y
_atom_site_fract_z
Si Si1 0.455451 0.802319 0.246050
Si Si2 0.548070 0.144237 0.983545
Si Si3 0.749547 0.489621 0.425859
Si Si4 0.395482 0.585203 0.033699
Si Si5 0.117202 0.063164 0.169965
Si Si6 0.250553 0.757850 0.351574
Si Si7 0.496074 0.332157 0.373914
Si Si8 0.322525 0.075364 0.242406
O O1 0.399519 0.719311 0.193190
O O2 0.460503 0.718416 0.309040
O O3 0.574022 0.835906 0.223084
O O4 0.386063 0.937269 0.261404
O O5 0.628956 0.298129 0.865187
O O6 0.486449 0.232946 0.932554
O O7 0.500000 0.000000 0.004571
O O8 0.573142 0.254013 0.034513
O O9 0.685050 0.558646 0.479634
O O10 0.844579 0.407972 0.455070
O O11 0.794442 0.597246 0.377209
O O12 0.693740 0.363920 0.390563
O O13 0.500000 0.500000 0.019759
O O14 0.361285 0.544001 0.099852
O O15 0.275420 0.519908 0.203226
O O16 0.000000 0.000000 0.183641
O O17 0.234049 0.678216 0.289324
O O18 0.500000 0.500000 0.381146
#
# Coordination Sequence:
#
# PCOD9376844 Si02
#       8
#     8   8   8   8   8   8   8   8
#     4  10  24  45  75 108 150 195 246 303 378 449
#     4  11  26  42  70 106 141 189 241 301 368 438
#     4  11  23  44  66 106 144 185 240 292 369 432
#     4  11  26  51  72 102 144 197 249 308 369 442
#     4  11  27  49  77 106 144 200 264 307 376 446
#     4  10  24  39  70 108 145 187 236 296 379 446
#     4  10  21  41  71 106 150 188 234 296 373 447
#     4  10  25  48  72 113 153 194 244 314 376 451
#
# _framework density 23.321826999999999
#
# number of rings (size 3 to 8) (size 9 to 14) (size 15 to 20)
#    0.000    1.500    2.500    0.750   10.500    3.000 
#    6.750    0.000    0.000    0.000    0.000    0.000 
#    0.000    0.000    0.000    0.000    0.000    0.000 
#
# Total GULP energy -178313.787426 kJ/mol
# GULP energy per Si atom -5572.305857 kJ/mol
# Density = 2.326875 g / cm^3
# Si number density = 23.321827 Si / 1000 Ang^3
#
#
#
# Elastic Constant Matrix: (Units=GPa)
#
#
# Indices 1 2 3 4 5 6 
#
# 1 110.2980 33.4232 48.6390 0.0000 0.0000 0.0000
# 2 33.4232 135.5347 24.4974 0.0000 0.0000 0.0000
# 3 48.6390 24.4974 82.2593 0.0000 0.0000 0.0000
# 4 0.0000 0.0000 0.0000 10.6943 0.0000 0.0000
# 5 0.0000 0.0000 0.0000 0.0000 12.2309 0.0000
# 6 0.0000 0.0000 0.0000 0.0000 0.0000 44.7662
#
#
#
# Elastic Compliance Matrix: (Units=1/GPa)
#
#
# Indices 1 2 3 4 5 6 
#
# 1 0.012700 -0.001875 -0.006951 0.000000 0.000000 0.000000
# 2 -0.001875 0.008075 -0.001296 0.000000 0.000000 0.000000
# 3 -0.006951 -0.001296 0.016652 0.000000 0.000000 0.000000
# 4 0.000000 0.000000 0.000000 0.093508 0.000000 0.000000
# 5 0.000000 0.000000 0.000000 0.000000 0.081760 0.000000
# 6 0.000000 0.000000 0.000000 0.000000 0.000000 0.022338
#
#
# Mechanical properties :
#
#
# Convention : Reuss Voigt Hill
#
# Bulk Modulus (GPa) = 58.19659 60.13457 59.16558
# Shear Modulus (GPa) = 19.15673 28.30710 23.73191
#
# Velocity S-wave (km/s) = 2.86913 3.48769 3.19342
# Velocity P-wave (km/s) = 5.99865 6.48531 6.24672
#
# Compressibility (1/GPa) = 0.01718314
#
# Stress axis : x y z
#
# Youngs Moduli (GPa) = 78.74156 123.84058 60.05117
#
# Poissons Ratio (x) = 0.23226 0.41740
# Poissons Ratio (y) = 0.14768 0.07782
# Poissons Ratio (z) = 0.54731 0.16047
#
# Static dielectric constant tensor:
#      x y z
#    x 2.321420 0.000000 0.000000 
#    y 0.000000 2.073350 0.000000 
#    z 0.000000 0.000000 1.901810 
# 
# From -- ./inp_files/9827.got.cif
#   From: 2010.05.17/outbox.cif.g08.bks.cpg/sg45_5_cif.got.tgz:9827.got - 2010.06.03 19:51:22.
