data_PCOD9376775
_publ_section_title
;
Structure prediction by ZEFSAII (Michael W. Deem and Ramdas Pophale) SiO2 
 PCOD9376775
Probable space group: I B A 2
;
_chemical_formula_sum "Si O2"
_cell_formula_units_Z 52
_cell_length_a 9.208197
_cell_length_b 23.245124
_cell_length_c 13.942973
_cell_angle_alpha 90.000000
_cell_angle_beta 90.000000
_cell_angle_gamma 90.000000
_cell_volume 2984.433152
_symmetry_space_group_name_H-M "I B A 2"
_symmetry_group_IT_number 45
_symmetry_cell_setting 'orthorhombic'
loop_
_space_group_symop_operation_xyz
x,y,z
-x,-y,z
-x,y,1/2+z
x,-y,1/2+z
1/2+x,1/2+y,1/2+z
1/2-x,1/2-y,1/2+z
1/2-x,1/2+y,z
1/2+x,1/2-y,z
loop_
_atom_site_type_symbol
_atom_site_label
_atom_site_fract_x
_atom_site_fract_y
_atom_site_fract_z
Si Si1 0.418473 0.175041 0.255770
Si Si2 0.861829 0.614493 0.561021
Si Si3 0.752330 0.790716 0.769860
Si Si4 0.189514 0.195004 0.548029
Si Si5 0.500000 0.000000 0.523665
Si Si6 0.138116 0.809297 0.478292
Si Si7 0.380194 0.893952 0.934052
O O1 0.415613 0.152723 0.148265
O O2 0.579429 0.199295 0.276965
O O3 0.299275 0.224152 0.270966
O O4 0.373981 0.122677 0.324259
O O5 0.702556 0.634749 0.532460
O O6 0.904090 0.547726 0.578863
O O7 0.963632 0.629496 0.470631
O O8 0.802142 0.811468 0.663678
O O9 0.832270 0.815608 0.864319
O O10 0.274740 0.252898 0.515986
O O11 0.264109 0.140572 0.496446
O O12 0.027102 0.199745 0.508392
O O13 0.392229 0.039040 0.459761
#
# Coordination Sequence:
#
# PCOD9376775 Si02
#       7
#     8   8   8   8   4   8   8
#     4  12  22  33  62  87 123 152 204 235 310 360
#     4  10  21  40  58  85 113 160 201 248 288 348
#     4  12  22  34  54  87 122 159 184 246 304 365
#     4  12  23  37  57  88 127 155 194 246 304 363
#     4   8  20  42  62  76 122 156 214 248 288 336
#     4  12  23  37  57  88 127 155 194 246 304 363
#     4  10  21  40  58  85 113 160 201 248 288 348
#
# _framework density 17.423743999999999
#
# number of rings (size 3 to 8) (size 9 to 14) (size 15 to 20)
#    0.923    0.000    6.154    2.769    0.000    0.615 
#    0.000    0.769    0.000    0.000    0.000    6.462 
#    0.000    0.000    0.000    0.000    0.000    0.000 
#
# Total GULP energy -144816.986200 kJ/mol
# GULP energy per Si atom -5569.884085 kJ/mol
# Density = 1.738409 g / cm^3
# Si number density = 17.423744 Si / 1000 Ang^3
#
#
#
# Elastic Constant Matrix: (Units=GPa)
#
#
# Indices 1 2 3 4 5 6 
#
# 1 97.3225 39.8496 12.9218 0.0000 0.0000 0.0000
# 2 39.8496 83.5547 4.2765 0.0000 0.0000 0.0000
# 3 12.9218 4.2765 63.1848 0.0000 0.0000 0.0000
# 4 0.0000 0.0000 0.0000 11.3513 0.0000 0.0000
# 5 0.0000 0.0000 0.0000 0.0000 22.1130 0.0000
# 6 0.0000 0.0000 0.0000 0.0000 0.0000 30.3764
#
#
#
# Elastic Compliance Matrix: (Units=1/GPa)
#
#
# Indices 1 2 3 4 5 6 
#
# 1 0.013083 -0.006124 -0.002261 0.000000 0.000000 0.000000
# 2 -0.006124 0.014876 0.000246 0.000000 0.000000 0.000000
# 3 -0.002261 0.000246 0.016272 0.000000 0.000000 0.000000
# 4 0.000000 0.000000 0.000000 0.088096 0.000000 0.000000
# 5 0.000000 0.000000 0.000000 0.000000 0.045222 0.000000
# 6 0.000000 0.000000 0.000000 0.000000 0.000000 0.032920
#
#
# Mechanical properties :
#
#
# Convention : Reuss Voigt Hill
#
# Bulk Modulus (GPa) = 35.77477 39.79534 37.78506
# Shear Modulus (GPa) = 21.18053 25.23575 23.20814
#
# Velocity S-wave (km/s) = 3.49035 3.80985 3.65359
# Velocity P-wave (km/s) = 6.06796 6.49943 6.28740
#
# Compressibility (1/GPa) = 0.02795266
#
# Stress axis : x y z
#
# Youngs Moduli (GPa) = 76.43632 67.22116 61.45386
#
# Poissons Ratio (x) = 0.41165 0.13895
# Poissons Ratio (y) = 0.46808 -0.01509
# Poissons Ratio (z) = 0.17283 -0.01650
#
# Static dielectric constant tensor:
#      x y z
#    x 1.583170 0.000000 0.000000 
#    y 0.000000 1.584650 0.000000 
#    z 0.000000 0.000000 1.608030 
# 
# From -- ./inp_files/5794.got.cif
#   From: 2010.05.17/outbox.cif.g08.bks.cpg/sg45_3_cif.got.tgz:5794.got - 2010.06.03 19:51:22.
