data_PCOD9376975
_publ_section_title
;
Structure prediction by ZEFSAII (Michael W. Deem and Ramdas Pophale) SiO2 
 PCOD9376975
Probable space group: I B A 2
;
_chemical_formula_sum "Si O2"
_cell_formula_units_Z 64
_cell_length_a 11.528640
_cell_length_b 15.842319
_cell_length_c 15.991422
_cell_angle_alpha 90.000000
_cell_angle_beta 90.000000
_cell_angle_gamma 90.000000
_cell_volume 2920.679591
_symmetry_space_group_name_H-M "I B A 2"
_symmetry_group_IT_number 45
_symmetry_cell_setting 'orthorhombic'
loop_
_space_group_symop_operation_xyz
x,y,z
-x,-y,z
-x,y,1/2+z
x,-y,1/2+z
1/2+x,1/2+y,1/2+z
1/2-x,1/2-y,1/2+z
1/2-x,1/2+y,z
1/2+x,1/2-y,z
loop_
_atom_site_type_symbol
_atom_site_label
_atom_site_fract_x
_atom_site_fract_y
_atom_site_fract_z
Si Si1 0.540198 0.911044 0.645680
Si Si2 0.905308 0.641933 0.807322
Si Si3 0.116128 0.267246 0.043489
Si Si4 0.289279 0.530255 0.613928
Si Si5 0.731602 0.395558 0.438271
Si Si6 0.202301 0.841761 0.686414
Si Si7 0.036718 0.093053 0.747142
Si Si8 0.490881 0.308753 0.392143
O O1 0.483910 0.900547 0.736306
O O2 0.522505 0.830161 0.586424
O O3 0.677634 0.920651 0.648131
O O4 0.500000 0.000000 0.607068
O O5 0.829289 0.581011 0.868606
O O6 0.800667 0.681869 0.752402
O O7 0.980159 0.712404 0.856737
O O8 0.192497 0.225580 0.114467
O O9 0.201665 0.320073 0.985141
O O10 0.055539 0.197779 0.986163
O O11 0.294621 0.539116 0.513459
O O12 0.276728 0.434467 0.646462
O O13 0.394538 0.574955 0.662262
O O14 0.614421 0.356785 0.399268
O O15 0.074378 0.849963 0.725574
O O16 0.089476 0.138392 0.827925
O O17 0.000000 0.000000 0.776015
#
# Coordination Sequence:
#
# PCOD9376975 Si02
#       8
#     8   8   8   8   8   8   8   8
#     4  11  23  43  68  96 131 183 230 276 346 429
#     4  11  24  40  66  97 138 175 229 282 351 422
#     4  10  25  39  65  98 131 181 226 282 340 412
#     4  10  23  42  71  95 133 184 232 284 346 419
#     4  10  23  43  62  97 137 174 226 295 342 405
#     4  11  21  43  67 100 132 181 230 279 344 421
#     4  10  22  39  68  98 132 177 230 280 341 409
#     4  11  23  40  62 100 139 177 225 292 344 400
#
# _framework density 21.912707999999999
#
# number of rings (size 3 to 8) (size 9 to 14) (size 15 to 20)
#    0.000    1.500    2.500    1.500    5.250    2.000 
#    0.000    6.875    0.000    0.000    0.000    0.000 
#    0.000    0.000    0.000    0.000    0.000    0.000 
#
# Total GULP energy -178470.771018 kJ/mol
# GULP energy per Si atom -5577.211594 kJ/mol
# Density = 2.186283 g / cm^3
# Si number density = 21.912708 Si / 1000 Ang^3
#
#
#
# Elastic Constant Matrix: (Units=GPa)
#
#
# Indices 1 2 3 4 5 6 
#
# 1 60.2100 6.0991 23.4821 0.0000 0.0000 0.0000
# 2 6.0991 22.9539 21.8356 0.0000 0.0000 0.0000
# 3 23.4821 21.8356 120.2622 0.0000 0.0000 0.0000
# 4 0.0000 0.0000 0.0000 25.1285 0.0000 0.0000
# 5 0.0000 0.0000 0.0000 0.0000 39.6117 0.0000
# 6 0.0000 0.0000 0.0000 0.0000 0.0000 12.2911
#
#
#
# Elastic Compliance Matrix: (Units=1/GPa)
#
#
# Indices 1 2 3 4 5 6 
#
# 1 0.018035 -0.001743 -0.003205 0.000000 0.000000 0.000000
# 2 -0.001743 0.052830 -0.009252 0.000000 0.000000 0.000000
# 3 -0.003205 -0.009252 0.010621 0.000000 0.000000 0.000000
# 4 0.000000 0.000000 0.000000 0.039795 0.000000 0.000000
# 5 0.000000 0.000000 0.000000 0.000000 0.025245 0.000000
# 6 0.000000 0.000000 0.000000 0.000000 0.000000 0.081360
#
#
# Mechanical properties :
#
#
# Convention : Reuss Voigt Hill
#
# Bulk Modulus (GPa) = 18.83747 34.02884 26.43315
# Shear Modulus (GPa) = 18.24942 25.54020 21.89481
#
# Velocity S-wave (km/s) = 2.88900 3.41771 3.16442
# Velocity P-wave (km/s) = 4.44339 5.58008 5.04386
#
# Compressibility (1/GPa) = 0.05308569
#
# Stress axis : x y z
#
# Youngs Moduli (GPa) = 55.44755 18.92871 94.15520
#
# Poissons Ratio (x) = 0.03300 0.30176
# Poissons Ratio (y) = 0.09666 0.87110
# Poissons Ratio (z) = 0.17771 0.17512
#
# Static dielectric constant tensor:
#      x y z
#    x 1.935270 0.000000 0.000000 
#    y 0.000000 1.837780 0.000000 
#    z 0.000000 0.000000 1.875530 
# 
# From -- ./inp_files/6282.got.cif
#   From: 2010.05.17/outbox.cif.g08.bks.cpg/sg45_4_cif.got.tgz:6282.got - 2010.06.03 19:51:22.
