data_PCOD9376860
_publ_section_title
;
Structure prediction by ZEFSAII (Michael W. Deem and Ramdas Pophale) SiO2 
 PCOD9376860
Probable space group: I B A 2
;
_chemical_formula_sum "Si O2"
_cell_formula_units_Z 48
_cell_length_a 18.566590
_cell_length_b 8.114030
_cell_length_c 14.518035
_cell_angle_alpha 90.000000
_cell_angle_beta 90.000000
_cell_angle_gamma 90.000000
_cell_volume 2187.140060
_symmetry_space_group_name_H-M "I B A 2"
_symmetry_group_IT_number 45
_symmetry_cell_setting 'orthorhombic'
loop_
_space_group_symop_operation_xyz
x,y,z
-x,-y,z
-x,y,1/2+z
x,-y,1/2+z
1/2+x,1/2+y,1/2+z
1/2-x,1/2-y,1/2+z
1/2-x,1/2+y,z
1/2+x,1/2-y,z
loop_
_atom_site_type_symbol
_atom_site_label
_atom_site_fract_x
_atom_site_fract_y
_atom_site_fract_z
Si Si1 0.836995 0.935520 0.422260
Si Si2 0.323948 0.826755 0.964006
Si Si3 0.448682 0.624310 0.558527
Si Si4 0.436816 0.880958 0.118104
Si Si5 0.580919 0.561493 0.254927
Si Si6 0.422988 0.945873 0.812049
O O1 0.837917 0.129712 0.452508
O O2 0.864210 0.954147 0.316793
O O3 0.759509 0.862983 0.447064
O O4 0.892802 0.824674 0.481320
O O5 0.362424 0.944193 0.888662
O O6 0.365125 0.871162 0.058382
O O7 0.500000 0.500000 0.503053
O O8 0.512944 0.721008 0.610414
O O9 0.402709 0.559208 0.645621
O O10 0.500000 0.000000 0.079937
O O11 0.417256 0.942689 0.220268
O O12 0.500000 0.500000 0.272168
O O13 0.579956 0.754534 0.281465
O O14 0.500000 0.000000 0.852199
#
# Coordination Sequence:
#
# PCOD9376860 Si02
#       6
#     8   8   8   8   8   8
#     4  11  26  43  64  98 136 181 218 277 343 409
#     4  11  26  43  63  96 140 178 222 272 346 404
#     4  11  21  43  71  98 129 172 232 282 335 396
#     4  11  22  42  71 101 129 175 230 285 332 395
#     4  10  22  40  68  96 128 170 223 277 332 397
#     4  10  21  42  65  99 128 167 225 277 332 394
#
# _framework density 21.946467999999999
#
# number of rings (size 3 to 8) (size 9 to 14) (size 15 to 20)
#    0.000    1.333    5.000    1.000    4.667    2.667 
#    0.000    3.333    0.000    0.000    0.000    0.000 
#    0.000    0.000    0.000    0.000    0.000    0.000 
#
# Total GULP energy -133616.980502 kJ/mol
# GULP energy per Si atom -5567.374188 kJ/mol
# Density = 2.189652 g / cm^3
# Si number density = 21.946468 Si / 1000 Ang^3
#
#
#
# Elastic Constant Matrix: (Units=GPa)
#
#
# Indices 1 2 3 4 5 6 
#
# 1 106.0656 5.6348 29.4047 0.0000 0.0000 0.0000
# 2 5.6348 47.7690 11.9671 0.0000 0.0000 0.0000
# 3 29.4047 11.9671 81.8085 0.0000 0.0000 0.0000
# 4 0.0000 0.0000 0.0000 7.5804 0.0000 0.0000
# 5 0.0000 0.0000 0.0000 0.0000 0.4495 0.0000
# 6 0.0000 0.0000 0.0000 0.0000 0.0000 35.7593
#
#
#
# Elastic Compliance Matrix: (Units=1/GPa)
#
#
# Indices 1 2 3 4 5 6 
#
# 1 0.010476 -0.000304 -0.003721 0.000000 0.000000 0.000000
# 2 -0.000304 0.021739 -0.003071 0.000000 0.000000 0.000000
# 3 -0.003721 -0.003071 0.014010 0.000000 0.000000 0.000000
# 4 0.000000 0.000000 0.000000 0.131920 0.000000 0.000000
# 5 0.000000 0.000000 0.000000 0.000000 2.224553 0.000000
# 6 0.000000 0.000000 0.000000 0.000000 0.000000 0.027965
#
#
# Mechanical properties :
#
#
# Convention : Reuss Voigt Hill
#
# Bulk Modulus (GPa) = 31.21638 36.62848 33.92243
# Shear Modulus (GPa) = 2.03622 21.33360 11.68491
#
# Velocity S-wave (km/s) = 0.96427 3.12119 2.30994
# Velocity P-wave (km/s) = 3.93631 5.45117 4.75446
#
# Compressibility (1/GPa) = 0.03203447
#
# Stress axis : x y z
#
# Youngs Moduli (GPa) = 95.45796 45.99978 71.37592
#
# Poissons Ratio (x) = 0.01396 0.26559
# Poissons Ratio (y) = 0.02897 0.21919
# Poissons Ratio (z) = 0.35519 0.14126
#
# Static dielectric constant tensor:
#      x y z
#    x 2.187250 0.000000 0.000000 
#    y 0.000000 2.353650 0.000000 
#    z 0.000000 0.000000 1.838060 
# 
# From -- ./inp_files/6736.got.cif
#   From: 2010.05.17/outbox.cif.g08.bks.cpg/sg45_4_cif.got.tgz:6736.got - 2010.06.03 19:51:22.
