data_PCOD9376532
_publ_section_title
;
Structure prediction by ZEFSAII (Michael W. Deem and Ramdas Pophale) SiO2 
 PCOD9376532
Probable space group: I B A 2
;
_chemical_formula_sum "Si O2"
_cell_formula_units_Z 48
_cell_length_a 26.688173
_cell_length_b 8.296570
_cell_length_c 9.543676
_cell_angle_alpha 90.000000
_cell_angle_beta 90.000000
_cell_angle_gamma 90.000000
_cell_volume 2113.163560
_symmetry_space_group_name_H-M "I B A 2"
_symmetry_group_IT_number 45
_symmetry_cell_setting 'orthorhombic'
loop_
_space_group_symop_operation_xyz
x,y,z
-x,-y,z
-x,y,1/2+z
x,-y,1/2+z
1/2+x,1/2+y,1/2+z
1/2-x,1/2-y,1/2+z
1/2-x,1/2+y,z
1/2+x,1/2-y,z
loop_
_atom_site_type_symbol
_atom_site_label
_atom_site_fract_x
_atom_site_fract_y
_atom_site_fract_z
Si Si1 0.762674 0.925100 0.542930
Si Si2 0.687922 0.866807 0.920081
Si Si3 0.042354 0.798385 0.245451
Si Si4 0.600174 0.120161 0.945763
Si Si5 0.500000 0.000000 0.088840
Si Si6 0.000000 0.000000 0.504846
Si Si7 0.326846 0.720173 0.145458
O O1 0.791636 0.755702 0.536403
O O2 0.711843 0.870125 0.620954
O O3 0.736392 0.011582 0.406571
O O4 0.800344 0.056914 0.601003
O O5 0.640701 0.980354 0.935634
O O6 0.668676 0.733919 0.809584
O O7 0.092928 0.711928 0.297842
O O8 0.008384 0.654585 0.186555
O O9 0.040061 0.924129 0.115845
O O10 0.022203 0.872710 0.392461
O O11 0.548649 0.038944 0.996130
O O12 0.623111 0.242685 0.059916
#
# Coordination Sequence:
#
# PCOD9376532 Si02
#       7
#     8   8   8   8   4   4   8
#     4   9  20  38  66  96 132 177 227 281 366 410
#     4  10  20  40  66  98 138 176 233 291 349 433
#     4  11  23  47  70 102 134 185 239 292 359 423
#     4  11  24  42  66 103 135 186 236 294 345 433
#     4  12  24  46  72  96 142 194 244 290 360 430
#     4  10  24  46  74  98 134 180 238 304 358 414
#     4  10  20  39  62  97 132 175 227 284 351 424
#
# _framework density 22.714756999999999
#
# number of rings (size 3 to 8) (size 9 to 14) (size 15 to 20)
#    0.000    1.667    1.667    2.500    0.000    0.000 
#    6.000    3.333    0.000    0.000    0.000    0.000 
#    0.000    0.000    0.000    0.000    0.000    0.000 
#
# Total GULP energy -133636.765326 kJ/mol
# GULP energy per Si atom -5568.198555 kJ/mol
# Density = 2.266306 g / cm^3
# Si number density = 22.714757 Si / 1000 Ang^3
#
#
#
# Elastic Constant Matrix: (Units=GPa)
#
#
# Indices 1 2 3 4 5 6 
#
# 1 81.8293 45.7259 3.0205 0.0000 0.0000 0.0000
# 2 45.7259 113.5379 19.0227 0.0000 0.0000 0.0000
# 3 3.0205 19.0227 58.4128 0.0000 0.0000 0.0000
# 4 0.0000 0.0000 0.0000 78.6561 0.0000 0.0000
# 5 0.0000 0.0000 0.0000 0.0000 17.1246 0.0000
# 6 0.0000 0.0000 0.0000 0.0000 0.0000 29.7495
#
#
#
# Elastic Compliance Matrix: (Units=1/GPa)
#
#
# Indices 1 2 3 4 5 6 
#
# 1 0.015867 -0.006614 0.001333 0.000000 0.000000 0.000000
# 2 -0.006614 0.012073 -0.003590 0.000000 0.000000 0.000000
# 3 0.001333 -0.003590 0.018220 0.000000 0.000000 0.000000
# 4 0.000000 0.000000 0.000000 0.012714 0.000000 0.000000
# 5 0.000000 0.000000 0.000000 0.000000 0.058395 0.000000
# 6 0.000000 0.000000 0.000000 0.000000 0.000000 0.033614
#
#
# Mechanical properties :
#
#
# Convention : Reuss Voigt Hill
#
# Bulk Modulus (GPa) = 35.18719 43.25757 39.22238
# Shear Modulus (GPa) = 28.07488 37.50677 32.79082
#
# Velocity S-wave (km/s) = 3.51946 4.06791 3.80358
# Velocity P-wave (km/s) = 5.66039 6.41475 6.04934
#
# Compressibility (1/GPa) = 0.02841943
#
# Stress axis : x y z
#
# Youngs Moduli (GPa) = 63.02382 82.83223 54.88599
#
# Poissons Ratio (x) = 0.54782 -0.07318
# Poissons Ratio (y) = 0.41682 0.19702
# Poissons Ratio (z) = -0.08403 0.29733
#
# Static dielectric constant tensor:
#      x y z
#    x 1.845150 0.000000 0.000000 
#    y 0.000000 1.799730 0.000000 
#    z 0.000000 0.000000 2.025270 
# 
# From -- ./inp_files/2740.got.cif
#   From: 2010.05.17/outbox.cif.g08.bks.cpg/sg45_2_cif.got.tgz:2740.got - 2010.06.03 19:51:22.
