data_PCOD9376177
_publ_section_title
;
Structure prediction by ZEFSAII (Michael W. Deem and Ramdas Pophale) SiO2 
 PCOD9376177
Probable space group: I B A 2
;
_chemical_formula_sum "Si O2"
_cell_formula_units_Z 48
_cell_length_a 5.372396
_cell_length_b 28.674698
_cell_length_c 13.313396
_cell_angle_alpha 90.000000
_cell_angle_beta 90.000000
_cell_angle_gamma 90.000000
_cell_volume 2050.953055
_symmetry_space_group_name_H-M "I B A 2"
_symmetry_group_IT_number 45
_symmetry_cell_setting 'orthorhombic'
loop_
_space_group_symop_operation_xyz
x,y,z
-x,-y,z
-x,y,1/2+z
x,-y,1/2+z
1/2+x,1/2+y,1/2+z
1/2-x,1/2-y,1/2+z
1/2-x,1/2+y,z
1/2+x,1/2-y,z
loop_
_atom_site_type_symbol
_atom_site_label
_atom_site_fract_x
_atom_site_fract_y
_atom_site_fract_z
Si Si1 0.000000 0.500000 0.891381
Si Si2 0.445936 0.155796 0.101874
Si Si3 0.106002 0.397027 0.921918
Si Si4 0.721463 0.829138 0.780592
Si Si5 0.874598 0.222580 0.471893
Si Si6 0.000000 0.000000 0.757031
Si Si7 0.602599 0.598077 0.726294
O O1 0.985370 0.550408 0.945686
O O2 0.751812 0.497869 0.822876
O O3 0.542253 0.188758 0.192057
O O4 0.226551 0.181058 0.041118
O O5 0.340198 0.111179 0.161204
O O6 0.634836 0.134816 0.019604
O O7 0.336522 0.403060 0.846040
O O8 0.918817 0.366440 0.852606
O O9 0.917841 0.859205 0.718911
O O10 0.843034 0.792521 0.855540
O O11 0.657080 0.261360 0.489051
O O12 0.995061 0.047840 0.695806
#
# Coordination Sequence:
#
# PCOD9376177 Si02
#       7
#     4   8   8   8   8   4   8
#     4  10  18  38  62  92 130 182 226 270 314 388
#     4  10  24  42  66 100 134 175 222 284 344 402
#     4   9  20  39  60  92 133 180 224 269 333 389
#     4  10  22  42  69  92 132 178 220 274 344 401
#     4  11  28  47  71  98 132 172 223 282 343 414
#     4  10  20  38  66  94 134 182 232 260 316 386
#     4  10  21  40  68  95 137 187 222 278 329 402
#
# _framework density 23.403753999999999
#
# number of rings (size 3 to 8) (size 9 to 14) (size 15 to 20)
#    0.000    2.000    1.667    0.000    9.333    2.667 
#    3.000    0.000    0.000    0.000    0.000    0.000 
#    0.000    0.000    0.000    0.000    0.000    0.000 
#
# Total GULP energy -133896.732055 kJ/mol
# GULP energy per Si atom -5579.030502 kJ/mol
# Density = 2.335049 g / cm^3
# Si number density = 23.403754 Si / 1000 Ang^3
#
#
#
# Elastic Constant Matrix: (Units=GPa)
#
#
# Indices 1 2 3 4 5 6 
#
# 1 49.5664 0.8528 5.7914 0.0000 0.0000 0.0000
# 2 0.8528 62.8190 27.6106 0.0000 0.0000 0.0000
# 3 5.7914 27.6106 107.3416 0.0000 0.0000 0.0000
# 4 0.0000 0.0000 0.0000 3.5238 0.0000 0.0000
# 5 0.0000 0.0000 0.0000 0.0000 14.1659 0.0000
# 6 0.0000 0.0000 0.0000 0.0000 0.0000 32.0163
#
#
#
# Elastic Compliance Matrix: (Units=1/GPa)
#
#
# Indices 1 2 3 4 5 6 
#
# 1 0.020306 0.000232 -0.001155 0.000000 0.000000 0.000000
# 2 0.000232 0.017951 -0.004630 0.000000 0.000000 0.000000
# 3 -0.001155 -0.004630 0.010569 0.000000 0.000000 0.000000
# 4 0.000000 0.000000 0.000000 0.283781 0.000000 0.000000
# 5 0.000000 0.000000 0.000000 0.000000 0.070592 0.000000
# 6 0.000000 0.000000 0.000000 0.000000 0.000000 0.031234
#
#
# Mechanical properties :
#
#
# Convention : Reuss Voigt Hill
#
# Bulk Modulus (GPa) = 26.51123 32.02627 29.26875
# Shear Modulus (GPa) = 10.91437 22.30602 16.61019
#
# Velocity S-wave (km/s) = 2.16186 3.09057 2.66695
# Velocity P-wave (km/s) = 4.19331 5.14291 4.69219
#
# Compressibility (1/GPa) = 0.03771987
#
# Stress axis : x y z
#
# Youngs Moduli (GPa) = 49.24663 55.70865 94.61389
#
# Poissons Ratio (x) = -0.01293 0.10930
# Poissons Ratio (y) = -0.01143 0.43804
# Poissons Ratio (z) = 0.05689 0.25792
#
# Static dielectric constant tensor:
#      x y z
#    x 1.977810 0.000000 0.000000 
#    y 0.000000 1.936520 0.000000 
#    z 0.000000 0.000000 1.847630 
# 
# From -- ./inp_files/5191.got.cif
#   From: 2010.05.17/outbox.cif.g08.bks.cpg/sg45_3_cif.got.tgz:5191.got - 2010.06.03 19:51:22.
