data_PCOD9377199
_publ_section_title
;
Structure prediction by ZEFSAII (Michael W. Deem and Ramdas Pophale) SiO2 
 PCOD9377199
Probable space group: I B A 2
;
_chemical_formula_sum "Si O2"
_cell_formula_units_Z 48
_cell_length_a 28.163965
_cell_length_b 4.936491
_cell_length_c 13.422803
_cell_angle_alpha 90.000000
_cell_angle_beta 90.000000
_cell_angle_gamma 90.000000
_cell_volume 1866.187868
_symmetry_space_group_name_H-M "I B A 2"
_symmetry_group_IT_number 45
_symmetry_cell_setting 'orthorhombic'
loop_
_space_group_symop_operation_xyz
x,y,z
-x,-y,z
-x,y,1/2+z
x,-y,1/2+z
1/2+x,1/2+y,1/2+z
1/2-x,1/2-y,1/2+z
1/2-x,1/2+y,z
1/2+x,1/2-y,z
loop_
_atom_site_type_symbol
_atom_site_label
_atom_site_fract_x
_atom_site_fract_y
_atom_site_fract_z
Si Si1 0.325703 0.269042 0.571830
Si Si2 0.161106 0.521892 0.759491
Si Si3 0.105107 0.433707 0.436126
Si Si4 0.531606 0.265700 0.811650
Si Si5 0.279352 0.418912 0.375145
Si Si6 0.591864 0.684742 0.129365
O O1 0.305365 0.144538 0.673119
O O2 0.352264 0.052043 0.502429
O O3 0.290646 0.403381 0.492724
O O4 0.366168 0.474395 0.608461
O O5 0.133717 0.700227 0.843944
O O6 0.182666 0.250553 0.810328
O O7 0.116947 0.427946 0.689876
O O8 0.072738 0.662829 0.386018
O O9 0.075743 0.269596 0.518555
O O10 0.500000 0.500000 0.858943
O O11 0.552314 0.393499 0.709263
O O12 0.500000 0.000000 0.789617
O O13 0.267355 0.731781 0.356083
#
# Coordination Sequence:
#
# PCOD9377199 Si02
#       6
#     8   8   8   8   8   8
#     4  10  23  42  73  97 134 187 240 280 340 424
#     4   9  22  42  68  96 130 184 232 281 338 418
#     4   9  22  43  67  99 128 186 230 287 339 424
#     4  11  27  46  68 104 144 179 230 295 364 421
#     4  11  27  44  66 104 144 176 226 290 354 407
#     4  10  23  43  73  95 137 183 241 282 341 426
#
# _framework density 25.720882
#
# number of rings (size 3 to 8) (size 9 to 14) (size 15 to 20)
#    0.000    2.000    0.000    0.000   18.667    3.333 
#    0.000    0.000    0.000    0.000    0.000    0.000 
#    0.000    0.000    0.000    0.000    0.000    0.000 
#
# Total GULP energy -134036.753126 kJ/mol
# GULP energy per Si atom -5584.864714 kJ/mol
# Density = 2.566234 g / cm^3
# Si number density = 25.720882 Si / 1000 Ang^3
#
#
#
# Elastic Constant Matrix: (Units=GPa)
#
#
# Indices 1 2 3 4 5 6 
#
# 1 61.3070 4.0620 35.1134 0.0000 0.0000 0.0000
# 2 4.0620 84.4841 33.1440 0.0000 0.0000 0.0000
# 3 35.1134 33.1440 199.5817 0.0000 0.0000 0.0000
# 4 0.0000 0.0000 0.0000 29.5807 0.0000 0.0000
# 5 0.0000 0.0000 0.0000 0.0000 40.8530 0.0000
# 6 0.0000 0.0000 0.0000 0.0000 0.0000 43.2348
#
#
#
# Elastic Compliance Matrix: (Units=1/GPa)
#
#
# Indices 1 2 3 4 5 6 
#
# 1 0.018152 0.000407 -0.003261 0.000000 0.000000 0.000000
# 2 0.000407 0.012671 -0.002176 0.000000 0.000000 0.000000
# 3 -0.003261 -0.002176 0.005946 0.000000 0.000000 0.000000
# 4 0.000000 0.000000 0.000000 0.033806 0.000000 0.000000
# 5 0.000000 0.000000 0.000000 0.000000 0.024478 0.000000
# 6 0.000000 0.000000 0.000000 0.000000 0.000000 0.023130
#
#
# Mechanical properties :
#
#
# Convention : Reuss Voigt Hill
#
# Bulk Modulus (GPa) = 37.44218 54.44574 45.94396
# Shear Modulus (GPa) = 36.45783 40.93726 38.69754
#
# Velocity S-wave (km/s) = 3.76898 3.99381 3.88302
# Velocity P-wave (km/s) = 5.79042 6.51776 6.16483
#
# Compressibility (1/GPa) = 0.02670785
#
# Stress axis : x y z
#
# Youngs Moduli (GPa) = 55.08973 78.92318 168.19335
#
# Poissons Ratio (x) = -0.03209 0.54850
# Poissons Ratio (y) = -0.02240 0.36594
# Poissons Ratio (z) = 0.17965 0.17171
#
# Static dielectric constant tensor:
#      x y z
#    x 2.224130 0.000000 0.000000 
#    y 0.000000 2.092630 0.000000 
#    z 0.000000 0.000000 2.135770 
# 
# From -- ./inp_files/7155.got.cif
#   From: 2010.05.17/outbox.cif.g08.bks.cpg/sg45_4_cif.got.tgz:7155.got - 2010.06.03 19:51:22.
