data_PCOD9377710
_publ_section_title
;
Structure prediction by ZEFSAII (Michael W. Deem and Ramdas Pophale) SiO2 
 PCOD9377710
Probable space group: I B A 2
;
_chemical_formula_sum "Si O2"
_cell_formula_units_Z 56
_cell_length_a 14.961122
_cell_length_b 10.652989
_cell_length_c 13.768889
_cell_angle_alpha 90.000000
_cell_angle_beta 90.000000
_cell_angle_gamma 90.000000
_cell_volume 2194.494728
_symmetry_space_group_name_H-M "I B A 2"
_symmetry_group_IT_number 45
_symmetry_cell_setting 'orthorhombic'
loop_
_space_group_symop_operation_xyz
x,y,z
-x,-y,z
-x,y,1/2+z
x,-y,1/2+z
1/2+x,1/2+y,1/2+z
1/2-x,1/2-y,1/2+z
1/2-x,1/2+y,z
1/2+x,1/2-y,z
loop_
_atom_site_type_symbol
_atom_site_label
_atom_site_fract_x
_atom_site_fract_y
_atom_site_fract_z
Si Si1 0.875905 0.159629 0.427620
Si Si2 0.086329 0.409044 0.042701
Si Si3 0.702236 0.941302 0.907073
Si Si4 0.097745 0.035538 0.590538
Si Si5 0.200454 0.890042 0.749622
Si Si6 0.115818 0.249487 0.718265
Si Si7 0.927613 0.333260 0.756934
O O1 0.921130 0.278991 0.480973
O O2 0.767745 0.172905 0.433460
O O3 0.896733 0.160333 0.313260
O O4 0.897375 0.032831 0.486811
O O5 0.168918 0.484043 0.998689
O O6 0.000000 0.500000 0.037541
O O7 0.109132 0.375749 0.152953
O O8 0.614825 0.907942 0.845237
O O9 0.762821 0.027756 0.837843
O O10 0.103683 0.182621 0.614459
O O11 0.172420 0.973477 0.658251
O O12 0.000000 0.000000 0.629360
O O13 0.285740 0.804543 0.723466
O O14 0.113778 0.805476 0.772382
O O15 0.033560 0.342251 0.739616
#
# Coordination Sequence:
#
# PCOD9377710 Si02
#       7
#     8   8   8   8   8   8   8
#     4  12  26  46  75 115 154 201 269 328 397 488
#     4  12  28  48  74 113 156 205 266 332 410 490
#     4  12  27  46  81 116 156 209 263 339 405 490
#     4  12  26  48  74 114 156 210 266 327 403 480
#     4  12  24  48  76 111 157 204 264 323 407 470
#     4  12  26  49  79 110 160 209 264 331 402 491
#     4  12  27  50  79 111 161 211 262 331 408 483
#
# _framework density 25.518404
#
# number of rings (size 3 to 8) (size 9 to 14) (size 15 to 20)
#    0.000    0.000    7.143    0.857    6.000    1.714 
#    0.000    4.286    0.000    0.000    0.000    0.000 
#    0.000    0.000    0.000    0.000    0.000    0.000 
#
# Total GULP energy -156797.733820 kJ/mol
# GULP energy per Si atom -5599.919065 kJ/mol
# Density = 2.546032 g / cm^3
# Si number density = 25.518404 Si / 1000 Ang^3
#
#
#
# Elastic Constant Matrix: (Units=GPa)
#
#
# Indices 1 2 3 4 5 6 
#
# 1 119.7990 22.9519 22.3336 0.0000 0.0000 0.0000
# 2 22.9519 61.3421 25.1190 0.0000 0.0000 0.0000
# 3 22.3336 25.1190 100.0623 0.0000 0.0000 0.0000
# 4 0.0000 0.0000 0.0000 28.5009 0.0000 0.0000
# 5 0.0000 0.0000 0.0000 0.0000 26.7724 0.0000
# 6 0.0000 0.0000 0.0000 0.0000 0.0000 55.6636
#
#
#
# Elastic Compliance Matrix: (Units=1/GPa)
#
#
# Indices 1 2 3 4 5 6 
#
# 1 0.009145 -0.002882 -0.001318 0.000000 0.000000 0.000000
# 2 -0.002882 0.019078 -0.004146 0.000000 0.000000 0.000000
# 3 -0.001318 -0.004146 0.011329 0.000000 0.000000 0.000000
# 4 0.000000 0.000000 0.000000 0.035087 0.000000 0.000000
# 5 0.000000 0.000000 0.000000 0.000000 0.037352 0.000000
# 6 0.000000 0.000000 0.000000 0.000000 0.000000 0.017965
#
#
# Mechanical properties :
#
#
# Convention : Reuss Voigt Hill
#
# Bulk Modulus (GPa) = 43.74388 46.89027 45.31707
# Shear Modulus (GPa) = 32.41128 36.24064 34.32596
#
# Velocity S-wave (km/s) = 3.56773 3.77261 3.67160
# Velocity P-wave (km/s) = 5.84388 6.11488 5.98091
#
# Compressibility (1/GPa) = 0.02286034
#
# Stress axis : x y z
#
# Youngs Moduli (GPa) = 109.34757 52.41590 88.27183
#
# Poissons Ratio (x) = 0.15107 0.11631
# Poissons Ratio (y) = 0.31516 0.36597
# Poissons Ratio (z) = 0.14408 0.21731
#
# Static dielectric constant tensor:
#      x y z
#    x 2.021200 0.000000 0.000000 
#    y 0.000000 2.130720 0.000000 
#    z 0.000000 0.000000 1.960990 
# 
# From -- ./inp_files/6527.got.cif
#   From: 2010.05.17/outbox.cif.g08.bks.cpg/sg45_4_cif.got.tgz:6527.got - 2010.06.03 19:51:22.
