data_PCOD9377977
_publ_section_title
;
Structure prediction by ZEFSAII (Michael W. Deem and Ramdas Pophale) SiO2 
 PCOD9377977
Probable space group: I M A 2
;
_chemical_formula_sum "Si O2"
_cell_formula_units_Z 64
_cell_length_a 8.706704
_cell_length_b 26.881337
_cell_length_c 18.931199
_cell_angle_alpha 90.000000
_cell_angle_beta 90.000000
_cell_angle_gamma 90.000000
_cell_volume 4430.806318
_symmetry_space_group_name_H-M "I M A 2"
_symmetry_group_IT_number 46
_symmetry_cell_setting 'orthorhombic'
loop_
_space_group_symop_operation_xyz
x,y,z
-x,-y,z
1/2-x,y,z
1/2+x,-y,z
1/2+x,1/2+y,1/2+z
1/2-x,1/2-y,1/2+z
-x,1/2+y,1/2+z
x,1/2-y,1/2+z
loop_
_atom_site_type_symbol
_atom_site_label
_atom_site_fract_x
_atom_site_fract_y
_atom_site_fract_z
Si Si1 0.935003 0.242465 0.762850
Si Si2 0.065773 0.945185 0.755506
Si Si3 0.072906 0.198568 0.977828
Si Si4 0.434292 0.645108 0.015565
Si Si5 0.935804 0.645541 0.341579
Si Si6 0.928079 0.800999 0.386912
Si Si7 0.566186 0.945419 0.600654
Si Si8 0.933893 0.255924 0.101019
O O1 0.750000 0.239589 0.765768
O O2 0.985685 0.248550 0.681741
O O3 0.003677 0.191304 0.793992
O O4 0.992620 0.286855 0.813301
O O5 0.250000 0.946091 0.754269
O O6 0.003661 0.904817 0.810356
O O7 0.003512 0.931649 0.677365
O O8 0.000000 0.000000 0.771029
O O9 0.250000 0.188139 0.994573
O O10 0.015651 0.157245 0.922532
O O11 0.067372 0.249368 0.931547
O O12 0.986461 0.211743 0.049483
O O13 0.250000 0.640841 0.018835
O O14 0.512117 0.595611 0.044962
O O15 0.483296 0.691585 0.065856
O O16 0.486727 0.659579 0.936688
O O17 0.750000 0.645369 0.339510
O O18 0.750000 0.814294 0.376994
O O19 0.750000 0.947586 0.605602
O O20 0.500000 0.000000 0.583459
O O21 0.750000 0.256739 0.101310
#
# Coordination Sequence:
#
# PCOD9377977 Si02
#       8
#     8   8   8   8   8   8   8   8
#     4  10  18  28  42  63  88 116 147 181 217 257
#     4  11  21  33  47  64  86 114 146 182 219 256
#     4   8  16  28  42  59  82 109 140 175 212 251
#     4  10  18  30  46  64  86 115 148 182 218 259
#     4  10  19  31  45  63  85 113 147 182 217 259
#     4   9  17  29  42  60  84 113 146 180 216 257
#     4  11  21  33  47  64  87 115 146 183 219 255
#     4   9  18  28  41  61  86 113 144 177 212 254
#
# _framework density 14.444323000000001
#
# number of rings (size 3 to 8) (size 9 to 14) (size 15 to 20)
#    0.000    2.250    0.000    6.000    0.000    6.000 
#    0.000    0.000    0.000    0.000    0.000    0.000 
#    0.000    1.000    0.000    6.750    0.000    5.000 
#
# Total GULP energy -178403.290040 kJ/mol
# GULP energy per Si atom -5575.102814 kJ/mol
# Density = 1.441145 g / cm^3
# Si number density = 14.444323 Si / 1000 Ang^3
#
#
#
# Elastic Constant Matrix: (Units=GPa)
#
#
# Indices 1 2 3 4 5 6 
#
# 1 79.6171 27.2352 34.3557 0.0000 0.0000 0.0000
# 2 27.2352 63.3546 42.1767 0.0000 0.0000 0.0000
# 3 34.3557 42.1767 103.0842 -0.0001 0.0000 0.0000
# 4 0.0000 0.0000 -0.0001 26.9502 0.0000 0.0000
# 5 0.0000 0.0000 0.0000 0.0000 23.3075 0.0000
# 6 0.0000 0.0000 0.0000 0.0000 0.0000 22.0764
#
#
#
# Elastic Compliance Matrix: (Units=1/GPa)
#
#
# Indices 1 2 3 4 5 6 
#
# 1 0.015528 -0.004439 -0.003359 0.000000 0.000000 0.000000
# 2 -0.004439 0.022962 -0.007915 0.000000 0.000000 0.000000
# 3 -0.003359 -0.007915 0.014059 0.000000 0.000000 0.000000
# 4 0.000000 0.000000 0.000000 0.037105 0.000000 0.000000
# 5 0.000000 0.000000 0.000000 0.000000 0.042905 0.000000
# 6 0.000000 0.000000 0.000000 0.000000 0.000000 0.045297
#
#
# Mechanical properties :
#
#
# Convention : Reuss Voigt Hill
#
# Bulk Modulus (GPa) = 47.34410 50.39903 48.87157
# Shear Modulus (GPa) = 23.11351 23.95270 23.53310
#
# Velocity S-wave (km/s) = 4.00456 4.07661 4.04075
# Velocity P-wave (km/s) = 7.36411 7.55818 7.46178
#
# Compressibility (1/GPa) = 0.02112196
#
# Stress axis : x y z
#
# Youngs Moduli (GPa) = 64.39948 43.55027 71.12980
#
# Poissons Ratio (x) = 0.19333 0.23892
# Poissons Ratio (y) = 0.28588 0.56302
# Poissons Ratio (z) = 0.21631 0.34472
#
# Static dielectric constant tensor:
#      x y z
#    x 1.486840 0.000000 0.000000 
#    y 0.000000 1.460710 0.000000 
#    z 0.000000 0.000000 1.480850 
# 
# From -- ./inp_files/18681.got.cif
#   From: 2010.05.17/outbox.cif.g08.bks.cpg/sg46_10_cif.got.tgz:18681.got - 2010.06.03 19:58:25.
