data_PCOD9377787
_publ_section_title
;
Structure prediction by ZEFSAII (Michael W. Deem and Ramdas Pophale) SiO2 
 PCOD9377787
Probable space group: I M A 2
;
_chemical_formula_sum "Si O2"
_cell_formula_units_Z 40
_cell_length_a 14.000556
_cell_length_b 21.892283
_cell_length_c 4.963835
_cell_angle_alpha 90.000000
_cell_angle_beta 90.000000
_cell_angle_gamma 90.000000
_cell_volume 1521.435949
_symmetry_space_group_name_H-M "I M A 2"
_symmetry_group_IT_number 46
_symmetry_cell_setting 'orthorhombic'
loop_
_space_group_symop_operation_xyz
x,y,z
-x,-y,z
1/2-x,y,z
1/2+x,-y,z
1/2+x,1/2+y,1/2+z
1/2-x,1/2-y,1/2+z
-x,1/2+y,1/2+z
x,1/2-y,1/2+z
loop_
_atom_site_type_symbol
_atom_site_label
_atom_site_fract_x
_atom_site_fract_y
_atom_site_fract_z
Si Si1 0.569613 0.213537 0.491830
Si Si2 0.886043 0.014961 0.237391
Si Si3 0.354889 0.324178 0.888081
Si Si4 0.386019 0.096855 0.876696
Si Si5 0.607283 0.086395 0.746428
O O1 0.595269 0.268999 0.689356
O O2 0.453103 0.206457 0.492232
O O3 0.616560 0.152326 0.609628
O O4 0.859935 0.072530 0.047470
O O5 0.006453 0.080814 0.793068
O O6 0.849827 0.958230 0.062087
O O7 0.858884 0.034591 0.537444
O O8 0.250000 0.293287 0.892606
O O9 0.345519 0.381488 0.092766
O O10 0.376857 0.346886 0.585902
O O11 0.500000 0.000000 0.257851
#
# Coordination Sequence:
#
# PCOD9377787 Si02
#       5
#     8   8   8   8   8
#     4  11  21  33  46  62  88 123 166 207 235 262
#     4  10  16  27  47  68  88 107 135 183 241 295
#     4  11  22  35  48  64  90 126 169 208 236 262
#     4  10  19  32  48  69  90 113 149 195 242 289
#     4  10  18  29  45  67  88 111 145 189 237 286
#
# _framework density 26.290955
#
# number of rings (size 3 to 8) (size 9 to 14) (size 15 to 20)
#    0.000    1.600    0.000   12.000    0.000    0.800 
#    0.000    0.000    0.000    0.000    0.000    0.000 
#    0.000    0.000    0.000    0.000    0.000  252.000 
#
# Total GULP energy -111695.737313 kJ/mol
# GULP energy per Si atom -5584.786866 kJ/mol
# Density = 2.623112 g / cm^3
# Si number density = 26.290955 Si / 1000 Ang^3
#
#
#
# Elastic Constant Matrix: (Units=GPa)
#
#
# Indices 1 2 3 4 5 6 
#
# 1 83.2608 -8.5554 5.9438 0.0000 0.0000 0.0000
# 2 -8.5554 79.3602 15.1193 0.0000 0.0000 0.0000
# 3 5.9438 15.1193 174.1254 0.0000 0.0000 -0.0003
# 4 0.0000 0.0000 0.0000 69.2334 0.0000 0.0000
# 5 0.0000 0.0000 0.0000 0.0000 27.2724 0.0000
# 6 0.0000 0.0000 -0.0003 0.0000 0.0000 -19.8102
#
#
#
# Elastic Compliance Matrix: (Units=1/GPa)
#
#
# Indices 1 2 3 4 5 6 
#
# 1 0.012195 0.001417 -0.000539 0.000000 0.000000 0.000000
# 2 0.001417 0.012977 -0.001175 0.000000 0.000000 0.000000
# 3 -0.000539 -0.001175 0.005863 0.000000 0.000000 0.000000
# 4 0.000000 0.000000 0.000000 0.014444 0.000000 0.000000
# 5 0.000000 0.000000 0.000000 0.000000 0.036667 0.000000
# 6 0.000000 0.000000 0.000000 0.000000 0.000000 -0.050479
#
#
# Mechanical properties :
#
#
# Convention : Reuss Voigt Hill
#
# Bulk Modulus (GPa) = 32.85022 40.19576 36.52299
# Shear Modulus (GPa) = 117.89994 36.95504 77.42749
#
# Velocity S-wave (km/s) = 6.70385 3.75322 5.43269
# Velocity P-wave (km/s) = 8.51142 5.83989 7.29892
#
# Compressibility (1/GPa) = 0.03044120
#
# Stress axis : x y z
#
# Youngs Moduli (GPa) = 82.00348 77.05655 170.54832
#
# Poissons Ratio (x) = -0.10922 0.09198
# Poissons Ratio (y) = -0.11623 0.20043
# Poissons Ratio (z) = 0.04423 0.09056
#
# Static dielectric constant tensor:
#      x y z
#    x 2.067600 0.000000 0.000000 
#    y 0.000000 2.124230 0.000000 
#    z 0.000000 0.000000 1.941990 
# 
# From -- ./inp_files/1741.got.cif
#   From: 2010.05.17/outbox.cif.g08.bks.cpg/sg46_1_cif.got.tgz:1741.got - 2010.06.03 19:58:25.
