data_PCOD9377288
_publ_section_title
;
Structure prediction by ZEFSAII (Michael W. Deem and Ramdas Pophale) SiO2 
 PCOD9377288
Probable space group: I B A 2
;
_chemical_formula_sum "Si O2"
_cell_formula_units_Z 40
_cell_length_a 18.853177
_cell_length_b 11.004236
_cell_length_c 8.954811
_cell_angle_alpha 90.000000
_cell_angle_beta 90.000000
_cell_angle_gamma 90.000000
_cell_volume 1857.808154
_symmetry_space_group_name_H-M "I B A 2"
_symmetry_group_IT_number 45
_symmetry_cell_setting 'orthorhombic'
loop_
_space_group_symop_operation_xyz
x,y,z
-x,-y,z
-x,y,1/2+z
x,-y,1/2+z
1/2+x,1/2+y,1/2+z
1/2-x,1/2-y,1/2+z
1/2-x,1/2+y,z
1/2+x,1/2-y,z
loop_
_atom_site_type_symbol
_atom_site_label
_atom_site_fract_x
_atom_site_fract_y
_atom_site_fract_z
Si Si1 0.918047 0.364088 0.170830
Si Si2 0.289058 0.683843 0.684079
Si Si3 0.182254 0.984891 0.436727
Si Si4 0.925669 0.390845 0.813512
Si Si5 0.153460 0.836164 0.686866
O O1 0.866895 0.247498 0.190460
O O2 0.889934 0.485527 0.252232
O O3 0.995270 0.364541 0.249431
O O4 0.926008 0.387096 0.993153
O O5 0.272869 0.609296 0.836059
O O6 0.283955 0.584034 0.550541
O O7 0.235410 0.795977 0.666297
O O8 0.131557 0.899801 0.534573
O O9 0.143739 0.065339 0.314639
O O10 0.882819 0.283562 0.739634
#
# Coordination Sequence:
#
# PCOD9377288 Si02
#       5
#     8   8   8   8   8
#     4  11  25  44  67  98 130 173 222 270 324 384
#     4  11  24  42  69  94 135 170 219 269 325 388
#     4  10  24  42  61 102 129 168 222 262 332 388
#     4  11  25  44  67  98 130 173 222 270 324 384
#     4  11  24  42  69  94 135 170 219 269 325 388
#
# _framework density 21.530747999999999
#
# number of rings (size 3 to 8) (size 9 to 14) (size 15 to 20)
#    0.000    1.200    2.000    3.600   11.200    0.000 
#    0.000    6.000    0.000    0.000    0.000    0.000 
#    0.000    0.000    0.000    0.000    0.000    0.000 
#
# Total GULP energy -111545.989041 kJ/mol
# GULP energy per Si atom -5577.299452 kJ/mol
# Density = 2.148174 g / cm^3
# Si number density = 21.530748 Si / 1000 Ang^3
#
#
#
# Elastic Constant Matrix: (Units=GPa)
#
#
# Indices 1 2 3 4 5 6 
#
# 1 45.6817 25.5032 23.0306 0.0000 0.0000 0.0000
# 2 25.5032 100.8736 56.4018 0.0000 0.0000 0.0000
# 3 23.0306 56.4018 159.0627 0.0000 0.0000 0.0000
# 4 0.0000 0.0000 0.0000 48.0993 0.0000 0.0000
# 5 0.0000 0.0000 0.0000 0.0000 15.5060 0.0000
# 6 0.0000 0.0000 0.0000 0.0000 0.0000 23.4544
#
#
#
# Elastic Compliance Matrix: (Units=1/GPa)
#
#
# Indices 1 2 3 4 5 6 
#
# 1 0.025886 -0.005549 -0.001780 0.000000 0.000000 0.000000
# 2 -0.005549 0.013554 -0.004003 0.000000 0.000000 0.000000
# 3 -0.001780 -0.004003 0.007964 0.000000 0.000000 0.000000
# 4 0.000000 0.000000 0.000000 0.020790 0.000000 0.000000
# 5 0.000000 0.000000 0.000000 0.000000 0.064491 0.000000
# 6 0.000000 0.000000 0.000000 0.000000 0.000000 0.042636
#
#
# Mechanical properties :
#
#
# Convention : Reuss Voigt Hill
#
# Bulk Modulus (GPa) = 40.42049 57.27658 48.84854
# Shear Modulus (GPa) = 24.24436 30.79074 27.51755
#
# Velocity S-wave (km/s) = 3.35928 3.78575 3.57887
# Velocity P-wave (km/s) = 5.81898 6.76529 6.30990
#
# Compressibility (1/GPa) = 0.02473993
#
# Stress axis : x y z
#
# Youngs Moduli (GPa) = 38.63061 73.77651 125.56583
#
# Poissons Ratio (x) = 0.40940 0.22355
# Poissons Ratio (y) = 0.21437 0.50261
# Poissons Ratio (z) = 0.06878 0.29531
#
# Static dielectric constant tensor:
#      x y z
#    x 1.763900 0.000000 0.000000 
#    y 0.000000 2.012480 0.000000 
#    z 0.000000 0.000000 1.793820 
# 
# From -- ./inp_files/1257.got.cif
#   From: 2010.05.17/outbox.cif.g08.bks.cpg/sg45_1_cif.got.tgz:1257.got - 2010.06.03 19:51:22.
