data_PCOD9377225
_publ_section_title
;
Structure prediction by ZEFSAII (Michael W. Deem and Ramdas Pophale) SiO2 
 PCOD9377225
Probable space group: I B A 2
;
_chemical_formula_sum "Si O2"
_cell_formula_units_Z 36
_cell_length_a 8.790330
_cell_length_b 9.698402
_cell_length_c 20.493698
_cell_angle_alpha 90.000000
_cell_angle_beta 90.000000
_cell_angle_gamma 90.000000
_cell_volume 1747.131899
_symmetry_space_group_name_H-M "I B A 2"
_symmetry_group_IT_number 45
_symmetry_cell_setting 'orthorhombic'
loop_
_space_group_symop_operation_xyz
x,y,z
-x,-y,z
-x,y,1/2+z
x,-y,1/2+z
1/2+x,1/2+y,1/2+z
1/2-x,1/2-y,1/2+z
1/2-x,1/2+y,z
1/2+x,1/2-y,z
loop_
_atom_site_type_symbol
_atom_site_label
_atom_site_fract_x
_atom_site_fract_y
_atom_site_fract_z
Si Si1 0.000000 0.500000 0.761471
Si Si2 0.578696 0.640882 0.067109
Si Si3 0.395952 0.208317 0.933197
Si Si4 0.198465 0.576312 0.381521
Si Si5 0.896898 0.625666 0.134445
O O1 0.872015 0.559224 0.809667
O O2 0.923501 0.391436 0.711892
O O3 0.500000 0.500000 0.044723
O O4 0.725968 0.608848 0.110546
O O5 0.461619 0.731042 0.108995
O O6 0.625586 0.733745 0.005408
O O7 0.348606 0.333548 0.886065
O O8 0.568323 0.159158 0.921791
O O9 0.296022 0.074331 0.914408
O O10 0.000000 0.500000 0.106222
#
# Coordination Sequence:
#
# PCOD9377225 Si02
#       5
#     4   8   8   8   8
#     4   8  22  46  68  90 140 174 230 270 324 408
#     4  12  25  41  67 102 136 181 226 279 348 400
#     4  10  24  39  67  97 132 170 219 276 335 397
#     4  10  23  44  68  97 132 176 217 279 332 389
#     4  10  24  42  68  95 137 179 221 281 328 408
#
# _framework density 20.605198000000001
#
# number of rings (size 3 to 8) (size 9 to 14) (size 15 to 20)
#    0.667    1.333    0.000    2.667   12.444    3.556 
#    0.000    0.000    0.000    0.000    0.000    0.000 
#    0.000    0.000    0.000    0.000    0.000    0.000 
#
# Total GULP energy -100504.173643 kJ/mol
# GULP energy per Si atom -5583.565202 kJ/mol
# Density = 2.055830 g / cm^3
# Si number density = 20.605198 Si / 1000 Ang^3
#
#
#
# Elastic Constant Matrix: (Units=GPa)
#
#
# Indices 1 2 3 4 5 6 
#
# 1 47.2407 30.4136 18.2842 0.0000 0.0000 0.0000
# 2 30.4136 117.8536 44.9348 0.0000 0.0000 0.0000
# 3 18.2842 44.9348 133.6754 0.0000 0.0000 0.0000
# 4 0.0000 0.0000 0.0000 -109.7900 0.0002 0.0000
# 5 0.0000 0.0000 0.0000 0.0002-1595.3859 0.0000
# 6 0.0000 0.0000 0.0000 0.0000 0.0000 41.0035
#
#
#
# Elastic Compliance Matrix: (Units=1/GPa)
#
#
# Indices 1 2 3 4 5 6 
#
# 1 0.025636 -0.006055 -0.001471 0.000000 0.000000 0.000000
# 2 -0.006055 0.011162 -0.002924 0.000000 0.000000 0.000000
# 3 -0.001471 -0.002924 0.008665 0.000000 0.000000 0.000000
# 4 0.000000 0.000000 0.000000 -0.009108 0.000000 0.000000
# 5 0.000000 0.000000 0.000000 0.000000 -0.000627 0.000000
# 6 0.000000 0.000000 0.000000 0.000000 0.000000 0.024388
#
#
# Mechanical properties :
#
#
# Convention : Reuss Voigt Hill
#
# Bulk Modulus (GPa) = 40.71136 54.00389 47.35762
# Shear Modulus (GPa) = 56.05145 -319.15869 -131.55362
#
# Velocity S-wave (km/s) = 5.22127 -12.45908 -7.99897
# Velocity P-wave (km/s) = 7.49330 13.44268 7.89164
#
# Compressibility (1/GPa) = 0.02456317
#
# Stress axis : x y z
#
# Youngs Moduli (GPa) = 39.00821 89.58591 115.40729
#
# Poissons Ratio (x) = 0.54241 0.16979
# Poissons Ratio (y) = 0.23618 0.33746
# Poissons Ratio (z) = 0.05739 0.26196
#
# Static dielectric constant tensor:
#      x y z
#    x 2.337120 0.000000 0.000000 
#    y 0.000000 1.760600 0.000000 
#    z 0.000000 0.000000 1.735280 
# 
# From -- ./inp_files/8766.got.cif
#   From: 2010.05.17/outbox.cif.g08.bks.cpg/sg45_5_cif.got.tgz:8766.got - 2010.06.03 19:51:22.
