data_PCOD9377517
_publ_section_title
;
Structure prediction by ZEFSAII (Michael W. Deem and Ramdas Pophale) SiO2 
 PCOD9377517
Probable space group: I B A 2
;
_chemical_formula_sum "Si O2"
_cell_formula_units_Z 48
_cell_length_a 4.889911
_cell_length_b 28.027298
_cell_length_c 16.596652
_cell_angle_alpha 90.000000
_cell_angle_beta 90.000000
_cell_angle_gamma 90.000000
_cell_volume 2274.587634
_symmetry_space_group_name_H-M "I B A 2"
_symmetry_group_IT_number 45
_symmetry_cell_setting 'orthorhombic'
loop_
_space_group_symop_operation_xyz
x,y,z
-x,-y,z
-x,y,1/2+z
x,-y,1/2+z
1/2+x,1/2+y,1/2+z
1/2-x,1/2-y,1/2+z
1/2-x,1/2+y,z
1/2+x,1/2-y,z
loop_
_atom_site_type_symbol
_atom_site_label
_atom_site_fract_x
_atom_site_fract_y
_atom_site_fract_z
Si Si1 0.000000 0.000000 0.716841
Si Si2 0.351969 0.640918 0.775756
Si Si3 0.646579 0.894543 0.371940
Si Si4 0.171608 0.632299 0.547122
Si Si5 0.132463 0.218978 0.653831
Si Si6 0.500000 0.000000 0.829970
Si Si7 0.356971 0.589678 0.125206
O O1 0.243714 0.017480 0.775240
O O2 0.151336 0.963185 0.658542
O O3 0.556280 0.625288 0.846918
O O4 0.327075 0.694577 0.741477
O O5 0.490533 0.616312 0.698310
O O6 0.056530 0.622846 0.801716
O O7 0.570513 0.869739 0.455925
O O8 0.611180 0.952360 0.375127
O O9 0.272135 0.682410 0.583980
O O10 0.433163 0.597111 0.552035
O O11 0.931238 0.611802 0.602946
O O12 0.318787 0.265828 0.646267
#
# Coordination Sequence:
#
# PCOD9377517 Si02
#       7
#     4   8   8   8   8   4   8
#     4  12  22  36  64  94 124 174 240 274 300 386
#     4  11  22  41  66  91 126 169 220 273 324 398
#     4  12  23  41  63  98 136 176 213 267 337 387
#     4  11  25  41  64  94 134 172 208 275 346 397
#     4  11  23  44  69  95 123 167 220 275 331 401
#     4  12  22  38  62  96 134 178 222 274 316 388
#     4  11  21  40  61  91 124 174 224 264 320 384
#
# _framework density 21.102723999999998
#
# number of rings (size 3 to 8) (size 9 to 14) (size 15 to 20)
#    0.000    0.667    3.333    7.000    0.000    1.333 
#    0.000    5.000    0.000    0.000    0.000    0.000 
#    0.000    0.000    0.000    0.000    0.000    0.000 
#
# Total GULP energy -133947.184183 kJ/mol
# GULP energy per Si atom -5581.132674 kJ/mol
# Density = 2.105469 g / cm^3
# Si number density = 21.102724 Si / 1000 Ang^3
#
#
#
# Elastic Constant Matrix: (Units=GPa)
#
#
# Indices 1 2 3 4 5 6 
#
# 1 86.2326 -1.3491 0.1878 0.0000 0.0000 0.0000
# 2 -1.3491 70.3438 24.2600 0.0000 0.0000 0.0000
# 3 0.1878 24.2600 70.9724 0.0000 0.0000 0.0000
# 4 0.0000 0.0000 0.0000 22.0370 0.0000 0.0000
# 5 0.0000 0.0000 0.0000 0.0000 30.3357 0.0000
# 6 0.0000 0.0000 0.0000 0.0000 0.0000 37.9504
#
#
#
# Elastic Compliance Matrix: (Units=1/GPa)
#
#
# Indices 1 2 3 4 5 6 
#
# 1 0.011601 0.000264 -0.000121 0.000000 0.000000 0.000000
# 2 0.000264 0.016122 -0.005511 0.000000 0.000000 0.000000
# 3 -0.000121 -0.005511 0.015974 0.000000 0.000000 0.000000
# 4 0.000000 0.000000 0.000000 0.045378 0.000000 0.000000
# 5 0.000000 0.000000 0.000000 0.000000 0.032964 0.000000
# 6 0.000000 0.000000 0.000000 0.000000 0.000000 0.026350
#
#
# Mechanical properties :
#
#
# Convention : Reuss Voigt Hill
#
# Bulk Modulus (GPa) = 30.33943 30.41624 30.37783
# Shear Modulus (GPa) = 29.39221 31.69464 30.54342
#
# Velocity S-wave (km/s) = 3.73609 3.87967 3.80856
# Velocity P-wave (km/s) = 5.74625 5.87484 5.81090
#
# Compressibility (1/GPa) = 0.03296041
#
# Stress axis : x y z
#
# Youngs Moduli (GPa) = 86.19987 62.02796 62.60072
#
# Poissons Ratio (x) = -0.01639 0.00758
# Poissons Ratio (y) = -0.02278 0.34502
# Poissons Ratio (z) = 0.01043 0.34187
#
# Static dielectric constant tensor:
#      x y z
#    x 1.753450 0.000000 0.000000 
#    y 0.000000 1.871090 0.000000 
#    z 0.000000 0.000000 1.826400 
# 
# From -- ./inp_files/5199.got.cif
#   From: 2010.05.17/outbox.cif.g08.bks.cpg/sg45_3_cif.got.tgz:5199.got - 2010.06.03 19:51:22.
