data_PCOD9377874
_publ_section_title
;
Structure prediction by ZEFSAII (Michael W. Deem and Ramdas Pophale) SiO2 
 PCOD9377874
Probable space group: I M A 2
;
_chemical_formula_sum "Si O2"
_cell_formula_units_Z 64
_cell_length_a 13.986283
_cell_length_b 18.665740
_cell_length_c 14.355432
_cell_angle_alpha 90.000000
_cell_angle_beta 90.000000
_cell_angle_gamma 90.000000
_cell_volume 3747.691123
_symmetry_space_group_name_H-M "I M A 2"
_symmetry_group_IT_number 46
_symmetry_cell_setting 'orthorhombic'
loop_
_space_group_symop_operation_xyz
x,y,z
-x,-y,z
1/2-x,y,z
1/2+x,-y,z
1/2+x,1/2+y,1/2+z
1/2-x,1/2-y,1/2+z
-x,1/2+y,1/2+z
x,1/2-y,1/2+z
loop_
_atom_site_type_symbol
_atom_site_label
_atom_site_fract_x
_atom_site_fract_y
_atom_site_fract_z
Si Si1 0.018089 0.250412 0.294820
Si Si2 0.355315 0.610844 0.460585
Si Si3 0.863670 0.604945 0.324649
Si Si4 0.514009 0.243293 0.006191
Si Si5 0.137331 0.323616 0.638886
Si Si6 0.634603 0.455595 0.264744
Si Si7 0.135254 0.815352 0.661572
Si Si8 0.896282 0.964795 0.028266
O O1 0.079280 0.323863 0.301182
O O2 0.079007 0.195317 0.232508
O O3 0.001313 0.229179 0.401717
O O4 0.918954 0.269355 0.241883
O O5 0.250000 0.643799 0.445380
O O6 0.428638 0.668096 0.499497
O O7 0.394830 0.581473 0.362033
O O8 0.342389 0.540210 0.522330
O O9 0.750000 0.616985 0.312195
O O10 0.898519 0.537426 0.262398
O O11 0.878689 0.577472 0.430861
O O12 0.415755 0.225045 0.060247
O O13 0.581468 0.293562 0.067724
O O14 0.250000 0.307604 0.646375
O O15 0.125798 0.406306 0.606567
O O16 0.750000 0.461425 0.273671
O O17 0.616370 0.398700 0.184816
O O18 0.250000 0.803437 0.660468
O O19 0.000000 0.000000 0.034866
#
# Coordination Sequence:
#
# PCOD9377874 Si02
#       8
#     8   8   8   8   8   8   8   8
#     4  11  22  35  55  82 112 150 193 230 278 337
#     4  10  17  29  51  80 112 147 174 215 279 334
#     4  10  19  32  54  85 118 150 179 223 284 335
#     4  11  21  35  54  81 112 148 188 231 279 334
#     4  11  23  37  53  79 115 151 187 231 281 335
#     4   8  16  29  49  79 114 143 175 215 271 330
#     4  10  21  35  51  80 115 150 190 230 278 335
#     4  11  19  32  52  82 116 145 178 226 276 338
#
# _framework density 17.077181
#
# number of rings (size 3 to 8) (size 9 to 14) (size 15 to 20)
#    0.000    1.750    3.750    2.625    1.750    1.000 
#    0.000    0.000    0.000    0.000    6.500    0.000 
#    0.000    0.000    0.000    0.000    0.000    0.000 
#
# Total GULP energy -178384.084681 kJ/mol
# GULP energy per Si atom -5574.502646 kJ/mol
# Density = 1.703831 g / cm^3
# Si number density = 17.077181 Si / 1000 Ang^3
#
#
#
# Elastic Constant Matrix: (Units=GPa)
#
#
# Indices 1 2 3 4 5 6 
#
# 1 115.9841 22.6667 38.8465 0.0000 0.0000 0.0000
# 2 22.6667 78.7162 42.4439 0.0000 0.0000 0.0000
# 3 38.8465 42.4439 109.0469 0.0000 0.0000 0.0002
# 4 0.0000 0.0000 0.0000 31.5896 0.0000 0.0001
# 5 0.0000 0.0000 0.0000 0.0000 18.8690 0.0000
# 6 0.0000 0.0000 0.0002 0.0001 0.0000 -28.3130
#
#
#
# Elastic Compliance Matrix: (Units=1/GPa)
#
#
# Indices 1 2 3 4 5 6 
#
# 1 0.009879 -0.001199 -0.003053 0.000000 0.000000 0.000000
# 2 -0.001199 0.016224 -0.005888 0.000000 0.000000 0.000000
# 3 -0.003053 -0.005888 0.012549 0.000000 0.000000 0.000000
# 4 0.000000 0.000000 0.000000 0.031656 0.000000 0.000000
# 5 0.000000 0.000000 0.000000 0.000000 0.052997 0.000000
# 6 0.000000 0.000000 0.000000 0.000000 0.000000 -0.035320
#
#
# Mechanical properties :
#
#
# Convention : Reuss Voigt Hill
#
# Bulk Modulus (GPa) = 54.42501 56.85124 55.63813
# Shear Modulus (GPa) = 43.71114 17.74847 30.72981
#
# Velocity S-wave (km/s) = 5.06476 3.22733 4.24661
# Velocity P-wave (km/s) = 8.13275 6.87391 7.52968
#
# Compressibility (1/GPa) = 0.01837391
#
# Stress axis : x y z
#
# Youngs Moduli (GPa) = 101.22991 61.63842 79.68493
#
# Poissons Ratio (x) = 0.07388 0.24324
# Poissons Ratio (y) = 0.12134 0.46916
# Poissons Ratio (z) = 0.30901 0.36291
#
# Static dielectric constant tensor:
#      x y z
#    x 1.528550 0.000000 0.000000 
#    y 0.000000 1.587700 0.000000 
#    z 0.000000 0.000000 1.579670 
# 
# From -- ./inp_files/16197.got.cif
#   From: 2010.05.17/outbox.cif.g08.bks.cpg/sg46_9_cif.got.tgz:16197.got - 2010.06.03 19:58:25.
