data_PCOD9377969
_publ_section_title
;
Structure prediction by ZEFSAII (Michael W. Deem and Ramdas Pophale) SiO2 
 PCOD9377969
Probable space group: I M A 2
;
_chemical_formula_sum "Si O2"
_cell_formula_units_Z 64
_cell_length_a 8.638713
_cell_length_b 18.935341
_cell_length_c 27.268628
_cell_angle_alpha 90.000000
_cell_angle_beta 90.000000
_cell_angle_gamma 90.000000
_cell_volume 4460.519720
_symmetry_space_group_name_H-M "I M A 2"
_symmetry_group_IT_number 46
_symmetry_cell_setting 'orthorhombic'
loop_
_space_group_symop_operation_xyz
x,y,z
-x,-y,z
1/2-x,y,z
1/2+x,-y,z
1/2+x,1/2+y,1/2+z
1/2-x,1/2-y,1/2+z
-x,1/2+y,1/2+z
x,1/2-y,1/2+z
loop_
_atom_site_type_symbol
_atom_site_label
_atom_site_fract_x
_atom_site_fract_y
_atom_site_fract_z
Si Si1 0.937453 0.421273 0.107100
Si Si2 0.563984 0.667209 0.015444
Si Si3 0.936304 0.577587 0.922957
Si Si4 0.562970 0.339021 0.719870
Si Si5 0.428679 0.795257 0.668108
Si Si6 0.563954 0.578109 0.810553
Si Si7 0.434252 0.078119 0.125750
Si Si8 0.071559 0.796934 0.067591
O O1 0.750000 0.420557 0.106458
O O2 0.994272 0.370643 0.151735
O O3 0.000000 0.500000 0.111026
O O4 0.997055 0.384842 0.057198
O O5 0.750000 0.666872 0.018744
O O6 0.503531 0.745666 0.027392
O O7 0.515921 0.635306 0.963005
O O8 0.750000 0.573519 0.923939
O O9 0.982371 0.593855 0.866892
O O10 0.000000 0.500000 0.935795
O O11 0.750000 0.339040 0.718007
O O12 0.504586 0.259534 0.707441
O O13 0.504413 0.368043 0.771324
O O14 0.503103 0.389661 0.676229
O O15 0.250000 0.807597 0.682072
O O16 0.429769 0.749986 0.617583
O O17 0.500000 0.500000 0.799001
O O18 0.750000 0.577433 0.807386
O O19 0.250000 0.076091 0.129738
O O20 0.484340 0.131716 0.082488
O O21 0.500000 0.000000 0.118135
O O22 0.250000 0.811927 0.055809
#
# Coordination Sequence:
#
# PCOD9377969 Si02
#       8
#     8   8   8   8   8   8   8   8
#     4  10  18  28  41  60  84 111 139 172 208 247
#     4  10  18  29  44  62  82 111 145 175 209 252
#     4   9  19  31  43  59  83 111 143 179 214 249
#     4  10  18  30  45  61  81 110 144 177 212 253
#     4   7  14  27  41  55  77 105 133 164 202 242
#     4  10  19  31  43  59  82 110 142 179 215 250
#     4  11  20  30  44  63  86 114 144 175 208 249
#     4   9  17  30  44  61  84 110 138 173 210 248
#
# _framework density 14.348103
#
# number of rings (size 3 to 8) (size 9 to 14) (size 15 to 20)
#    0.000    2.500    0.000    5.250    0.000    2.500 
#    0.000    1.875    0.000    0.000    0.000    0.000 
#    0.000    1.000    0.000    6.750    0.000    3.500 
#
# Total GULP energy -178265.109344 kJ/mol
# GULP energy per Si atom -5570.784667 kJ/mol
# Density = 1.431545 g / cm^3
# Si number density = 14.348103 Si / 1000 Ang^3
#
#
#
# Elastic Constant Matrix: (Units=GPa)
#
#
# Indices 1 2 3 4 5 6 
#
# 1 61.7675 30.0601 23.6718 0.0000 0.0000 0.0000
# 2 30.0601 102.2173 48.8750 0.0000 0.0000 0.0000
# 3 23.6718 48.8750 76.2289 0.0000 0.0000 0.0000
# 4 0.0000 0.0000 0.0000 28.1980 0.0000 0.0000
# 5 0.0000 0.0000 0.0000 0.0000 15.2697 0.0000
# 6 0.0000 0.0000 0.0000 0.0000 0.0000 21.9551
#
#
#
# Elastic Compliance Matrix: (Units=1/GPa)
#
#
# Indices 1 2 3 4 5 6 
#
# 1 0.019496 -0.004094 -0.003430 0.000000 0.000000 0.000000
# 2 -0.004094 0.014968 -0.008326 0.000000 0.000000 0.000000
# 3 -0.003430 -0.008326 0.019521 0.000000 0.000000 0.000000
# 4 0.000000 0.000000 0.000000 0.035464 0.000000 0.000000
# 5 0.000000 0.000000 0.000000 0.000000 0.065489 0.000000
# 6 0.000000 0.000000 0.000000 0.000000 0.000000 0.045548
#
#
# Mechanical properties :
#
#
# Convention : Reuss Voigt Hill
#
# Bulk Modulus (GPa) = 44.86731 49.49194 47.17963
# Shear Modulus (GPa) = 20.86700 22.25834 21.56267
#
# Velocity S-wave (km/s) = 3.81772 3.94294 3.88083
# Velocity P-wave (km/s) = 7.12543 7.43624 7.28249
#
# Compressibility (1/GPa) = 0.02228794
#
# Stress axis : x y z
#
# Youngs Moduli (GPa) = 51.29166 66.81021 51.22581
#
# Poissons Ratio (x) = 0.27350 0.17569
# Poissons Ratio (y) = 0.20997 0.42648
# Poissons Ratio (z) = 0.17591 0.55623
#
# Static dielectric constant tensor:
#      x y z
#    x 1.486310 0.000000 0.000000 
#    y 0.000000 1.478460 0.000000 
#    z 0.000000 0.000000 1.469100 
# 
# From -- ./inp_files/24407.got.cif
#   From: 2010.05.17/outbox.cif.g08.bks.cpg/sg46_13_cif.got.tgz:24407.got - 2010.06.03 19:58:25.
