data_PCOD9377214
_publ_section_title
;
Structure prediction by ZEFSAII (Michael W. Deem and Ramdas Pophale) SiO2 
 PCOD9377214
Probable space group: I B A 2
;
_chemical_formula_sum "Si O2"
_cell_formula_units_Z 60
_cell_length_a 9.226053
_cell_length_b 14.662943
_cell_length_c 20.280505
_cell_angle_alpha 90.000000
_cell_angle_beta 90.000000
_cell_angle_gamma 90.000000
_cell_volume 2743.568807
_symmetry_space_group_name_H-M "I B A 2"
_symmetry_group_IT_number 45
_symmetry_cell_setting 'orthorhombic'
loop_
_space_group_symop_operation_xyz
x,y,z
-x,-y,z
-x,y,1/2+z
x,-y,1/2+z
1/2+x,1/2+y,1/2+z
1/2-x,1/2-y,1/2+z
1/2-x,1/2+y,z
1/2+x,1/2-y,z
loop_
_atom_site_type_symbol
_atom_site_label
_atom_site_fract_x
_atom_site_fract_y
_atom_site_fract_z
Si Si1 0.241419 0.066442 0.160480
Si Si2 0.442993 0.727678 0.107135
Si Si3 0.559963 0.635631 0.375217
Si Si4 0.000000 0.000000 0.261223
Si Si5 0.925969 0.086999 0.012031
Si Si6 0.053836 0.682174 0.235129
Si Si7 0.690326 0.232465 0.323962
Si Si8 0.867554 0.430910 0.557213
O O1 0.189644 0.156310 0.119198
O O2 0.387621 0.094632 0.197774
O O3 0.118284 0.044915 0.213790
O O4 0.279167 0.979754 0.116278
O O5 0.548621 0.674729 0.057552
O O6 0.512114 0.744644 0.178992
O O7 0.409078 0.828094 0.078109
O O8 0.574321 0.569323 0.312478
O O9 0.515142 0.596244 0.444928
O O10 0.425841 0.699599 0.354913
O O11 0.713731 0.685240 0.379600
O O12 0.755219 0.073945 0.000736
O O13 0.000000 0.000000 0.047113
O O14 0.188849 0.719043 0.278182
O O15 0.911128 0.668516 0.278934
O O16 0.000000 0.500000 0.542503
#
# Coordination Sequence:
#
# PCOD9377214 Si02
#       8
#     8   8   8   4   8   8   8   8
#     4  12  23  42  71 112 149 189 238 311 389 449
#     4  12  25  45  72 107 148 194 240 309 385 443
#     4  11  25  47  71 101 137 194 244 296 356 438
#     4  12  24  42  74 102 146 188 240 300 376 436
#     4  12  27  49  72  97 146 201 254 298 367 447
#     4  11  20  40  71 105 145 178 234 299 379 441
#     4  10  23  43  70 103 138 183 240 294 365 447
#     4  12  28  45  72 111 148 187 253 312 373 446
#
# _framework density 21.869325
#
# number of rings (size 3 to 8) (size 9 to 14) (size 15 to 20)
#    0.000    0.533    6.000    2.400    3.733    0.000 
#    0.000    0.000    0.000    0.000    0.000    0.000 
#    0.000    0.000    0.000    0.000    0.000    0.000 
#
# Total GULP energy -167676.753197 kJ/mol
# GULP energy per Si atom -5589.225107 kJ/mol
# Density = 2.181955 g / cm^3
# Si number density = 21.869325 Si / 1000 Ang^3
#
#
#
# Elastic Constant Matrix: (Units=GPa)
#
#
# Indices 1 2 3 4 5 6 
#
# 1 130.7619 46.6309 26.9830 0.0000 0.0000 0.0000
# 2 46.6309 123.9463 19.9212 0.0000 0.0000 0.0000
# 3 26.9830 19.9212 50.5499 0.0000 0.0000 0.0000
# 4 0.0000 0.0000 0.0000 26.3629 0.0000 0.0000
# 5 0.0000 0.0000 0.0000 0.0000 20.2742 0.0000
# 6 0.0000 0.0000 0.0000 0.0000 0.0000 31.8504
#
#
#
# Elastic Compliance Matrix: (Units=1/GPa)
#
#
# Indices 1 2 3 4 5 6 
#
# 1 0.009506 -0.002947 -0.003913 0.000000 0.000000 0.000000
# 2 -0.002947 0.009527 -0.002181 0.000000 0.000000 0.000000
# 3 -0.003913 -0.002181 0.022731 0.000000 0.000000 0.000000
# 4 0.000000 0.000000 0.000000 0.037932 0.000000 0.000000
# 5 0.000000 0.000000 0.000000 0.000000 0.049324 0.000000
# 6 0.000000 0.000000 0.000000 0.000000 0.000000 0.031397
#
#
# Mechanical properties :
#
#
# Convention : Reuss Voigt Hill
#
# Bulk Modulus (GPa) = 42.22762 54.70315 48.46538
# Shear Modulus (GPa) = 26.82499 29.81237 28.31868
#
# Velocity S-wave (km/s) = 3.50609 3.69617 3.60238
# Velocity P-wave (km/s) = 5.97839 6.57902 6.28588
#
# Compressibility (1/GPa) = 0.02368118
#
# Stress axis : x y z
#
# Youngs Moduli (GPa) = 105.19717 104.95933 43.99353
#
# Poissons Ratio (x) = 0.30936 0.17213
# Poissons Ratio (y) = 0.31007 0.09597
# Poissons Ratio (z) = 0.41160 0.22896
#
# Static dielectric constant tensor:
#      x y z
#    x 1.835220 0.000000 0.000000 
#    y 0.000000 1.873800 0.000000 
#    z 0.000000 0.000000 1.809520 
# 
# From -- ./inp_files/9569.got.cif
#   From: 2010.05.17/outbox.cif.g08.bks.cpg/sg45_5_cif.got.tgz:9569.got - 2010.06.03 19:51:22.
