data_PCOD9377949
_publ_section_title
;
Structure prediction by ZEFSAII (Michael W. Deem and Ramdas Pophale) SiO2 
 PCOD9377949
Probable space group: I M A 2
;
_chemical_formula_sum "Si O2"
_cell_formula_units_Z 64
_cell_length_a 8.221694
_cell_length_b 27.287216
_cell_length_c 19.194551
_cell_angle_alpha 90.000000
_cell_angle_beta 90.000000
_cell_angle_gamma 90.000000
_cell_volume 4306.242622
_symmetry_space_group_name_H-M "I M A 2"
_symmetry_group_IT_number 46
_symmetry_cell_setting 'orthorhombic'
loop_
_space_group_symop_operation_xyz
x,y,z
-x,-y,z
1/2-x,y,z
1/2+x,-y,z
1/2+x,1/2+y,1/2+z
1/2-x,1/2-y,1/2+z
-x,1/2+y,1/2+z
x,1/2-y,1/2+z
loop_
_atom_site_type_symbol
_atom_site_label
_atom_site_fract_x
_atom_site_fract_y
_atom_site_fract_z
Si Si1 0.057094 0.944971 0.582640
Si Si2 0.939293 0.290204 0.881940
Si Si3 0.553358 0.754176 0.748757
Si Si4 0.444963 0.445353 0.240937
Si Si5 0.050849 0.244148 0.589328
Si Si6 0.550976 0.646576 0.329658
Si Si7 0.060453 0.196994 0.962682
Si Si8 0.056467 0.148950 0.500796
O O1 0.250000 0.943448 0.579363
O O2 0.003693 0.935081 0.662386
O O3 0.986659 0.903258 0.532863
O O4 0.000000 0.000000 0.565325
O O5 0.750000 0.277800 0.890140
O O6 0.985337 0.286942 0.801018
O O7 0.045579 0.247682 0.919000
O O8 0.977443 0.338545 0.926265
O O9 0.750000 0.751872 0.749948
O O10 0.498466 0.750941 0.668961
O O11 0.505309 0.806869 0.781658
O O12 0.500000 0.500000 0.260011
O O13 0.250000 0.444247 0.239626
O O14 0.503322 0.403478 0.293791
O O15 0.250000 0.244740 0.588883
O O16 0.992264 0.287561 0.537821
O O17 0.002687 0.192241 0.554447
O O18 0.750000 0.646238 0.331701
O O19 0.491792 0.657262 0.408448
O O20 0.250000 0.185095 0.973066
O O21 0.250000 0.152890 0.493475
#
# Coordination Sequence:
#
# PCOD9377949 Si02
#       8
#     8   8   8   8   8   8   8   8
#     4  11  21  32  44  61  83 108 137 173 208 243
#     4  10  18  27  38  58  83 107 133 165 200 239
#     4   9  15  26  41  58  78 105 135 164 197 240
#     4  10  18  29  42  58  80 109 141 176 210 244
#     4   8  14  24  43  63  79 102 137 171 201 238
#     4   8  14  24  40  56  76 106 140 169 201 243
#     4   8  14  27  42  57  76 104 137 169 202 242
#     4  10  18  31  47  61  79 109 142 173 205 241
#
# _framework density 14.862145
#
# number of rings (size 3 to 8) (size 9 to 14) (size 15 to 20)
#    0.000    2.750    0.000    6.000    0.000    2.000 
#    0.000   10.625    0.000    0.000    0.000    0.000 
#    0.000    1.000    0.000    6.500    0.000    2.125 
#
# Total GULP energy -178184.367749 kJ/mol
# GULP energy per Si atom -5568.261492 kJ/mol
# Density = 1.482832 g / cm^3
# Si number density = 14.862145 Si / 1000 Ang^3
#
#
#
# Elastic Constant Matrix: (Units=GPa)
#
#
# Indices 1 2 3 4 5 6 
#
# 1 30.4066 6.5373 12.0599 0.0000 0.0000 0.0000
# 2 6.5373 80.5973 60.2585 0.0000 0.0000 0.0000
# 3 12.0599 60.2585 124.9903 0.0000 0.0000 0.0000
# 4 0.0000 0.0000 0.0000 28.0141 0.0000 0.0000
# 5 0.0000 0.0000 0.0000 0.0000 7.7943 0.0000
# 6 0.0000 0.0000 0.0000 0.0000 0.0000 15.8888
#
#
#
# Elastic Compliance Matrix: (Units=1/GPa)
#
#
# Indices 1 2 3 4 5 6 
#
# 1 0.034208 -0.000480 -0.003069 0.000000 0.000000 0.000000
# 2 -0.000480 0.019407 -0.009310 0.000000 0.000000 0.000000
# 3 -0.003069 -0.009310 0.012785 0.000000 0.000000 0.000000
# 4 0.000000 0.000000 0.000000 0.035696 0.000000 0.000000
# 5 0.000000 0.000000 0.000000 0.000000 0.128299 0.000000
# 6 0.000000 0.000000 0.000000 0.000000 0.000000 0.062937
#
#
# Mechanical properties :
#
#
# Convention : Reuss Voigt Hill
#
# Bulk Modulus (GPa) = 24.58092 43.74508 34.16300
# Shear Modulus (GPa) = 15.03257 20.81534 17.92396
#
# Velocity S-wave (km/s) = 3.18381 3.74647 3.47654
# Velocity P-wave (km/s) = 5.48550 6.94352 6.25712
#
# Compressibility (1/GPa) = 0.04068195
#
# Stress axis : x y z
#
# Youngs Moduli (GPa) = 29.23287 51.52846 78.21629
#
# Poissons Ratio (x) = 0.02473 0.24007
# Poissons Ratio (y) = 0.01403 0.72818
# Poissons Ratio (z) = 0.08972 0.47972
#
# Static dielectric constant tensor:
#      x y z
#    x 1.518700 0.000000 0.000000 
#    y 0.000000 1.507570 0.000000 
#    z 0.000000 0.000000 1.518550 
# 
# From -- ./inp_files/18687.got.cif
#   From: 2010.05.17/outbox.cif.g08.bks.cpg/sg46_10_cif.got.tgz:18687.got - 2010.06.03 19:58:25.
