data_PCOD9377627
_publ_section_title
;
Structure prediction by ZEFSAII (Michael W. Deem and Ramdas Pophale) SiO2 
 PCOD9377627
Probable space group: I B A 2
;
_chemical_formula_sum "Si O2"
_cell_formula_units_Z 48
_cell_length_a 18.126197
_cell_length_b 9.823135
_cell_length_c 12.065066
_cell_angle_alpha 90.000000
_cell_angle_beta 90.000000
_cell_angle_gamma 90.000000
_cell_volume 2148.258359
_symmetry_space_group_name_H-M "I B A 2"
_symmetry_group_IT_number 45
_symmetry_cell_setting 'orthorhombic'
loop_
_space_group_symop_operation_xyz
x,y,z
-x,-y,z
-x,y,1/2+z
x,-y,1/2+z
1/2+x,1/2+y,1/2+z
1/2-x,1/2-y,1/2+z
1/2-x,1/2+y,z
1/2+x,1/2-y,z
loop_
_atom_site_type_symbol
_atom_site_label
_atom_site_fract_x
_atom_site_fract_y
_atom_site_fract_z
Si Si1 0.564815 0.104832 0.966350
Si Si2 0.398990 0.783503 0.743701
Si Si3 0.029747 0.140269 0.116177
Si Si4 0.191177 0.578228 0.043625
Si Si5 0.256937 0.363805 0.319948
Si Si6 0.189799 0.879451 0.705681
O O1 0.570742 0.110443 0.833434
O O2 0.500000 0.000000 0.998289
O O3 0.546714 0.248543 0.022311
O O4 0.642603 0.051114 0.011974
O O5 0.466248 0.697962 0.695892
O O6 0.355912 0.845205 0.638203
O O7 0.338647 0.698541 0.813313
O O8 0.103135 0.113069 0.188094
O O9 0.000000 0.000000 0.066365
O O10 0.271466 0.559082 0.096480
O O11 0.209245 0.656202 0.930212
O O12 0.212883 0.276614 0.227666
O O13 0.271750 0.523708 0.297879
#
# Coordination Sequence:
#
# PCOD9377627 Si02
#       6
#     8   8   8   8   8   8
#     4  12  27  46  78 111 149 205 262 318 376 459
#     4  11  26  47  72 115 151 195 254 318 390 448
#     4  12  26  50  74 113 158 201 246 317 397 460
#     4  11  24  48  74 109 146 196 263 312 375 444
#     4  11  24  46  72 107 143 203 251 311 375 453
#     4  11  25  44  76 106 152 197 251 315 376 457
#
# _framework density 22.343679999999999
#
# number of rings (size 3 to 8) (size 9 to 14) (size 15 to 20)
#    0.000    0.667    3.333    4.000    4.667    4.667 
#    6.000    0.000    0.000    0.000    0.000    0.000 
#    0.000    0.000    0.000    0.000    0.000    0.000 
#
# Total GULP energy -134120.061035 kJ/mol
# GULP energy per Si atom -5588.335876 kJ/mol
# Density = 2.229283 g / cm^3
# Si number density = 22.343680 Si / 1000 Ang^3
#
#
#
# Elastic Constant Matrix: (Units=GPa)
#
#
# Indices 1 2 3 4 5 6 
#
# 1 138.4124 57.8671 41.2728 0.0000 0.0000 0.0000
# 2 57.8671 100.0182 52.8959 0.0000 0.0000 0.0000
# 3 41.2728 52.8959 103.7955 0.0000 0.0000 0.0000
# 4 0.0000 0.0000 0.0000 27.5315 0.0000 0.0000
# 5 0.0000 0.0000 0.0000 0.0000 35.4052 0.0000
# 6 0.0000 0.0000 0.0000 0.0000 0.0000 38.7796
#
#
#
# Elastic Compliance Matrix: (Units=1/GPa)
#
#
# Indices 1 2 3 4 5 6 
#
# 1 0.009668 -0.004874 -0.001360 0.000000 0.000000 0.000000
# 2 -0.004874 0.016144 -0.006289 0.000000 0.000000 0.000000
# 3 -0.001360 -0.006289 0.013380 0.000000 0.000000 0.000000
# 4 0.000000 0.000000 0.000000 0.036322 0.000000 0.000000
# 5 0.000000 0.000000 0.000000 0.000000 0.028244 0.000000
# 6 0.000000 0.000000 0.000000 0.000000 0.000000 0.025787
#
#
# Mechanical properties :
#
#
# Convention : Reuss Voigt Hill
#
# Bulk Modulus (GPa) = 70.69565 71.81085 71.25325
# Shear Modulus (GPa) = 31.38549 33.02262 32.20405
#
# Velocity S-wave (km/s) = 3.75196 3.84857 3.80057
# Velocity P-wave (km/s) = 7.10481 7.20816 7.15668
#
# Compressibility (1/GPa) = 0.01414514
#
# Stress axis : x y z
#
# Youngs Moduli (GPa) = 103.43114 61.94091 74.73607
#
# Poissons Ratio (x) = 0.30191 0.10168
# Poissons Ratio (y) = 0.50415 0.47004
# Poissons Ratio (z) = 0.14071 0.38956
#
# Static dielectric constant tensor:
#      x y z
#    x 1.800540 0.000000 0.000000 
#    y 0.000000 1.854110 0.000000 
#    z 0.000000 0.000000 1.856590 
# 
# From -- ./inp_files/6735.got.cif
#   From: 2010.05.17/outbox.cif.g08.bks.cpg/sg45_4_cif.got.tgz:6735.got - 2010.06.03 19:51:22.
