data_PCOD9377821
_publ_section_title
;
Structure prediction by ZEFSAII (Michael W. Deem and Ramdas Pophale) SiO2 
 PCOD9377821
Probable space group: I M A 2
;
_chemical_formula_sum "Si O2"
_cell_formula_units_Z 52
_cell_length_a 16.296176
_cell_length_b 20.138345
_cell_length_c 5.644906
_cell_angle_alpha 90.000000
_cell_angle_beta 90.000000
_cell_angle_gamma 90.000000
_cell_volume 1852.534043
_symmetry_space_group_name_H-M "I M A 2"
_symmetry_group_IT_number 46
_symmetry_cell_setting 'orthorhombic'
loop_
_space_group_symop_operation_xyz
x,y,z
-x,-y,z
1/2-x,y,z
1/2+x,-y,z
1/2+x,1/2+y,1/2+z
1/2-x,1/2-y,1/2+z
-x,1/2+y,1/2+z
x,1/2-y,1/2+z
loop_
_atom_site_type_symbol
_atom_site_label
_atom_site_fract_x
_atom_site_fract_y
_atom_site_fract_z
Si Si1 0.423973 0.252428 0.109000
Si Si2 0.250000 0.284433 0.608998
Si Si3 0.750000 0.419094 0.108992
Si Si4 0.150665 0.398366 0.108995
Si Si5 0.750000 0.156254 0.108992
Si Si6 0.941050 0.065002 0.608992
Si Si7 0.085021 0.885179 0.108992
Si Si8 0.151763 0.036471 0.108995
O O1 0.469333 0.250000 0.359000
O O2 0.348681 0.197197 0.108999
O O3 0.379780 0.323452 0.108997
O O4 0.250000 0.250001 0.358997
O O5 0.750000 0.378476 0.351278
O O6 0.658679 0.451504 0.108993
O O7 0.750000 0.378476 0.866704
O O8 0.250000 0.398075 0.108994
O O9 0.126212 0.430976 0.360707
O O10 0.126212 0.430976 0.857282
O O11 0.847371 0.174149 0.108992
O O12 0.955420 0.108496 0.369449
O O13 0.000000 0.000000 0.608992
O O14 0.955420 0.108496 0.848536
O O15 0.125280 0.959932 0.108993
O O16 0.250000 0.039299 0.108995
#
# Coordination Sequence:
#
# PCOD9377821 Si02
#       8
#     8   4   4   8   4   8   8   8
#     4  10  17  25  35  44  59  84 111 143 189 232
#     4   8  14  20  28  38  50  70  98 124 162 216
#     4   8  16  26  40  55  80  98 114 147 186 216
#     4  10  19  26  34  50  67  84 115 155 183 225
#     4   8  14  24  38  55  66  94 120 135 174 228
#     4  10  19  29  44  63  78  97 127 154 182 233
#     4  10  17  29  42  54  75  97 118 148 186 227
#     4  10  19  28  38  52  70  91 118 147 184 232
#
# _framework density 28.069658
#
# number of rings (size 3 to 8) (size 9 to 14) (size 15 to 20)
#    0.000    2.462    1.538    2.308    0.000    0.000 
#    0.000    0.000    0.000    0.000    0.000    0.000 
#    0.000    0.000    0.000    0.000    0.000    0.000 
#
# Total GULP energy -144772.310336 kJ/mol
# GULP energy per Si atom -5568.165782 kJ/mol
# Density = 2.800577 g / cm^3
# Si number density = 28.069658 Si / 1000 Ang^3
#
#
#
# Elastic Constant Matrix: (Units=GPa)
#
#
# Indices 1 2 3 4 5 6 
#
# 1 159.3420 17.3339 5.3598 0.0000 0.0000 0.0000
# 2 17.3339 15.1957 33.6328 0.0000 0.0000 0.0000
# 3 5.3598 33.6328 310.4331 0.0000 0.0000 0.0000
# 4 0.0000 0.0000 0.0000 -168.5012 0.0000 0.0000
# 5 0.0000 0.0000 0.0000 0.0000 -40.7683 0.0000
# 6 0.0000 0.0000 0.0000 0.0000 0.0000 26.5426
#
#
#
# Elastic Compliance Matrix: (Units=1/GPa)
#
#
# Indices 1 2 3 4 5 6 
#
# 1 0.007410 -0.010746 0.001036 0.000000 0.000000 0.000000
# 2 -0.010746 0.102151 -0.010882 0.000000 0.000000 0.000000
# 3 0.001036 -0.010882 0.004382 0.000000 0.000000 0.000000
# 4 0.000000 0.000000 0.000000 -0.005935 0.000000 0.000000
# 5 0.000000 0.000000 0.000000 0.000000 -0.024529 0.000000
# 6 0.000000 0.000000 0.000000 0.000000 0.000000 0.037675
#
#
# Mechanical properties :
#
#
# Convention : Reuss Voigt Hill
#
# Bulk Modulus (GPa) = 13.74384 66.40265 40.07324
# Shear Modulus (GPa) = 26.79647 -7.96910 9.41368
#
# Velocity S-wave (km/s) = 3.09308 -1.68677 1.83329
# Velocity P-wave (km/s) = 4.20276 4.46252 4.33459
#
# Compressibility (1/GPa) = 0.07275989
#
# Stress axis : x y z
#
# Youngs Moduli (GPa) = 134.95302 9.78943 228.18813
#
# Poissons Ratio (x) = 0.10520 -0.23648
# Poissons Ratio (y) = 1.45026 2.48306
# Poissons Ratio (z) = -0.13986 0.10653
#
# Static dielectric constant tensor:
#      x y z
#    x 2.298850 0.000000 0.000000 
#    y 0.000000 2.290710 0.000000 
#    z 0.000000 0.000000 2.214440 
# 
# From -- ./inp_files/1791.got.cif
#   From: 2010.05.17/outbox.cif.g08.bks.cpg/sg46_1_cif.got.tgz:1791.got - 2010.06.03 19:58:25.
