data_PCOD9377680
_publ_section_title
;
Structure prediction by ZEFSAII (Michael W. Deem and Ramdas Pophale) SiO2 
 PCOD9377680
Probable space group: I B A 2
;
_chemical_formula_sum "Si O2"
_cell_formula_units_Z 40
_cell_length_a 7.743078
_cell_length_b 22.828588
_cell_length_c 8.955714
_cell_angle_alpha 90.000000
_cell_angle_beta 90.000000
_cell_angle_gamma 90.000000
_cell_volume 1583.043688
_symmetry_space_group_name_H-M "I B A 2"
_symmetry_group_IT_number 45
_symmetry_cell_setting 'orthorhombic'
loop_
_space_group_symop_operation_xyz
x,y,z
-x,-y,z
-x,y,1/2+z
x,-y,1/2+z
1/2+x,1/2+y,1/2+z
1/2-x,1/2-y,1/2+z
1/2-x,1/2+y,z
1/2+x,1/2-y,z
loop_
_atom_site_type_symbol
_atom_site_label
_atom_site_fract_x
_atom_site_fract_y
_atom_site_fract_z
Si Si1 0.514177 0.640976 0.844210
Si Si2 0.672725 0.933642 0.811560
Si Si3 0.239763 0.302149 0.654397
Si Si4 0.054014 0.727530 0.458859
Si Si5 0.191419 0.557675 0.460396
O O1 0.326380 0.612907 0.830407
O O2 0.610648 0.651005 0.684011
O O3 0.501231 0.706818 0.909349
O O4 0.646300 0.599497 0.931529
O O5 0.654316 0.945040 0.635525
O O6 0.482078 0.920999 0.876007
O O7 0.728798 0.993431 0.894610
O O8 0.144599 0.296383 0.812286
O O9 0.324395 0.240680 0.601793
O O10 0.100469 0.310623 0.524870
#
# Coordination Sequence:
#
# PCOD9377680 Si02
#       5
#     8   8   8   8   8
#     4  12  27  46  79 109 151 204 266 317 396 472
#     4  11  26  50  77 118 155 202 254 324 401 484
#     4  12  25  47  72 104 150 200 264 331 385 466
#     4  12  25  47  70 103 151 201 265 329 394 458
#     4  11  26  48  80 112 158 198 253 327 397 477
#
# _framework density 25.267779999999998
#
# number of rings (size 3 to 8) (size 9 to 14) (size 15 to 20)
#    0.000    0.400    4.000    4.200    0.000   12.800 
#    0.000    0.000    0.000    0.000    0.000    0.000 
#    0.000    0.000    0.000    0.000    0.000    0.000 
#
# Total GULP energy -112081.408453 kJ/mol
# GULP energy per Si atom -5604.070423 kJ/mol
# Density = 2.521027 g / cm^3
# Si number density = 25.267780 Si / 1000 Ang^3
#
#
#
# Elastic Constant Matrix: (Units=GPa)
#
#
# Indices 1 2 3 4 5 6 
#
# 1 155.7120 54.0441 84.7455 -0.0004 -0.0002 0.0002
# 2 54.0441 102.4782 51.6289 -0.0006 -0.0005 0.0001
# 3 84.7455 51.6289 190.2002 -0.0046 -0.0016 0.0004
# 4 -0.0004 -0.0006 -0.0046 24.1717 -0.0004 0.0001
# 5 -0.0002 -0.0005 -0.0016 -0.0004 53.1111 -0.0001
# 6 0.0002 0.0001 0.0004 0.0001 -0.0001 61.9688
#
#
#
# Elastic Compliance Matrix: (Units=1/GPa)
#
#
# Indices 1 2 3 4 5 6 
#
# 1 0.009340 -0.003277 -0.003272 -0.000001 0.000000 0.000000
# 2 -0.003277 0.012454 -0.001920 0.000000 0.000000 0.000000
# 3 -0.003272 -0.001920 0.007237 0.000001 0.000000 0.000000
# 4 -0.000001 0.000000 0.000001 0.041371 0.000000 0.000000
# 5 0.000000 0.000000 0.000000 0.000000 0.018828 0.000000
# 6 0.000000 0.000000 0.000000 0.000000 0.000000 0.016137
#
#
# Mechanical properties :
#
#
# Convention : Reuss Voigt Hill
#
# Bulk Modulus (GPa) = 82.70152 92.13637 87.41894
# Shear Modulus (GPa) = 39.57648 45.04846 42.31247
#
# Velocity S-wave (km/s) = 3.96192 4.22695 4.09658
# Velocity P-wave (km/s) = 7.33009 7.76955 7.55302
#
# Compressibility (1/GPa) = 0.01209168
#
# Stress axis : x y z
#
# Youngs Moduli (GPa) = 107.06138 80.29528 138.18292
#
# Poissons Ratio (x) = 0.26316 0.45215
# Poissons Ratio (y) = 0.35088 0.26535
# Poissons Ratio (z) = 0.35031 0.15419
#
# Static dielectric constant tensor:
#      x y z
#    x 2.067960 0.000000 0.000000 
#    y 0.000000 1.990910 0.000000 
#    z 0.000000 0.000000 2.008300 
# 
# From -- ./inp_files/962.got.cif
#   From: 2010.05.17/outbox.cif.g08.bks.cpg/sg45_1_cif.got.tgz:962.got - 2010.06.03 19:51:22.
