data_PCOD9377406
_publ_section_title
;
Structure prediction by ZEFSAII (Michael W. Deem and Ramdas Pophale) SiO2 
 PCOD9377406
Probable space group: I B A 2
;
_chemical_formula_sum "Si O2"
_cell_formula_units_Z 56
_cell_length_a 9.000507
_cell_length_b 13.448535
_cell_length_c 19.481090
_cell_angle_alpha 90.000000
_cell_angle_beta 90.000000
_cell_angle_gamma 90.000000
_cell_volume 2358.061916
_symmetry_space_group_name_H-M "I B A 2"
_symmetry_group_IT_number 45
_symmetry_cell_setting 'orthorhombic'
loop_
_space_group_symop_operation_xyz
x,y,z
-x,-y,z
-x,y,1/2+z
x,-y,1/2+z
1/2+x,1/2+y,1/2+z
1/2-x,1/2-y,1/2+z
1/2-x,1/2+y,z
1/2+x,1/2-y,z
loop_
_atom_site_type_symbol
_atom_site_label
_atom_site_fract_x
_atom_site_fract_y
_atom_site_fract_z
Si Si1 0.499928 0.386431 0.678970
Si Si2 0.088760 0.902328 0.426188
Si Si3 0.517113 0.115673 0.768428
Si Si4 0.826079 0.372457 0.129990
Si Si5 0.873076 0.817047 0.537832
Si Si6 0.333511 0.017746 0.513285
Si Si7 0.202317 0.213698 0.795269
O O1 0.500000 0.500000 0.702912
O O2 0.329730 0.351470 0.668630
O O3 0.565059 0.379997 0.602301
O O4 0.605040 0.325614 0.730365
O O5 0.221762 0.950719 0.469602
O O6 0.144312 0.839742 0.362924
O O7 0.987265 0.834907 0.476120
O O8 0.000000 0.000000 0.402014
O O9 0.546736 0.122450 0.686812
O O10 0.371339 0.179289 0.786205
O O11 0.660097 0.170065 0.801645
O O12 0.500000 0.000000 0.787361
O O13 0.854012 0.290744 0.071095
O O14 0.820224 0.476326 0.090658
O O15 0.720296 0.868598 0.514006
O O16 0.500000 0.000000 0.489403
#
# Coordination Sequence:
#
# PCOD9377406 Si02
#       7
#     8   8   8   8   8   8   8
#     4  12  22  43  74 109 145 201 253 318 381 459
#     4  10  24  52  73 105 152 208 259 316 390 468
#     4  12  29  50  77 118 157 199 262 325 386 471
#     4  12  25  42  73 112 148 189 254 320 383 451
#     4  11  24  45  74 107 146 199 250 311 381 462
#     4  11  25  42  72 109 147 193 251 317 380 457
#     4  12  28  48  76 110 154 206 253 318 396 458
#
# _framework density 23.748315000000002
#
# number of rings (size 3 to 8) (size 9 to 14) (size 15 to 20)
#    0.000    0.571    4.286    3.000    4.000    2.857 
#    0.000    4.286    0.000    0.857    0.000    0.000 
#    0.000    0.000    0.000    0.000    0.000    0.000 
#
# Total GULP energy -156855.335850 kJ/mol
# GULP energy per Si atom -5601.976280 kJ/mol
# Density = 2.369426 g / cm^3
# Si number density = 23.748315 Si / 1000 Ang^3
#
#
#
# Elastic Constant Matrix: (Units=GPa)
#
#
# Indices 1 2 3 4 5 6 
#
# 1 128.3912 44.0206 16.8560 0.0000 0.0000 0.0000
# 2 44.0206 114.8435 7.9429 0.0000 0.0000 0.0000
# 3 16.8560 7.9429 86.1634 0.0000 0.0000 0.0000
# 4 0.0000 0.0000 0.0000 27.0139 0.0000 0.0000
# 5 0.0000 0.0000 0.0000 0.0000 23.8414 0.0000
# 6 0.0000 0.0000 0.0000 0.0000 0.0000 30.6339
#
#
#
# Elastic Compliance Matrix: (Units=1/GPa)
#
#
# Indices 1 2 3 4 5 6 
#
# 1 0.009150 -0.003405 -0.001476 0.000000 0.000000 0.000000
# 2 -0.003405 0.010031 -0.000259 0.000000 0.000000 0.000000
# 3 -0.001476 -0.000259 0.011918 0.000000 0.000000 0.000000
# 4 0.000000 0.000000 0.000000 0.037018 0.000000 0.000000
# 5 0.000000 0.000000 0.000000 0.000000 0.041944 0.000000
# 6 0.000000 0.000000 0.000000 0.000000 0.000000 0.032644
#
#
# Mechanical properties :
#
#
# Convention : Reuss Voigt Hill
#
# Bulk Modulus (GPa) = 48.03193 51.89300 49.96247
# Shear Modulus (GPa) = 31.26488 33.66975 32.46732
#
# Velocity S-wave (km/s) = 3.63231 3.76942 3.70150
# Velocity P-wave (km/s) = 6.15312 6.39088 6.27313
#
# Compressibility (1/GPa) = 0.02081948
#
# Stress axis : x y z
#
# Youngs Moduli (GPa) = 109.28964 99.69476 83.90349
#
# Poissons Ratio (x) = 0.33948 0.12385
# Poissons Ratio (y) = 0.37215 0.02169
# Poissons Ratio (z) = 0.16132 0.02577
#
# Static dielectric constant tensor:
#      x y z
#    x 1.931530 0.000000 0.000000 
#    y 0.000000 1.956500 0.000000 
#    z 0.000000 0.000000 1.851170 
# 
# From -- ./inp_files/8868.got.cif
#   From: 2010.05.17/outbox.cif.g08.bks.cpg/sg45_5_cif.got.tgz:8868.got - 2010.06.03 19:51:22.
