data_PCOD9377668
_publ_section_title
;
Structure prediction by ZEFSAII (Michael W. Deem and Ramdas Pophale) SiO2 
 PCOD9377668
Probable space group: I B A 2
;
_chemical_formula_sum "Si O2"
_cell_formula_units_Z 32
_cell_length_a 10.947437
_cell_length_b 6.689701
_cell_length_c 14.652952
_cell_angle_alpha 90.000000
_cell_angle_beta 90.000000
_cell_angle_gamma 90.000000
_cell_volume 1073.110116
_symmetry_space_group_name_H-M "I B A 2"
_symmetry_group_IT_number 45
_symmetry_cell_setting 'orthorhombic'
loop_
_space_group_symop_operation_xyz
x,y,z
-x,-y,z
-x,y,1/2+z
x,-y,1/2+z
1/2+x,1/2+y,1/2+z
1/2-x,1/2-y,1/2+z
1/2-x,1/2+y,z
1/2+x,1/2-y,z
loop_
_atom_site_type_symbol
_atom_site_label
_atom_site_fract_x
_atom_site_fract_y
_atom_site_fract_z
Si Si1 0.638069 0.123364 0.134880
Si Si2 0.642065 0.403687 0.376002
Si Si3 0.598764 0.304343 0.700958
Si Si4 0.094949 0.706841 0.435818
O O1 0.383811 0.061087 0.203438
O O2 0.781802 0.159506 0.139703
O O3 0.607118 0.088217 0.029532
O O4 0.717733 0.153685 0.879949
O O5 0.617868 0.550847 0.288992
O O6 0.541435 0.225181 0.389326
O O7 0.620188 0.559189 0.457911
O O8 0.458810 0.297274 0.663379
#
# Coordination Sequence:
#
# PCOD9377668 Si02
#       4
#     8   8   8   8
#     4  11  25  50  80 115 161 222 278 342 419 508
#     4  11  26  49  79 122 169 216 278 352 420 498
#     4  11  26  49  78 116 166 216 274 345 424 497
#     4  11  25  49  81 119 164 218 282 347 415 502
#
# _framework density 29.819865
#
# number of rings (size 3 to 8) (size 9 to 14) (size 15 to 20)
#    0.000    1.000    0.000    4.500    0.000   14.000 
#    0.000   12.500    0.000    0.000    0.000    0.000 
#    0.000    0.000    0.000    0.000    0.000    0.000 
#
# Total GULP energy -89191.177464 kJ/mol
# GULP energy per Si atom -5574.448591 kJ/mol
# Density = 2.975199 g / cm^3
# Si number density = 29.819865 Si / 1000 Ang^3
#
#
#
# Elastic Constant Matrix: (Units=GPa)
#
#
# Indices 1 2 3 4 5 6 
#
# 1 344.9847 114.3474 132.2725 0.0000 0.0000 0.0000
# 2 114.3474 66.1840 69.4741 0.0000 0.0000 0.0000
# 3 132.2725 69.4741 182.9303 0.0000 0.0000 0.0000
# 4 0.0000 0.0000 0.0000 44.9719 0.0000 0.0000
# 5 0.0000 0.0000 0.0000 0.0000 37.0566 0.0000
# 6 0.0000 0.0000 0.0000 0.0000 0.0000 95.8737
#
#
#
# Elastic Compliance Matrix: (Units=1/GPa)
#
#
# Indices 1 2 3 4 5 6 
#
# 1 0.006846 -0.011029 -0.000762 0.000000 0.000000 0.000000
# 2 -0.011029 0.042893 -0.008315 0.000000 0.000000 0.000000
# 3 -0.000762 -0.008315 0.009175 0.000000 0.000000 0.000000
# 4 0.000000 0.000000 0.000000 0.022236 0.000000 0.000000
# 5 0.000000 0.000000 0.000000 0.000000 0.026986 0.000000
# 6 0.000000 0.000000 0.000000 0.000000 0.000000 0.010430
#
#
# Mechanical properties :
#
#
# Convention : Reuss Voigt Hill
#
# Bulk Modulus (GPa) = 53.46845 136.25409 94.86127
# Shear Modulus (GPa) = 30.30057 54.11411 42.20734
#
# Velocity S-wave (km/s) = 3.19112 4.26455 3.76628
# Velocity P-wave (km/s) = 5.61668 8.36900 7.12696
#
# Compressibility (1/GPa) = 0.01870262
#
# Stress axis : x y z
#
# Youngs Moduli (GPa) = 146.06243 23.31386 108.98628
#
# Poissons Ratio (x) = 0.25713 0.08303
# Poissons Ratio (y) = 1.61091 0.90626
# Poissons Ratio (z) = 0.11128 0.19386
#
# Static dielectric constant tensor:
#      x y z
#    x 2.393910 0.000000 0.000000 
#    y 0.000000 2.567790 0.000000 
#    z 0.000000 0.000000 2.461720 
# 
# From -- ./inp_files/5948.got.cif
#   From: 2010.05.17/outbox.cif.g08.bks.cpg/sg45_3_cif.got.tgz:5948.got - 2010.06.03 19:51:22.
