data_PCOD9377110
_publ_section_title
;
Structure prediction by ZEFSAII (Michael W. Deem and Ramdas Pophale) SiO2 
 PCOD9377110
Probable space group: I B A 2
;
_chemical_formula_sum "Si O2"
_cell_formula_units_Z 44
_cell_length_a 9.019437
_cell_length_b 10.469604
_cell_length_c 22.075682
_cell_angle_alpha 90.000000
_cell_angle_beta 90.000000
_cell_angle_gamma 90.000000
_cell_volume 2084.605187
_symmetry_space_group_name_H-M "I B A 2"
_symmetry_group_IT_number 45
_symmetry_cell_setting 'orthorhombic'
loop_
_space_group_symop_operation_xyz
x,y,z
-x,-y,z
-x,y,1/2+z
x,-y,1/2+z
1/2+x,1/2+y,1/2+z
1/2-x,1/2-y,1/2+z
1/2-x,1/2+y,z
1/2+x,1/2-y,z
loop_
_atom_site_type_symbol
_atom_site_label
_atom_site_fract_x
_atom_site_fract_y
_atom_site_fract_z
Si Si1 0.303481 0.412978 0.833670
Si Si2 0.525158 0.205017 0.875147
Si Si3 0.000000 0.000000 0.232718
Si Si4 0.755761 0.101416 0.438655
Si Si5 0.789517 0.898978 0.080162
Si Si6 0.898539 0.162970 0.125414
O O1 0.419117 0.297688 0.837324
O O2 0.134249 0.370543 0.830993
O O3 0.358496 0.492462 0.776724
O O4 0.316871 0.485692 0.897890
O O5 0.409425 0.126329 0.914626
O O6 0.637487 0.281880 0.918992
O O7 0.028338 0.877287 0.189766
O O8 0.750488 0.084429 0.509928
O O9 0.686654 0.795143 0.114331
O O10 0.958343 0.845947 0.081852
O O11 0.795193 0.039887 0.110059
#
# Coordination Sequence:
#
# PCOD9377110 Si02
#       6
#     8   8   4   8   8   8
#     4  11  22  40  61  98 131 176 215 278 346 403
#     4  10  23  35  61  98 129 171 214 263 352 412
#     4  10  22  44  70  86 138 174 238 284 334 414
#     4  11  21  38  62  94 136 167 217 275 347 405
#     4  10  23  42  68  95 136 171 231 282 338 407
#     4  10  25  44  66  97 127 184 232 278 339 393
#
# _framework density 21.107115
#
# number of rings (size 3 to 8) (size 9 to 14) (size 15 to 20)
#    0.000    1.818    1.818    1.636   10.182    3.636 
#    3.273    0.000    8.000    0.000    0.000    0.000 
#    0.000    0.000    0.000    0.000    0.000    0.000 
#
# Total GULP energy -122783.810844 kJ/mol
# GULP energy per Si atom -5581.082311 kJ/mol
# Density = 2.105907 g / cm^3
# Si number density = 21.107115 Si / 1000 Ang^3
#
#
#
# Elastic Constant Matrix: (Units=GPa)
#
#
# Indices 1 2 3 4 5 6 
#
# 1 126.7189 36.0296 34.7724 0.0000 0.0000 0.0000
# 2 36.0296 58.0495 24.8068 0.0000 0.0000 0.0000
# 3 34.7724 24.8068 86.4941 0.0000 0.0000 0.0000
# 4 0.0000 0.0000 0.0000 -6.8908 0.0000 0.0000
# 5 0.0000 0.0000 0.0000 0.0000 4.4742 0.0000
# 6 0.0000 0.0000 0.0000 0.0000 0.0000 50.7509
#
#
#
# Elastic Compliance Matrix: (Units=1/GPa)
#
#
# Indices 1 2 3 4 5 6 
#
# 1 0.010059 -0.005146 -0.002568 0.000000 0.000000 0.000000
# 2 -0.005146 0.022265 -0.004317 0.000000 0.000000 0.000000
# 3 -0.002568 -0.004317 0.013832 0.000000 0.000000 0.000000
# 4 0.000000 0.000000 0.000000 -0.145122 0.000000 0.000000
# 5 0.000000 0.000000 0.000000 0.000000 0.223503 0.000000
# 6 0.000000 0.000000 0.000000 0.000000 0.000000 0.019704
#
#
# Mechanical properties :
#
#
# Convention : Reuss Voigt Hill
#
# Bulk Modulus (GPa) = 45.26017 51.38667 48.32342
# Shear Modulus (GPa) = 28.46257 21.37712 24.91984
#
# Velocity S-wave (km/s) = 3.67615 3.18589 3.43977
# Velocity P-wave (km/s) = 6.28557 6.15887 6.22255
#
# Compressibility (1/GPa) = 0.02209448
#
# Stress axis : x y z
#
# Youngs Moduli (GPa) = 99.40981 44.91258 72.29575
#
# Poissons Ratio (x) = 0.23112 0.18567
# Poissons Ratio (y) = 0.51157 0.31210
# Poissons Ratio (z) = 0.25530 0.19389
#
# Static dielectric constant tensor:
#      x y z
#    x 1.757500 0.000000 0.000000 
#    y 0.000000 1.860010 0.000000 
#    z 0.000000 0.000000 1.747380 
# 
# From -- ./inp_files/9517.got.cif
#   From: 2010.05.17/outbox.cif.g08.bks.cpg/sg45_5_cif.got.tgz:9517.got - 2010.06.03 19:51:22.
