data_PCOD9377951
_publ_section_title
;
Structure prediction by ZEFSAII (Michael W. Deem and Ramdas Pophale) SiO2 
 PCOD9377951
Probable space group: I M A 2
;
_chemical_formula_sum "Si O2"
_cell_formula_units_Z 64
_cell_length_a 8.775864
_cell_length_b 18.992734
_cell_length_c 27.303889
_cell_angle_alpha 90.000000
_cell_angle_beta 90.000000
_cell_angle_gamma 90.000000
_cell_volume 4550.948070
_symmetry_space_group_name_H-M "I M A 2"
_symmetry_group_IT_number 46
_symmetry_cell_setting 'orthorhombic'
loop_
_space_group_symop_operation_xyz
x,y,z
-x,-y,z
1/2-x,y,z
1/2+x,-y,z
1/2+x,1/2+y,1/2+z
1/2-x,1/2-y,1/2+z
-x,1/2+y,1/2+z
x,1/2-y,1/2+z
loop_
_atom_site_type_symbol
_atom_site_label
_atom_site_fract_x
_atom_site_fract_y
_atom_site_fract_z
Si Si1 0.435437 0.161956 0.480150
Si Si2 0.568226 0.422905 0.585577
Si Si3 0.434845 0.077512 0.577421
Si Si4 0.432730 0.660934 0.682667
Si Si5 0.925689 0.789924 0.633992
Si Si6 0.433877 0.421934 0.883900
Si Si7 0.566026 0.421924 0.779043
Si Si8 0.573579 0.797467 0.031776
O O1 0.250000 0.164266 0.481800
O O2 0.482303 0.110951 0.524981
O O3 0.479348 0.129044 0.428382
O O4 0.486415 0.241716 0.491780
O O5 0.500000 0.500000 0.579154
O O6 0.750000 0.427333 0.586784
O O7 0.514867 0.388962 0.637543
O O8 0.517236 0.367963 0.543777
O O9 0.250000 0.075931 0.577905
O O10 0.484226 0.132662 0.619641
O O11 0.500000 0.000000 0.583313
O O12 0.250000 0.660480 0.681521
O O13 0.487778 0.739756 0.671479
O O14 0.480785 0.628455 0.734391
O O15 0.750000 0.795615 0.649306
O O16 0.928364 0.748162 0.582080
O O17 0.500000 0.500000 0.893331
O O18 0.250000 0.425782 0.881559
O O19 0.500025 0.398957 0.831485
O O20 0.500000 0.500000 0.769799
O O21 0.750000 0.425552 0.781342
O O22 0.750000 0.815043 0.021366
#
# Coordination Sequence:
#
# PCOD9377951 Si02
#       8
#     8   8   8   8   8   8   8   8
#     4   8  15  27  42  57  77 105 136 163 193 230
#     4  10  18  27  39  58  80 103 131 162 193 231
#     4   9  16  26  39  58  81 106 133 161 191 228
#     4   9  18  29  41  56  76 102 134 166 197 230
#     4   8  15  26  40  56  76 101 130 160 193 231
#     4  10  18  28  41  58  79 105 135 167 197 228
#     4  10  19  30  41  56  78 104 133 167 200 231
#     4   8  14  27  42  55  74 102 130 160 194 229
#
# _framework density 14.063003999999999
#
# number of rings (size 3 to 8) (size 9 to 14) (size 15 to 20)
#    0.000    3.000    0.000    4.125    0.000    2.000 
#    0.000    3.750    0.000    0.000    0.000    0.000 
#    0.000    1.000    0.000    9.000    0.000    5.750 
#
# Total GULP energy -178145.555829 kJ/mol
# GULP energy per Si atom -5567.048620 kJ/mol
# Density = 1.403100 g / cm^3
# Si number density = 14.063004 Si / 1000 Ang^3
#
#
#
# Elastic Constant Matrix: (Units=GPa)
#
#
# Indices 1 2 3 4 5 6 
#
# 1 28.8972 30.4241 25.1231 0.0000 0.0000 0.0000
# 2 30.4241 123.9076 66.2887 0.0000 0.0000 0.0000
# 3 25.1231 66.2887 95.4601 0.0000 0.0000 0.0000
# 4 0.0000 0.0000 0.0000 27.6384 0.0000 0.0000
# 5 0.0000 0.0000 0.0000 0.0000 15.6892 0.0000
# 6 0.0000 0.0000 0.0000 0.0000 0.0000 23.7291
#
#
#
# Elastic Compliance Matrix: (Units=1/GPa)
#
#
# Indices 1 2 3 4 5 6 
#
# 1 0.049696 -0.008282 -0.007328 0.000000 0.000000 0.000000
# 2 -0.008282 0.014221 -0.007696 0.000000 0.000000 0.000000
# 3 -0.007328 -0.007696 0.017748 0.000000 0.000000 0.000000
# 4 0.000000 0.000000 0.000000 0.036182 0.000000 0.000000
# 5 0.000000 0.000000 0.000000 0.000000 0.063738 0.000000
# 6 0.000000 0.000000 0.000000 0.000000 0.000000 0.042142
#
#
# Mechanical properties :
#
#
# Convention : Reuss Voigt Hill
#
# Bulk Modulus (GPa) = 28.52739 54.65965 41.59352
# Shear Modulus (GPa) = 17.72909 21.83995 19.78452
#
# Velocity S-wave (km/s) = 3.55447 3.94510 3.75487
# Velocity P-wave (km/s) = 6.09714 7.72682 6.95985
#
# Compressibility (1/GPa) = 0.03505403
#
# Stress axis : x y z
#
# Youngs Moduli (GPa) = 20.12249 70.31773 56.34401
#
# Poissons Ratio (x) = 0.58237 0.41288
# Poissons Ratio (y) = 0.16665 0.43361
# Poissons Ratio (z) = 0.14745 0.54115
#
# Static dielectric constant tensor:
#      x y z
#    x 1.478320 0.000000 0.000000 
#    y 0.000000 1.460380 0.000000 
#    z 0.000000 0.000000 1.460300 
# 
# From -- ./inp_files/24398.got.cif
#   From: 2010.05.17/outbox.cif.g08.bks.cpg/sg46_13_cif.got.tgz:24398.got - 2010.06.03 19:58:25.
