data_PCOD9377901
_publ_section_title
;
Structure prediction by ZEFSAII (Michael W. Deem and Ramdas Pophale) SiO2 
 PCOD9377901
Probable space group: I M A 2
;
_chemical_formula_sum "Si O2"
_cell_formula_units_Z 64
_cell_length_a 20.879720
_cell_length_b 16.412103
_cell_length_c 9.348370
_cell_angle_alpha 90.000000
_cell_angle_beta 90.000000
_cell_angle_gamma 90.000000
_cell_volume 3203.500509
_symmetry_space_group_name_H-M "I M A 2"
_symmetry_group_IT_number 46
_symmetry_cell_setting 'orthorhombic'
loop_
_space_group_symop_operation_xyz
x,y,z
-x,-y,z
1/2-x,y,z
1/2+x,-y,z
1/2+x,1/2+y,1/2+z
1/2-x,1/2-y,1/2+z
-x,1/2+y,1/2+z
x,1/2-y,1/2+z
loop_
_atom_site_type_symbol
_atom_site_label
_atom_site_fract_x
_atom_site_fract_y
_atom_site_fract_z
Si Si1 0.677932 0.329564 0.210870
Si Si2 0.179246 0.219822 0.757588
Si Si3 0.624591 0.302421 0.905611
Si Si4 0.505221 0.087818 0.380491
Si Si5 0.548967 0.799095 0.614674
Si Si6 0.044531 0.105073 0.067879
Si Si7 0.820403 0.635229 0.556094
Si Si8 0.446407 0.647063 0.352993
O O1 0.750000 0.354951 0.245579
O O2 0.664529 0.239006 0.277485
O O3 0.666510 0.324899 0.041889
O O4 0.619867 0.118015 0.780327
O O5 0.250000 0.190636 0.709099
O O6 0.116956 0.179799 0.686885
O O7 0.175926 0.313590 0.704248
O O8 0.176746 0.201438 0.926327
O O9 0.576719 0.375664 0.868411
O O10 0.578156 0.225467 0.943769
O O11 0.464040 0.150760 0.472317
O O12 0.476011 0.079301 0.224167
O O13 0.500000 0.000000 0.453658
O O14 0.549188 0.703842 0.577502
O O15 0.492495 0.819845 0.727004
O O16 0.117431 0.079197 0.037276
O O17 0.989198 0.090196 0.952242
O O18 0.750000 0.596230 0.547960
#
# Coordination Sequence:
#
# PCOD9377901 Si02
#       8
#     8   8   8   8   8   8   8   8
#     4  10  19  31  56  90 117 144 194 255 305 348
#     4   9  18  28  46  80 112 140 182 232 277 322
#     4  10  18  34  51  81 117 150 180 241 292 349
#     4  12  24  37  55  88 122 153 190 243 298 358
#     4  11  17  34  56  81 107 149 188 239 283 329
#     4  11  18  33  57  81 109 153 190 239 288 331
#     4   9  18  28  45  79 115 141 183 235 278 323
#     4  10  17  31  55  84 107 136 195 238 290 326
#
# _framework density 19.978145000000001
#
# number of rings (size 3 to 8) (size 9 to 14) (size 15 to 20)
#    0.750    1.000    5.000    1.125    5.250    0.000 
#    0.000    0.625    0.000    3.000    0.000    0.000 
#    0.000    0.000    0.000    0.000    0.000    0.000 
#
# Total GULP energy -178221.892761 kJ/mol
# GULP energy per Si atom -5569.434149 kJ/mol
# Density = 1.993267 g / cm^3
# Si number density = 19.978145 Si / 1000 Ang^3
#
#
#
# Elastic Constant Matrix: (Units=GPa)
#
#
# Indices 1 2 3 4 5 6 
#
# 1 178.5933 3.6376 27.7617 0.0000 0.0000 0.0000
# 2 3.6376 40.3070 -2.9863 0.0000 0.0000 0.0000
# 3 27.7617 -2.9863 53.2267 0.0000 0.0000 0.0000
# 4 0.0000 0.0000 0.0000 -19.6846 0.0000 0.0000
# 5 0.0000 0.0000 0.0000 0.0000 30.6433 0.0000
# 6 0.0000 0.0000 0.0000 0.0000 0.0000 -0.2017
#
#
#
# Elastic Compliance Matrix: (Units=1/GPa)
#
#
# Indices 1 2 3 4 5 6 
#
# 1 0.006118 -0.000792 -0.003236 0.000000 0.000000 0.000000
# 2 -0.000792 0.025016 0.001817 0.000000 0.000000 0.000000
# 3 -0.003236 0.001817 0.020577 0.000000 0.000000 0.000000
# 4 0.000000 0.000000 0.000000 -0.050801 0.000000 0.000000
# 5 0.000000 0.000000 0.000000 0.000000 0.032634 0.000000
# 6 0.000000 0.000000 0.000000 0.000000 0.000000 -4.958254
#
#
# Mechanical properties :
#
#
# Convention : Reuss Voigt Hill
#
# Bulk Modulus (GPa) = 21.14651 36.55034 28.84842
# Shear Modulus (GPa) = -1.01947 18.39900 8.68977
#
# Velocity S-wave (km/s) = -0.71512 3.03802 2.08784
# Velocity P-wave (km/s) = 3.15055 5.53543 4.50371
#
# Compressibility (1/GPa) = 0.04728913
#
# Stress axis : x y z
#
# Youngs Moduli (GPa) = 163.44113 39.97501 48.59774
#
# Poissons Ratio (x) = 0.03166 0.15724
# Poissons Ratio (y) = 0.12943 -0.08828
# Poissons Ratio (z) = 0.52884 -0.07262
#
# Static dielectric constant tensor:
#      x y z
#    x 1.783740 0.000000 0.000000 
#    y 0.000000 1.690440 0.000000 
#    z 0.000000 0.000000 1.730640 
# 
# From -- ./inp_files/7629.got.cif
#   From: 2010.05.17/outbox.cif.g08.bks.cpg/sg46_4_cif.got.tgz:7629.got - 2010.06.03 19:58:25.
