data_PCOD9377170
_publ_section_title
;
Structure prediction by ZEFSAII (Michael W. Deem and Ramdas Pophale) SiO2 
 PCOD9377170
Probable space group: I B A 2
;
_chemical_formula_sum "Si O2"
_cell_formula_units_Z 48
_cell_length_a 10.266443
_cell_length_b 15.615557
_cell_length_c 11.607794
_cell_angle_alpha 90.000000
_cell_angle_beta 90.000000
_cell_angle_gamma 90.000000
_cell_volume 1860.917725
_symmetry_space_group_name_H-M "I B A 2"
_symmetry_group_IT_number 45
_symmetry_cell_setting 'orthorhombic'
loop_
_space_group_symop_operation_xyz
x,y,z
-x,-y,z
-x,y,1/2+z
x,-y,1/2+z
1/2+x,1/2+y,1/2+z
1/2-x,1/2-y,1/2+z
1/2-x,1/2+y,z
1/2+x,1/2-y,z
loop_
_atom_site_type_symbol
_atom_site_label
_atom_site_fract_x
_atom_site_fract_y
_atom_site_fract_z
Si Si1 0.847297 0.318540 0.778500
Si Si2 0.783497 0.964533 0.654485
Si Si3 0.421461 0.145233 0.402437
Si Si4 0.500000 0.000000 0.582100
Si Si5 0.172714 0.870575 0.742466
Si Si6 0.000000 0.000000 0.465406
Si Si7 0.357947 0.667700 0.973273
O O1 0.750969 0.366874 0.690179
O O2 0.894216 0.221688 0.761073
O O3 0.979218 0.368926 0.796896
O O4 0.771056 0.326343 0.897756
O O5 0.640039 0.007950 0.644283
O O6 0.876510 0.967586 0.544158
O O7 0.857426 0.027669 0.744884
O O8 0.283885 0.135971 0.339722
O O9 0.424253 0.239526 0.460309
O O10 0.463544 0.079009 0.498925
O O11 0.182037 0.857589 0.602682
O O12 0.052396 0.908113 0.421395
#
# Coordination Sequence:
#
# PCOD9377170 Si02
#       7
#     8   8   8   4   8   4   8
#     4  11  24  41  66  96 127 170 219 273 332 395
#     4  11  24  42  67  97 132 170 215 273 331 394
#     4  11  23  40  67  95 127 171 217 272 334 394
#     4  12  24  42  70 100 132 170 216 274 334 396
#     4  10  23  41  60  92 129 167 214 267 322 390
#     4  10  24  42  66  92 128 176 214 268 328 392
#     4  10  24  42  64  93 129 170 218 268 326 396
#
# _framework density 25.793723
#
# number of rings (size 3 to 8) (size 9 to 14) (size 15 to 20)
#    0.000    1.333    0.000    5.000    0.000   14.000 
#    0.000    0.000    0.000    0.000    0.000    0.000 
#    0.000    0.000    0.000    0.000    0.000    0.000 
#
# Total GULP energy -133768.721211 kJ/mol
# GULP energy per Si atom -5573.696717 kJ/mol
# Density = 2.573502 g / cm^3
# Si number density = 25.793723 Si / 1000 Ang^3
#
#
#
# Elastic Constant Matrix: (Units=GPa)
#
#
# Indices 1 2 3 4 5 6 
#
# 1 85.5636 31.7842 14.0077 0.0000 0.0000 0.0000
# 2 31.7842 181.1298 43.7434 -0.0001 0.0000 0.0000
# 3 14.0077 43.7434 38.7914 -0.0003 0.0001 0.0001
# 4 0.0000 -0.0001 -0.0003 37.7172 0.0000 0.0000
# 5 0.0000 0.0000 0.0001 0.0000 20.4749 0.0000
# 6 0.0000 0.0000 0.0001 0.0000 0.0000 36.0519
#
#
#
# Elastic Compliance Matrix: (Units=1/GPa)
#
#
# Indices 1 2 3 4 5 6 
#
# 1 0.012728 -0.001544 -0.002855 0.000000 0.000000 0.000000
# 2 -0.001544 0.007774 -0.008209 0.000000 0.000000 0.000000
# 3 -0.002855 -0.008209 0.036067 0.000000 0.000000 0.000000
# 4 0.000000 0.000000 0.000000 0.026513 0.000000 0.000000
# 5 0.000000 0.000000 0.000000 0.000000 0.048840 0.000000
# 6 0.000000 0.000000 0.000000 0.000000 0.000000 0.027738
#
#
# Mechanical properties :
#
#
# Convention : Reuss Voigt Hill
#
# Bulk Modulus (GPa) = 31.89494 53.83949 42.86722
# Shear Modulus (GPa) = 25.59785 33.24542 29.42163
#
# Velocity S-wave (km/s) = 3.15367 3.59401 3.38102
# Velocity P-wave (km/s) = 5.06488 6.17584 5.64774
#
# Compressibility (1/GPa) = 0.03135294
#
# Stress axis : x y z
#
# Youngs Moduli (GPa) = 78.56595 128.62704 27.72604
#
# Poissons Ratio (x) = 0.19860 0.07916
# Poissons Ratio (y) = 0.12131 0.22761
# Poissons Ratio (z) = 0.22431 1.05594
#
# Static dielectric constant tensor:
#      x y z
#    x 2.087680 0.000000 0.000000 
#    y 0.000000 2.100230 0.000000 
#    z 0.000000 0.000000 2.066060 
# 
# From -- ./inp_files/3708.got.cif
#   From: 2010.05.17/outbox.cif.g08.bks.cpg/sg45_2_cif.got.tgz:3708.got - 2010.06.03 19:51:22.
