data_PCOD9377265
_publ_section_title
;
Structure prediction by ZEFSAII (Michael W. Deem and Ramdas Pophale) SiO2 
 PCOD9377265
Probable space group: I B A 2
;
_chemical_formula_sum "Si O2"
_cell_formula_units_Z 48
_cell_length_a 5.330731
_cell_length_b 27.265077
_cell_length_c 13.415079
_cell_angle_alpha 90.000000
_cell_angle_beta 90.000000
_cell_angle_gamma 90.000000
_cell_volume 1949.785026
_symmetry_space_group_name_H-M "I B A 2"
_symmetry_group_IT_number 45
_symmetry_cell_setting 'orthorhombic'
loop_
_space_group_symop_operation_xyz
x,y,z
-x,-y,z
-x,y,1/2+z
x,-y,1/2+z
1/2+x,1/2+y,1/2+z
1/2-x,1/2-y,1/2+z
1/2-x,1/2+y,z
1/2+x,1/2-y,z
loop_
_atom_site_type_symbol
_atom_site_label
_atom_site_fract_x
_atom_site_fract_y
_atom_site_fract_z
Si Si1 0.068689 0.653309 0.461530
Si Si2 0.382554 0.277716 0.828786
Si Si3 0.195073 0.678527 0.135472
Si Si4 0.000000 0.000000 0.979083
Si Si5 0.380765 0.895276 0.275129
Si Si6 0.428278 0.403202 0.094645
Si Si7 0.000000 0.500000 0.844603
O O1 0.285725 0.676704 0.393130
O O2 0.183003 0.610504 0.530207
O O3 0.972863 0.693969 0.541196
O O4 0.875840 0.628251 0.384502
O O5 0.667065 0.262916 0.849767
O O6 0.345863 0.286634 0.709962
O O7 0.386546 0.641827 0.083192
O O8 0.026444 0.645477 0.209930
O O9 0.024682 0.046771 0.050347
O O10 0.751795 0.000930 0.910999
O O11 0.129351 0.904234 0.212574
O O12 0.501760 0.949152 0.282949
#
# Coordination Sequence:
#
# PCOD9377265 Si02
#       7
#     8   8   8   4   8   8   4
#     4  10  23  48  70 101 142 192 236 291 369 428
#     4  11  28  47  74 108 140 179 239 298 360 436
#     4  10  25  44  73 100 145 187 237 296 364 428
#     4  12  28  44  72 108 144 192 252 292 340 434
#     4  10  24  42  68 101 141 193 239 295 354 423
#     4  11  25  43  73 101 147 195 239 298 355 424
#     4  12  26  44  68 102 146 188 248 296 348 414
#
# _framework density 24.618098
#
# number of rings (size 3 to 8) (size 9 to 14) (size 15 to 20)
#    0.000    1.333    1.667    1.000   16.333    2.667 
#    0.000    0.000    0.000    0.000    0.000    0.000 
#    0.000    0.000    0.000    0.000    0.000    0.000 
#
# Total GULP energy -134192.109359 kJ/mol
# GULP energy per Si atom -5591.337890 kJ/mol
# Density = 2.456207 g / cm^3
# Si number density = 24.618098 Si / 1000 Ang^3
#
#
#
# Elastic Constant Matrix: (Units=GPa)
#
#
# Indices 1 2 3 4 5 6 
#
# 1 64.5806 -7.0845 14.8081 0.0000 0.0000 0.0000
# 2 -7.0845 37.3687 0.6063 0.0000 0.0000 0.0000
# 3 14.8081 0.6063 119.1524 0.0000 0.0000 0.0000
# 4 0.0000 0.0000 0.0000 32.3528 0.0000 0.0000
# 5 0.0000 0.0000 0.0000 0.0000 26.8405 0.0000
# 6 0.0000 0.0000 0.0000 0.0000 0.0000 32.8344
#
#
#
# Elastic Compliance Matrix: (Units=1/GPa)
#
#
# Indices 1 2 3 4 5 6 
#
# 1 0.016295 0.003122 -0.002041 0.000000 0.000000 0.000000
# 2 0.003122 0.027361 -0.000527 0.000000 0.000000 0.000000
# 3 -0.002041 -0.000527 0.008649 0.000000 0.000000 0.000000
# 4 0.000000 0.000000 0.000000 0.030909 0.000000 0.000000
# 5 0.000000 0.000000 0.000000 0.000000 0.037257 0.000000
# 6 0.000000 0.000000 0.000000 0.000000 0.000000 0.030456
#
#
# Mechanical properties :
#
#
# Convention : Reuss Voigt Hill
#
# Bulk Modulus (GPa) = 18.72198 26.41793 22.56995
# Shear Modulus (GPa) = 29.82880 32.59034 31.20957
#
# Velocity S-wave (km/s) = 3.48467 3.64240 3.56441
# Velocity P-wave (km/s) = 4.87976 5.33328 5.11155
#
# Compressibility (1/GPa) = 0.05341316
#
# Stress axis : x y z
#
# Youngs Moduli (GPa) = 61.36833 36.54849 115.62092
#
# Poissons Ratio (x) = -0.11412 0.23598
# Poissons Ratio (y) = -0.19162 0.06096
# Poissons Ratio (z) = 0.12525 0.01927
#
# Static dielectric constant tensor:
#      x y z
#    x 2.134820 0.000000 0.000000 
#    y 0.000000 1.948770 0.000000 
#    z 0.000000 0.000000 1.957740 
# 
# From -- ./inp_files/5197.got.cif
#   From: 2010.05.17/outbox.cif.g08.bks.cpg/sg45_3_cif.got.tgz:5197.got - 2010.06.03 19:51:22.
