data_PCOD9377546
_publ_section_title
;
Structure prediction by ZEFSAII (Michael W. Deem and Ramdas Pophale) SiO2 
 PCOD9377546
Probable space group: I B A 2
;
_chemical_formula_sum "Si O2"
_cell_formula_units_Z 60
_cell_length_a 14.809457
_cell_length_b 17.175055
_cell_length_c 11.573460
_cell_angle_alpha 90.000000
_cell_angle_beta 90.000000
_cell_angle_gamma 90.000000
_cell_volume 2943.747032
_symmetry_space_group_name_H-M "I B A 2"
_symmetry_group_IT_number 45
_symmetry_cell_setting 'orthorhombic'
loop_
_space_group_symop_operation_xyz
x,y,z
-x,-y,z
-x,y,1/2+z
x,-y,1/2+z
1/2+x,1/2+y,1/2+z
1/2-x,1/2-y,1/2+z
1/2-x,1/2+y,z
1/2+x,1/2-y,z
loop_
_atom_site_type_symbol
_atom_site_label
_atom_site_fract_x
_atom_site_fract_y
_atom_site_fract_z
Si Si1 0.178167 0.332144 0.790330
Si Si2 0.244617 0.884231 0.015112
Si Si3 0.490795 0.724035 0.723581
Si Si4 0.056671 0.809516 0.966843
Si Si5 0.686746 0.798491 0.732121
Si Si6 0.828793 0.532368 0.623924
Si Si7 0.589306 0.873835 0.915168
Si Si8 0.500000 0.000000 0.278357
O O1 0.088727 0.287331 0.745931
O O2 0.253862 0.266002 0.793051
O O3 0.210659 0.398939 0.702625
O O4 0.180369 0.370121 0.916742
O O5 0.146671 0.862621 0.964475
O O6 0.263833 0.823335 0.116927
O O7 0.261223 0.967930 0.073959
O O8 0.476965 0.681044 0.600197
O O9 0.586224 0.767854 0.707884
O O10 0.500408 0.676992 0.846550
O O11 0.071005 0.714953 0.955388
O O12 0.670395 0.867098 0.822727
O O13 0.877063 0.574882 0.518884
O O14 0.911317 0.499173 0.699803
O O15 0.508879 0.922303 0.855385
#
# Coordination Sequence:
#
# PCOD9377546 Si02
#       8
#     8   8   8   8   8   8   8   4
#     4  12  24  43  69 101 134 187 234 294 359 438
#     4  12  24  43  66 100 142 186 230 298 356 436
#     4  11  22  41  71  99 135 174 238 290 345 425
#     4  11  23  43  70 102 135 186 245 285 355 432
#     4  11  23  42  66  98 133 180 237 282 349 435
#     4  12  25  38  64  98 142 181 225 290 373 436
#     4  11  22  41  60  98 143 182 224 279 358 455
#     4  12  24  38  62 106 150 182 220 290 376 446
#
# _framework density 20.382186000000001
#
# number of rings (size 3 to 8) (size 9 to 14) (size 15 to 20)
#    0.000    0.533    6.667    3.600    0.000    3.200 
#    0.000    0.000    0.000    0.800    3.467    0.000 
#    0.000    0.000    0.000    0.000    0.000    0.000 
#
# Total GULP energy -167278.381945 kJ/mol
# GULP energy per Si atom -5575.946065 kJ/mol
# Density = 2.033580 g / cm^3
# Si number density = 20.382186 Si / 1000 Ang^3
#
#
#
# Elastic Constant Matrix: (Units=GPa)
#
#
# Indices 1 2 3 4 5 6 
#
# 1 51.2626 32.1474 8.5431 0.0000 0.0000 0.0000
# 2 32.1474 55.0180 12.9945 0.0000 0.0000 0.0000
# 3 8.5431 12.9945 129.2629 0.0000 0.0000 0.0000
# 4 0.0000 0.0000 0.0000 27.6455 0.0000 0.0000
# 5 0.0000 0.0000 0.0000 0.0000 21.7047 0.0000
# 6 0.0000 0.0000 0.0000 0.0000 0.0000 41.8966
#
#
#
# Elastic Compliance Matrix: (Units=1/GPa)
#
#
# Indices 1 2 3 4 5 6 
#
# 1 0.030796 -0.017940 -0.000232 0.000000 0.000000 0.000000
# 2 -0.017940 0.029068 -0.001737 0.000000 0.000000 0.000000
# 3 -0.000232 -0.001737 0.007926 0.000000 0.000000 0.000000
# 4 0.000000 0.000000 0.000000 0.036172 0.000000 0.000000
# 5 0.000000 0.000000 0.000000 0.000000 0.046073 0.000000
# 6 0.000000 0.000000 0.000000 0.000000 0.000000 0.023868
#
#
# Mechanical properties :
#
#
# Convention : Reuss Voigt Hill
#
# Bulk Modulus (GPa) = 35.74702 38.10151 36.92426
# Shear Modulus (GPa) = 22.41700 30.37326 26.39513
#
# Velocity S-wave (km/s) = 3.31997 3.86448 3.60253
# Velocity P-wave (km/s) = 5.68091 6.21662 5.95479
#
# Compressibility (1/GPa) = 0.02797436
#
# Stress axis : x y z
#
# Youngs Moduli (GPa) = 32.47156 34.40178 126.16600
#
# Poissons Ratio (x) = 0.61716 0.02926
# Poissons Ratio (y) = 0.58253 0.21909
# Poissons Ratio (z) = 0.00753 0.05974
#
# Static dielectric constant tensor:
#      x y z
#    x 1.734580 0.000000 0.000000 
#    y 0.000000 1.736580 0.000000 
#    z 0.000000 0.000000 1.849140 
# 
# From -- ./inp_files/4257.got.cif
#   From: 2010.05.17/outbox.cif.g08.bks.cpg/sg45_3_cif.got.tgz:4257.got - 2010.06.03 19:51:22.
