data_PCOD9377033
_publ_section_title
;
Structure prediction by ZEFSAII (Michael W. Deem and Ramdas Pophale) SiO2 
 PCOD9377033
Probable space group: I B A 2
;
_chemical_formula_sum "Si O2"
_cell_formula_units_Z 36
_cell_length_a 11.506543
_cell_length_b 4.836149
_cell_length_c 26.875519
_cell_angle_alpha 90.000000
_cell_angle_beta 90.000000
_cell_angle_gamma 90.000000
_cell_volume 1495.551585
_symmetry_space_group_name_H-M "I B A 2"
_symmetry_group_IT_number 45
_symmetry_cell_setting 'orthorhombic'
loop_
_space_group_symop_operation_xyz
x,y,z
-x,-y,z
-x,y,1/2+z
x,-y,1/2+z
1/2+x,1/2+y,1/2+z
1/2-x,1/2-y,1/2+z
1/2-x,1/2+y,z
1/2+x,1/2-y,z
loop_
_atom_site_type_symbol
_atom_site_label
_atom_site_fract_x
_atom_site_fract_y
_atom_site_fract_z
Si Si1 0.500000 0.000000 0.596730
Si Si2 0.328589 0.900852 0.012420
Si Si3 0.168080 0.365191 0.902718
Si Si4 0.500000 0.500000 0.663163
Si Si5 0.500000 0.000000 0.820618
Si Si6 0.667476 0.346343 0.250027
O O1 0.408615 0.143306 0.559593
O O2 0.549164 0.247543 0.630429
O O3 0.212644 0.717128 0.014184
O O4 0.382219 0.832008 0.958377
O O5 0.220143 0.670963 0.898463
O O6 0.080302 0.325014 0.858199
O O7 0.400876 0.362170 0.697717
O O8 0.575545 0.789781 0.787651
O O9 0.718651 0.653529 0.255395
#
# Coordination Sequence:
#
# PCOD9377033 Si02
#       6
#     4   8   8   4   4   8
#     4  12  24  42  70 100 128 176 230 280 340 410
#     4  10  22  41  65  99 139 175 218 272 334 405
#     4  10  23  41  65 100 139 178 219 271 336 406
#     4  12  28  46  68  98 132 176 234 288 352 406
#     4  12  24  44  72 100 134 180 232 280 340 412
#     4  12  27  47  69  97 135 178 229 290 348 407
#
# _framework density 24.071387000000001
#
# number of rings (size 3 to 8) (size 9 to 14) (size 15 to 20)
#    0.000    0.889    0.000    6.667    0.000    9.778 
#    0.000    6.667    0.000    0.000    0.000    0.000 
#    0.000    0.000    0.000    0.000    0.000    0.000 
#
# Total GULP energy -100730.992998 kJ/mol
# GULP energy per Si atom -5596.166278 kJ/mol
# Density = 2.401660 g / cm^3
# Si number density = 24.071387 Si / 1000 Ang^3
#
#
#
# Elastic Constant Matrix: (Units=GPa)
#
#
# Indices 1 2 3 4 5 6 
#
# 1 63.1259 1.4856 55.9333 0.0000 0.0000 0.0000
# 2 1.4856 76.5227 41.4988 0.0000 0.0000 0.0000
# 3 55.9333 41.4988 174.1783 0.0000 0.0000 0.0000
# 4 0.0000 0.0000 0.0000 31.3879 0.0000 0.0000
# 5 0.0000 0.0000 0.0000 0.0000 41.5044 0.0000
# 6 0.0000 0.0000 0.0000 0.0000 0.0000 30.9493
#
#
#
# Elastic Compliance Matrix: (Units=1/GPa)
#
#
# Indices 1 2 3 4 5 6 
#
# 1 0.023223 0.004127 -0.008441 0.000000 0.000000 0.000000
# 2 0.004127 0.015740 -0.005075 0.000000 0.000000 0.000000
# 3 -0.008441 -0.005075 0.009661 0.000000 0.000000 0.000000
# 4 0.000000 0.000000 0.000000 0.031859 0.000000 0.000000
# 5 0.000000 0.000000 0.000000 0.000000 0.024094 0.000000
# 6 0.000000 0.000000 0.000000 0.000000 0.000000 0.032311
#
#
# Mechanical properties :
#
#
# Convention : Reuss Voigt Hill
#
# Bulk Modulus (GPa) = 33.50578 56.85136 45.17857
# Shear Modulus (GPa) = 30.19024 35.09560 32.64292
#
# Velocity S-wave (km/s) = 3.54530 3.82249 3.68651
# Velocity P-wave (km/s) = 5.54152 6.56894 6.07699
#
# Compressibility (1/GPa) = 0.02984560
#
# Stress axis : x y z
#
# Youngs Moduli (GPa) = 43.06020 63.53106 103.50839
#
# Poissons Ratio (x) = -0.26217 0.87370
# Poissons Ratio (y) = -0.17770 0.52535
# Poissons Ratio (z) = 0.36346 0.32245
#
# Static dielectric constant tensor:
#      x y z
#    x 1.915090 0.000000 0.000000 
#    y 0.000000 1.881750 0.000000 
#    z 0.000000 0.000000 1.918980 
# 
# From -- ./inp_files/9391.got.cif
#   From: 2010.05.17/outbox.cif.g08.bks.cpg/sg45_5_cif.got.tgz:9391.got - 2010.06.03 19:51:22.
