data_PCOD9377037
_publ_section_title
;
Structure prediction by ZEFSAII (Michael W. Deem and Ramdas Pophale) SiO2 
 PCOD9377037
Probable space group: I B A 2
;
_chemical_formula_sum "Si O2"
_cell_formula_units_Z 48
_cell_length_a 15.503107
_cell_length_b 9.796006
_cell_length_c 13.229693
_cell_angle_alpha 90.000000
_cell_angle_beta 90.000000
_cell_angle_gamma 90.000000
_cell_volume 2009.174018
_symmetry_space_group_name_H-M "I B A 2"
_symmetry_group_IT_number 45
_symmetry_cell_setting 'orthorhombic'
loop_
_space_group_symop_operation_xyz
x,y,z
-x,-y,z
-x,y,1/2+z
x,-y,1/2+z
1/2+x,1/2+y,1/2+z
1/2-x,1/2-y,1/2+z
1/2-x,1/2+y,z
1/2+x,1/2-y,z
loop_
_atom_site_type_symbol
_atom_site_label
_atom_site_fract_x
_atom_site_fract_y
_atom_site_fract_z
Si Si1 0.979013 0.651462 0.096870
Si Si2 0.907122 0.066126 0.609788
Si Si3 0.644138 0.915349 0.775699
Si Si4 0.267222 0.379320 0.007468
Si Si5 0.733193 0.647669 0.768777
Si Si6 0.149220 0.384763 0.515830
O O1 0.927523 0.784980 0.059939
O O2 0.937932 0.621717 0.206681
O O3 0.000000 0.500000 0.047638
O O4 0.078206 0.691511 0.082627
O O5 0.849192 0.090421 0.709283
O O6 0.848545 0.965537 0.544751
O O7 0.000000 0.000000 0.632371
O O8 0.723221 0.810044 0.753399
O O9 0.626606 0.893285 0.895518
O O10 0.679347 0.064903 0.746784
O O11 0.273848 0.382465 0.887072
O O12 0.182137 0.462730 0.041121
O O13 0.270680 0.219231 0.031734
#
# Coordination Sequence:
#
# PCOD9377037 Si02
#       6
#     8   8   8   8   8   8
#     4  11  25  41  62  98 133 172 210 271 326 382
#     4  11  23  41  63  96 129 170 216 264 325 383
#     4   9  21  43  67  94 127 168 220 263 323 381
#     4  10  22  41  67  94 127 170 218 268 319 383
#     4   9  21  40  65  94 125 168 215 265 317 385
#     4  10  22  43  68  95 127 170 218 266 322 387
#
# _framework density 23.890414
#
# number of rings (size 3 to 8) (size 9 to 14) (size 15 to 20)
#    0.000    2.000    1.667    0.000    4.667    4.000 
#    3.000    0.000    0.000    0.000    0.000    0.000 
#    0.000    0.000    0.000    0.000    0.000    0.000 
#
# Total GULP energy -133786.071911 kJ/mol
# GULP energy per Si atom -5574.419663 kJ/mol
# Density = 2.383604 g / cm^3
# Si number density = 23.890414 Si / 1000 Ang^3
#
#
#
# Elastic Constant Matrix: (Units=GPa)
#
#
# Indices 1 2 3 4 5 6 
#
# 1 98.5725 27.1032 18.1191 0.0000 0.0000 0.0000
# 2 27.1032 144.9272 17.5248 0.0000 0.0000 0.0000
# 3 18.1191 17.5248 58.8190 0.0000 0.0000 0.0000
# 4 0.0000 0.0000 0.0000 27.3880 0.0000 0.0000
# 5 0.0000 0.0000 0.0000 0.0000 29.8298 0.0000
# 6 0.0000 0.0000 0.0000 0.0000 0.0000 44.2927
#
#
#
# Elastic Compliance Matrix: (Units=1/GPa)
#
#
# Indices 1 2 3 4 5 6 
#
# 1 0.011158 -0.001734 -0.002921 0.000000 0.000000 0.000000
# 2 -0.001734 0.007427 -0.001679 0.000000 0.000000 0.000000
# 3 -0.002921 -0.001679 0.018401 0.000000 0.000000 0.000000
# 4 0.000000 0.000000 0.000000 0.036512 0.000000 0.000000
# 5 0.000000 0.000000 0.000000 0.000000 0.033524 0.000000
# 6 0.000000 0.000000 0.000000 0.000000 0.000000 0.022577
#
#
# Mechanical properties :
#
#
# Convention : Reuss Voigt Hill
#
# Bulk Modulus (GPa) = 41.11783 47.53477 44.32630
# Shear Modulus (GPa) = 33.25064 36.27355 34.76210
#
# Velocity S-wave (km/s) = 3.73473 3.90080 3.81867
# Velocity P-wave (km/s) = 5.98715 6.34260 6.16744
#
# Compressibility (1/GPa) = 0.02432035
#
# Stress axis : x y z
#
# Youngs Moduli (GPa) = 89.61887 134.63977 54.34406
#
# Poissons Ratio (x) = 0.23341 0.15873
# Poissons Ratio (y) = 0.15536 0.09124
# Poissons Ratio (z) = 0.26176 0.22604
#
# Static dielectric constant tensor:
#      x y z
#    x 2.331110 0.000000 0.000000 
#    y 0.000000 2.088670 0.000000 
#    z 0.000000 0.000000 1.912120 
# 
# From -- ./inp_files/6479.got.cif
#   From: 2010.05.17/outbox.cif.g08.bks.cpg/sg45_4_cif.got.tgz:6479.got - 2010.06.03 19:51:22.
