data_PCOD9377267
_publ_section_title
;
Structure prediction by ZEFSAII (Michael W. Deem and Ramdas Pophale) SiO2 
 PCOD9377267
Probable space group: I B A 2
;
_chemical_formula_sum "Si O2"
_cell_formula_units_Z 40
_cell_length_a 11.158878
_cell_length_b 8.611790
_cell_length_c 15.962738
_cell_angle_alpha 90.000000
_cell_angle_beta 90.000000
_cell_angle_gamma 90.000000
_cell_volume 1533.985823
_symmetry_space_group_name_H-M "I B A 2"
_symmetry_group_IT_number 45
_symmetry_cell_setting 'orthorhombic'
loop_
_space_group_symop_operation_xyz
x,y,z
-x,-y,z
-x,y,1/2+z
x,-y,1/2+z
1/2+x,1/2+y,1/2+z
1/2-x,1/2-y,1/2+z
1/2-x,1/2+y,z
1/2+x,1/2-y,z
loop_
_atom_site_type_symbol
_atom_site_label
_atom_site_fract_x
_atom_site_fract_y
_atom_site_fract_z
Si Si1 0.872295 0.719051 0.236950
Si Si2 0.500000 0.500000 0.391174
Si Si3 0.000000 0.000000 0.145458
Si Si4 0.000000 0.500000 0.865353
Si Si5 0.184865 0.250000 0.878264
Si Si6 0.000000 0.500000 0.611070
Si Si7 0.127706 0.219051 0.519578
O O1 0.755913 0.772090 0.289811
O O2 0.895022 0.588608 0.164516
O O3 0.946686 0.636624 0.309447
O O4 0.934951 0.869982 0.199713
O O5 0.612302 0.592826 0.355095
O O6 0.446683 0.636623 0.447081
O O7 0.895022 0.088609 0.092012
O O8 0.887697 0.592823 0.901432
O O9 0.255912 0.227910 0.966718
O O10 0.065049 0.369981 0.556815
#
# Coordination Sequence:
#
# PCOD9377267 Si02
#       7
#     8   4   4   4   8   4   8
#     4  10  23  48  79 111 153 202 245 312 385 449
#     4  11  26  45  72 111 148 193 264 319 364 453
#     4   9  22  49  80 119 160 191 246 305 384 483
#     4  11  26  45  72 111 148 193 264 319 364 453
#     4  12  26  48  78 108 150 204 260 320 374 434
#     4   9  22  49  80 119 160 191 246 305 384 483
#     4  10  23  48  79 111 153 202 245 312 385 449
#
# _framework density 26.075861
#
# number of rings (size 3 to 8) (size 9 to 14) (size 15 to 20)
#    0.000    1.600    0.000    2.400    0.000   11.200 
#    0.000   42.000    0.000    4.800    0.000    0.000 
#    0.000    0.000    0.000    0.000    0.000    0.000 
#
# Total GULP energy -111590.714098 kJ/mol
# GULP energy per Si atom -5579.535705 kJ/mol
# Density = 2.601651 g / cm^3
# Si number density = 26.075861 Si / 1000 Ang^3
#
#
#
# Elastic Constant Matrix: (Units=GPa)
#
#
# Indices 1 2 3 4 5 6 
#
# 1 101.5758 70.7324 76.2460 0.0000 0.0000 0.0000
# 2 70.7324 209.8222 101.8559 0.0000 0.0000 0.0000
# 3 76.2460 101.8559 116.0559 0.0000 0.0000 0.0000
# 4 0.0000 0.0000 0.0000 73.5489 0.0000 0.0000
# 5 0.0000 0.0000 0.0000 0.0000 17.6753 0.0000
# 6 0.0000 0.0000 0.0000 0.0000 0.0000 46.6721
#
#
#
# Elastic Compliance Matrix: (Units=1/GPa)
#
#
# Indices 1 2 3 4 5 6 
#
# 1 0.019469 -0.000617 -0.012249 0.000000 0.000000 0.000000
# 2 -0.000617 0.008323 -0.006900 0.000000 0.000000 0.000000
# 3 -0.012249 -0.006900 0.022720 0.000000 0.000000 0.000000
# 4 0.000000 0.000000 0.000000 0.013596 0.000000 0.000000
# 5 0.000000 0.000000 0.000000 0.000000 0.056576 0.000000
# 6 0.000000 0.000000 0.000000 0.000000 0.000000 0.021426
#
#
# Mechanical properties :
#
#
# Convention : Reuss Voigt Hill
#
# Bulk Modulus (GPa) = 91.07292 102.79139 96.93216
# Shear Modulus (GPa) = 26.98291 39.48723 33.23507
#
# Velocity S-wave (km/s) = 3.22030 3.89565 3.57396
# Velocity P-wave (km/s) = 6.98778 7.72920 7.36782
#
# Compressibility (1/GPa) = 0.01098021
#
# Stress axis : x y z
#
# Youngs Moduli (GPa) = 51.36309 120.14598 44.01491
#
# Poissons Ratio (x) = 0.07411 0.53916
# Poissons Ratio (y) = 0.03168 0.30369
# Poissons Ratio (z) = 0.62917 0.82896
#
# Static dielectric constant tensor:
#      x y z
#    x 2.304160 0.000000 0.000000 
#    y 0.000000 2.018240 0.000000 
#    z 0.000000 0.000000 2.125090 
# 
# From -- ./inp_files/7858.got.cif
#   From: 2010.05.17/outbox.cif.g08.bks.cpg/sg45_4_cif.got.tgz:7858.got - 2010.06.03 19:51:22.
