data_PCOD9377783
_publ_section_title
;
Structure prediction by ZEFSAII (Michael W. Deem and Ramdas Pophale) SiO2 
 PCOD9377783
Probable space group: I M A 2
;
_chemical_formula_sum "Si O2"
_cell_formula_units_Z 48
_cell_length_a 28.490002
_cell_length_b 23.290850
_cell_length_c 4.927767
_cell_angle_alpha 90.000000
_cell_angle_beta 90.000000
_cell_angle_gamma 90.000000
_cell_volume 3269.851149
_symmetry_space_group_name_H-M "I M A 2"
_symmetry_group_IT_number 46
_symmetry_cell_setting 'orthorhombic'
loop_
_space_group_symop_operation_xyz
x,y,z
-x,-y,z
1/2-x,y,z
1/2+x,-y,z
1/2+x,1/2+y,1/2+z
1/2-x,1/2-y,1/2+z
-x,1/2+y,1/2+z
x,1/2-y,1/2+z
loop_
_atom_site_type_symbol
_atom_site_label
_atom_site_fract_x
_atom_site_fract_y
_atom_site_fract_z
Si Si1 0.974316 0.288360 0.619840
Si Si2 0.048164 0.037645 0.428119
Si Si3 0.020227 0.099052 0.917818
Si Si4 0.612155 0.365564 0.700236
Si Si5 0.695222 0.211594 0.389350
Si Si6 0.082212 0.566141 0.222971
O O1 0.979332 0.233955 0.424048
O O2 0.922562 0.316171 0.587058
O O3 0.010272 0.338141 0.533247
O O4 0.041834 0.092544 0.621516
O O5 0.084919 0.995354 0.573954
O O6 0.050803 0.061021 0.124742
O O7 0.000000 0.000000 0.430624
O O8 0.968108 0.071694 0.875508
O O9 0.660453 0.338040 0.797413
O O10 0.616691 0.412980 0.462100
O O11 0.586398 0.390927 0.967205
O O12 0.750000 0.195915 0.359243
O O13 0.686761 0.233587 0.693497
#
# Coordination Sequence:
#
# PCOD9377783 Si02
#       6
#     8   8   8   8   8   8
#     4  11  19  27  37  52  73  97 125 157 194 229
#     4  10  16  27  40  53  72  93 118 149 187 236
#     4  10  18  27  38  53  72  97 122 149 188 233
#     4  11  19  30  42  59  78  97 126 166 209 246
#     4  10  20  33  47  61  78 105 137 168 209 258
#     4  10  19  28  42  60  75  95 122 157 203 244
#
# _framework density 14.679569000000001
#
# number of rings (size 3 to 8) (size 9 to 14) (size 15 to 20)
#    0.000    1.667    0.000   11.500    0.000    0.000 
#    0.000    0.000    0.000    0.000    0.000    0.000 
#    0.000    0.000    0.000    0.000    0.000    0.000 
#
# Total GULP energy -133737.427538 kJ/mol
# GULP energy per Si atom -5572.392814 kJ/mol
# Density = 1.464616 g / cm^3
# Si number density = 14.679569 Si / 1000 Ang^3
#
#
#
# Elastic Constant Matrix: (Units=GPa)
#
#
# Indices 1 2 3 4 5 6 
#
# 1 18.7423 17.7877 4.7828 0.0000 0.0000 0.0000
# 2 17.7877 44.5280 8.8252 0.0000 0.0000 0.0000
# 3 4.7828 8.8252 72.2257 0.0000 0.0000 0.0000
# 4 0.0000 0.0000 0.0000 32.3477 0.0000 0.0000
# 5 0.0000 0.0000 0.0000 0.0000 12.2265 0.0000
# 6 0.0000 0.0000 0.0000 0.0000 0.0000 16.0287
#
#
#
# Elastic Compliance Matrix: (Units=1/GPa)
#
#
# Indices 1 2 3 4 5 6 
#
# 1 0.086101 -0.034091 -0.001536 0.000000 0.000000 0.000000
# 2 -0.034091 0.036513 -0.002204 0.000000 0.000000 0.000000
# 3 -0.001536 -0.002204 0.014217 0.000000 0.000000 0.000000
# 4 0.000000 0.000000 0.000000 0.030914 0.000000 0.000000
# 5 0.000000 0.000000 0.000000 0.000000 0.081790 0.000000
# 6 0.000000 0.000000 0.000000 0.000000 0.000000 0.062388
#
#
# Mechanical properties :
#
#
# Convention : Reuss Voigt Hill
#
# Bulk Modulus (GPa) = 16.34808 22.03193 19.19000
# Shear Modulus (GPa) = 12.25569 19.06060 15.65815
#
# Velocity S-wave (km/s) = 2.89257 3.60730 3.26952
# Velocity P-wave (km/s) = 4.72406 5.69134 5.23011
#
# Compressibility (1/GPa) = 0.06116927
#
# Stress axis : x y z
#
# Youngs Moduli (GPa) = 11.61422 27.38765 70.34074
#
# Poissons Ratio (x) = 0.93366 0.10805
# Poissons Ratio (y) = 0.39594 0.15503
# Poissons Ratio (z) = 0.01784 0.06036
#
# Static dielectric constant tensor:
#      x y z
#    x 1.467200 0.000000 0.000000 
#    y 0.000000 1.527270 0.000000 
#    z 0.000000 0.000000 1.523120 
# 
# From -- ./inp_files/2769.got.cif
#   From: 2010.05.17/outbox.cif.g08.bks.cpg/sg46_2_cif.got.tgz:2769.got - 2010.06.03 19:58:25.
