data_PCOD9377849
_publ_section_title
;
Structure prediction by ZEFSAII (Michael W. Deem and Ramdas Pophale) SiO2 
 PCOD9377849
Probable space group: I M A 2
;
_chemical_formula_sum "Si O2"
_cell_formula_units_Z 48
_cell_length_a 8.671242
_cell_length_b 9.206112
_cell_length_c 32.316979
_cell_angle_alpha 90.000000
_cell_angle_beta 90.000000
_cell_angle_gamma 90.000000
_cell_volume 2579.813535
_symmetry_space_group_name_H-M "I M A 2"
_symmetry_group_IT_number 46
_symmetry_cell_setting 'orthorhombic'
loop_
_space_group_symop_operation_xyz
x,y,z
-x,-y,z
1/2-x,y,z
1/2+x,-y,z
1/2+x,1/2+y,1/2+z
1/2-x,1/2-y,1/2+z
-x,1/2+y,1/2+z
x,1/2-y,1/2+z
loop_
_atom_site_type_symbol
_atom_site_label
_atom_site_fract_x
_atom_site_fract_y
_atom_site_fract_z
Si Si1 0.934689 0.164420 0.370390
Si Si2 0.434511 0.663932 0.700081
Si Si3 0.065789 0.334766 0.786102
Si Si4 0.435484 0.162080 0.622160
Si Si5 0.934502 0.661336 0.539324
Si Si6 0.565305 0.163619 0.462080
O O1 0.750000 0.159576 0.365555
O O2 0.972314 0.224334 0.416017
O O3 0.008138 0.233480 0.329283
O O4 0.000000 0.000000 0.372016
O O5 0.500000 0.500000 0.695852
O O6 0.250000 0.657883 0.701541
O O7 0.498743 0.727371 0.743456
O O8 0.492935 0.756405 0.661471
O O9 0.250000 0.338806 0.784873
O O10 0.000000 0.500000 0.786562
O O11 0.250000 0.160279 0.625839
O O12 0.477164 0.247573 0.580208
O O13 0.500000 0.000000 0.619875
O O14 0.750000 0.656037 0.536967
O O15 0.000000 0.500000 0.542632
O O16 0.998660 0.739797 0.498636
O O17 0.750000 0.156205 0.465194
O O18 0.500000 0.000000 0.465466
#
# Coordination Sequence:
#
# PCOD9377849 Si02
#       6
#     8   8   8   8   8   8
#     4   9  16  27  45  73 107 143 181 224 270 318
#     4  11  21  35  56  82 113 148 185 229 275 325
#     4  10  17  27  46  74 108 144 182 226 271 320
#     4  11  24  41  60  84 111 143 181 224 273 328
#     4  11  24  40  60  83 111 144 182 226 274 328
#     4  10  20  34  55  82 114 148 186 229 275 325
#
# _framework density 18.605996000000001
#
# number of rings (size 3 to 8) (size 9 to 14) (size 15 to 20)
#    0.000    1.667    0.000    8.000    0.000    7.333 
#    0.000    0.000    0.000    1.000    0.000    2.333 
#    0.000    0.000    0.000    0.000    0.000    0.000 
#
# Total GULP energy -134004.104416 kJ/mol
# GULP energy per Si atom -5583.504351 kJ/mol
# Density = 1.856365 g / cm^3
# Si number density = 18.605996 Si / 1000 Ang^3
#
#
#
# Elastic Constant Matrix: (Units=GPa)
#
#
# Indices 1 2 3 4 5 6 
#
# 1 124.9168 41.7409 94.8483 0.0000 0.0000 0.0000
# 2 41.7409 83.8044 81.0232 0.0000 0.0000 0.0000
# 3 94.8483 81.0232 233.6718 0.0000 0.0000 0.0000
# 4 0.0000 0.0000 0.0000 24.4280 0.0000 0.0000
# 5 0.0000 0.0000 0.0000 0.0000 32.3856 0.0000
# 6 0.0000 0.0000 0.0000 0.0000 0.0000 25.1013
#
#
#
# Elastic Compliance Matrix: (Units=1/GPa)
#
#
# Indices 1 2 3 4 5 6 
#
# 1 0.011763 -0.001869 -0.004127 0.000000 0.000000 0.000000
# 2 -0.001869 0.018247 -0.005568 0.000000 0.000000 0.000000
# 3 -0.004127 -0.005568 0.007885 0.000000 0.000000 0.000000
# 4 0.000000 0.000000 0.000000 0.040937 0.000000 0.000000
# 5 0.000000 0.000000 0.000000 0.000000 0.030878 0.000000
# 6 0.000000 0.000000 0.000000 0.000000 0.000000 0.039839
#
#
# Mechanical properties :
#
#
# Convention : Reuss Voigt Hill
#
# Bulk Modulus (GPa) = 67.71741 97.51308 82.61525
# Shear Modulus (GPa) = 28.15329 31.36836 29.76083
#
# Velocity S-wave (km/s) = 3.89412 4.11046 4.00375
# Velocity P-wave (km/s) = 7.52950 8.66320 8.11617
#
# Compressibility (1/GPa) = 0.01476725
#
# Stress axis : x y z
#
# Youngs Moduli (GPa) = 85.01062 54.80352 126.81995
#
# Poissons Ratio (x) = 0.10245 0.52333
# Poissons Ratio (y) = 0.15892 0.70615
# Poissons Ratio (z) = 0.35080 0.30516
#
# Static dielectric constant tensor:
#      x y z
#    x 1.620170 0.000000 0.000000 
#    y 0.000000 1.618200 0.000000 
#    z 0.000000 0.000000 1.692130 
# 
# From -- ./inp_files/24999.got.cif
#   From: 2010.05.17/outbox.cif.g08.bks.cpg/sg46_13_cif.got.tgz:24999.got - 2010.06.03 19:58:25.
