data_PCOD9378487
_publ_section_title
;
Structure prediction by ZEFSAII (Michael W. Deem and Ramdas Pophale) SiO2 
 PCOD9378487
Probable space group: I M A 2
;
_chemical_formula_sum "Si O2"
_cell_formula_units_Z 64
_cell_length_a 9.724928
_cell_length_b 26.080217
_cell_length_c 14.271987
_cell_angle_alpha 90.000000
_cell_angle_beta 90.000000
_cell_angle_gamma 90.000000
_cell_volume 3619.778838
_symmetry_space_group_name_H-M "I M A 2"
_symmetry_group_IT_number 46
_symmetry_cell_setting 'orthorhombic'
loop_
_space_group_symop_operation_xyz
x,y,z
-x,-y,z
1/2-x,y,z
1/2+x,-y,z
1/2+x,1/2+y,1/2+z
1/2-x,1/2-y,1/2+z
-x,1/2+y,1/2+z
x,1/2-y,1/2+z
loop_
_atom_site_type_symbol
_atom_site_label
_atom_site_fract_x
_atom_site_fract_y
_atom_site_fract_z
Si Si1 0.589892 0.768502 0.728900
Si Si2 0.914647 0.662765 0.829795
Si Si3 0.596319 0.907889 0.071811
Si Si4 0.411971 0.049186 0.271858
Si Si5 0.901301 0.324466 0.515067
Si Si6 0.094536 0.859439 0.805160
Si Si7 0.407481 0.271485 0.006305
Si Si8 0.088962 0.449147 0.358919
O O1 0.750000 0.776242 0.760133
O O2 0.548609 0.710763 0.761413
O O3 0.482588 0.808660 0.770770
O O4 0.588578 0.778875 0.617753
O O5 0.750000 0.658468 0.819525
O O6 0.964288 0.605075 0.808174
O O7 0.943567 0.682365 0.935685
O O8 0.750000 0.884877 0.078584
O O9 0.581210 0.945935 0.158575
O O10 0.486965 0.862560 0.079897
O O11 0.585759 0.933604 0.969660
O O12 0.250000 0.043164 0.296687
O O13 0.500000 0.000000 0.302319
O O14 0.750000 0.312310 0.551892
O O15 0.888770 0.353502 0.416647
O O16 0.988092 0.274532 0.491327
O O17 0.250000 0.866061 0.766287
O O18 0.987991 0.906252 0.796887
O O19 0.250000 0.256491 0.982577
O O20 0.250000 0.454751 0.334473
O O21 0.000000 0.500000 0.348625
#
# Coordination Sequence:
#
# PCOD9378487 Si02
#       8
#     8   8   8   8   8   8   8   8
#     4  10  19  33  55  79 101 134 178 219 268 326
#     4   9  18  33  53  77 106 137 174 221 269 325
#     4   9  18  31  49  72 103 141 179 216 259 318
#     4  10  20  35  53  75 104 140 181 224 270 318
#     4  10  19  30  47  74 106 138 169 209 260 312
#     4  10  20  33  49  72 105 139 170 211 261 314
#     4  10  19  32  53  76 102 138 177 216 262 319
#     4  10  19  31  49  73 102 139 179 220 265 318
#
# _framework density 17.680638999999999
#
# number of rings (size 3 to 8) (size 9 to 14) (size 15 to 20)
#    0.000    2.250    1.250    2.250    0.000    4.500 
#    0.000    1.250    0.000    0.750    0.000    1.750 
#    0.000    0.000    0.000    0.000    0.000    0.000 
#
# Total GULP energy -178172.824588 kJ/mol
# GULP energy per Si atom -5567.900768 kJ/mol
# Density = 1.764040 g / cm^3
# Si number density = 17.680639 Si / 1000 Ang^3
#
#
#
# Elastic Constant Matrix: (Units=GPa)
#
#
# Indices 1 2 3 4 5 6 
#
# 1 125.2402 76.6208 17.1279 0.0000 0.0000 0.0000
# 2 76.6208 133.8620 27.5312 0.0000 0.0000 0.0000
# 3 17.1279 27.5312 55.7197 0.0000 0.0000 0.0001
# 4 0.0000 0.0000 0.0000 18.9332 0.0000 0.0000
# 5 0.0000 0.0000 0.0000 0.0000 10.8670 0.0000
# 6 0.0000 0.0000 0.0001 0.0000 0.0000 5.4790
#
#
#
# Elastic Compliance Matrix: (Units=1/GPa)
#
#
# Indices 1 2 3 4 5 6 
#
# 1 0.012293 -0.006967 -0.000336 0.000000 0.000000 0.000000
# 2 -0.006967 0.012264 -0.003918 0.000000 0.000000 0.000000
# 3 -0.000336 -0.003918 0.019986 0.000000 0.000000 0.000000
# 4 0.000000 0.000000 0.000000 0.052817 0.000000 0.000000
# 5 0.000000 0.000000 0.000000 0.000000 0.092022 0.000000
# 6 0.000000 0.000000 0.000000 0.000000 0.000000 0.182515
#
#
# Mechanical properties :
#
#
# Convention : Reuss Voigt Hill
#
# Bulk Modulus (GPa) = 45.24815 61.93129 53.58972
# Shear Modulus (GPa) = 12.44685 19.95863 16.20274
#
# Velocity S-wave (km/s) = 2.65614 3.36347 3.03051
# Velocity P-wave (km/s) = 5.92067 7.08433 6.52847
#
# Compressibility (1/GPa) = 0.02210035
#
# Stress axis : x y z
#
# Youngs Moduli (GPa) = 81.34599 81.53825 50.03435
#
# Poissons Ratio (x) = 0.56810 0.01683
# Poissons Ratio (y) = 0.56676 0.19604
# Poissons Ratio (z) = 0.02736 0.31947
#
# Static dielectric constant tensor:
#      x y z
#    x 1.630600 0.000000 0.000000 
#    y 0.000000 1.611440 0.000000 
#    z 0.000000 0.000000 1.640650 
# 
# From -- ./inp_files/14541.got.cif
#   From: 2010.05.17/outbox.cif.g08.bks.cpg/sg46_8_cif.got.tgz:14541.got - 2010.06.03 19:58:25.
