data_PCOD9378061
_publ_section_title
;
Structure prediction by ZEFSAII (Michael W. Deem and Ramdas Pophale) SiO2 
 PCOD9378061
Probable space group: I M A 2
;
_chemical_formula_sum "Si O2"
_cell_formula_units_Z 64
_cell_length_a 9.416807
_cell_length_b 25.132147
_cell_length_c 13.762962
_cell_angle_alpha 90.000000
_cell_angle_beta 90.000000
_cell_angle_gamma 90.000000
_cell_volume 3257.205591
_symmetry_space_group_name_H-M "I M A 2"
_symmetry_group_IT_number 46
_symmetry_cell_setting 'orthorhombic'
loop_
_space_group_symop_operation_xyz
x,y,z
-x,-y,z
1/2-x,y,z
1/2+x,-y,z
1/2+x,1/2+y,1/2+z
1/2-x,1/2-y,1/2+z
-x,1/2+y,1/2+z
x,1/2-y,1/2+z
loop_
_atom_site_type_symbol
_atom_site_label
_atom_site_fract_x
_atom_site_fract_y
_atom_site_fract_z
Si Si1 0.919626 0.133517 0.191680
Si Si2 0.409900 0.450459 0.017291
Si Si3 0.579397 0.167026 0.722636
Si Si4 0.421784 0.729098 0.818228
Si Si5 0.583843 0.054894 0.021949
Si Si6 0.582980 0.054632 0.793238
Si Si7 0.419710 0.660008 0.005105
Si Si8 0.593079 0.547313 0.788759
O O1 0.750000 0.127534 0.202960
O O2 0.952778 0.193728 0.222021
O O3 0.959275 0.104606 0.090596
O O4 0.002624 0.099583 0.271594
O O5 0.500000 0.500000 0.058809
O O6 0.250000 0.445879 0.058543
O O7 0.496926 0.395568 0.014033
O O8 0.391932 0.462830 0.902664
O O9 0.750000 0.163054 0.737726
O O10 0.524477 0.211421 0.797524
O O11 0.526456 0.106790 0.737698
O O12 0.559801 0.185492 0.611620
O O13 0.250000 0.732267 0.826014
O O14 0.467086 0.697761 0.915847
O O15 0.750000 0.044780 0.041982
O O16 0.500000 0.000000 0.037093
O O17 0.571020 0.068149 0.908036
O O18 0.750000 0.046722 0.770409
O O19 0.500000 0.000000 0.777101
O O20 0.250000 0.649317 0.992591
O O21 0.500000 0.500000 0.745916
O O22 0.750000 0.550730 0.745504
#
# Coordination Sequence:
#
# PCOD9378061 Si02
#       8
#     8   8   8   8   8   8   8   8
#     4  10  18  29  47  72 104 139 176 213 258 311
#     4  10  20  33  51  76 108 144 182 221 267 321
#     4   9  19  34  55  83 107 134 175 219 264 316
#     4   9  18  32  51  77 107 136 171 217 262 308
#     4   9  18  30  47  72 101 136 172 213 258 305
#     4   9  18  35  56  77 103 132 170 217 265 313
#     4  10  19  34  56  79 107 142 180 224 270 318
#     4  10  19  29  44  68 100 139 177 214 257 308
#
# _framework density 19.648745000000002
#
# number of rings (size 3 to 8) (size 9 to 14) (size 15 to 20)
#    0.000    2.500    1.250    1.125    0.000    4.000 
#    0.000    6.875    0.000    3.000    0.000    1.750 
#    0.000    0.000    0.000    0.000    0.000    0.000 
#
# Total GULP energy -178230.364826 kJ/mol
# GULP energy per Si atom -5569.698901 kJ/mol
# Density = 1.960402 g / cm^3
# Si number density = 19.648745 Si / 1000 Ang^3
#
#
#
# Elastic Constant Matrix: (Units=GPa)
#
#
# Indices 1 2 3 4 5 6 
#
# 1 27.2560 35.8146 17.3353 0.0000 0.0000 0.0000
# 2 35.8146 138.5999 44.5620 0.0000 0.0000 0.0000
# 3 17.3353 44.5620 84.0097 -0.0001 0.0000 0.0000
# 4 0.0000 0.0000 -0.0001 28.4275 0.0000 0.0000
# 5 0.0000 0.0000 0.0000 0.0000 5.6248 0.0000
# 6 0.0000 0.0000 0.0000 0.0000 0.0000 16.1594
#
#
#
# Elastic Compliance Matrix: (Units=1/GPa)
#
#
# Indices 1 2 3 4 5 6 
#
# 1 0.057093 -0.013220 -0.004769 0.000000 0.000000 0.000000
# 2 -0.013220 0.011759 -0.003510 0.000000 0.000000 0.000000
# 3 -0.004769 -0.003510 0.014749 0.000000 0.000000 0.000000
# 4 0.000000 0.000000 0.000000 0.035177 0.000000 0.000000
# 5 0.000000 0.000000 0.000000 0.000000 0.177784 0.000000
# 6 0.000000 0.000000 0.000000 0.000000 0.000000 0.061883
#
#
# Mechanical properties :
#
#
# Convention : Reuss Voigt Hill
#
# Bulk Modulus (GPa) = 24.62752 49.47661 37.05206
# Shear Modulus (GPa) = 12.04882 20.18593 16.11737
#
# Velocity S-wave (km/s) = 2.47900 3.20869 2.86715
# Velocity P-wave (km/s) = 4.55576 6.24202 5.46433
#
# Compressibility (1/GPa) = 0.04060499
#
# Stress axis : x y z
#
# Youngs Moduli (GPa) = 17.51525 85.03769 67.80045
#
# Poissons Ratio (x) = 1.12418 0.32333
# Poissons Ratio (y) = 0.23155 0.23797
# Poissons Ratio (z) = 0.08353 0.29847
#
# Static dielectric constant tensor:
#      x y z
#    x 1.702710 0.000000 0.000000 
#    y 0.000000 1.679830 0.000000 
#    z 0.000000 0.000000 1.748650 
# 
# From -- ./inp_files/14556.got.cif
#   From: 2010.05.17/outbox.cif.g08.bks.cpg/sg46_8_cif.got.tgz:14556.got - 2010.06.03 19:58:25.
