data_PCOD9378579
_publ_section_title
;
Structure prediction by ZEFSAII (Michael W. Deem and Ramdas Pophale) SiO2 
 PCOD9378579
Probable space group: I M A 2
;
_chemical_formula_sum "Si O2"
_cell_formula_units_Z 64
_cell_length_a 8.570832
_cell_length_b 28.537381
_cell_length_c 15.159873
_cell_angle_alpha 90.000000
_cell_angle_beta 90.000000
_cell_angle_gamma 90.000000
_cell_volume 3707.939667
_symmetry_space_group_name_H-M "I M A 2"
_symmetry_group_IT_number 46
_symmetry_cell_setting 'orthorhombic'
loop_
_space_group_symop_operation_xyz
x,y,z
-x,-y,z
1/2-x,y,z
1/2+x,-y,z
1/2+x,1/2+y,1/2+z
1/2-x,1/2-y,1/2+z
-x,1/2+y,1/2+z
x,1/2-y,1/2+z
loop_
_atom_site_type_symbol
_atom_site_label
_atom_site_fract_x
_atom_site_fract_y
_atom_site_fract_z
Si Si1 0.563111 0.134960 0.214180
Si Si2 0.561623 0.218354 0.903199
Si Si3 0.437899 0.634263 0.274086
Si Si4 0.939233 0.323590 0.094082
Si Si5 0.439276 0.826184 0.395656
Si Si6 0.436850 0.051987 0.094820
Si Si7 0.064464 0.218783 0.096823
Si Si8 0.063533 0.051832 0.893728
O O1 0.750000 0.131647 0.214004
O O2 0.506985 0.141713 0.315084
O O3 0.495921 0.090382 0.163305
O O4 0.513472 0.181583 0.161723
O O5 0.750000 0.217489 0.914507
O O6 0.518832 0.180789 0.829390
O O7 0.517519 0.271722 0.879301
O O8 0.483801 0.206466 0.996486
O O9 0.250000 0.630887 0.275490
O O10 0.487642 0.642319 0.173119
O O11 0.505093 0.589668 0.324081
O O12 0.750000 0.320691 0.094359
O O13 0.002266 0.271385 0.111948
O O14 0.989805 0.337877 0.995348
O O15 0.250000 0.827787 0.395324
O O16 0.250000 0.051024 0.096172
O O17 0.500000 0.000000 0.113916
O O18 0.487553 0.064262 0.994188
O O19 0.250000 0.217156 0.106229
O O20 0.250000 0.050624 0.892965
O O21 0.000000 0.000000 0.874728
#
# Coordination Sequence:
#
# PCOD9378579 Si02
#       8
#     8   8   8   8   8   8   8   8
#     4  11  20  32  52  75  99 132 169 206 247 295
#     4   9  17  31  49  71 100 134 168 202 242 296
#     4  10  19  31  53  78  99 128 167 205 247 296
#     4   9  18  35  53  70  97 134 171 207 245 292
#     4   8  16  31  51  72  96 130 172 207 239 282
#     4  10  21  37  55  78 104 131 160 197 245 296
#     4  11  21  31  45  71 104 136 169 207 247 291
#     4  10  21  36  54  75 103 131 159 197 244 296
#
# _framework density 17.260259999999999
#
# number of rings (size 3 to 8) (size 9 to 14) (size 15 to 20)
#    0.000    2.250    0.000    4.500    0.000    6.500 
#    0.000    7.500    0.000    0.750    0.000    0.000 
#    0.000    0.000    0.000    0.000    0.000    0.000 
#
# Total GULP energy -178587.063454 kJ/mol
# GULP energy per Si atom -5580.845733 kJ/mol
# Density = 1.722097 g / cm^3
# Si number density = 17.260260 Si / 1000 Ang^3
#
#
#
# Elastic Constant Matrix: (Units=GPa)
#
#
# Indices 1 2 3 4 5 6 
#
# 1 31.2402 26.4390 33.8370 0.0000 0.0000 0.0000
# 2 26.4390 98.4946 104.9293 0.0000 0.0000 0.0000
# 3 33.8370 104.9293 156.8474 0.0002 -0.0001 0.0000
# 4 0.0000 0.0000 0.0002 30.4464 0.0000 0.0000
# 5 0.0000 0.0000 -0.0001 0.0000 13.5020 0.0000
# 6 0.0000 0.0000 0.0000 0.0000 0.0000 27.0812
#
#
#
# Elastic Compliance Matrix: (Units=1/GPa)
#
#
# Indices 1 2 3 4 5 6 
#
# 1 0.042681 -0.005735 -0.005371 0.000000 0.000000 0.000000
# 2 -0.005735 0.036109 -0.022919 0.000000 0.000000 0.000000
# 3 -0.005371 -0.022919 0.022867 0.000000 0.000000 0.000000
# 4 0.000000 0.000000 0.000000 0.032845 0.000000 0.000000
# 5 0.000000 0.000000 0.000000 0.000000 0.074063 0.000000
# 6 0.000000 0.000000 0.000000 0.000000 0.000000 0.036926
#
#
# Mechanical properties :
#
#
# Convention : Reuss Voigt Hill
#
# Bulk Modulus (GPa) = 29.75615 68.55477 49.15546
# Shear Modulus (GPa) = 15.39679 22.29772 18.84726
#
# Velocity S-wave (km/s) = 2.98994 3.59814 3.30804
# Velocity P-wave (km/s) = 5.40340 7.55424 6.56747
#
# Compressibility (1/GPa) = 0.03360650
#
# Stress axis : x y z
#
# Youngs Moduli (GPa) = 23.42955 27.69410 43.73111
#
# Poissons Ratio (x) = 0.15883 0.23488
# Poissons Ratio (y) = 0.13437 1.00228
# Poissons Ratio (z) = 0.12584 0.63473
#
# Static dielectric constant tensor:
#      x y z
#    x 1.586630 0.000000 0.000000 
#    y 0.000000 1.550820 0.000000 
#    z 0.000000 0.000000 1.608640 
# 
# From -- ./inp_files/14757.got.cif
#   From: 2010.05.17/outbox.cif.g08.bks.cpg/sg46_8_cif.got.tgz:14757.got - 2010.06.03 19:58:25.
