data_PCOD9378963
_publ_section_title
;
Structure prediction by ZEFSAII (Michael W. Deem and Ramdas Pophale) SiO2 
 PCOD9378963
Probable space group: I M A 2
;
_chemical_formula_sum "Si O2"
_cell_formula_units_Z 40
_cell_length_a 7.847525
_cell_length_b 18.121431
_cell_length_c 13.089486
_cell_angle_alpha 90.000000
_cell_angle_beta 90.000000
_cell_angle_gamma 90.000000
_cell_volume 1861.434636
_symmetry_space_group_name_H-M "I M A 2"
_symmetry_group_IT_number 46
_symmetry_cell_setting 'orthorhombic'
loop_
_space_group_symop_operation_xyz
x,y,z
-x,-y,z
1/2-x,y,z
1/2+x,-y,z
1/2+x,1/2+y,1/2+z
1/2-x,1/2-y,1/2+z
-x,1/2+y,1/2+z
x,1/2-y,1/2+z
loop_
_atom_site_type_symbol
_atom_site_label
_atom_site_fract_x
_atom_site_fract_y
_atom_site_fract_z
Si Si1 0.952375 0.914708 0.165710
Si Si2 0.554466 0.415448 0.881178
Si Si3 0.541951 0.829662 0.963336
Si Si4 0.543732 0.912167 0.755964
Si Si5 0.557225 0.677899 0.058920
O O1 0.750000 0.907063 0.176662
O O2 0.031825 0.881154 0.268550
O O3 0.004863 0.880074 0.059321
O O4 0.000000 0.000000 0.160938
O O5 0.500000 0.500000 0.871060
O O6 0.750000 0.409953 0.912807
O O7 0.440444 0.380397 0.967737
O O8 0.750000 0.825433 0.954745
O O9 0.484892 0.868720 0.858370
O O10 0.479454 0.749380 0.001820
O O11 0.750000 0.910453 0.754038
O O12 0.482332 0.864646 0.657327
O O13 0.500000 0.000000 0.754108
O O14 0.750000 0.700162 0.089587
#
# Coordination Sequence:
#
# PCOD9378963 Si02
#       5
#     8   8   8   8   8
#     4  10  19  34  58  85 114 150 190 235 283 343
#     4  11  22  37  57  83 114 150 191 237 288 345
#     4   9  20  36  59  88 115 151 196 238 288 347
#     4  10  21  38  61  88 118 155 198 241 292 352
#     4  10  21  37  60  86 115 150 194 245 290 345
#
# _framework density 21.488800999999999
#
# number of rings (size 3 to 8) (size 9 to 14) (size 15 to 20)
#    0.000    2.000    0.000    4.800    2.800    2.400 
#    0.000    4.000    0.000    0.000    0.000    0.000 
#    0.000    0.000    0.000    0.000    0.000    0.000 
#
# Total GULP energy -111497.880883 kJ/mol
# GULP energy per Si atom -5574.894044 kJ/mol
# Density = 2.143989 g / cm^3
# Si number density = 21.488801 Si / 1000 Ang^3
#
#
#
# Elastic Constant Matrix: (Units=GPa)
#
#
# Indices 1 2 3 4 5 6 
#
# 1 46.1509 -1.6905 2.3211 0.0000 0.0000 0.0000
# 2 -1.6905 128.0908 92.4111 -0.0001 0.0000 0.0000
# 3 2.3211 92.4111 197.2341 -0.0001 0.0000 0.0000
# 4 0.0000 -0.0001 -0.0001 49.3894 0.0000 0.0000
# 5 0.0000 0.0000 0.0000 0.0000 13.7098 0.0000
# 6 0.0000 0.0000 0.0000 0.0000 0.0000 17.7605
#
#
#
# Elastic Compliance Matrix: (Units=1/GPa)
#
#
# Indices 1 2 3 4 5 6 
#
# 1 0.021724 0.000712 -0.000589 0.000000 0.000000 0.000000
# 2 0.000712 0.011817 -0.005545 0.000000 0.000000 0.000000
# 3 -0.000589 -0.005545 0.007675 0.000000 0.000000 0.000000
# 4 0.000000 0.000000 0.000000 0.020247 0.000000 0.000000
# 5 0.000000 0.000000 0.000000 0.000000 0.072941 0.000000
# 6 0.000000 0.000000 0.000000 0.000000 0.000000 0.056305
#
#
# Mechanical properties :
#
#
# Convention : Reuss Voigt Hill
#
# Bulk Modulus (GPa) = 32.92627 61.95103 47.43865
# Shear Modulus (GPa) = 23.62097 34.73423 29.17760
#
# Velocity S-wave (km/s) = 3.31905 4.02479 3.68884
# Velocity P-wave (km/s) = 5.48123 7.10568 6.34565
#
# Compressibility (1/GPa) = 0.03037088
#
# Stress axis : x y z
#
# Youngs Moduli (GPa) = 46.03255 84.62572 130.29246
#
# Poissons Ratio (x) = -0.06023 0.07676
# Poissons Ratio (y) = -0.03276 0.72246
# Poissons Ratio (z) = 0.02712 0.46924
#
# Static dielectric constant tensor:
#      x y z
#    x 1.813640 0.000000 0.000000 
#    y 0.000000 1.852780 0.000000 
#    z 0.000000 0.000000 1.796250 
# 
# From -- ./inp_files/9048.got.cif
#   From: 2010.05.17/outbox.cif.g08.bks.cpg/sg46_5_cif.got.tgz:9048.got - 2010.06.03 19:58:25.
