data_PCOD9378046
_publ_section_title
;
Structure prediction by ZEFSAII (Michael W. Deem and Ramdas Pophale) SiO2 
 PCOD9378046
Probable space group: I M A 2
;
_chemical_formula_sum "Si O2"
_cell_formula_units_Z 48
_cell_length_a 8.420352
_cell_length_b 24.649547
_cell_length_c 14.231248
_cell_angle_alpha 90.000000
_cell_angle_beta 90.000000
_cell_angle_gamma 90.000000
_cell_volume 2953.807414
_symmetry_space_group_name_H-M "I M A 2"
_symmetry_group_IT_number 46
_symmetry_cell_setting 'orthorhombic'
loop_
_space_group_symop_operation_xyz
x,y,z
-x,-y,z
1/2-x,y,z
1/2+x,-y,z
1/2+x,1/2+y,1/2+z
1/2-x,1/2-y,1/2+z
-x,1/2+y,1/2+z
x,1/2-y,1/2+z
loop_
_atom_site_type_symbol
_atom_site_label
_atom_site_fract_x
_atom_site_fract_y
_atom_site_fract_z
Si Si1 0.059816 0.167356 0.611770
Si Si2 0.058023 0.724415 0.930239
Si Si3 0.556733 0.334321 0.534751
Si Si4 0.559339 0.059242 0.928290
Si Si5 0.942095 0.273622 0.717515
Si Si6 0.440491 0.059203 0.715441
O O1 0.250000 0.168901 0.614318
O O2 0.006360 0.108924 0.650040
O O3 0.003308 0.182000 0.507074
O O4 0.995520 0.215080 0.679173
O O5 0.250000 0.722727 0.931716
O O6 0.003076 0.716097 0.823580
O O7 0.010107 0.784262 0.967265
O O8 0.750000 0.335592 0.535091
O O9 0.502077 0.391579 0.493934
O O10 0.505178 0.317411 0.639488
O O11 0.750000 0.058934 0.927636
O O12 0.501608 0.068221 0.821571
O O13 0.500000 0.000000 0.958429
O O14 0.750000 0.273606 0.718193
O O15 0.250000 0.058279 0.717917
O O16 0.500000 0.000000 0.684617
#
# Coordination Sequence:
#
# PCOD9378046 Si02
#       6
#     8   8   8   8   8   8
#     4  10  20  31  45  69  98 122 146 185 234 277
#     4   9  17  30  49  69  89 118 154 189 224 268
#     4   8  15  27  44  67  91 115 146 184 223 263
#     4  10  18  29  46  67  92 120 150 186 226 267
#     4   9  17  31  50  70  91 120 159 191 219 265
#     4  10  20  32  46  66  91 119 151 185 224 270
#
# _framework density 16.250212999999999
#
# number of rings (size 3 to 8) (size 9 to 14) (size 15 to 20)
#    0.000    2.667    0.000    4.500    0.000    4.667 
#    0.000    8.333    0.000    1.000    0.000    4.667 
#    0.000    0.000    0.000    0.000    0.000    0.000 
#
# Total GULP energy -133785.483687 kJ/mol
# GULP energy per Si atom -5574.395154 kJ/mol
# Density = 1.621323 g / cm^3
# Si number density = 16.250213 Si / 1000 Ang^3
#
#
#
# Elastic Constant Matrix: (Units=GPa)
#
#
# Indices 1 2 3 4 5 6 
#
# 1 21.5540 22.0412 19.3060 0.0000 0.0000 0.0000
# 2 22.0412 158.7131 98.7414 0.0000 0.0000 0.0000
# 3 19.3060 98.7414 142.3158 0.0000 0.0000 0.0000
# 4 0.0000 0.0000 0.0000 39.1049 0.0000 0.0000
# 5 0.0000 0.0000 0.0000 0.0000 16.1458 0.0000
# 6 0.0000 0.0000 0.0000 0.0000 0.0000 21.1622
#
#
#
# Elastic Compliance Matrix: (Units=1/GPa)
#
#
# Indices 1 2 3 4 5 6 
#
# 1 0.055230 -0.005294 -0.003819 0.000000 0.000000 0.000000
# 2 -0.005294 0.011593 -0.007326 0.000000 0.000000 0.000000
# 3 -0.003819 -0.007326 0.012627 0.000000 0.000000 0.000000
# 4 0.000000 0.000000 0.000000 0.025572 0.000000 0.000000
# 5 0.000000 0.000000 0.000000 0.000000 0.061936 0.000000
# 6 0.000000 0.000000 0.000000 0.000000 0.000000 0.047254
#
#
# Mechanical properties :
#
#
# Convention : Reuss Voigt Hill
#
# Bulk Modulus (GPa) = 21.47166 66.97333 44.22250
# Shear Modulus (GPa) = 19.03936 27.44888 23.24412
#
# Velocity S-wave (km/s) = 3.42663 4.11437 3.78615
# Velocity P-wave (km/s) = 5.37565 7.99212 6.81071
#
# Compressibility (1/GPa) = 0.04657302
#
# Stress axis : x y z
#
# Youngs Moduli (GPa) = 18.10621 86.25630 79.19337
#
# Poissons Ratio (x) = 0.45663 0.30246
# Poissons Ratio (y) = 0.09585 0.58013
# Poissons Ratio (z) = 0.06915 0.63187
#
# Static dielectric constant tensor:
#      x y z
#    x 1.558660 0.000000 0.000000 
#    y 0.000000 1.539310 0.000000 
#    z 0.000000 0.000000 1.542100 
# 
# From -- ./inp_files/14020.got.cif
#   From: 2010.05.17/outbox.cif.g08.bks.cpg/sg46_8_cif.got.tgz:14020.got - 2010.06.03 19:58:25.
