data_PCOD9378867
_publ_section_title
;
Structure prediction by ZEFSAII (Michael W. Deem and Ramdas Pophale) SiO2 
 PCOD9378867
Probable space group: I M A 2
;
_chemical_formula_sum "Si O2"
_cell_formula_units_Z 56
_cell_length_a 14.030048
_cell_length_b 12.798577
_cell_length_c 14.848379
_cell_angle_alpha 90.000000
_cell_angle_beta 90.000000
_cell_angle_gamma 90.000000
_cell_volume 2666.243973
_symmetry_space_group_name_H-M "I M A 2"
_symmetry_group_IT_number 46
_symmetry_cell_setting 'orthorhombic'
loop_
_space_group_symop_operation_xyz
x,y,z
-x,-y,z
1/2-x,y,z
1/2+x,-y,z
1/2+x,1/2+y,1/2+z
1/2-x,1/2-y,1/2+z
-x,1/2+y,1/2+z
x,1/2-y,1/2+z
loop_
_atom_site_type_symbol
_atom_site_label
_atom_site_fract_x
_atom_site_fract_y
_atom_site_fract_z
Si Si1 0.365185 0.952246 0.793370
Si Si2 0.139592 0.714726 0.780279
Si Si3 0.556268 0.645771 0.823108
Si Si4 0.134084 0.165327 0.702008
Si Si5 0.634041 0.549873 0.478553
Si Si6 0.361206 0.512335 0.678009
Si Si7 0.135518 0.213756 0.498554
O O1 0.250000 0.956775 0.792182
O O2 0.387306 0.834905 0.763190
O O3 0.396827 0.050213 0.733609
O O4 0.395646 0.976770 0.895927
O O5 0.250000 0.710892 0.813089
O O6 0.134296 0.636175 0.695754
O O7 0.055862 0.665611 0.840266
O O8 0.595960 0.747769 0.770573
O O9 0.584932 0.553923 0.754252
O O10 0.604166 0.635809 0.920168
O O11 0.250000 0.170318 0.705292
O O12 0.103309 0.189275 0.599873
O O13 0.750000 0.550297 0.476617
O O14 0.606346 0.512811 0.577669
O O15 0.602868 0.670029 0.469557
O O16 0.250000 0.480604 0.685425
O O17 0.250000 0.215241 0.500912
#
# Coordination Sequence:
#
# PCOD9378867 Si02
#       7
#     8   8   8   8   8   8   8
#     4   9  18  37  61  87 123 168 201 239 297 365
#     4  10  24  43  58  78 121 170 213 247 295 361
#     4  12  21  36  63  91 120 155 204 253 314 359
#     4  10  19  34  61  95 128 154 189 252 316 362
#     4   9  16  31  60  93 122 150 194 244 301 362
#     4  10  20  38  64  93 122 156 195 255 313 363
#     4  10  19  33  58 100 129 147 190 255 319 369
#
# _framework density 21.003328
#
# number of rings (size 3 to 8) (size 9 to 14) (size 15 to 20)
#    0.000    2.000    2.857    1.714    0.000    0.571 
#    2.571    1.429    3.143    6.857    0.000    0.000 
#    0.000    0.000    0.000    0.000    0.000    0.000 
#
# Total GULP energy -156274.661825 kJ/mol
# GULP energy per Si atom -5581.237922 kJ/mol
# Density = 2.095552 g / cm^3
# Si number density = 21.003328 Si / 1000 Ang^3
#
#
#
# Elastic Constant Matrix: (Units=GPa)
#
#
# Indices 1 2 3 4 5 6 
#
# 1 77.6932 26.5078 15.4582 0.0000 0.0000 0.0000
# 2 26.5078 141.4579 56.0946 0.0000 0.0000 0.0000
# 3 15.4582 56.0946 130.8925 0.0000 0.0000 0.0000
# 4 0.0000 0.0000 0.0000 2.8610 0.0000 0.0000
# 5 0.0000 0.0000 0.0000 0.0000 -14.3879 0.0000
# 6 0.0000 0.0000 0.0000 0.0000 0.0000 23.0958
#
#
#
# Elastic Compliance Matrix: (Units=1/GPa)
#
#
# Indices 1 2 3 4 5 6 
#
# 1 0.013793 -0.002336 -0.000628 0.000000 0.000000 0.000000
# 2 -0.002336 0.008912 -0.003543 0.000000 0.000000 0.000000
# 3 -0.000628 -0.003543 0.009233 0.000000 0.000000 0.000000
# 4 0.000000 0.000000 0.000000 0.349529 0.000000 0.000000
# 5 0.000000 0.000000 0.000000 0.000000 -0.069503 0.000000
# 6 0.000000 0.000000 0.000000 0.000000 0.000000 0.043298
#
#
# Mechanical properties :
#
#
# Convention : Reuss Voigt Hill
#
# Bulk Modulus (GPa) = 52.84452 60.68500 56.76476
# Shear Modulus (GPa) = 13.34817 19.11264 16.23041
#
# Velocity S-wave (km/s) = 2.52370 3.01986 2.78286
# Velocity P-wave (km/s) = 5.80575 6.41211 6.11645
#
# Compressibility (1/GPa) = 0.01892344
#
# Stress axis : x y z
#
# Youngs Moduli (GPa) = 72.50067 112.20740 108.31197
#
# Poissons Ratio (x) = 0.26208 0.06802
# Poissons Ratio (y) = 0.16934 0.38380
# Poissons Ratio (z) = 0.04553 0.39760
#
# Static dielectric constant tensor:
#      x y z
#    x 1.829000 0.000000 0.000000 
#    y 0.000000 1.764740 0.000000 
#    z 0.000000 0.000000 1.703880 
# 
# From -- ./inp_files/15962.got.cif
#   From: 2010.05.17/outbox.cif.g08.bks.cpg/sg46_8_cif.got.tgz:15962.got - 2010.06.03 19:58:25.
