data_PCOD9378666
_publ_section_title
;
Structure prediction by ZEFSAII (Michael W. Deem and Ramdas Pophale) SiO2 
 PCOD9378666
Probable space group: I M A 2
;
_chemical_formula_sum "Si O2"
_cell_formula_units_Z 64
_cell_length_a 8.448606
_cell_length_b 18.789005
_cell_length_c 21.822759
_cell_angle_alpha 90.000000
_cell_angle_beta 90.000000
_cell_angle_gamma 90.000000
_cell_volume 3464.164412
_symmetry_space_group_name_H-M "I M A 2"
_symmetry_group_IT_number 46
_symmetry_cell_setting 'orthorhombic'
loop_
_space_group_symop_operation_xyz
x,y,z
-x,-y,z
1/2-x,y,z
1/2+x,-y,z
1/2+x,1/2+y,1/2+z
1/2-x,1/2-y,1/2+z
-x,1/2+y,1/2+z
x,1/2-y,1/2+z
loop_
_atom_site_type_symbol
_atom_site_label
_atom_site_fract_x
_atom_site_fract_y
_atom_site_fract_z
Si Si1 0.058734 0.918878 0.075570
Si Si2 0.440390 0.418635 0.808130
Si Si3 0.939271 0.918877 0.812469
Si Si4 0.939607 0.329718 0.692964
Si Si5 0.058482 0.330872 0.193829
Si Si6 0.058396 0.081227 0.575611
Si Si7 0.440768 0.418675 0.942109
Si Si8 0.939508 0.081466 0.941049
O O1 0.250000 0.920865 0.076489
O O2 0.003032 0.871091 0.131999
O O3 0.011322 0.890165 0.008009
O O4 0.000000 0.000000 0.082185
O O5 0.500000 0.500000 0.802485
O O6 0.250000 0.419140 0.805687
O O7 0.505216 0.372109 0.752874
O O8 0.491237 0.389819 0.875640
O O9 0.750000 0.921310 0.812309
O O10 0.994778 0.872945 0.754618
O O11 0.993823 0.887491 0.877958
O O12 0.000000 0.000000 0.807051
O O13 0.750000 0.329069 0.691475
O O14 0.001709 0.249720 0.694138
O O15 0.250000 0.331561 0.193883
O O16 0.003524 0.371851 0.132697
O O17 0.250000 0.079869 0.576592
O O18 0.007489 0.110447 0.508446
O O19 0.000000 0.000000 0.581753
O O20 0.500000 0.500000 0.942306
O O21 0.250000 0.418088 0.942018
O O22 0.750000 0.081861 0.937426
O O23 0.000000 0.000000 0.941453
#
# Coordination Sequence:
#
# PCOD9378666 Si02
#       8
#     8   8   8   8   8   8   8   8
#     4   9  19  34  53  77 101 127 163 206 249 296
#     4  10  19  33  54  79 106 134 167 207 250 297
#     4  10  19  32  52  78 104 130 165 206 249 298
#     4  11  23  37  52  72 100 135 174 212 252 298
#     4  10  22  37  51  71 102 137 171 208 249 296
#     4   9  17  32  54  78 102 130 166 205 248 297
#     4   8  15  28  49  76 103 129 160 202 247 293
#     4   9  16  29  50  75 102 128 159 202 249 295
#
# _framework density 18.474875000000001
#
# number of rings (size 3 to 8) (size 9 to 14) (size 15 to 20)
#    0.000    2.500    0.000    3.000    0.000    4.500 
#    0.000    1.250    0.000    4.500    0.000    0.000 
#    0.000    0.000    0.000    0.000    0.000    0.000 
#
# Total GULP energy -178349.235882 kJ/mol
# GULP energy per Si atom -5573.413621 kJ/mol
# Density = 1.843282 g / cm^3
# Si number density = 18.474875 Si / 1000 Ang^3
#
#
#
# Elastic Constant Matrix: (Units=GPa)
#
#
# Indices 1 2 3 4 5 6 
#
# 1 19.4174 11.4199 30.0381 0.0000 0.0000 0.0000
# 2 11.4199 80.3052 88.1929 0.0000 0.0000 0.0000
# 3 30.0381 88.1929 242.1651 0.0000 0.0000 0.0000
# 4 0.0000 0.0000 0.0000 -3.9601 0.0000 0.0000
# 5 0.0000 0.0000 0.0000 0.0000 20.9820 0.0000
# 6 0.0000 0.0000 0.0000 0.0000 0.0000 23.9482
#
#
#
# Elastic Compliance Matrix: (Units=1/GPa)
#
#
# Indices 1 2 3 4 5 6 
#
# 1 0.063748 -0.000636 -0.007676 0.000000 0.000000 0.000000
# 2 -0.000636 0.020759 -0.007481 0.000000 0.000000 0.000000
# 3 -0.007676 -0.007481 0.007806 0.000000 0.000000 0.000000
# 4 0.000000 0.000000 0.000000 -0.252516 0.000000 0.000000
# 5 0.000000 0.000000 0.000000 0.000000 0.047660 0.000000
# 6 0.000000 0.000000 0.000000 0.000000 0.000000 0.041757
#
#
# Mechanical properties :
#
#
# Convention : Reuss Voigt Hill
#
# Bulk Modulus (GPa) = 16.46690 66.79883 41.63286
# Shear Modulus (GPa) = -263.73661 22.34312 -120.69675
#
# Velocity S-wave (km/s) = -11.96094 3.48138 -8.09148
# Velocity P-wave (km/s) = 13.48405 7.23845 8.04439
#
# Compressibility (1/GPa) = 0.06072789
#
# Stress axis : x y z
#
# Youngs Moduli (GPa) = 15.68671 48.17198 128.10508
#
# Poissons Ratio (x) = 0.03062 0.98332
# Poissons Ratio (y) = 0.00997 0.95839
# Poissons Ratio (z) = 0.12041 0.36039
#
# Static dielectric constant tensor:
#      x y z
#    x 1.638120 0.000000 0.000000 
#    y 0.000000 1.572980 0.000000 
#    z 0.000000 0.000000 1.706010 
# 
# From -- ./inp_files/23204.got.cif
#   From: 2010.05.17/outbox.cif.g08.bks.cpg/sg46_12_cif.got.tgz:23204.got - 2010.06.03 19:58:25.
