data_PCOD9378491
_publ_section_title
;
Structure prediction by ZEFSAII (Michael W. Deem and Ramdas Pophale) SiO2 
 PCOD9378491
Probable space group: I M A 2
;
_chemical_formula_sum "Si O2"
_cell_formula_units_Z 56
_cell_length_a 8.758733
_cell_length_b 16.066286
_cell_length_c 20.555126
_cell_angle_alpha 90.000000
_cell_angle_beta 90.000000
_cell_angle_gamma 90.000000
_cell_volume 2892.523690
_symmetry_space_group_name_H-M "I M A 2"
_symmetry_group_IT_number 46
_symmetry_cell_setting 'orthorhombic'
loop_
_space_group_symop_operation_xyz
x,y,z
-x,-y,z
1/2-x,y,z
1/2+x,-y,z
1/2+x,1/2+y,1/2+z
1/2-x,1/2-y,1/2+z
-x,1/2+y,1/2+z
x,1/2-y,1/2+z
loop_
_atom_site_type_symbol
_atom_site_label
_atom_site_fract_x
_atom_site_fract_y
_atom_site_fract_z
Si Si1 0.437276 0.755012 0.795900
Si Si2 0.066014 0.592752 0.201580
Si Si3 0.425978 0.733983 0.941705
Si Si4 0.071614 0.184745 0.577184
Si Si5 0.074007 0.583542 0.736815
Si Si6 0.925637 0.074136 0.979918
Si Si7 0.576660 0.879382 0.110319
O O1 0.250000 0.758718 0.798261
O O2 0.482789 0.839197 0.757218
O O3 0.491126 0.732416 0.868804
O O4 0.488743 0.673313 0.756983
O O5 0.250000 0.589293 0.202260
O O6 0.000000 0.500000 0.212170
O O7 0.012448 0.627850 0.130813
O O8 0.250000 0.704442 0.941115
O O9 0.506861 0.689830 0.003179
O O10 0.424730 0.833379 0.952351
O O11 0.250000 0.161951 0.575179
O O12 0.059268 0.279995 0.602632
O O13 0.250000 0.581988 0.753715
O O14 0.000000 0.500000 0.764132
O O15 0.046201 0.585447 0.659930
O O16 0.750000 0.055940 0.996140
O O17 0.038794 0.082775 0.040773
O O18 0.000000 0.000000 0.937925
O O19 0.750000 0.897837 0.131496
#
# Coordination Sequence:
#
# PCOD9378491 Si02
#       7
#     8   8   8   8   8   8   8
#     4   9  20  39  61  84 116 156 200 244 299 366
#     4  11  22  39  63  92 123 162 208 256 308 366
#     4   9  19  37  59  80 108 155 200 242 299 361
#     4  10  20  36  58  87 117 150 195 246 296 350
#     4  11  21  35  55  81 111 145 184 229 284 344
#     4  10  19  30  48  74 107 142 182 225 277 339
#     4  10  19  32  52  78 110 142 179 226 275 330
#
# _framework density 19.360254999999999
#
# number of rings (size 3 to 8) (size 9 to 14) (size 15 to 20)
#    0.000    2.000    1.429    2.571    0.000    2.286 
#    0.000    3.571    0.000    1.714    0.000    0.000 
#    0.000    0.000    0.000    0.000    0.000    0.000 
#
# Total GULP energy -155932.372111 kJ/mol
# GULP energy per Si atom -5569.013290 kJ/mol
# Density = 1.931619 g / cm^3
# Si number density = 19.360255 Si / 1000 Ang^3
#
#
#
# Elastic Constant Matrix: (Units=GPa)
#
#
# Indices 1 2 3 4 5 6 
#
# 1 51.6153 29.3412 12.0099 0.0000 0.0000 0.0000
# 2 29.3412 93.6786 21.6050 0.0000 0.0000 0.0000
# 3 12.0099 21.6050 91.3977 0.0000 0.0000 0.0000
# 4 0.0000 0.0000 0.0000 2.7630 0.0000 0.0000
# 5 0.0000 0.0000 0.0000 0.0000 8.9340 0.0000
# 6 0.0000 0.0000 0.0000 0.0000 0.0000 30.6703
#
#
#
# Elastic Compliance Matrix: (Units=1/GPa)
#
#
# Indices 1 2 3 4 5 6 
#
# 1 0.023749 -0.007106 -0.001441 0.000000 0.000000 0.000000
# 2 -0.007106 0.013417 -0.002238 0.000000 0.000000 0.000000
# 3 -0.001441 -0.002238 0.011659 0.000000 0.000000 0.000000
# 4 0.000000 0.000000 0.000000 0.361931 0.000000 0.000000
# 5 0.000000 0.000000 0.000000 0.000000 0.111932 0.000000
# 6 0.000000 0.000000 0.000000 0.000000 0.000000 0.032605
#
#
# Mechanical properties :
#
#
# Convention : Reuss Voigt Hill
#
# Bulk Modulus (GPa) = 36.68980 40.28932 38.48956
# Shear Modulus (GPa) = 8.53319 20.05582 14.29451
#
# Velocity S-wave (km/s) = 2.10170 3.22207 2.72019
# Velocity P-wave (km/s) = 4.98816 5.89049 5.45800
#
# Compressibility (1/GPa) = 0.02725553
#
# Stress axis : x y z
#
# Youngs Moduli (GPa) = 42.10725 74.53459 85.76705
#
# Poissons Ratio (x) = 0.52965 0.12358
# Poissons Ratio (y) = 0.29922 0.19192
# Poissons Ratio (z) = 0.06067 0.16679
#
# Static dielectric constant tensor:
#      x y z
#    x 1.681310 0.000000 0.000000 
#    y 0.000000 1.745420 0.000000 
#    z 0.000000 0.000000 1.698480 
# 
# From -- ./inp_files/21049.got.cif
#   From: 2010.05.17/outbox.cif.g08.bks.cpg/sg46_11_cif.got.tgz:21049.got - 2010.06.03 19:58:25.
