data_PCOD9378100
_publ_section_title
;
Structure prediction by ZEFSAII (Michael W. Deem and Ramdas Pophale) SiO2 
 PCOD9378100
Probable space group: I M A 2
;
_chemical_formula_sum "Si O2"
_cell_formula_units_Z 64
_cell_length_a 8.511324
_cell_length_b 15.307871
_cell_length_c 28.196211
_cell_angle_alpha 90.000000
_cell_angle_beta 90.000000
_cell_angle_gamma 90.000000
_cell_volume 3673.691375
_symmetry_space_group_name_H-M "I M A 2"
_symmetry_group_IT_number 46
_symmetry_cell_setting 'orthorhombic'
loop_
_space_group_symop_operation_xyz
x,y,z
-x,-y,z
1/2-x,y,z
1/2+x,-y,z
1/2+x,1/2+y,1/2+z
1/2-x,1/2-y,1/2+z
-x,1/2+y,1/2+z
x,1/2-y,1/2+z
loop_
_atom_site_type_symbol
_atom_site_label
_atom_site_fract_x
_atom_site_fract_y
_atom_site_fract_z
Si Si1 0.438168 0.094751 0.452780
Si Si2 0.058479 0.777733 0.261701
Si Si3 0.061056 0.903833 0.177811
Si Si4 0.938286 0.404595 0.407245
Si Si5 0.439575 0.221710 0.987784
Si Si6 0.061192 0.594972 0.846206
Si Si7 0.438894 0.096115 0.071891
Si Si8 0.060648 0.905493 0.797133
O O1 0.250000 0.091497 0.452267
O O2 0.490922 0.177675 0.483713
O O3 0.496142 0.110135 0.398898
O O4 0.500000 0.000000 0.468068
O O5 0.250000 0.777072 0.261108
O O6 0.007644 0.831160 0.215451
O O7 0.012347 0.831887 0.308580
O O8 0.006022 0.677789 0.266993
O O9 0.250000 0.906364 0.177254
O O10 0.000457 0.886212 0.124800
O O11 0.000000 0.000000 0.191805
O O12 0.750000 0.403876 0.409196
O O13 0.986929 0.391910 0.352310
O O14 0.000000 0.500000 0.422236
O O15 0.003777 0.330913 0.441703
O O16 0.250000 0.221012 0.987885
O O17 0.492300 0.168473 0.034112
O O18 0.250000 0.593142 0.848534
O O19 0.000000 0.500000 0.830483
O O20 0.250000 0.093615 0.072829
O O21 0.500000 0.000000 0.057777
O O22 0.250000 0.907416 0.796385
O O23 0.000000 0.000000 0.781668
#
# Coordination Sequence:
#
# PCOD9378100 Si02
#       8
#     8   8   8   8   8   8   8   8
#     4  10  20  34  49  69  97 129 163 202 240 279
#     4   9  18  31  49  70  96 127 160 194 234 281
#     4  10  19  33  52  74  98 125 153 189 234 283
#     4  10  19  30  48  72 101 132 163 197 236 282
#     4  10  21  34  50  71  97 127 162 201 241 283
#     4  10  18  30  47  70  99 131 161 193 233 281
#     4  10  20  35  52  73  99 125 152 190 237 286
#     4   9  18  33  48  67  95 128 162 198 234 273
#
# _framework density 17.42117
#
# number of rings (size 3 to 8) (size 9 to 14) (size 15 to 20)
#    0.000    2.250    0.000    4.875    0.000    4.500 
#    0.000    4.375    0.000    0.750    0.000    5.250 
#    0.000    0.000    0.000    0.000    0.000    0.000 
#
# Total GULP energy -178587.166656 kJ/mol
# GULP energy per Si atom -5580.848958 kJ/mol
# Density = 1.738152 g / cm^3
# Si number density = 17.421170 Si / 1000 Ang^3
#
#
#
# Elastic Constant Matrix: (Units=GPa)
#
#
# Indices 1 2 3 4 5 6 
#
# 1 28.0964 28.7698 19.7549 0.0000 0.0000 0.0000
# 2 28.7698 185.8192 93.4102 0.0000 0.0000 0.0000
# 3 19.7549 93.4102 76.9942 0.0000 0.0000 0.0000
# 4 0.0000 0.0000 0.0000 30.1430 0.0000 0.0000
# 5 0.0000 0.0000 0.0000 0.0000 11.2830 0.0000
# 6 0.0000 0.0000 0.0000 0.0000 0.0000 24.1385
#
#
#
# Elastic Compliance Matrix: (Units=1/GPa)
#
#
# Indices 1 2 3 4 5 6 
#
# 1 0.044034 -0.002917 -0.007759 0.000000 0.000000 0.000000
# 2 -0.002917 0.013988 -0.016221 0.000000 0.000000 0.000000
# 3 -0.007759 -0.016221 0.034659 0.000000 0.000000 0.000000
# 4 0.000000 0.000000 0.000000 0.033175 0.000000 0.000000
# 5 0.000000 0.000000 0.000000 0.000000 0.088629 0.000000
# 6 0.000000 0.000000 0.000000 0.000000 0.000000 0.041428
#
#
# Mechanical properties :
#
#
# Convention : Reuss Voigt Hill
#
# Bulk Modulus (GPa) = 25.71649 63.86438 44.79044
# Shear Modulus (GPa) = 15.49573 23.04457 19.27015
#
# Velocity S-wave (km/s) = 2.98565 3.64096 3.32947
# Velocity P-wave (km/s) = 5.16518 7.37659 6.36762
#
# Compressibility (1/GPa) = 0.03888556
#
# Stress axis : x y z
#
# Youngs Moduli (GPa) = 22.70958 71.49132 28.85278
#
# Poissons Ratio (x) = 0.20857 0.22386
# Poissons Ratio (y) = 0.06625 0.46803
# Poissons Ratio (z) = 0.17620 1.15969
#
# Static dielectric constant tensor:
#      x y z
#    x 1.595840 0.000000 0.000000 
#    y 0.000000 1.602840 0.000000 
#    z 0.000000 0.000000 1.577040 
# 
# From -- ./inp_files/25286.got.cif
#   From: 2010.05.17/outbox.cif.g08.bks.cpg/sg46_13_cif.got.tgz:25286.got - 2010.06.03 19:58:25.
