data_PCOD9378218
_publ_section_title
;
Structure prediction by ZEFSAII (Michael W. Deem and Ramdas Pophale) SiO2 
 PCOD9378218
Probable space group: I M A 2
;
_chemical_formula_sum "Si O2"
_cell_formula_units_Z 32
_cell_length_a 18.901460
_cell_length_b 7.660137
_cell_length_c 8.966300
_cell_angle_alpha 90.000000
_cell_angle_beta 90.000000
_cell_angle_gamma 90.000000
_cell_volume 1298.210610
_symmetry_space_group_name_H-M "I M A 2"
_symmetry_group_IT_number 46
_symmetry_cell_setting 'orthorhombic'
loop_
_space_group_symop_operation_xyz
x,y,z
-x,-y,z
1/2-x,y,z
1/2+x,-y,z
1/2+x,1/2+y,1/2+z
1/2-x,1/2-y,1/2+z
-x,1/2+y,1/2+z
x,1/2-y,1/2+z
loop_
_atom_site_type_symbol
_atom_site_label
_atom_site_fract_x
_atom_site_fract_y
_atom_site_fract_z
Si Si1 0.750000 0.509698 0.456141
Si Si2 0.899738 0.152953 0.418114
Si Si3 0.500000 0.000000 0.172119
Si Si4 0.000000 0.500000 0.168278
Si Si5 0.597413 0.572148 0.425004
Si Si6 0.250000 0.856381 0.298215
O O1 0.678874 0.623854 0.436018
O O2 0.750000 0.355410 0.329019
O O3 0.750000 0.417591 0.623344
O O4 0.896355 0.361055 0.431406
O O5 0.821198 0.084656 0.382273
O O6 0.945974 0.100190 0.276636
O O7 0.940355 0.081043 0.561041
O O8 0.548128 0.881642 0.063653
O O9 0.950446 0.610657 0.282537
#
# Coordination Sequence:
#
# PCOD9378218 Si02
#       6
#     4   8   4   4   8   4
#     4  10  20  32  54  80 109 140 166 222 285 318
#     4  10  20  34  53  79 111 137 173 219 264 320
#     4  10  18  32  50  76 106 144 174 204 268 320
#     4  10  22  32  50  84 106 144 178 204 272 320
#     4  10  20  34  53  79 111 137 173 219 264 320
#     4  10  20  32  54  80 109 140 166 222 285 318
#
# _framework density 24.649311999999998
#
# number of rings (size 3 to 8) (size 9 to 14) (size 15 to 20)
#    0.000    2.000    2.500    1.500   10.500    0.000 
#    0.000    0.000    0.000    0.000    0.000  122.500 
#    0.000    0.000    0.000    0.000    0.000    0.000 
#
# Total GULP energy -89456.868829 kJ/mol
# GULP energy per Si atom -5591.054302 kJ/mol
# Density = 2.459321 g / cm^3
# Si number density = 24.649312 Si / 1000 Ang^3
#
#
#
# Elastic Constant Matrix: (Units=GPa)
#
#
# Indices 1 2 3 4 5 6 
#
# 1 290.2965 21.6747 86.5886 0.0000 0.0000 0.0000
# 2 21.6747 37.5542 29.7252 0.0000 0.0000 0.0000
# 3 86.5886 29.7252 186.3160 0.0000 0.0000 0.0000
# 4 0.0000 0.0000 0.0000 22.3471 0.0000 0.0000
# 5 0.0000 0.0000 0.0000 0.0000 5.7691 0.0000
# 6 0.0000 0.0000 0.0000 0.0000 0.0000 28.7751
#
#
#
# Elastic Compliance Matrix: (Units=1/GPa)
#
#
# Indices 1 2 3 4 5 6 
#
# 1 0.004029 -0.000965 -0.001719 0.000000 0.000000 0.000000
# 2 -0.000965 0.030708 -0.004451 0.000000 0.000000 0.000000
# 3 -0.001719 -0.004451 0.006876 0.000000 0.000000 0.000000
# 4 0.000000 0.000000 0.000000 0.044748 0.000000 0.000000
# 5 0.000000 0.000000 0.000000 0.000000 0.173336 0.000000
# 6 0.000000 0.000000 0.000000 0.000000 0.000000 0.034752
#
#
# Mechanical properties :
#
#
# Convention : Reuss Voigt Hill
#
# Bulk Modulus (GPa) = 36.57047 87.79374 62.18210
# Shear Modulus (GPa) = 15.73145 36.45680 26.09412
#
# Velocity S-wave (km/s) = 2.52902 3.84997 3.25717
# Velocity P-wave (km/s) = 4.83699 7.44698 6.27909
#
# Compressibility (1/GPa) = 0.02734447
#
# Stress axis : x y z
#
# Youngs Moduli (GPa) = 248.17226 32.56470 145.43307
#
# Poissons Ratio (x) = 0.03143 0.24995
# Poissons Ratio (y) = 0.23955 0.64727
# Poissons Ratio (z) = 0.42652 0.14493
#
# Static dielectric constant tensor:
#      x y z
#    x 1.995110 0.000000 0.000000 
#    y 0.000000 2.035610 0.000000 
#    z 0.000000 0.000000 1.922480 
# 
# From -- ./inp_files/4346.got.cif
#   From: 2010.05.17/outbox.cif.g08.bks.cpg/sg46_3_cif.got.tgz:4346.got - 2010.06.03 19:58:25.
