data_PCOD9378861
_publ_section_title
;
Structure prediction by ZEFSAII (Michael W. Deem and Ramdas Pophale) SiO2 
 PCOD9378861
Probable space group: I M A 2
;
_chemical_formula_sum "Si O2"
_cell_formula_units_Z 48
_cell_length_a 8.728066
_cell_length_b 28.852308
_cell_length_c 10.500475
_cell_angle_alpha 90.000000
_cell_angle_beta 90.000000
_cell_angle_gamma 90.000000
_cell_volume 2644.280526
_symmetry_space_group_name_H-M "I M A 2"
_symmetry_group_IT_number 46
_symmetry_cell_setting 'orthorhombic'
loop_
_space_group_symop_operation_xyz
x,y,z
-x,-y,z
1/2-x,y,z
1/2+x,-y,z
1/2+x,1/2+y,1/2+z
1/2-x,1/2-y,1/2+z
-x,1/2+y,1/2+z
x,1/2-y,1/2+z
loop_
_atom_site_type_symbol
_atom_site_label
_atom_site_fract_x
_atom_site_fract_y
_atom_site_fract_z
Si Si1 0.433346 0.142941 0.149010
Si Si2 0.066203 0.352403 0.169595
Si Si3 0.067179 0.549273 0.556768
Si Si4 0.566648 0.951383 0.772334
Si Si5 0.934314 0.697581 0.906470
Si Si6 0.068227 0.800258 0.912238
O O1 0.250000 0.137660 0.143400
O O2 0.509903 0.092655 0.138180
O O3 0.473708 0.169674 0.278620
O O4 0.488258 0.173074 0.028818
O O5 0.250000 0.347303 0.187438
O O6 0.030190 0.406683 0.187386
O O7 0.984007 0.324119 0.281061
O O8 0.027225 0.331956 0.032010
O O9 0.250000 0.547304 0.552994
O O10 0.000000 0.500000 0.601028
O O11 0.003865 0.556315 0.412880
O O12 0.750000 0.955136 0.785255
O O13 0.500000 0.000000 0.723837
O O14 0.750000 0.705227 0.905864
O O15 0.015788 0.747030 0.910923
O O16 0.250000 0.803928 0.926739
#
# Coordination Sequence:
#
# PCOD9378861 Si02
#       6
#     8   8   8   8   8   8
#     4  11  22  39  61  85 116 154 196 239 287 342
#     4  10  21  39  61  84 113 152 194 234 284 345
#     4  11  21  35  58  87 117 148 190 238 287 340
#     4  10  19  33  57  85 114 146 186 234 284 339
#     4  10  23  41  60  82 114 156 196 236 288 346
#     4  12  24  37  58  87 116 150 195 242 289 341
#
# _framework density 18.152387000000001
#
# number of rings (size 3 to 8) (size 9 to 14) (size 15 to 20)
#    0.000    1.333    1.667    6.000    0.000    6.667 
#    0.000    0.833    0.000    2.000    0.000    0.000 
#    0.000    0.000    0.000    0.000    0.000    0.000 
#
# Total GULP energy -134165.444903 kJ/mol
# GULP energy per Si atom -5590.226871 kJ/mol
# Density = 1.811107 g / cm^3
# Si number density = 18.152387 Si / 1000 Ang^3
#
#
#
# Elastic Constant Matrix: (Units=GPa)
#
#
# Indices 1 2 3 4 5 6 
#
# 1 80.7247 65.8485 44.2582 -0.0002 0.0001 0.0000
# 2 65.8485 163.3095 58.7860 0.0003 0.0000 0.0000
# 3 44.2582 58.7860 103.0115 0.0027 -0.0010 0.0001
# 4 -0.0002 0.0003 0.0027 -10.0816 -0.0003 0.0000
# 5 0.0001 0.0000 -0.0010 -0.0003 1.4720 0.0000
# 6 0.0000 0.0000 0.0001 0.0000 0.0000 35.8534
#
#
#
# Elastic Compliance Matrix: (Units=1/GPa)
#
#
# Indices 1 2 3 4 5 6 
#
# 1 0.020403 -0.006382 -0.005124 -0.000002 -0.000005 0.000000
# 2 -0.006382 0.009703 -0.002795 0.000000 -0.000001 0.000000
# 3 -0.005124 -0.002795 0.013504 0.000004 0.000010 0.000000
# 4 -0.000002 0.000000 0.000004 -0.099191 -0.000019 0.000000
# 5 -0.000005 -0.000001 0.000010 -0.000019 0.679335 0.000000
# 6 0.000000 0.000000 0.000000 0.000000 0.000000 0.027891
#
#
# Mechanical properties :
#
#
# Convention : Reuss Voigt Hill
#
# Bulk Modulus (GPa) = 66.63247 76.09233 71.36240
# Shear Modulus (GPa) = 7.29659 17.32563 12.31111
#
# Velocity S-wave (km/s) = 2.00708 3.09278 2.60707
# Velocity P-wave (km/s) = 6.49293 7.40022 6.96137
#
# Compressibility (1/GPa) = 0.01500770
#
# Stress axis : x y z
#
# Youngs Moduli (GPa) = 49.01186 103.06143 74.05143
#
# Poissons Ratio (x) = 0.65778 0.37943
# Poissons Ratio (y) = 0.31282 0.20698
# Poissons Ratio (z) = 0.25113 0.28806
#
# Static dielectric constant tensor:
#      x y z
#    x 1.610100 0.000000 0.000000 
#    y 0.000000 1.618140 0.000000 
#    z 0.000000 0.000000 1.589690 
# 
# From -- ./inp_files/3911.got.cif
#   From: 2010.05.17/outbox.cif.g08.bks.cpg/sg46_2_cif.got.tgz:3911.got - 2010.06.03 19:58:25.
