data_PCOD9378702
_publ_section_title
;
Structure prediction by ZEFSAII (Michael W. Deem and Ramdas Pophale) SiO2 
 PCOD9378702
Probable space group: I M A 2
;
_chemical_formula_sum "Si O2"
_cell_formula_units_Z 56
_cell_length_a 8.700330
_cell_length_b 15.748108
_cell_length_c 20.720401
_cell_angle_alpha 90.000000
_cell_angle_beta 90.000000
_cell_angle_gamma 90.000000
_cell_volume 2838.979562
_symmetry_space_group_name_H-M "I M A 2"
_symmetry_group_IT_number 46
_symmetry_cell_setting 'orthorhombic'
loop_
_space_group_symop_operation_xyz
x,y,z
-x,-y,z
1/2-x,y,z
1/2+x,-y,z
1/2+x,1/2+y,1/2+z
1/2-x,1/2-y,1/2+z
-x,1/2+y,1/2+z
x,1/2-y,1/2+z
loop_
_atom_site_type_symbol
_atom_site_label
_atom_site_fract_x
_atom_site_fract_y
_atom_site_fract_z
Si Si1 0.428056 0.421836 0.942670
Si Si2 0.430724 0.241472 0.873925
Si Si3 0.432263 0.234811 0.231181
Si Si4 0.921263 0.141409 0.565715
Si Si5 0.925183 0.085791 0.707523
Si Si6 0.567919 0.817665 0.092628
Si Si7 0.066292 0.594477 0.465952
O O1 0.500000 0.500000 0.902814
O O2 0.250000 0.438548 0.956146
O O3 0.437765 0.328341 0.913378
O O4 0.531600 0.413811 0.005759
O O5 0.250000 0.217750 0.866041
O O6 0.494425 0.271129 0.803953
O O7 0.509439 0.164427 0.913048
O O8 0.250000 0.218467 0.232905
O O9 0.468036 0.333640 0.219406
O O10 0.489839 0.182642 0.167906
O O11 0.750000 0.178630 0.557566
O O12 0.918046 0.085655 0.629970
O O13 0.037506 0.219932 0.572437
O O14 0.750000 0.097997 0.731245
O O15 0.000000 0.000000 0.732941
O O16 0.750000 0.835390 0.091940
O O17 0.489166 0.874529 0.037443
O O18 0.250000 0.591541 0.464633
O O19 0.000000 0.500000 0.453312
#
# Coordination Sequence:
#
# PCOD9378702 Si02
#       7
#     8   8   8   8   8   8   8
#     4  11  22  35  56  83 116 152 191 239 296 356
#     4  10  22  42  63  88 122 161 205 255 311 374
#     4   9  20  38  61  83 113 158 201 247 309 370
#     4  10  19  32  53  82 115 148 187 232 286 347
#     4  10  20  32  49  77 112 148 189 236 286 349
#     4  10  19  36  61  89 120 156 199 248 305 363
#     4  12  25  41  65  94 126 167 215 266 320 376
#
# _framework density 19.725398999999999
#
# number of rings (size 3 to 8) (size 9 to 14) (size 15 to 20)
#    0.000    1.714    1.429    3.429    0.000    5.143 
#    0.000    0.714    0.000    1.714    0.000    0.000 
#    0.000    0.000    0.000    0.000    0.000    0.000 
#
# Total GULP energy -155986.855761 kJ/mol
# GULP energy per Si atom -5570.959134 kJ/mol
# Density = 1.968050 g / cm^3
# Si number density = 19.725399 Si / 1000 Ang^3
#
#
#
# Elastic Constant Matrix: (Units=GPa)
#
#
# Indices 1 2 3 4 5 6 
#
# 1 59.3730 24.7780 22.0148 0.0000 0.0000 0.0000
# 2 24.7780 69.4172 13.2480 0.0000 0.0000 0.0000
# 3 22.0148 13.2480 93.7844 0.0000 0.0000 0.0000
# 4 0.0000 0.0000 0.0000 1.4131 0.0000 0.0000
# 5 0.0000 0.0000 0.0000 0.0000 7.2845 0.0000
# 6 0.0000 0.0000 0.0000 0.0000 0.0000 28.2887
#
#
#
# Elastic Compliance Matrix: (Units=1/GPa)
#
#
# Indices 1 2 3 4 5 6 
#
# 1 0.021162 -0.006789 -0.004009 0.000000 0.000000 0.000000
# 2 -0.006789 0.016983 -0.000805 0.000000 0.000000 0.000000
# 3 -0.004009 -0.000805 0.011717 0.000000 0.000000 0.000000
# 4 0.000000 0.000000 0.000000 0.707641 0.000000 0.000000
# 5 0.000000 0.000000 0.000000 0.000000 0.137278 0.000000
# 6 0.000000 0.000000 0.000000 0.000000 0.000000 0.035350
#
#
# Mechanical properties :
#
#
# Convention : Reuss Voigt Hill
#
# Bulk Modulus (GPa) = 37.51383 38.07293 37.79338
# Shear Modulus (GPa) = 5.19631 18.23286 11.71458
#
# Velocity S-wave (km/s) = 1.62482 3.04358 2.43962
# Velocity P-wave (km/s) = 4.75178 5.62979 5.20932
#
# Compressibility (1/GPa) = 0.02665683
#
# Stress axis : x y z
#
# Youngs Moduli (GPa) = 47.25426 58.88407 85.34246
#
# Poissons Ratio (x) = 0.39974 0.34210
# Poissons Ratio (y) = 0.32079 0.06873
# Poissons Ratio (z) = 0.18942 0.04742
#
# Static dielectric constant tensor:
#      x y z
#    x 1.715850 0.000000 0.000000 
#    y 0.000000 1.684270 0.000000 
#    z 0.000000 0.000000 1.778370 
# 
# From -- ./inp_files/21050.got.cif
#   From: 2010.05.17/outbox.cif.g08.bks.cpg/sg46_11_cif.got.tgz:21050.got - 2010.06.03 19:58:25.
