data_PCOD9378621
_publ_section_title
;
Structure prediction by ZEFSAII (Michael W. Deem and Ramdas Pophale) SiO2 
 PCOD9378621
Probable space group: I M A 2
;
_chemical_formula_sum "Si O2"
_cell_formula_units_Z 64
_cell_length_a 8.750710
_cell_length_b 31.166283
_cell_length_c 14.829690
_cell_angle_alpha 90.000000
_cell_angle_beta 90.000000
_cell_angle_gamma 90.000000
_cell_volume 4044.458412
_symmetry_space_group_name_H-M "I M A 2"
_symmetry_group_IT_number 46
_symmetry_cell_setting 'orthorhombic'
loop_
_space_group_symop_operation_xyz
x,y,z
-x,-y,z
1/2-x,y,z
1/2+x,-y,z
1/2+x,1/2+y,1/2+z
1/2-x,1/2-y,1/2+z
-x,1/2+y,1/2+z
x,1/2-y,1/2+z
loop_
_atom_site_type_symbol
_atom_site_label
_atom_site_fract_x
_atom_site_fract_y
_atom_site_fract_z
Si Si1 0.434681 0.046443 0.100270
Si Si2 0.930836 0.633554 0.522760
Si Si3 0.072119 0.723681 0.201883
Si Si4 0.425332 0.826308 0.193292
Si Si5 0.066813 0.453291 0.810493
Si Si6 0.566869 0.704468 0.009311
Si Si7 0.935217 0.790039 0.897407
Si Si8 0.931363 0.131054 0.386819
O O1 0.250000 0.044979 0.097565
O O2 0.490110 0.085121 0.036322
O O3 0.477686 0.055506 0.205232
O O4 0.500000 0.000000 0.076446
O O5 0.750000 0.630028 0.507083
O O6 0.991099 0.667073 0.448935
O O7 0.961360 0.655749 0.618784
O O8 0.250000 0.711184 0.202268
O O9 0.063695 0.775286 0.197623
O O10 0.994596 0.710635 0.295666
O O11 0.992601 0.707071 0.111321
O O12 0.250000 0.837872 0.168563
O O13 0.457960 0.845482 0.291013
O O14 0.250000 0.454078 0.814703
O O15 0.000000 0.500000 0.832923
O O16 0.002325 0.415946 0.873824
O O17 0.750000 0.704375 0.008648
O O18 0.516043 0.747162 0.952887
O O19 0.505078 0.661875 0.961013
O O20 0.750000 0.789860 0.897301
O O21 0.750000 0.128021 0.401439
#
# Coordination Sequence:
#
# PCOD9378621 Si02
#       8
#     8   8   8   8   8   8   8   8
#     4   9  18  30  47  70 100 132 166 207 252 300
#     4  10  19  33  50  72  99 134 173 210 249 297
#     4  11  22  36  51  71 102 136 171 213 257 300
#     4  10  20  30  46  71 101 135 169 208 250 296
#     4  10  19  32  50  74 103 137 172 212 258 308
#     4  11  22  35  53  75 100 135 175 213 254 305
#     4  10  21  34  51  73  99 132 172 211 251 302
#     4  11  21  34  50  74 105 139 176 213 255 306
#
# _framework density 15.824121999999999
#
# number of rings (size 3 to 8) (size 9 to 14) (size 15 to 20)
#    0.000    1.750    3.750    1.500    0.000    3.000 
#    0.000    0.000    0.000    0.000    0.000    0.875 
#    0.000    2.000    0.000    0.000    0.000    0.000 
#
# Total GULP energy -178512.858904 kJ/mol
# GULP energy per Si atom -5578.526841 kJ/mol
# Density = 1.578811 g / cm^3
# Si number density = 15.824122 Si / 1000 Ang^3
#
#
#
# Elastic Constant Matrix: (Units=GPa)
#
#
# Indices 1 2 3 4 5 6 
#
# 1 27.5579 34.8191 32.6625 0.0000 0.0000 0.0000
# 2 34.8191 128.3539 66.2424 0.0000 0.0000 0.0000
# 3 32.6625 66.2424 94.2651 0.0001 0.0000 0.0000
# 4 0.0000 0.0000 0.0001 22.8702 0.0000 0.0000
# 5 0.0000 0.0000 0.0000 0.0000 20.1181 0.0000
# 6 0.0000 0.0000 0.0000 0.0000 0.0000 23.8719
#
#
#
# Elastic Compliance Matrix: (Units=1/GPa)
#
#
# Indices 1 2 3 4 5 6 
#
# 1 0.068875 -0.009991 -0.016844 0.000000 0.000000 0.000000
# 2 -0.009991 0.013674 -0.006147 0.000000 0.000000 0.000000
# 3 -0.016844 -0.006147 0.020764 0.000000 0.000000 0.000000
# 4 0.000000 0.000000 0.000000 0.043725 0.000000 0.000000
# 5 0.000000 0.000000 0.000000 0.000000 0.049707 0.000000
# 6 0.000000 0.000000 0.000000 0.000000 0.000000 0.041890
#
#
# Mechanical properties :
#
#
# Convention : Reuss Voigt Hill
#
# Bulk Modulus (GPa) = 26.77449 57.51386 42.14418
# Shear Modulus (GPa) = 15.77049 21.13556 18.45302
#
# Velocity S-wave (km/s) = 3.16034 3.65863 3.41857
# Velocity P-wave (km/s) = 5.50216 7.36695 6.50176
#
# Compressibility (1/GPa) = 0.03734899
#
# Stress axis : x y z
#
# Youngs Moduli (GPa) = 14.51914 73.13342 48.15940
#
# Poissons Ratio (x) = 0.73067 0.81119
# Poissons Ratio (y) = 0.14506 0.29604
# Poissons Ratio (z) = 0.24456 0.44955
#
# Static dielectric constant tensor:
#      x y z
#    x 1.539240 0.000000 0.000000 
#    y 0.000000 1.536660 0.000000 
#    z 0.000000 0.000000 1.502130 
# 
# From -- ./inp_files/9689.got.cif
#   From: 2010.05.17/outbox.cif.g08.bks.cpg/sg46_5_cif.got.tgz:9689.got - 2010.06.03 19:58:25.
