data_PCOD9378567
_publ_section_title
;
Structure prediction by ZEFSAII (Michael W. Deem and Ramdas Pophale) SiO2 
 PCOD9378567
Probable space group: I M A 2
;
_chemical_formula_sum "Si O2"
_cell_formula_units_Z 64
_cell_length_a 27.674867
_cell_length_b 5.119178
_cell_length_c 21.604135
_cell_angle_alpha 90.000000
_cell_angle_beta 90.000000
_cell_angle_gamma 90.000000
_cell_volume 3060.713335
_symmetry_space_group_name_H-M "I M A 2"
_symmetry_group_IT_number 46
_symmetry_cell_setting 'orthorhombic'
loop_
_space_group_symop_operation_xyz
x,y,z
-x,-y,z
1/2-x,y,z
1/2+x,-y,z
1/2+x,1/2+y,1/2+z
1/2-x,1/2-y,1/2+z
-x,1/2+y,1/2+z
x,1/2-y,1/2+z
loop_
_atom_site_type_symbol
_atom_site_label
_atom_site_fract_x
_atom_site_fract_y
_atom_site_fract_z
Si Si1 0.132757 0.180562 0.157770
Si Si2 0.442569 0.948757 0.856342
Si Si3 0.942569 0.448756 0.107658
Si Si4 0.695279 0.302074 0.157925
Si Si5 0.632757 0.819438 0.306230
Si Si6 0.965389 0.253474 0.732000
Si Si7 0.195279 0.697926 0.306074
Si Si8 0.534791 0.250000 0.982000
O O1 0.086346 0.286911 0.120982
O O2 0.159727 0.923170 0.134386
O O3 0.121085 0.166622 0.232000
O O4 0.171438 0.416030 0.150156
O O5 0.413654 0.213090 0.843018
O O6 0.435209 0.772753 0.794898
O O7 0.433332 0.817573 0.922055
O O8 0.500000 0.000000 0.859218
O O9 0.935209 0.272751 0.169101
O O10 0.000000 0.500000 0.104781
O O11 0.933332 0.317572 0.041944
O O12 0.750000 0.288252 0.133917
O O13 0.697783 0.255301 0.232000
O O14 0.659727 0.076830 0.329613
O O15 0.671438 0.583970 0.313844
O O16 0.000000 0.500000 0.732000
O O17 0.000000 0.000000 0.732000
O O18 0.250000 0.711747 0.330082
O O19 0.500000 0.500000 0.968350
O O20 0.500000 0.000000 0.995649
#
# Coordination Sequence:
#
# PCOD9378567 Si02
#       8
#     8   8   8   8   8   8   8   8
#     4  10  19  31  50  78 104 137 174 213 263 318
#     4  10  21  37  53  79 110 145 179 220 260 315
#     4  10  21  37  53  79 110 145 179 220 260 315
#     4   9  18  32  50  74 106 136 170 217 267 314
#     4  10  19  31  50  78 104 137 174 213 263 318
#     4  10  20  32  50  72 101 138 171 210 260 298
#     4   9  18  32  50  74 106 136 170 217 267 314
#     4  10  22  38  54  72 103 148 189 218 254 306
#
# _framework density 20.910160000000001
#
# number of rings (size 3 to 8) (size 9 to 14) (size 15 to 20)
#    0.000    2.250    1.250    1.500    0.000   11.000 
#    0.000    0.000    0.000    0.000    0.000    5.250 
#    0.000    0.000    0.000    0.000    0.000    0.000 
#
# Total GULP energy -178858.519026 kJ/mol
# GULP energy per Si atom -5589.328720 kJ/mol
# Density = 2.086257 g / cm^3
# Si number density = 20.910160 Si / 1000 Ang^3
#
#
#
# Elastic Constant Matrix: (Units=GPa)
#
#
# Indices 1 2 3 4 5 6 
#
# 1 116.5363 16.2099 5.6237 0.0000 0.0000 0.0000
# 2 16.2099 91.4463 11.5982 0.0000 0.0000 0.0000
# 3 5.6237 11.5982 109.6683 0.0000 0.0000 0.0000
# 4 0.0000 0.0000 0.0000 16.7771 0.0000 0.0000
# 5 0.0000 0.0000 0.0000 0.0000 2.1167 0.0000
# 6 0.0000 0.0000 0.0000 0.0000 0.0000 24.3371
#
#
#
# Elastic Compliance Matrix: (Units=1/GPa)
#
#
# Indices 1 2 3 4 5 6 
#
# 1 0.008807 -0.001524 -0.000290 0.000000 0.000000 0.000000
# 2 -0.001524 0.011348 -0.001122 0.000000 0.000000 0.000000
# 3 -0.000290 -0.001122 0.009252 0.000000 0.000000 0.000000
# 4 0.000000 0.000000 0.000000 0.059605 0.000000 0.000000
# 5 0.000000 0.000000 0.000000 0.000000 0.472424 0.000000
# 6 0.000000 0.000000 0.000000 0.000000 0.000000 0.041090
#
#
# Mechanical properties :
#
#
# Convention : Reuss Voigt Hill
#
# Bulk Modulus (GPa) = 42.49257 42.72383 42.60820
# Shear Modulus (GPa) = 8.11368 27.59412 17.85390
#
# Velocity S-wave (km/s) = 1.97197 3.63664 2.92522
# Velocity P-wave (km/s) = 5.05475 6.17333 5.64183
#
# Compressibility (1/GPa) = 0.02353353
#
# Stress axis : x y z
#
# Youngs Moduli (GPa) = 113.54522 88.12215 108.08525
#
# Poissons Ratio (x) = 0.13433 0.03139
# Poissons Ratio (y) = 0.17308 0.12127
# Poissons Ratio (z) = 0.03297 0.09887
#
# Static dielectric constant tensor:
#      x y z
#    x 1.727760 0.000000 0.000000 
#    y 0.000000 1.789940 0.000000 
#    z 0.000000 0.000000 1.782280 
# 
# From -- ./inp_files/23924.got.cif
#   From: 2010.05.17/outbox.cif.g08.bks.cpg/sg46_12_cif.got.tgz:23924.got - 2010.06.03 19:58:25.
