data_PCOD9378800
_publ_section_title
;
Structure prediction by ZEFSAII (Michael W. Deem and Ramdas Pophale) SiO2 
 PCOD9378800
Probable space group: I M A 2
;
_chemical_formula_sum "Si O2"
_cell_formula_units_Z 64
_cell_length_a 7.916184
_cell_length_b 17.234258
_cell_length_c 22.654941
_cell_angle_alpha 90.000000
_cell_angle_beta 90.000000
_cell_angle_gamma 90.000000
_cell_volume 3090.803574
_symmetry_space_group_name_H-M "I M A 2"
_symmetry_group_IT_number 46
_symmetry_cell_setting 'orthorhombic'
loop_
_space_group_symop_operation_xyz
x,y,z
-x,-y,z
1/2-x,y,z
1/2+x,-y,z
1/2+x,1/2+y,1/2+z
1/2-x,1/2-y,1/2+z
-x,1/2+y,1/2+z
x,1/2-y,1/2+z
loop_
_atom_site_type_symbol
_atom_site_label
_atom_site_fract_x
_atom_site_fract_y
_atom_site_fract_z
Si Si1 0.952552 0.416555 0.287010
Si Si2 0.547698 0.285981 0.372478
Si Si3 0.451976 0.581745 0.957833
Si Si4 0.441879 0.253066 0.002065
Si Si5 0.556284 0.238380 0.125364
Si Si6 0.545440 0.085860 0.196151
Si Si7 0.453762 0.912924 0.651277
Si Si8 0.547689 0.114883 0.327979
O O1 0.750000 0.407721 0.284170
O O2 0.020870 0.352524 0.330821
O O3 0.012228 0.412070 0.219673
O O4 0.000000 0.500000 0.310807
O O5 0.750000 0.293449 0.379732
O O6 0.474368 0.282963 0.437876
O O7 0.520364 0.206002 0.337708
O O8 0.500000 0.500000 0.985252
O O9 0.250000 0.591056 0.956219
O O10 0.522751 0.655713 0.991469
O O11 0.519513 0.581692 0.890077
O O12 0.250000 0.241057 0.019769
O O13 0.551546 0.221123 0.055679
O O14 0.750000 0.245329 0.146526
O O15 0.485516 0.163786 0.161347
O O16 0.485251 0.327266 0.129418
O O17 0.750000 0.089756 0.196970
O O18 0.481585 0.089434 0.264364
O O19 0.500000 0.000000 0.172221
O O20 0.250000 0.911391 0.646582
O O21 0.500000 0.000000 0.628200
O O22 0.750000 0.100068 0.327421
#
# Coordination Sequence:
#
# PCOD9378800 Si02
#       8
#     8   8   8   8   8   8   8   8
#     4   9  17  30  51  79 108 135 165 207 259 316
#     4   9  17  33  55  76 102 137 174 210 257 317
#     4  10  19  33  54  80 111 142 172 207 254 313
#     4  11  23  37  53  74 101 134 178 226 267 309
#     4  10  21  38  57  75 103 145 186 222 265 318
#     4  10  20  35  56  81 108 139 177 221 269 320
#     4   9  18  33  55  83 112 141 174 212 259 319
#     4   8  15  29  52  80 107 135 167 207 257 316
#
# _framework density 20.706589999999998
#
# number of rings (size 3 to 8) (size 9 to 14) (size 15 to 20)
#    0.000    2.500    0.000    3.375    0.000    5.000 
#    0.000    4.375    0.000    4.500    0.000    0.000 
#    0.000    0.000    0.000    0.000    0.000    0.000 
#
# Total GULP energy -178329.658386 kJ/mol
# GULP energy per Si atom -5572.801825 kJ/mol
# Density = 2.065946 g / cm^3
# Si number density = 20.706590 Si / 1000 Ang^3
#
#
#
# Elastic Constant Matrix: (Units=GPa)
#
#
# Indices 1 2 3 4 5 6 
#
# 1 28.0677 12.7449 -3.1096 0.0000 0.0000 0.0000
# 2 12.7449 95.5996 56.6165 0.0000 0.0000 0.0000
# 3 -3.1096 56.6165 90.8267 0.0000 0.0000 0.0000
# 4 0.0000 0.0000 0.0000 -6.4242 0.0000 0.0000
# 5 0.0000 0.0000 0.0000 0.0000 -1.9854 0.0000
# 6 0.0000 0.0000 0.0000 0.0000 0.0000 24.0037
#
#
#
# Elastic Compliance Matrix: (Units=1/GPa)
#
#
# Indices 1 2 3 4 5 6 
#
# 1 0.041007 -0.009984 0.007627 0.000000 0.000000 0.000000
# 2 -0.009984 0.019012 -0.012193 0.000000 0.000000 0.000000
# 3 0.007627 -0.012193 0.018872 0.000000 0.000000 0.000000
# 4 0.000000 0.000000 0.000000 -0.155661 0.000000 0.000000
# 5 0.000000 0.000000 0.000000 0.000000 -0.503678 0.000000
# 6 0.000000 0.000000 0.000000 0.000000 0.000000 0.041660
#
#
# Mechanical properties :
#
#
# Convention : Reuss Voigt Hill
#
# Bulk Modulus (GPa) = 20.08381 38.55529 29.31955
# Shear Modulus (GPa) = -10.14012 13.00163 1.43076
#
# Velocity S-wave (km/s) = -2.21533 2.50851 0.83215
# Velocity P-wave (km/s) = 1.78234 5.20100 3.88762
#
# Compressibility (1/GPa) = 0.04979135
#
# Stress axis : x y z
#
# Youngs Moduli (GPa) = 24.38628 52.59721 52.98948
#
# Poissons Ratio (x) = 0.52513 -0.40417
# Poissons Ratio (y) = 0.24347 0.64611
# Poissons Ratio (z) = -0.18600 0.64133
#
# Static dielectric constant tensor:
#      x y z
#    x 1.764830 0.000000 0.000000 
#    y 0.000000 1.768070 0.000000 
#    z 0.000000 0.000000 1.744050 
# 
# From -- ./inp_files/21350.got.cif
#   From: 2010.05.17/outbox.cif.g08.bks.cpg/sg46_11_cif.got.tgz:21350.got - 2010.06.03 19:58:25.
