data_PCOD9378745
_publ_section_title
;
Structure prediction by ZEFSAII (Michael W. Deem and Ramdas Pophale) SiO2 
 PCOD9378745
Probable space group: I M A 2
;
_chemical_formula_sum "Si O2"
_cell_formula_units_Z 48
_cell_length_a 7.724085
_cell_length_b 31.646366
_cell_length_c 9.412696
_cell_angle_alpha 90.000000
_cell_angle_beta 90.000000
_cell_angle_gamma 90.000000
_cell_volume 2300.832077
_symmetry_space_group_name_H-M "I M A 2"
_symmetry_group_IT_number 46
_symmetry_cell_setting 'orthorhombic'
loop_
_space_group_symop_operation_xyz
x,y,z
-x,-y,z
1/2-x,y,z
1/2+x,-y,z
1/2+x,1/2+y,1/2+z
1/2-x,1/2-y,1/2+z
-x,1/2+y,1/2+z
x,1/2-y,1/2+z
loop_
_atom_site_type_symbol
_atom_site_label
_atom_site_fract_x
_atom_site_fract_y
_atom_site_fract_z
Si Si1 0.962310 0.207604 0.713470
Si Si2 0.449790 0.870234 0.899507
Si Si3 0.448458 0.048160 0.739759
Si Si4 0.962409 0.125147 0.219715
Si Si5 0.538736 0.290640 0.886867
Si Si6 0.956879 0.047531 0.411554
O O1 0.750000 0.207092 0.708929
O O2 0.023445 0.165620 0.795506
O O3 0.015039 0.248976 0.801310
O O4 0.019603 0.209289 0.550125
O O5 0.250000 0.857447 0.920813
O O6 0.452850 0.915474 0.823396
O O7 0.525068 0.872937 0.057549
O O8 0.250000 0.053868 0.777769
O O9 0.500000 0.000000 0.773029
O O10 0.471050 0.053562 0.570364
O O11 0.750000 0.123862 0.218384
O O12 0.014244 0.166932 0.305401
O O13 0.019023 0.083302 0.303649
O O14 0.750000 0.290415 0.888137
O O15 0.750000 0.050854 0.424771
O O16 0.000000 0.000000 0.364348
#
# Coordination Sequence:
#
# PCOD9378745 Si02
#       6
#     8   8   8   8   8   8
#     4   9  16  25  44  71 105 140 173 213 258 302
#     4  10  19  33  51  76 107 140 173 213 259 307
#     4  11  22  37  56  78 102 134 172 214 258 310
#     4   9  18  30  48  74 107 139 174 216 261 307
#     4   9  15  25  41  70 105 138 173 214 259 303
#     4  10  19  34  54  77 103 135 172 216 262 311
#
# _framework density 20.862016000000001
#
# number of rings (size 3 to 8) (size 9 to 14) (size 15 to 20)
#    0.000    2.333    0.000    5.000    0.000    7.333 
#    0.000    3.333    0.000    0.000    0.000   11.667 
#    0.000    0.000    0.000    0.000    0.000    0.000 
#
# Total GULP energy -134045.191127 kJ/mol
# GULP energy per Si atom -5585.216297 kJ/mol
# Density = 2.081453 g / cm^3
# Si number density = 20.862016 Si / 1000 Ang^3
#
#
#
# Elastic Constant Matrix: (Units=GPa)
#
#
# Indices 1 2 3 4 5 6 
#
# 1 34.0613 -15.0702 -10.5690 0.0000 0.0000 0.0000
# 2 -15.0702 183.2861 130.5988 -0.0003 0.0001 0.0000
# 3 -10.5690 130.5988 183.7628 -0.0008 0.0002 0.0001
# 4 0.0000 -0.0003 -0.0008 19.9347 0.0000 0.0000
# 5 0.0000 0.0001 0.0002 0.0000 2.7547 -0.0001
# 6 0.0000 0.0000 0.0001 0.0000 -0.0001 11.7530
#
#
#
# Elastic Compliance Matrix: (Units=1/GPa)
#
#
# Indices 1 2 3 4 5 6 
#
# 1 0.030467 0.002546 -0.000057 0.000000 0.000000 0.000000
# 2 0.002546 0.011266 -0.007860 0.000000 0.000000 0.000000
# 3 -0.000057 -0.007860 0.011025 0.000000 0.000000 0.000000
# 4 0.000000 0.000000 0.000000 0.050164 -0.000001 0.000000
# 5 0.000000 0.000000 0.000000 -0.000001 0.363010 0.000004
# 6 0.000000 0.000000 0.000000 0.000000 0.000004 0.085085
#
#
# Mechanical properties :
#
#
# Convention : Reuss Voigt Hill
#
# Bulk Modulus (GPa) = 23.80088 67.89217 45.84653
# Shear Modulus (GPa) = 8.68410 26.63187 17.65799
#
# Velocity S-wave (km/s) = 2.04247 3.57679 2.91248
# Velocity P-wave (km/s) = 4.12259 7.04784 5.77355
#
# Compressibility (1/GPa) = 0.04201525
#
# Stress axis : x y z
#
# Youngs Moduli (GPa) = 32.82191 88.76267 90.70502
#
# Poissons Ratio (x) = -0.22595 0.00515
# Poissons Ratio (y) = -0.08355 0.71296
# Poissons Ratio (z) = 0.00186 0.69770
#
# Static dielectric constant tensor:
#      x y z
#    x 1.799880 0.000000 0.000000 
#    y 0.000000 1.736280 0.000000 
#    z 0.000000 0.000000 1.710150 
# 
# From -- ./inp_files/4802.got.cif
#   From: 2010.05.17/outbox.cif.g08.bks.cpg/sg46_3_cif.got.tgz:4802.got - 2010.06.03 19:58:25.
