data_PCOD9378566
_publ_section_title
;
Structure prediction by ZEFSAII (Michael W. Deem and Ramdas Pophale) SiO2 
 PCOD9378566
Probable space group: I M A 2
;
_chemical_formula_sum "Si O2"
_cell_formula_units_Z 48
_cell_length_a 18.895566
_cell_length_b 22.110351
_cell_length_c 5.375797
_cell_angle_alpha 90.000000
_cell_angle_beta 90.000000
_cell_angle_gamma 90.000000
_cell_volume 2245.941308
_symmetry_space_group_name_H-M "I M A 2"
_symmetry_group_IT_number 46
_symmetry_cell_setting 'orthorhombic'
loop_
_space_group_symop_operation_xyz
x,y,z
-x,-y,z
1/2-x,y,z
1/2+x,-y,z
1/2+x,1/2+y,1/2+z
1/2-x,1/2-y,1/2+z
-x,1/2+y,1/2+z
x,1/2-y,1/2+z
loop_
_atom_site_type_symbol
_atom_site_label
_atom_site_fract_x
_atom_site_fract_y
_atom_site_fract_z
Si Si1 0.327174 0.290251 0.635330
Si Si2 0.026324 0.595150 0.616405
Si Si3 0.449394 0.769993 0.983532
Si Si4 0.058415 0.336750 0.959080
Si Si5 0.169577 0.423934 0.114423
Si Si6 0.885095 0.980869 0.096329
O O1 0.250000 0.321367 0.638700
O O2 0.329211 0.254262 0.377173
O O3 0.393982 0.169310 0.206687
O O4 0.035837 0.658654 0.472560
O O5 0.093062 0.551134 0.609163
O O6 0.958603 0.555074 0.544191
O O7 0.004783 0.617428 0.894366
O O8 0.411718 0.755357 0.241928
O O9 0.520114 0.726688 0.015222
O O10 0.115310 0.367404 0.137788
O O11 0.250000 0.402445 0.093356
O O12 0.162205 0.464640 0.359236
O O13 0.146431 0.458612 0.861011
#
# Coordination Sequence:
#
# PCOD9378566 Si02
#       6
#     8   8   8   8   8   8
#     4  10  20  32  46  68 103 149 193 222 252 310
#     4   9  20  36  57  82 113 150 189 235 288 337
#     4  10  19  31  50  77 112 145 176 217 276 337
#     4  10  20  35  54  81 113 147 180 229 285 338
#     4  11  23  39  58  81 113 153 197 238 274 326
#     4  10  22  38  58  81 109 148 195 242 285 327
#
# _framework density 21.371884000000001
#
# number of rings (size 3 to 8) (size 9 to 14) (size 15 to 20)
#    0.000    2.000    0.000    4.000    0.000   10.667 
#    0.000    5.000    0.000    2.000    0.000    0.000 
#    0.000   53.333    0.000    0.000    0.000    0.000 
#
# Total GULP energy -133885.052177 kJ/mol
# GULP energy per Si atom -5578.543841 kJ/mol
# Density = 2.132324 g / cm^3
# Si number density = 21.371884 Si / 1000 Ang^3
#
#
#
# Elastic Constant Matrix: (Units=GPa)
#
#
# Indices 1 2 3 4 5 6 
#
# 1 23.1611 23.2376 21.1906 0.0000 0.0000 0.0000
# 2 23.2376 138.1211 39.0170 0.0000 0.0000 0.0000
# 3 21.1906 39.0170 140.1588 0.0000 0.0000 0.0000
# 4 0.0000 0.0000 0.0000 27.9203 0.0000 0.0000
# 5 0.0000 0.0000 0.0000 0.0000 13.2330 0.0000
# 6 0.0000 0.0000 0.0000 0.0000 0.0000 23.5656
#
#
#
# Elastic Compliance Matrix: (Units=1/GPa)
#
#
# Indices 1 2 3 4 5 6 
#
# 1 0.056834 -0.007743 -0.006437 0.000000 0.000000 0.000000
# 2 -0.007743 0.008913 -0.001310 0.000000 0.000000 0.000000
# 3 -0.006437 -0.001310 0.008473 0.000000 0.000000 0.000000
# 4 0.000000 0.000000 0.000000 0.035816 0.000000 0.000000
# 5 0.000000 0.000000 0.000000 0.000000 0.075569 0.000000
# 6 0.000000 0.000000 0.000000 0.000000 0.000000 0.042435
#
#
# Mechanical properties :
#
#
# Convention : Reuss Voigt Hill
#
# Bulk Modulus (GPa) = 23.12784 52.03685 37.58234
# Shear Modulus (GPa) = 18.28590 27.47683 22.88136
#
# Velocity S-wave (km/s) = 2.92825 3.58949 3.27560
# Velocity P-wave (km/s) = 4.71995 6.44829 5.65059
#
# Compressibility (1/GPa) = 0.04323794
#
# Stress axis : x y z
#
# Youngs Moduli (GPa) = 17.59499 112.19605 118.02478
#
# Poissons Ratio (x) = 0.86879 0.75975
# Poissons Ratio (y) = 0.13625 0.15466
# Poissons Ratio (z) = 0.11326 0.14703
#
# Static dielectric constant tensor:
#      x y z
#    x 1.781020 0.000000 0.000000 
#    y 0.000000 1.829370 0.000000 
#    z 0.000000 0.000000 1.898970 
# 
# From -- ./inp_files/2052.got.cif
#   From: 2010.05.17/outbox.cif.g08.bks.cpg/sg46_2_cif.got.tgz:2052.got - 2010.06.03 19:58:25.
