data_PCOD9378740
_publ_section_title
;
Structure prediction by ZEFSAII (Michael W. Deem and Ramdas Pophale) SiO2 
 PCOD9378740
Probable space group: I M A 2
;
_chemical_formula_sum "Si O2"
_cell_formula_units_Z 48
_cell_length_a 10.347445
_cell_length_b 7.359333
_cell_length_c 29.706139
_cell_angle_alpha 90.000000
_cell_angle_beta 90.000000
_cell_angle_gamma 90.000000
_cell_volume 2262.131202
_symmetry_space_group_name_H-M "I M A 2"
_symmetry_group_IT_number 46
_symmetry_cell_setting 'orthorhombic'
loop_
_space_group_symop_operation_xyz
x,y,z
-x,-y,z
1/2-x,y,z
1/2+x,-y,z
1/2+x,1/2+y,1/2+z
1/2-x,1/2-y,1/2+z
-x,1/2+y,1/2+z
x,1/2-y,1/2+z
loop_
_atom_site_type_symbol
_atom_site_label
_atom_site_fract_x
_atom_site_fract_y
_atom_site_fract_z
Si Si1 0.003271 0.277249 0.417220
Si Si2 0.096209 0.171460 0.110816
Si Si3 0.750000 0.269063 0.362438
Si Si4 0.505204 0.712305 0.206597
Si Si5 0.094933 0.176128 0.011267
Si Si6 0.250000 0.281972 0.259280
Si Si7 0.750000 0.271592 0.256498
Si Si8 0.750000 0.788268 0.861298
O O1 0.036878 0.220156 0.468227
O O2 0.123531 0.225615 0.386714
O O3 0.000000 0.500000 0.418478
O O4 0.874545 0.215988 0.391926
O O5 0.250000 0.128900 0.117441
O O6 0.040591 0.273211 0.154174
O O7 0.088379 0.261948 0.061201
O O8 0.000000 0.000000 0.108891
O O9 0.750000 0.215586 0.309405
O O10 0.750000 0.490795 0.361390
O O11 0.500000 0.500000 0.216977
O O12 0.624829 0.788209 0.234117
O O13 0.373394 0.787095 0.227111
O O14 0.250000 0.134049 0.003064
O O15 0.000000 0.000000 0.013986
O O16 0.250000 0.504751 0.257800
O O17 0.250000 0.226896 0.310501
#
# Coordination Sequence:
#
# PCOD9378740 Si02
#       8
#     8   8   4   8   8   4   4   4
#     4   9  15  22  35  57  85 122 156 187 231 291
#     4  10  21  36  52  73 101 134 170 212 254 298
#     4   9  16  24  35  59  91 125 153 189 234 291
#     4  10  19  33  51  72  99 133 169 208 251 295
#     4   9  17  28  42  61  89 125 161 197 243 293
#     4   9  16  28  44  65  93 131 161 203 246 295
#     4   9  18  28  44  67  97 129 165 199 250 297
#     4   9  14  22  37  57  87 119 159 189 232 293
#
# _framework density 21.218927999999998
#
# number of rings (size 3 to 8) (size 9 to 14) (size 15 to 20)
#    0.000    2.667    1.667    1.000    4.667    4.000 
#    0.000    0.000    0.000    0.000    0.000    0.000 
#    0.000    8.000    0.000    0.000    0.000    0.000 
#
# Total GULP energy -133687.162684 kJ/mol
# GULP energy per Si atom -5570.298445 kJ/mol
# Density = 2.117063 g / cm^3
# Si number density = 21.218928 Si / 1000 Ang^3
#
#
#
# Elastic Constant Matrix: (Units=GPa)
#
#
# Indices 1 2 3 4 5 6 
#
# 1 220.5749 13.7144 117.7911 0.0000 0.0000 0.0000
# 2 13.7144 53.4212 2.6097 0.0000 0.0000 0.0000
# 3 117.7911 2.6097 207.2761 0.0000 0.0000 0.0000
# 4 0.0000 0.0000 0.0000 5.1123 0.0000 0.0000
# 5 0.0000 0.0000 0.0000 0.0000 46.3276 0.0000
# 6 0.0000 0.0000 0.0000 0.0000 0.0000 -7.1517
#
#
#
# Elastic Compliance Matrix: (Units=1/GPa)
#
#
# Indices 1 2 3 4 5 6 
#
# 1 0.006630 -0.001519 -0.003748 0.000000 0.000000 0.000000
# 2 -0.001519 0.019079 0.000623 0.000000 0.000000 0.000000
# 3 -0.003748 0.000623 0.006947 0.000000 0.000000 0.000000
# 4 0.000000 0.000000 0.000000 0.195605 0.000000 0.000000
# 5 0.000000 0.000000 0.000000 0.000000 0.021585 0.000000
# 6 0.000000 0.000000 0.000000 0.000000 0.000000 -0.139827
#
#
# Mechanical properties :
#
#
# Convention : Reuss Voigt Hill
#
# Bulk Modulus (GPa) = 42.79641 83.27806 63.03724
# Shear Modulus (GPa) = 39.34029 32.00145 35.67087
#
# Velocity S-wave (km/s) = 4.31050 3.88771 4.10455
# Velocity P-wave (km/s) = 6.70721 7.71263 7.22742
#
# Compressibility (1/GPa) = 0.02336645
#
# Stress axis : x y z
#
# Youngs Moduli (GPa) = 150.83422 52.41463 143.95070
#
# Poissons Ratio (x) = 0.07961 0.53959
# Poissons Ratio (y) = 0.22910 -0.08967
# Poissons Ratio (z) = 0.56540 -0.03265
#
# Static dielectric constant tensor:
#      x y z
#    x 1.846570 0.000000 0.000000 
#    y 0.000000 1.839560 0.000000 
#    z 0.000000 0.000000 1.778800 
# 
# From -- ./inp_files/23471.got.cif
#   From: 2010.05.17/outbox.cif.g08.bks.cpg/sg46_12_cif.got.tgz:23471.got - 2010.06.03 19:58:25.
