data_PCOD9378549
_publ_section_title
;
Structure prediction by ZEFSAII (Michael W. Deem and Ramdas Pophale) SiO2 
 PCOD9378549
Probable space group: I M A 2
;
_chemical_formula_sum "Si O2"
_cell_formula_units_Z 64
_cell_length_a 8.429579
_cell_length_b 14.580540
_cell_length_c 30.571360
_cell_angle_alpha 90.000000
_cell_angle_beta 90.000000
_cell_angle_gamma 90.000000
_cell_volume 3757.459022
_symmetry_space_group_name_H-M "I M A 2"
_symmetry_group_IT_number 46
_symmetry_cell_setting 'orthorhombic'
loop_
_space_group_symop_operation_xyz
x,y,z
-x,-y,z
1/2-x,y,z
1/2+x,-y,z
1/2+x,1/2+y,1/2+z
1/2-x,1/2-y,1/2+z
-x,1/2+y,1/2+z
x,1/2-y,1/2+z
loop_
_atom_site_type_symbol
_atom_site_label
_atom_site_fract_x
_atom_site_fract_y
_atom_site_fract_z
Si Si1 0.561177 0.103268 0.785820
Si Si2 0.561363 0.895618 0.875674
Si Si3 0.065148 0.413772 0.610915
Si Si4 0.938783 0.261943 0.550611
Si Si5 0.056365 0.798455 0.696809
Si Si6 0.559824 0.894791 0.606822
Si Si7 0.558450 0.606760 0.474254
Si Si8 0.068745 0.904865 0.204876
O O1 0.750000 0.104458 0.786825
O O2 0.503339 0.149304 0.831144
O O3 0.510733 0.143655 0.739353
O O4 0.500000 0.000000 0.786531
O O5 0.750000 0.896468 0.872540
O O6 0.519022 0.862723 0.924340
O O7 0.500000 0.000000 0.875486
O O8 0.250000 0.422302 0.622248
O O9 0.000000 0.500000 0.583234
O O10 0.035094 0.321366 0.585861
O O11 0.950101 0.414258 0.652553
O O12 0.750000 0.270285 0.556711
O O13 0.989322 0.158997 0.564394
O O14 0.985577 0.316101 0.506286
O O15 0.250000 0.794674 0.692900
O O16 0.996065 0.696124 0.709341
O O17 0.993783 0.841778 0.651579
O O18 0.750000 0.893453 0.604817
O O19 0.500000 0.000000 0.608853
O O20 0.500000 0.500000 0.479800
O O21 0.750000 0.605379 0.479981
O O22 0.250000 0.900340 0.218627
O O23 0.000000 0.000000 0.223280
#
# Coordination Sequence:
#
# PCOD9378549 Si02
#       8
#     8   8   8   8   8   8   8   8
#     4  10  19  31  49  74 103 137 174 213 257 306
#     4   9  17  30  49  73 104 137 168 208 256 308
#     4  11  20  31  47  69  96 130 167 204 249 294
#     4  12  23  36  52  73 101 134 172 212 253 303
#     4  10  21  36  53  75 104 138 176 217 259 306
#     4  12  25  40  57  75 100 135 175 218 262 306
#     4  10  20  34  52  78 109 140 173 210 258 313
#     4  10  19  32  49  69  98 131 168 210 255 301
#
# _framework density 17.032788
#
# number of rings (size 3 to 8) (size 9 to 14) (size 15 to 20)
#    0.000    1.500    1.250    7.125    0.000    4.000 
#    0.000    0.000    0.000    0.000    0.000    0.875 
#    0.000    4.000    0.000    0.000    0.000    0.000 
#
# Total GULP energy -178141.019229 kJ/mol
# GULP energy per Si atom -5566.906851 kJ/mol
# Density = 1.699402 g / cm^3
# Si number density = 17.032788 Si / 1000 Ang^3
#
#
#
# Elastic Constant Matrix: (Units=GPa)
#
#
# Indices 1 2 3 4 5 6 
#
# 1 67.5718 23.3093 24.1985 0.0000 0.0000 0.0000
# 2 23.3093 100.3678 40.3130 0.0000 0.0000 0.0000
# 3 24.1985 40.3130 100.8914 0.0000 0.0000 0.0000
# 4 0.0000 0.0000 0.0000 17.9744 0.0000 0.0000
# 5 0.0000 0.0000 0.0000 0.0000 25.0008 0.0000
# 6 0.0000 0.0000 0.0000 0.0000 0.0000 23.0750
#
#
#
# Elastic Compliance Matrix: (Units=1/GPa)
#
#
# Indices 1 2 3 4 5 6 
#
# 1 0.016790 -0.002718 -0.002941 0.000000 0.000000 0.000000
# 2 -0.002718 0.012308 -0.004266 0.000000 0.000000 0.000000
# 3 -0.002941 -0.004266 0.012322 0.000000 0.000000 0.000000
# 4 0.000000 0.000000 0.000000 0.055635 0.000000 0.000000
# 5 0.000000 0.000000 0.000000 0.000000 0.039999 0.000000
# 6 0.000000 0.000000 0.000000 0.000000 0.000000 0.043337
#
#
# Mechanical properties :
#
#
# Convention : Reuss Voigt Hill
#
# Bulk Modulus (GPa) = 46.36165 49.38583 47.87374
# Shear Modulus (GPa) = 24.10456 25.27739 24.69098
#
# Velocity S-wave (km/s) = 3.76598 3.85651 3.81151
# Velocity P-wave (km/s) = 6.79619 6.99197 6.89478
#
# Compressibility (1/GPa) = 0.02156955
#
# Stress axis : x y z
#
# Youngs Moduli (GPa) = 59.55970 81.24777 81.15846
#
# Poissons Ratio (x) = 0.22083 0.23868
# Poissons Ratio (y) = 0.16188 0.34622
# Poissons Ratio (z) = 0.17516 0.34660
#
# Static dielectric constant tensor:
#      x y z
#    x 1.583350 0.000000 0.000000 
#    y 0.000000 1.698490 0.000000 
#    z 0.000000 0.000000 1.623630 
# 
# From -- ./inp_files/25309.got.cif
#   From: 2010.05.17/outbox.cif.g08.bks.cpg/sg46_13_cif.got.tgz:25309.got - 2010.06.03 19:58:25.
