data_PCOD9378612
_publ_section_title
;
Structure prediction by ZEFSAII (Michael W. Deem and Ramdas Pophale) SiO2 
 PCOD9378612
Probable space group: I M A 2
;
_chemical_formula_sum "Si O2"
_cell_formula_units_Z 64
_cell_length_a 8.819607
_cell_length_b 20.216323
_cell_length_c 21.135983
_cell_angle_alpha 90.000000
_cell_angle_beta 90.000000
_cell_angle_gamma 90.000000
_cell_volume 3768.546273
_symmetry_space_group_name_H-M "I M A 2"
_symmetry_group_IT_number 46
_symmetry_cell_setting 'orthorhombic'
loop_
_space_group_symop_operation_xyz
x,y,z
-x,-y,z
1/2-x,y,z
1/2+x,-y,z
1/2+x,1/2+y,1/2+z
1/2-x,1/2-y,1/2+z
-x,1/2+y,1/2+z
x,1/2-y,1/2+z
loop_
_atom_site_type_symbol
_atom_site_label
_atom_site_fract_x
_atom_site_fract_y
_atom_site_fract_z
Si Si1 0.068199 0.293701 0.882750
Si Si2 0.933024 0.210501 0.141030
Si Si3 0.931978 0.068696 0.718415
Si Si4 0.068416 0.569233 0.687318
Si Si5 0.932082 0.710497 0.024469
Si Si6 0.068534 0.929921 0.336998
Si Si7 0.067622 0.710885 0.268455
Si Si8 0.931838 0.931353 0.577457
O O1 0.250000 0.297159 0.879908
O O2 0.001671 0.366703 0.870955
O O3 0.007624 0.245520 0.828303
O O4 0.023040 0.271262 0.953245
O O5 0.750000 0.211657 0.138810
O O6 0.983202 0.134744 0.150818
O O7 0.978101 0.251491 0.203794
O O8 0.996135 0.244675 0.078663
O O9 0.750000 0.063771 0.712886
O O10 0.968762 0.133608 0.759091
O O11 0.001207 0.077534 0.648146
O O12 0.000000 0.000000 0.743593
O O13 0.250000 0.565639 0.683002
O O14 0.031554 0.577229 0.761944
O O15 0.000000 0.500000 0.665168
O O16 0.750000 0.715183 0.029508
O O17 0.972259 0.633783 0.038023
O O18 0.250000 0.930401 0.343541
O O19 0.000000 0.000000 0.358294
O O20 0.250000 0.717631 0.274080
O O21 0.750000 0.936885 0.581147
O O22 0.000000 0.000000 0.552109
#
# Coordination Sequence:
#
# PCOD9378612 Si02
#       8
#     8   8   8   8   8   8   8   8
#     4  11  23  37  53  77 110 146 184 224 270 320
#     4  10  19  35  57  80 106 138 178 221 268 318
#     4  10  19  32  53  80 109 136 171 218 268 317
#     4   9  18  32  52  79 108 135 170 217 262 314
#     4  10  23  38  51  76 110 142 181 224 265 317
#     4  10  19  34  53  77 110 145 183 223 264 317
#     4  10  20  36  56  80 108 139 178 224 269 320
#     4  10  19  32  50  73 105 141 178 215 256 309
#
# _framework density 16.982676000000001
#
# number of rings (size 3 to 8) (size 9 to 14) (size 15 to 20)
#    0.000    2.000    2.500    2.250    0.000    4.500 
#    0.000    1.250    0.000    0.750    0.000    0.000 
#    0.000    0.000    0.000    0.000    0.000    0.000 
#
# Total GULP energy -178610.781401 kJ/mol
# GULP energy per Si atom -5581.586919 kJ/mol
# Density = 1.694402 g / cm^3
# Si number density = 16.982676 Si / 1000 Ang^3
#
#
#
# Elastic Constant Matrix: (Units=GPa)
#
#
# Indices 1 2 3 4 5 6 
#
# 1 36.2335 42.6696 37.9753 0.0000 0.0000 0.0000
# 2 42.6696 140.0877 76.5621 0.0000 0.0000 0.0000
# 3 37.9753 76.5621 116.5560 0.0000 0.0000 0.0000
# 4 0.0000 0.0000 0.0000 20.4103 0.0000 0.0000
# 5 0.0000 0.0000 0.0000 0.0000 18.6168 0.0000
# 6 0.0000 0.0000 0.0000 0.0000 0.0000 32.8610
#
#
#
# Elastic Compliance Matrix: (Units=1/GPa)
#
#
# Indices 1 2 3 4 5 6 
#
# 1 0.049111 -0.009694 -0.009633 0.000000 0.000000 0.000000
# 2 -0.009694 0.013050 -0.005414 0.000000 0.000000 0.000000
# 3 -0.009633 -0.005414 0.015274 0.000000 0.000000 0.000000
# 4 0.000000 0.000000 0.000000 0.048995 0.000000 0.000000
# 5 0.000000 0.000000 0.000000 0.000000 0.053715 0.000000
# 6 0.000000 0.000000 0.000000 0.000000 0.000000 0.030431
#
#
# Mechanical properties :
#
#
# Convention : Reuss Voigt Hill
#
# Bulk Modulus (GPa) = 35.77386 67.47680 51.62533
# Shear Modulus (GPa) = 18.56145 23.42230 20.99188
#
# Velocity S-wave (km/s) = 3.30959 3.71777 3.51960
# Velocity P-wave (km/s) = 5.97621 7.63204 6.85431
#
# Compressibility (1/GPa) = 0.02795337
#
# Stress axis : x y z
#
# Youngs Moduli (GPa) = 20.36202 76.62960 65.46977
#
# Poissons Ratio (x) = 0.74285 0.63069
# Poissons Ratio (y) = 0.19739 0.35443
# Poissons Ratio (z) = 0.19615 0.41484
#
# Static dielectric constant tensor:
#      x y z
#    x 1.570660 0.000000 0.000000 
#    y 0.000000 1.579030 0.000000 
#    z 0.000000 0.000000 1.555620 
# 
# From -- ./inp_files/18596.got.cif
#   From: 2010.05.17/outbox.cif.g08.bks.cpg/sg46_10_cif.got.tgz:18596.got - 2010.06.03 19:58:25.
