data_PCOD9378503
_publ_section_title
;
Structure prediction by ZEFSAII (Michael W. Deem and Ramdas Pophale) SiO2 
 PCOD9378503
Probable space group: I M A 2
;
_chemical_formula_sum "Si O2"
_cell_formula_units_Z 48
_cell_length_a 9.726448
_cell_length_b 28.435868
_cell_length_c 8.679333
_cell_angle_alpha 90.000000
_cell_angle_beta 90.000000
_cell_angle_gamma 90.000000
_cell_volume 2400.529847
_symmetry_space_group_name_H-M "I M A 2"
_symmetry_group_IT_number 46
_symmetry_cell_setting 'orthorhombic'
loop_
_space_group_symop_operation_xyz
x,y,z
-x,-y,z
1/2-x,y,z
1/2+x,-y,z
1/2+x,1/2+y,1/2+z
1/2-x,1/2-y,1/2+z
-x,1/2+y,1/2+z
x,1/2-y,1/2+z
loop_
_atom_site_type_symbol
_atom_site_label
_atom_site_fract_x
_atom_site_fract_y
_atom_site_fract_z
Si Si1 0.250000 0.216010 0.776041
Si Si2 0.750000 0.214850 0.230870
Si Si3 0.750000 0.814924 0.427641
Si Si4 0.750000 0.314734 0.375290
Si Si5 0.462212 0.354740 0.415455
Si Si6 0.912225 0.958857 0.915621
Si Si7 0.413257 0.957895 0.237160
Si Si8 0.991981 0.145425 0.280469
O O1 0.250000 0.206628 0.595903
O O2 0.250000 0.270819 0.811511
O O3 0.121786 0.189114 0.851134
O O4 0.750000 0.269712 0.266115
O O5 0.617745 0.187307 0.295408
O O6 0.750000 0.206164 0.048315
O O7 0.883336 0.845518 0.393737
O O8 0.617393 0.346906 0.363817
O O9 0.412930 0.405415 0.355281
O O10 0.455591 0.353405 0.602191
O O11 0.750000 0.971401 0.936741
O O12 0.000000 0.000000 0.831488
O O13 0.003860 0.953767 0.073510
O O14 0.250000 0.968440 0.222126
O O15 0.427306 0.905897 0.306583
O O16 0.500000 0.000000 0.316705
#
# Coordination Sequence:
#
# PCOD9378503 Si02
#       8
#     4   4   4   4   8   8   8   8
#     4  12  24  44  57  90 114 158 203 250 295 362
#     4  10  20  38  53  84 116 146 193 236 293 342
#     4  12  26  38  65  82 120 156 203 246 303 354
#     4  10  22  34  59  82 114 154 187 242 287 356
#     4  10  21  37  60  86 124 151 197 243 299 346
#     4  10  19  30  54  89 123 157 192 244 294 349
#     4  10  19  31  55  90 126 153 195 245 297 351
#     4  10  21  37  58  90 119 158 191 247 293 353
#
# _framework density 19.995587
#
# number of rings (size 3 to 8) (size 9 to 14) (size 15 to 20)
#    0.000    1.667    1.667    4.500    9.333    4.000 
#    0.000    0.000    0.000    1.000    0.000    0.000 
#    0.000    0.000    0.000    0.000    0.000    0.000 
#
# Total GULP energy -133824.331475 kJ/mol
# GULP energy per Si atom -5576.013811 kJ/mol
# Density = 1.995008 g / cm^3
# Si number density = 19.995587 Si / 1000 Ang^3
#
#
#
# Elastic Constant Matrix: (Units=GPa)
#
#
# Indices 1 2 3 4 5 6 
#
# 1 152.4809 26.6517 21.1338 0.0018 -0.0009 -0.0027
# 2 26.6517 94.7530 8.3518 -0.0001 0.0015 0.0012
# 3 21.1338 8.3518 16.8139 0.0158 -0.0034 -0.0029
# 4 0.0018 -0.0001 0.0158 10.5672 -0.0034 0.0006
# 5 -0.0009 0.0015 -0.0034 -0.0034 0.9814 0.0041
# 6 -0.0027 0.0012 -0.0029 0.0006 0.0041 20.8501
#
#
#
# Elastic Compliance Matrix: (Units=1/GPa)
#
#
# Indices 1 2 3 4 5 6 
#
# 1 0.008128 -0.001449 -0.009496 0.000013 -0.000023 0.000000
# 2 -0.001449 0.011295 -0.003789 0.000006 -0.000032 -0.000001
# 3 -0.009496 -0.003789 0.073293 -0.000108 0.000253 0.000009
# 4 0.000013 0.000006 -0.000108 0.094633 0.000327 -0.000003
# 5 -0.000023 -0.000032 0.000253 0.000327 1.018986 -0.000200
# 6 0.000000 -0.000001 0.000009 -0.000003 -0.000200 0.047961
#
#
# Mechanical properties :
#
#
# Convention : Reuss Voigt Hill
#
# Bulk Modulus (GPa) = 15.81106 41.81359 28.81233
# Shear Modulus (GPa) = 3.83187 20.34045 12.08616
#
# Velocity S-wave (km/s) = 1.38583 3.19289 2.46121
# Velocity P-wave (km/s) = 3.23808 5.87789 4.74524
#
# Compressibility (1/GPa) = 0.06324686
#
# Stress axis : x y z
#
# Youngs Moduli (GPa) = 123.03711 88.53210 13.64396
#
# Poissons Ratio (x) = 0.12829 0.12956
# Poissons Ratio (y) = 0.17829 0.05170
# Poissons Ratio (z) = 1.16836 0.33546
#
# Static dielectric constant tensor:
#      x y z
#    x 1.724770 -0.000010 0.000010 
#    y -0.000010 1.747180 0.000000 
#    z 0.000010 0.000000 1.713610 
# 
# From -- ./inp_files/4033.got.cif
#   From: 2010.05.17/outbox.cif.g08.bks.cpg/sg46_3_cif.got.tgz:4033.got - 2010.06.03 19:58:25.
