data_PCOD9378465
_publ_section_title
;
Structure prediction by ZEFSAII (Michael W. Deem and Ramdas Pophale) SiO2 
 PCOD9378465
Probable space group: I M A 2
;
_chemical_formula_sum "Si O2"
_cell_formula_units_Z 64
_cell_length_a 8.122667
_cell_length_b 28.650387
_cell_length_c 15.227056
_cell_angle_alpha 90.000000
_cell_angle_beta 90.000000
_cell_angle_gamma 90.000000
_cell_volume 3543.603212
_symmetry_space_group_name_H-M "I M A 2"
_symmetry_group_IT_number 46
_symmetry_cell_setting 'orthorhombic'
loop_
_space_group_symop_operation_xyz
x,y,z
-x,-y,z
1/2-x,y,z
1/2+x,-y,z
1/2+x,1/2+y,1/2+z
1/2-x,1/2-y,1/2+z
-x,1/2+y,1/2+z
x,1/2-y,1/2+z
loop_
_atom_site_type_symbol
_atom_site_label
_atom_site_fract_x
_atom_site_fract_y
_atom_site_fract_z
Si Si1 0.053574 0.947054 0.396080
Si Si2 0.551270 0.673542 0.196133
Si Si3 0.946009 0.670815 0.392169
Si Si4 0.048124 0.363891 0.574638
Si Si5 0.448230 0.862632 0.515283
Si Si6 0.054099 0.776501 0.398257
Si Si7 0.550749 0.719701 0.701539
Si Si8 0.946572 0.552832 0.697573
O O1 0.250000 0.946283 0.398469
O O2 0.989956 0.908487 0.464423
O O3 0.001715 0.935291 0.296510
O O4 0.000000 0.000000 0.415080
O O5 0.750000 0.673301 0.197803
O O6 0.489664 0.660958 0.294026
O O7 0.494322 0.641425 0.116815
O O8 0.498848 0.727366 0.179276
O O9 0.750000 0.663409 0.388677
O O10 0.010707 0.641674 0.474717
O O11 0.974864 0.725706 0.410799
O O12 0.250000 0.364336 0.573331
O O13 0.998849 0.318273 0.630380
O O14 0.992128 0.409595 0.627027
O O15 0.250000 0.862564 0.508602
O O16 0.507887 0.816066 0.464746
O O17 0.250000 0.771465 0.408565
O O18 0.015764 0.791593 0.298374
O O19 0.750000 0.719238 0.706319
O O20 0.750000 0.554231 0.697100
O O21 0.000000 0.500000 0.678546
#
# Coordination Sequence:
#
# PCOD9378465 Si02
#       8
#     8   8   8   8   8   8   8   8
#     4  10  20  35  52  72  97 125 153 189 234 281
#     4   9  18  30  48  70  92 122 160 196 233 271
#     4   9  18  34  50  67  93 126 162 200 231 265
#     4   9  17  30  51  72  92 122 162 197 230 273
#     4  10  21  33  47  68  97 127 156 191 236 282
#     4  10  19  30  44  68  99 130 157 187 231 282
#     4   9  17  30  47  70  96 125 159 195 229 269
#     4  10  19  32  51  75  99 125 152 187 234 283
#
# _framework density 18.060711999999999
#
# number of rings (size 3 to 8) (size 9 to 14) (size 15 to 20)
#    0.000    2.500    0.000    4.125    0.000    5.000 
#    0.000    2.500    0.000    0.750    0.000    3.500 
#    0.000    0.000    0.000    0.000    0.000    0.000 
#
# Total GULP energy -178528.043035 kJ/mol
# GULP energy per Si atom -5579.001345 kJ/mol
# Density = 1.801960 g / cm^3
# Si number density = 18.060712 Si / 1000 Ang^3
#
#
#
# Elastic Constant Matrix: (Units=GPa)
#
#
# Indices 1 2 3 4 5 6 
#
# 1 9.9734 4.5218 5.8679 0.0000 0.0000 0.0000
# 2 4.5218 91.3721 102.4560 0.0000 0.0000 0.0000
# 3 5.8679 102.4560 161.8614 0.0000 0.0000 0.0000
# 4 0.0000 0.0000 0.0000 31.9452 0.0000 0.0000
# 5 0.0000 0.0000 0.0000 0.0000 18.7191 0.0000
# 6 0.0000 0.0000 0.0000 0.0000 0.0000 15.4966
#
#
#
# Elastic Compliance Matrix: (Units=1/GPa)
#
#
# Indices 1 2 3 4 5 6 
#
# 1 0.102710 -0.003128 -0.001744 0.000000 0.000000 0.000000
# 2 -0.003128 0.037804 -0.023816 0.000000 0.000000 0.000000
# 3 -0.001744 -0.023816 0.021317 0.000000 0.000000 0.000000
# 4 0.000000 0.000000 0.000000 0.031304 0.000000 0.000000
# 5 0.000000 0.000000 0.000000 0.000000 0.053421 0.000000
# 6 0.000000 0.000000 0.000000 0.000000 0.000000 0.064530
#
#
# Mechanical properties :
#
#
# Convention : Reuss Voigt Hill
#
# Bulk Modulus (GPa) = 9.57340 54.32202 31.94771
# Shear Modulus (GPa) = 12.39833 23.25627 17.82730
#
# Velocity S-wave (km/s) = 2.62292 3.59231 3.14519
# Velocity P-wave (km/s) = 3.80593 6.88106 5.56031
#
# Compressibility (1/GPa) = 0.10445604
#
# Stress axis : x y z
#
# Youngs Moduli (GPa) = 9.73613 26.45204 46.91167
#
# Poissons Ratio (x) = 0.08273 0.08180
# Poissons Ratio (y) = 0.03045 1.11726
# Poissons Ratio (z) = 0.01698 0.62999
#
# Static dielectric constant tensor:
#      x y z
#    x 1.636280 0.000000 0.000000 
#    y 0.000000 1.611300 0.000000 
#    z 0.000000 0.000000 1.633140 
# 
# From -- ./inp_files/14494.got.cif
#   From: 2010.05.17/outbox.cif.g08.bks.cpg/sg46_8_cif.got.tgz:14494.got - 2010.06.03 19:58:25.
