data_PCOD9378687
_publ_section_title
;
Structure prediction by ZEFSAII (Michael W. Deem and Ramdas Pophale) SiO2 
 PCOD9378687
Probable space group: I M A 2
;
_chemical_formula_sum "Si O2"
_cell_formula_units_Z 56
_cell_length_a 26.341337
_cell_length_b 18.566601
_cell_length_c 5.279958
_cell_angle_alpha 90.000000
_cell_angle_beta 90.000000
_cell_angle_gamma 90.000000
_cell_volume 2582.264275
_symmetry_space_group_name_H-M "I M A 2"
_symmetry_group_IT_number 46
_symmetry_cell_setting 'orthorhombic'
loop_
_space_group_symop_operation_xyz
x,y,z
-x,-y,z
1/2-x,y,z
1/2+x,-y,z
1/2+x,1/2+y,1/2+z
1/2-x,1/2-y,1/2+z
-x,1/2+y,1/2+z
x,1/2-y,1/2+z
loop_
_atom_site_type_symbol
_atom_site_label
_atom_site_fract_x
_atom_site_fract_y
_atom_site_fract_z
Si Si1 0.942050 0.977113 0.322520
Si Si2 0.020708 0.288222 0.516751
Si Si3 0.655132 0.042028 0.480765
Si Si4 0.188571 0.792685 0.499449
Si Si5 0.810578 0.544950 0.480533
Si Si6 0.855710 0.794103 0.005323
Si Si7 0.035135 0.431359 0.315271
O O1 0.940243 0.915866 0.541497
O O2 0.905277 0.037364 0.429998
O O3 0.927105 0.952492 0.042059
O O4 0.000000 0.000000 0.283365
O O5 0.005409 0.267642 0.798566
O O6 0.082284 0.295404 0.504801
O O7 0.002711 0.365766 0.421592
O O8 0.672200 0.124335 0.493075
O O9 0.668969 0.999836 0.737759
O O10 0.678197 0.998969 0.240463
O O11 0.250000 0.792128 0.499701
O O12 0.171285 0.751152 0.751773
O O13 0.750000 0.549853 0.451718
O O14 0.832640 0.626080 0.492494
O O15 0.840436 0.747383 0.760790
O O16 0.000000 0.500000 0.266673
#
# Coordination Sequence:
#
# PCOD9378687 Si02
#       7
#     8   8   8   8   8   8   8
#     4  10  21  37  62  89 114 151 201 251 302 355
#     4  10  19  32  53  80 109 144 191 242 290 346
#     4  12  23  40  65  93 126 163 210 263 308 367
#     4  10  21  38  61  89 124 165 204 248 310 379
#     4  12  25  39  60  92 127 164 205 253 308 367
#     4  10  21  36  55  81 114 154 199 244 295 356
#     4  10  20  36  58  84 115 149 193 245 303 364
#
# _framework density 21.686395000000001
#
# number of rings (size 3 to 8) (size 9 to 14) (size 15 to 20)
#    0.000    1.429    0.000    6.429    0.000    4.000 
#    0.000    0.000    0.000   20.571    0.000    0.000 
#    0.000    0.000    0.000    0.000    0.000    0.000 
#
# Total GULP energy -156392.652236 kJ/mol
# GULP energy per Si atom -5585.451866 kJ/mol
# Density = 2.163704 g / cm^3
# Si number density = 21.686395 Si / 1000 Ang^3
#
#
#
# Elastic Constant Matrix: (Units=GPa)
#
#
# Indices 1 2 3 4 5 6 
#
# 1 61.8358 18.6423 19.9260 0.0000 0.0000 0.0000
# 2 18.6423 161.5781 67.1789 0.0000 0.0000 0.0000
# 3 19.9260 67.1789 191.7746 0.0000 0.0000 0.0000
# 4 0.0000 0.0000 0.0000 39.7074 0.0000 0.0000
# 5 0.0000 0.0000 0.0000 0.0000 16.5261 0.0000
# 6 0.0000 0.0000 0.0000 0.0000 0.0000 31.4159
#
#
#
# Elastic Compliance Matrix: (Units=1/GPa)
#
#
# Indices 1 2 3 4 5 6 
#
# 1 0.017013 -0.001437 -0.001264 0.000000 0.000000 0.000000
# 2 -0.001437 0.007365 -0.002431 0.000000 0.000000 0.000000
# 3 -0.001264 -0.002431 0.006197 0.000000 0.000000 0.000000
# 4 0.000000 0.000000 0.000000 0.025184 0.000000 0.000000
# 5 0.000000 0.000000 0.000000 0.000000 0.060510 0.000000
# 6 0.000000 0.000000 0.000000 0.000000 0.000000 0.031831
#
#
# Mechanical properties :
#
#
# Convention : Reuss Voigt Hill
#
# Bulk Modulus (GPa) = 49.23477 69.63145 59.43311
# Shear Modulus (GPa) = 30.27814 38.15930 34.21872
#
# Velocity S-wave (km/s) = 3.74060 4.19930 3.97657
# Velocity P-wave (km/s) = 6.43495 7.46259 6.96774
#
# Compressibility (1/GPa) = 0.02031085
#
# Stress axis : x y z
#
# Youngs Moduli (GPa) = 58.78017 135.76958 161.36026
#
# Poissons Ratio (x) = 0.19513 0.20399
# Poissons Ratio (y) = 0.08448 0.39223
# Poissons Ratio (z) = 0.07431 0.33003
#
# Static dielectric constant tensor:
#      x y z
#    x 1.883310 0.000000 0.000000 
#    y 0.000000 1.802510 0.000000 
#    z 0.000000 0.000000 1.857270 
# 
# From -- ./inp_files/2719.got.cif
#   From: 2010.05.17/outbox.cif.g08.bks.cpg/sg46_2_cif.got.tgz:2719.got - 2010.06.03 19:58:25.
