data_PCOD9378418
_publ_section_title
;
Structure prediction by ZEFSAII (Michael W. Deem and Ramdas Pophale) SiO2 
 PCOD9378418
Probable space group: I M A 2
;
_chemical_formula_sum "Si O2"
_cell_formula_units_Z 64
_cell_length_a 9.041378
_cell_length_b 27.082033
_cell_length_c 18.833836
_cell_angle_alpha 90.000000
_cell_angle_beta 90.000000
_cell_angle_gamma 90.000000
_cell_volume 4611.632316
_symmetry_space_group_name_H-M "I M A 2"
_symmetry_group_IT_number 46
_symmetry_cell_setting 'orthorhombic'
loop_
_space_group_symop_operation_xyz
x,y,z
-x,-y,z
1/2-x,y,z
1/2+x,-y,z
1/2+x,1/2+y,1/2+z
1/2-x,1/2-y,1/2+z
-x,1/2+y,1/2+z
x,1/2-y,1/2+z
loop_
_atom_site_type_symbol
_atom_site_label
_atom_site_fract_x
_atom_site_fract_y
_atom_site_fract_z
Si Si1 0.579473 0.298981 0.048220
Si Si2 0.427434 0.948076 0.766776
Si Si3 0.426128 0.246465 0.923650
Si Si4 0.928932 0.252438 0.270608
Si Si5 0.073683 0.145610 0.008018
Si Si6 0.079720 0.695427 0.634920
Si Si7 0.569695 0.149285 0.685487
Si Si8 0.572954 0.052574 0.933569
O O1 0.750000 0.309501 0.028566
O O2 0.580808 0.248249 0.094158
O O3 0.523265 0.339379 0.104675
O O4 0.484386 0.287158 0.979297
O O5 0.250000 0.952029 0.760681
O O6 0.478527 0.902238 0.719051
O O7 0.460564 0.938289 0.849932
O O8 0.500000 0.000000 0.747065
O O9 0.250000 0.248946 0.917503
O O10 0.501475 0.252534 0.847616
O O11 0.464264 0.192789 0.957792
O O12 0.750000 0.252492 0.275240
O O13 0.969983 0.209516 0.214340
O O14 0.974617 0.304883 0.235680
O O15 0.250000 0.139391 0.006728
O O16 0.993705 0.097235 0.978636
O O17 0.018776 0.159930 0.086837
O O18 0.250000 0.677940 0.636521
O O19 0.750000 0.149900 0.684412
O O20 0.750000 0.050171 0.941541
O O21 0.500000 0.000000 0.952228
#
# Coordination Sequence:
#
# PCOD9378418 Si02
#       8
#     8   8   8   8   8   8   8   8
#     4   8  14  26  42  56  73 101 135 167 197 233
#     4   9  17  28  41  58  80 105 134 169 205 237
#     4  10  19  27  37  58  86 110 133 165 202 239
#     4   9  16  27  43  60  78 104 139 171 199 238
#     4  10  19  29  41  58  82 111 140 167 200 243
#     4   8  15  27  42  59  77 100 133 170 203 237
#     4   8  14  26  43  59  75 101 138 172 198 229
#     4  10  19  30  44  60  81 108 138 173 207 238
#
# _framework density 13.877948999999999
#
# number of rings (size 3 to 8) (size 9 to 14) (size 15 to 20)
#    0.000    3.000    0.000    3.375    0.000    3.500 
#    0.000    3.125    0.000    0.000    0.000    0.000 
#    0.000    1.000    0.000    6.750    0.000    4.875 
#
# Total GULP energy -178193.439438 kJ/mol
# GULP energy per Si atom -5568.544982 kJ/mol
# Density = 1.384636 g / cm^3
# Si number density = 13.877949 Si / 1000 Ang^3
#
#
#
# Elastic Constant Matrix: (Units=GPa)
#
#
# Indices 1 2 3 4 5 6 
#
# 1 35.6508 36.5451 42.1756 0.0000 0.0000 0.0000
# 2 36.5451 90.3523 61.6277 0.0000 0.0000 0.0000
# 3 42.1756 61.6277 117.0901 0.0000 0.0000 0.0000
# 4 0.0000 0.0000 0.0000 25.3399 0.0000 0.0000
# 5 0.0000 0.0000 0.0000 0.0000 15.5529 0.0000
# 6 0.0000 0.0000 0.0000 0.0000 0.0000 19.8103
#
#
#
# Elastic Compliance Matrix: (Units=1/GPa)
#
#
# Indices 1 2 3 4 5 6 
#
# 1 0.059153 -0.014653 -0.013594 0.000000 0.000000 0.000000
# 2 -0.014653 0.020896 -0.005720 0.000000 0.000000 0.000000
# 3 -0.013594 -0.005720 0.016448 0.000000 0.000000 0.000000
# 4 0.000000 0.000000 0.000000 0.039463 0.000000 0.000000
# 5 0.000000 0.000000 0.000000 0.000000 0.064297 0.000000
# 6 0.000000 0.000000 0.000000 0.000000 0.000000 0.050479
#
#
# Mechanical properties :
#
#
# Convention : Reuss Voigt Hill
#
# Bulk Modulus (GPa) = 35.01223 58.19891 46.60557
# Shear Modulus (GPa) = 15.23493 18.99027 17.11260
#
# Velocity S-wave (km/s) = 3.31687 3.70317 3.51533
# Velocity P-wave (km/s) = 6.32078 7.76608 7.08040
#
# Compressibility (1/GPa) = 0.02856145
#
# Stress axis : x y z
#
# Youngs Moduli (GPa) = 16.90517 47.85521 60.79835
#
# Poissons Ratio (x) = 0.70125 0.82652
# Poissons Ratio (y) = 0.24772 0.34778
# Poissons Ratio (z) = 0.22982 0.27374
#
# Static dielectric constant tensor:
#      x y z
#    x 1.461590 0.000000 0.000000 
#    y 0.000000 1.440570 0.000000 
#    z 0.000000 0.000000 1.455250 
# 
# From -- ./inp_files/18667.got.cif
#   From: 2010.05.17/outbox.cif.g08.bks.cpg/sg46_10_cif.got.tgz:18667.got - 2010.06.03 19:58:25.
