data_PCOD9378850
_publ_section_title
;
Structure prediction by ZEFSAII (Michael W. Deem and Ramdas Pophale) SiO2 
 PCOD9378850
Probable space group: I M A 2
;
_chemical_formula_sum "Si O2"
_cell_formula_units_Z 48
_cell_length_a 8.228569
_cell_length_b 23.234728
_cell_length_c 11.958807
_cell_angle_alpha 90.000000
_cell_angle_beta 90.000000
_cell_angle_gamma 90.000000
_cell_volume 2286.387120
_symmetry_space_group_name_H-M "I M A 2"
_symmetry_group_IT_number 46
_symmetry_cell_setting 'orthorhombic'
loop_
_space_group_symop_operation_xyz
x,y,z
-x,-y,z
1/2-x,y,z
1/2+x,-y,z
1/2+x,1/2+y,1/2+z
1/2-x,1/2-y,1/2+z
-x,1/2+y,1/2+z
x,1/2-y,1/2+z
loop_
_atom_site_type_symbol
_atom_site_label
_atom_site_fract_x
_atom_site_fract_y
_atom_site_fract_z
Si Si1 0.559228 0.158888 0.500000
Si Si2 0.441186 0.862300 0.251560
Si Si3 0.939093 0.064152 0.681763
Si Si4 0.438303 0.146967 0.865844
Si Si5 0.057885 0.435001 0.556425
Si Si6 0.443211 0.259175 0.193440
O O1 0.750000 0.175123 0.491867
O O2 0.492527 0.149395 0.376174
O O3 0.549384 0.099033 0.566753
O O4 0.475146 0.205290 0.580217
O O5 0.250000 0.874338 0.260454
O O6 0.519789 0.913507 0.181092
O O7 0.471901 0.802074 0.189348
O O8 0.750000 0.066113 0.718111
O O9 0.047421 0.098030 0.771075
O O10 0.000000 0.000000 0.670509
O O11 0.250000 0.160831 0.890988
O O12 0.506003 0.203070 0.800502
O O13 0.512107 0.114706 0.973444
O O14 0.250000 0.435324 0.538097
O O15 0.000000 0.500000 0.534548
O O16 0.250000 0.251345 0.205805
#
# Coordination Sequence:
#
# PCOD9378850 Si02
#       6
#     8   8   8   8   8   8
#     4   9  21  40  58  83 116 153 197 244 295 357
#     4  11  24  41  61  87 120 160 203 249 303 364
#     4  10  19  33  56  84 115 150 192 239 293 347
#     4   9  20  38  60  88 120 154 196 245 298 355
#     4  11  24  42  62  89 124 165 209 253 305 365
#     4  10  21  38  62  91 121 154 197 250 307 364
#
# _framework density 20.993819999999999
#
# number of rings (size 3 to 8) (size 9 to 14) (size 15 to 20)
#    0.000    2.000    0.000    2.500    2.333    6.000 
#    0.000    1.667    0.000    0.000    0.000    0.000 
#    0.000    0.000    0.000    0.000    0.000    0.000 
#
# Total GULP energy -133972.313874 kJ/mol
# GULP energy per Si atom -5582.179745 kJ/mol
# Density = 2.094604 g / cm^3
# Si number density = 20.993820 Si / 1000 Ang^3
#
#
#
# Elastic Constant Matrix: (Units=GPa)
#
#
# Indices 1 2 3 4 5 6 
#
# 1 19.9785 -1.4901 -2.4736 -0.0001 0.0000 0.0000
# 2 -1.4901 58.1067 8.0401 0.0001 0.0000 0.0000
# 3 -2.4736 8.0401 89.2002 -0.0006 -0.0002 -0.0004
# 4 -0.0001 0.0001 -0.0006 11.5476 0.0000 -0.0001
# 5 0.0000 0.0000 -0.0002 0.0000 20.1110 -0.0001
# 6 0.0000 0.0000 -0.0004 -0.0001 -0.0001 16.4185
#
#
#
# Elastic Compliance Matrix: (Units=1/GPa)
#
#
# Indices 1 2 3 4 5 6 
#
# 1 0.050297 0.001111 0.001295 0.000000 0.000000 0.000000
# 2 0.001111 0.017452 -0.001542 0.000000 0.000000 0.000000
# 3 0.001295 -0.001542 0.011386 0.000001 0.000000 0.000000
# 4 0.000000 0.000000 0.000001 0.086598 0.000000 0.000000
# 5 0.000000 0.000000 0.000000 0.000000 0.049724 0.000000
# 6 0.000000 0.000000 0.000000 0.000000 0.000000 0.060907
#
#
# Mechanical properties :
#
#
# Convention : Reuss Voigt Hill
#
# Bulk Modulus (GPa) = 12.36700 19.49315 15.93008
# Shear Modulus (GPa) = 16.57878 20.49602 18.53740
#
# Velocity S-wave (km/s) = 2.81321 3.12795 2.97474
# Velocity P-wave (km/s) = 4.05657 4.72766 4.40491
#
# Compressibility (1/GPa) = 0.08086034
#
# Stress axis : x y z
#
# Youngs Moduli (GPa) = 19.88195 57.30138 87.82993
#
# Poissons Ratio (x) = -0.06364 -0.11371
# Poissons Ratio (y) = -0.02208 0.13545
# Poissons Ratio (z) = -0.02574 0.08837
#
# Static dielectric constant tensor:
#      x y z
#    x 1.761460 0.000000 0.000000 
#    y 0.000000 1.725790 0.000000 
#    z 0.000000 0.000000 1.790590 
# 
# From -- ./inp_files/9291.got.cif
#   From: 2010.05.17/outbox.cif.g08.bks.cpg/sg46_5_cif.got.tgz:9291.got - 2010.06.03 19:58:25.
