data_PCOD9378266
_publ_section_title
;
Structure prediction by ZEFSAII (Michael W. Deem and Ramdas Pophale) SiO2 
 PCOD9378266
Probable space group: I M A 2
;
_chemical_formula_sum "Si O2"
_cell_formula_units_Z 40
_cell_length_a 8.070981
_cell_length_b 18.946942
_cell_length_c 11.229260
_cell_angle_alpha 90.000000
_cell_angle_beta 90.000000
_cell_angle_gamma 90.000000
_cell_volume 1717.183031
_symmetry_space_group_name_H-M "I M A 2"
_symmetry_group_IT_number 46
_symmetry_cell_setting 'orthorhombic'
loop_
_space_group_symop_operation_xyz
x,y,z
-x,-y,z
1/2-x,y,z
1/2+x,-y,z
1/2+x,1/2+y,1/2+z
1/2-x,1/2-y,1/2+z
-x,1/2+y,1/2+z
x,1/2-y,1/2+z
loop_
_atom_site_type_symbol
_atom_site_label
_atom_site_fract_x
_atom_site_fract_y
_atom_site_fract_z
Si Si1 0.947457 0.917939 0.193830
Si Si2 0.054885 0.918476 0.454839
Si Si3 0.054794 0.217407 0.564453
Si Si4 0.945205 0.782592 0.823211
Si Si5 0.945115 0.418476 0.432820
O O1 0.750000 0.911481 0.193827
O O2 0.013818 0.891952 0.320343
O O3 0.000000 0.000000 0.193831
O O4 0.013824 0.891953 0.067319
O O5 0.250000 0.914487 0.474291
O O6 0.963426 0.866404 0.544812
O O7 0.000000 0.000000 0.463874
O O8 0.250000 0.236273 0.566577
O O9 0.984857 0.237383 0.693831
O O10 0.979794 0.249999 0.443831
O O11 0.750000 0.763725 0.821087
O O12 0.963424 0.866403 0.842852
O O13 0.750000 0.414487 0.413365
O O14 0.000000 0.500000 0.423786
#
# Coordination Sequence:
#
# PCOD9378266 Si02
#       5
#     8   8   8   8   8
#     4  10  18  32  56  88 126 164 205 254 311 372
#     4  11  22  38  62  94 129 168 213 265 321 378
#     4  10  23  43  66  94 127 169 214 260 319 387
#     4  10  23  43  66  94 127 169 214 260 319 387
#     4  11  22  38  62  94 129 168 213 265 321 378
#
# _framework density 23.293963000000002
#
# number of rings (size 3 to 8) (size 9 to 14) (size 15 to 20)
#    0.000    1.600    0.000    7.800    2.800    2.400 
#    0.000    0.000    0.000    0.000    0.000    0.000 
#    0.000    0.000    0.000    0.000    0.000    0.000 
#
# Total GULP energy -111807.802317 kJ/mol
# GULP energy per Si atom -5590.390116 kJ/mol
# Density = 2.324095 g / cm^3
# Si number density = 23.293963 Si / 1000 Ang^3
#
#
#
# Elastic Constant Matrix: (Units=GPa)
#
#
# Indices 1 2 3 4 5 6 
#
# 1 54.0433 -14.7984 -4.0124 0.0000 0.0000 0.0000
# 2 -14.7984 88.5225 57.0893 0.0001 0.0000 0.0000
# 3 -4.0124 57.0893 188.2528 0.0001 0.0000 0.0000
# 4 0.0000 0.0001 0.0001 1.5232 0.0000 0.0000
# 5 0.0000 0.0000 0.0000 0.0000 15.9418 0.0000
# 6 0.0000 0.0000 0.0000 0.0000 0.0000 18.1136
#
#
#
# Elastic Compliance Matrix: (Units=1/GPa)
#
#
# Indices 1 2 3 4 5 6 
#
# 1 0.019468 0.003713 -0.000711 0.000000 0.000000 0.000000
# 2 0.003713 0.014751 -0.004394 -0.000001 0.000000 0.000000
# 3 -0.000711 -0.004394 0.006629 0.000000 0.000000 0.000000
# 4 0.000000 -0.000001 0.000000 0.656509 0.000000 0.000000
# 5 0.000000 0.000000 0.000000 0.000000 0.062728 0.000000
# 6 0.000000 0.000000 0.000000 0.000000 0.000000 0.055207
#
#
# Mechanical properties :
#
#
# Convention : Reuss Voigt Hill
#
# Bulk Modulus (GPa) = 26.27183 45.26395 35.76789
# Shear Modulus (GPa) = 6.01854 26.61838 16.31846
#
# Velocity S-wave (km/s) = 1.60914 3.38408 2.64965
# Velocity P-wave (km/s) = 3.84127 5.89433 4.97486
#
# Compressibility (1/GPa) = 0.03806358
#
# Stress axis : x y z
#
# Youngs Moduli (GPa) = 51.36734 67.79101 150.84178
#
# Poissons Ratio (x) = -0.25171 0.10726
# Poissons Ratio (y) = -0.19073 0.66284
# Poissons Ratio (z) = 0.03653 0.29789
#
# Static dielectric constant tensor:
#      x y z
#    x 1.789180 0.000000 0.000000 
#    y 0.000000 1.900100 0.000000 
#    z 0.000000 0.000000 1.913440 
# 
# From -- ./inp_files/9049.got.cif
#   From: 2010.05.17/outbox.cif.g08.bks.cpg/sg46_5_cif.got.tgz:9049.got - 2010.06.03 19:58:25.
