data_PCOD9379628
_publ_section_title
;
Structure prediction by ZEFSAII (Michael W. Deem and Ramdas Pophale) SiO2 
 PCOD9379628
Probable space group: I M A 2
;
_chemical_formula_sum "Si O2"
_cell_formula_units_Z 64
_cell_length_a 15.509019
_cell_length_b 19.228333
_cell_length_c 8.117361
_cell_angle_alpha 90.000000
_cell_angle_beta 90.000000
_cell_angle_gamma 90.000000
_cell_volume 2420.699181
_symmetry_space_group_name_H-M "I M A 2"
_symmetry_group_IT_number 46
_symmetry_cell_setting 'orthorhombic'
loop_
_space_group_symop_operation_xyz
x,y,z
-x,-y,z
1/2-x,y,z
1/2+x,-y,z
1/2+x,1/2+y,1/2+z
1/2-x,1/2-y,1/2+z
-x,1/2+y,1/2+z
x,1/2-y,1/2+z
loop_
_atom_site_type_symbol
_atom_site_label
_atom_site_fract_x
_atom_site_fract_y
_atom_site_fract_z
Si Si1 0.095497 0.981927 0.565490
Si Si2 0.147260 0.639469 0.846821
Si Si3 0.152920 0.108471 0.366672
Si Si4 0.354146 0.766416 0.669408
Si Si5 0.652920 0.391529 0.366672
Si Si6 0.645854 0.766416 0.169408
Si Si7 0.647260 0.639469 0.346821
Si Si8 0.595497 0.981927 0.065490
O O1 0.098354 0.929187 0.408643
O O2 0.147411 0.941383 0.705165
O O3 0.130064 0.056417 0.511610
O O4 0.000000 0.000000 0.620662
O O5 0.250000 0.622084 0.834713
O O6 0.136232 0.694887 0.996611
O O7 0.115608 0.687268 0.694637
O O8 0.250000 0.130113 0.400249
O O9 0.107720 0.178789 0.303209
O O10 0.147411 0.058616 0.205165
O O11 0.250000 0.760739 0.692340
O O12 0.392280 0.821211 0.803209
O O13 0.750000 0.369887 0.400249
O O14 0.630064 0.443583 0.511610
O O15 0.750000 0.760739 0.192339
O O16 0.615608 0.687268 0.194637
O O17 0.636232 0.805113 0.996611
O O18 0.750000 0.622084 0.334713
O O19 0.598354 0.570813 0.408643
O O20 0.500000 0.000000 0.120662
#
# Coordination Sequence:
#
# PCOD9379628 Si02
#       8
#     8   8   8   8   8   8   8   8
#     4  11  22  36  55  83 118 151 184 231 284 335
#     4   9  17  33  55  82 111 144 185 233 280 332
#     4  10  20  37  58  82 110 149 194 234 275 334
#     4   8  16  30  52  79 107 138 185 236 275 321
#     4  10  20  37  58  82 110 149 194 234 275 334
#     4   8  16  30  52  79 107 138 185 236 275 321
#     4   9  17  33  55  82 111 144 185 233 280 332
#     4  11  22  36  55  83 118 151 184 231 284 335
#
# _framework density 26.438642999999999
#
# number of rings (size 3 to 8) (size 9 to 14) (size 15 to 20)
#    0.000    2.500    0.000    4.500    0.000    2.000 
#    0.000    6.250    0.000    6.000    0.000    0.000 
#    0.000    0.000    0.000    0.000    0.000    0.000 
#
# Total GULP energy -178874.809649 kJ/mol
# GULP energy per Si atom -5589.837802 kJ/mol
# Density = 2.637847 g / cm^3
# Si number density = 26.438643 Si / 1000 Ang^3
#
#
#
# Elastic Constant Matrix: (Units=GPa)
#
#
# Indices 1 2 3 4 5 6 
#
# 1 34.4015 4.3173 3.3167 0.0000 0.0000 0.0000
# 2 4.3173 198.1182 28.4197 0.0000 0.0000 0.0000
# 3 3.3167 28.4197 47.7622 0.0000 0.0000 0.0000
# 4 0.0000 0.0000 0.0000 59.5054 0.0000 0.0000
# 5 0.0000 0.0000 0.0000 0.0000 -23.4288 0.0000
# 6 0.0000 0.0000 0.0000 0.0000 0.0000 -126.2397
#
#
#
# Elastic Compliance Matrix: (Units=1/GPa)
#
#
# Indices 1 2 3 4 5 6 
#
# 1 0.029290 -0.000379 -0.001809 0.000000 0.000000 0.000000
# 2 -0.000379 0.005523 -0.003260 0.000000 0.000000 0.000000
# 3 -0.001809 -0.003260 0.023003 0.000000 0.000000 0.000000
# 4 0.000000 0.000000 0.000000 0.016805 0.000000 0.000000
# 5 0.000000 0.000000 0.000000 0.000000 -0.042682 0.000000
# 6 0.000000 0.000000 0.000000 0.000000 0.000000 -0.007921
#
#
# Mechanical properties :
#
#
# Convention : Reuss Voigt Hill
#
# Bulk Modulus (GPa) = 21.31238 39.15437 30.23337
# Shear Modulus (GPa) = 98.90521 -1.75076 48.57722
#
# Velocity S-wave (km/s) = 6.12295 -0.81464 4.29109
# Velocity P-wave (km/s) = 7.62010 3.73588 6.00095
#
# Compressibility (1/GPa) = 0.04692110
#
# Stress axis : x y z
#
# Youngs Moduli (GPa) = 34.14087 181.04698 43.47335
#
# Poissons Ratio (x) = 0.06859 0.07862
# Poissons Ratio (y) = 0.01293 0.14173
# Poissons Ratio (z) = 0.06175 0.59026
#
# Static dielectric constant tensor:
#      x y z
#    x 2.401890 0.000000 0.000000 
#    y 0.000000 2.048060 0.000000 
#    z 0.000000 0.000000 2.270950 
# 
# From -- ./inp_files/11315.got.cif
#   From: 2010.05.17/outbox.cif.g08.bks.cpg/sg46_6_cif.got.tgz:11315.got - 2010.06.03 19:58:25.
