data_PCOD9379186
_publ_section_title
;
Structure prediction by ZEFSAII (Michael W. Deem and Ramdas Pophale) SiO2 
 PCOD9379186
Probable space group: I M A 2
;
_chemical_formula_sum "Si O2"
_cell_formula_units_Z 40
_cell_length_a 21.838459
_cell_length_b 19.063180
_cell_length_c 4.992222
_cell_angle_alpha 90.000000
_cell_angle_beta 90.000000
_cell_angle_gamma 90.000000
_cell_volume 2078.314311
_symmetry_space_group_name_H-M "I M A 2"
_symmetry_group_IT_number 46
_symmetry_cell_setting 'orthorhombic'
loop_
_space_group_symop_operation_xyz
x,y,z
-x,-y,z
1/2-x,y,z
1/2+x,-y,z
1/2+x,1/2+y,1/2+z
1/2-x,1/2-y,1/2+z
-x,1/2+y,1/2+z
x,1/2-y,1/2+z
loop_
_atom_site_type_symbol
_atom_site_label
_atom_site_fract_x
_atom_site_fract_y
_atom_site_fract_z
Si Si1 0.681484 0.048247 0.137190
Si Si2 0.103009 0.516044 0.137418
Si Si3 0.990066 0.574545 0.399886
Si Si4 0.508497 0.207649 0.244862
Si Si5 0.843803 0.292900 0.758273
O O1 0.750000 0.021735 0.187196
O O2 0.630945 0.019912 0.345034
O O3 0.681067 0.131980 0.177097
O O4 0.658013 0.029863 0.842673
O O5 0.067778 0.444372 0.214519
O O6 0.051006 0.575029 0.211123
O O7 0.984712 0.637674 0.602868
O O8 0.000000 0.500000 0.555372
O O9 0.490710 0.228341 0.544981
O O10 0.582302 0.201862 0.241287
O O11 0.825820 0.232070 0.551886
#
# Coordination Sequence:
#
# PCOD9379186 Si02
#       5
#     8   8   8   8   8
#     4  12  22  36  51  73 106 137 186 228 254 303
#     4   9  22  35  55  75  98 139 182 213 280 301
#     4   8  19  37  58  75 107 140 178 220 263 346
#     4  10  20  31  51  80 108 134 171 219 267 308
#     4  10  20  32  48  68 103 144 181 214 250 303
#
# _framework density 19.246369000000001
#
# number of rings (size 3 to 8) (size 9 to 14) (size 15 to 20)
#    1.200    0.800    2.000    1.800    5.600    5.600 
#    0.000    0.000    0.000    0.000    0.000    0.000 
#    0.000   16.000    0.000    0.000    0.000    0.000 
#
# Total GULP energy -111615.590514 kJ/mol
# GULP energy per Si atom -5580.779526 kJ/mol
# Density = 1.920256 g / cm^3
# Si number density = 19.246369 Si / 1000 Ang^3
#
#
#
# Elastic Constant Matrix: (Units=GPa)
#
#
# Indices 1 2 3 4 5 6 
#
# 1 65.8914 12.6133 0.4906 0.0000 0.0000 0.0000
# 2 12.6133 47.9293 -2.0141 0.0000 0.0000 0.0000
# 3 0.4906 -2.0141 47.6529 0.0000 0.0000 0.0000
# 4 0.0000 0.0000 0.0000 24.2389 0.0000 0.0000
# 5 0.0000 0.0000 0.0000 0.0000 0.9386 0.0000
# 6 0.0000 0.0000 0.0000 0.0000 0.0000 10.9608
#
#
#
# Elastic Compliance Matrix: (Units=1/GPa)
#
#
# Indices 1 2 3 4 5 6 
#
# 1 0.015987 -0.004222 -0.000343 0.000000 0.000000 0.000000
# 2 -0.004222 0.022016 0.000974 0.000000 0.000000 0.000000
# 3 -0.000343 0.000974 0.021030 0.000000 0.000000 0.000000
# 4 0.000000 0.000000 0.000000 0.041256 0.000000 0.000000
# 5 0.000000 0.000000 0.000000 0.000000 1.065452 0.000000
# 6 0.000000 0.000000 0.000000 0.000000 0.000000 0.091235
#
#
# Mechanical properties :
#
#
# Convention : Reuss Voigt Hill
#
# Bulk Modulus (GPa) = 19.28583 20.40591 19.84587
# Shear Modulus (GPa) = 3.90186 17.25322 10.57754
#
# Velocity S-wave (km/s) = 1.42539 2.99731 2.34687
# Velocity P-wave (km/s) = 3.57089 4.75436 4.20447
#
# Compressibility (1/GPa) = 0.05185154
#
# Stress axis : x y z
#
# Youngs Moduli (GPa) = 62.55015 45.42148 47.55161
#
# Poissons Ratio (x) = 0.19175 0.01631
# Poissons Ratio (y) = 0.26407 -0.04632
# Poissons Ratio (z) = 0.02146 -0.04424
#
# Static dielectric constant tensor:
#      x y z
#    x 1.677160 0.000000 0.000000 
#    y 0.000000 1.706130 0.000000 
#    z 0.000000 0.000000 1.691340 
# 
# From -- ./inp_files/1990.got.cif
#   From: 2010.05.17/outbox.cif.g08.bks.cpg/sg46_1_cif.got.tgz:1990.got - 2010.06.03 19:58:25.
