data_PCOD9379743
_publ_section_title
;
Structure prediction by ZEFSAII (Michael W. Deem and Ramdas Pophale) SiO2 
 PCOD9379743
Probable space group: I M A 2
;
_chemical_formula_sum "Si O2"
_cell_formula_units_Z 64
_cell_length_a 9.099117
_cell_length_b 27.339621
_cell_length_c 13.389373
_cell_angle_alpha 90.000000
_cell_angle_beta 90.000000
_cell_angle_gamma 90.000000
_cell_volume 3330.826256
_symmetry_space_group_name_H-M "I M A 2"
_symmetry_group_IT_number 46
_symmetry_cell_setting 'orthorhombic'
loop_
_space_group_symop_operation_xyz
x,y,z
-x,-y,z
1/2-x,y,z
1/2+x,-y,z
1/2+x,1/2+y,1/2+z
1/2-x,1/2-y,1/2+z
-x,1/2+y,1/2+z
x,1/2-y,1/2+z
loop_
_atom_site_type_symbol
_atom_site_label
_atom_site_fract_x
_atom_site_fract_y
_atom_site_fract_z
Si Si1 0.927874 0.371039 0.961560
Si Si2 0.926221 0.105386 0.082207
Si Si3 0.582552 0.733476 0.953008
Si Si4 0.072290 0.946935 0.872919
Si Si5 0.571954 0.120352 0.687664
Si Si6 0.582728 0.703696 0.647490
Si Si7 0.073880 0.947981 0.289333
Si Si8 0.424901 0.723282 0.282183
O O1 0.750000 0.366011 0.959685
O O2 0.970507 0.407920 0.872778
O O3 0.999101 0.317893 0.947935
O O4 0.972077 0.389255 0.073027
O O5 0.750000 0.114377 0.082534
O O6 0.960062 0.070793 0.177331
O O7 0.011878 0.155291 0.102320
O O8 0.964674 0.081431 0.975734
O O9 0.750000 0.728361 0.917422
O O10 0.498259 0.774642 0.889840
O O11 0.585948 0.754116 0.064283
O O12 0.250000 0.951171 0.870235
O O13 0.023892 0.916967 0.774160
O O14 0.000000 0.000000 0.873957
O O15 0.750000 0.119365 0.688491
O O16 0.528779 0.175108 0.721439
O O17 0.750000 0.694282 0.680248
O O18 0.481685 0.726794 0.732570
O O19 0.250000 0.953016 0.296170
O O20 0.000000 0.000000 0.307935
O O21 0.250000 0.723185 0.289014
#
# Coordination Sequence:
#
# PCOD9379743 Si02
#       8
#     8   8   8   8   8   8   8   8
#     4  10  20  38  60  83 114 153 202 245 285 352
#     4  10  21  38  59  85 117 153 199 245 291 359
#     4  11  23  37  55  85 123 156 189 239 298 351
#     4  10  21  38  59  84 114 149 196 251 303 354
#     4   9  19  36  58  83 112 150 196 245 287 342
#     4  11  23  37  56  87 123 154 188 237 298 354
#     4  10  22  38  59  85 112 148 192 246 301 351
#     4  11  21  36  60  84 112 157 203 240 283 343
#
# _framework density 19.214451
#
# number of rings (size 3 to 8) (size 9 to 14) (size 15 to 20)
#    0.000    1.750    1.250    3.000    0.000    5.500 
#    0.000    1.875    0.000    0.000    0.000    0.000 
#    0.000    0.000    0.000    0.000    0.000    0.000 
#
# Total GULP energy -178656.388197 kJ/mol
# GULP energy per Si atom -5583.012131 kJ/mol
# Density = 1.917072 g / cm^3
# Si number density = 19.214451 Si / 1000 Ang^3
#
#
#
# Elastic Constant Matrix: (Units=GPa)
#
#
# Indices 1 2 3 4 5 6 
#
# 1 36.8629 25.0539 20.2345 0.0000 0.0000 0.0000
# 2 25.0539 94.1075 23.2106 0.0000 0.0000 0.0000
# 3 20.2345 23.2106 103.5924 -0.0002 0.0000 0.0000
# 4 0.0000 0.0000 -0.0002 33.6770 0.0000 0.0000
# 5 0.0000 0.0000 0.0000 0.0000 15.5679 0.0000
# 6 0.0000 0.0000 0.0000 0.0000 0.0000 30.1489
#
#
#
# Elastic Compliance Matrix: (Units=1/GPa)
#
#
# Indices 1 2 3 4 5 6 
#
# 1 0.035493 -0.008192 -0.005097 0.000000 0.000000 0.000000
# 2 -0.008192 0.013138 -0.001344 0.000000 0.000000 0.000000
# 3 -0.005097 -0.001344 0.010950 0.000000 0.000000 0.000000
# 4 0.000000 0.000000 0.000000 0.029694 0.000000 0.000000
# 5 0.000000 0.000000 0.000000 0.000000 0.064235 0.000000
# 6 0.000000 0.000000 0.000000 0.000000 0.000000 0.033169
#
#
# Mechanical properties :
#
#
# Convention : Reuss Voigt Hill
#
# Bulk Modulus (GPa) = 32.98629 41.28453 37.13541
# Shear Modulus (GPa) = 22.11897 26.94969 24.53433
#
# Velocity S-wave (km/s) = 3.39656 3.74916 3.57721
# Velocity P-wave (km/s) = 5.70849 6.34621 6.03578
#
# Compressibility (1/GPa) = 0.03031563
#
# Stress axis : x y z
#
# Youngs Moduli (GPa) = 28.17438 76.11234 91.32484
#
# Poissons Ratio (x) = 0.62351 0.46551
# Poissons Ratio (y) = 0.23081 0.12271
# Poissons Ratio (z) = 0.14361 0.10227
#
# Static dielectric constant tensor:
#      x y z
#    x 1.647850 0.000000 0.000000 
#    y 0.000000 1.629050 0.000000 
#    z 0.000000 0.000000 1.720530 
# 
# From -- ./inp_files/9708.got.cif
#   From: 2010.05.17/outbox.cif.g08.bks.cpg/sg46_5_cif.got.tgz:9708.got - 2010.06.03 19:58:25.
