data_PCOD9379680
_publ_section_title
;
Structure prediction by ZEFSAII (Michael W. Deem and Ramdas Pophale) SiO2 
 PCOD9379680
Probable space group: I M A 2
;
_chemical_formula_sum "Si O2"
_cell_formula_units_Z 64
_cell_length_a 8.896958
_cell_length_b 33.425693
_cell_length_c 11.875938
_cell_angle_alpha 90.000000
_cell_angle_beta 90.000000
_cell_angle_gamma 90.000000
_cell_volume 3531.749417
_symmetry_space_group_name_H-M "I M A 2"
_symmetry_group_IT_number 46
_symmetry_cell_setting 'orthorhombic'
loop_
_space_group_symop_operation_xyz
x,y,z
-x,-y,z
1/2-x,y,z
1/2+x,-y,z
1/2+x,1/2+y,1/2+z
1/2-x,1/2-y,1/2+z
-x,1/2+y,1/2+z
x,1/2-y,1/2+z
loop_
_atom_site_type_symbol
_atom_site_label
_atom_site_fract_x
_atom_site_fract_y
_atom_site_fract_z
Si Si1 0.572386 0.888598 0.439130
Si Si2 0.928758 0.121311 0.899122
Si Si3 0.572153 0.725374 0.010639
Si Si4 0.928915 0.957055 0.267724
Si Si5 0.573005 0.650484 0.168669
Si Si6 0.575169 0.182973 0.314123
Si Si7 0.573473 0.817665 0.074338
Si Si8 0.431336 0.044595 0.011987
O O1 0.750000 0.879323 0.414787
O O2 0.534490 0.928602 0.372088
O O3 0.557841 0.883938 0.573089
O O4 0.462708 0.855813 0.387538
O O5 0.750000 0.117037 0.901680
O O6 0.982431 0.138525 0.778883
O O7 0.004095 0.078592 0.929888
O O8 0.983033 0.153259 0.992308
O O9 0.750000 0.718387 0.989806
O O10 0.529154 0.692317 0.105877
O O11 0.551365 0.770866 0.046833
O O12 0.483953 0.718012 0.895094
O O13 0.750000 0.961005 0.265087
O O14 0.971947 0.942723 0.141475
O O15 0.000000 0.000000 0.283767
O O16 0.750000 0.654199 0.197993
O O17 0.750000 0.187244 0.288870
O O18 0.480864 0.177917 0.201466
O O19 0.750000 0.827174 0.063604
O O20 0.250000 0.042726 0.002765
O O21 0.500000 0.000000 0.994582
#
# Coordination Sequence:
#
# PCOD9379680 Si02
#       8
#     8   8   8   8   8   8   8   8
#     4   9  18  36  59  80 108 150 195 228 269 340
#     4  12  25  39  57  87 120 154 197 248 302 357
#     4   9  21  40  61  81 107 150 197 236 282 347
#     4   9  18  32  55  86 115 143 179 229 284 337
#     4   9  19  38  60  81 109 152 200 243 286 344
#     4  11  22  35  55  84 114 141 177 232 292 338
#     4  11  23  39  60  83 111 151 197 239 283 347
#     4  10  20  37  61  88 120 157 194 241 297 356
#
# _framework density 18.121331999999999
#
# number of rings (size 3 to 8) (size 9 to 14) (size 15 to 20)
#    0.000    2.000    0.000    4.500    1.750    5.000 
#    0.000    0.625    0.000    1.500    0.000    0.000 
#    0.000    0.000    0.000    0.000    0.000    0.000 
#
# Total GULP energy -178531.510179 kJ/mol
# GULP energy per Si atom -5579.109693 kJ/mol
# Density = 1.808009 g / cm^3
# Si number density = 18.121332 Si / 1000 Ang^3
#
#
#
# Elastic Constant Matrix: (Units=GPa)
#
#
# Indices 1 2 3 4 5 6 
#
# 1 60.6354 41.8555 43.3185 0.0002 0.0000 -0.0001
# 2 41.8555 64.1085 38.5175 0.0004 0.0003 0.0003
# 3 43.3185 38.5175 90.4806 0.0011 0.0002 0.0001
# 4 0.0002 0.0004 0.0011 8.5747 0.0002 -0.0005
# 5 0.0000 0.0003 0.0002 0.0002 20.2470 0.0003
# 6 -0.0001 0.0003 0.0001 -0.0005 0.0003 38.7670
#
#
#
# Elastic Compliance Matrix: (Units=1/GPa)
#
#
# Indices 1 2 3 4 5 6 
#
# 1 0.035205 -0.017277 -0.009500 0.000001 0.000000 0.000000
# 2 -0.017277 0.029438 -0.004260 0.000000 0.000000 0.000000
# 3 -0.009500 -0.004260 0.017414 -0.000002 0.000000 0.000000
# 4 0.000001 0.000000 -0.000002 0.116622 -0.000001 0.000002
# 5 0.000000 0.000000 0.000000 -0.000001 0.049390 0.000000
# 6 0.000000 0.000000 0.000000 0.000002 0.000000 0.025795
#
#
# Mechanical properties :
#
#
# Convention : Reuss Voigt Hill
#
# Bulk Modulus (GPa) = 50.04373 51.40085 50.72229
# Shear Modulus (GPa) = 14.59431 19.61993 17.10712
#
# Velocity S-wave (km/s) = 2.84098 3.29401 3.07584
# Velocity P-wave (km/s) = 6.19979 6.54933 6.37696
#
# Compressibility (1/GPa) = 0.01998252
#
# Stress axis : x y z
#
# Youngs Moduli (GPa) = 28.40517 33.96958 57.42565
#
# Poissons Ratio (x) = 0.58689 0.54554
# Poissons Ratio (y) = 0.49076 0.24464
# Poissons Ratio (z) = 0.26985 0.14472
#
# Static dielectric constant tensor:
#      x y z
#    x 1.607030 0.000000 0.000000 
#    y 0.000000 1.600730 0.000000 
#    z 0.000000 0.000000 1.627370 
# 
# From -- ./inp_files/9737.got.cif
#   From: 2010.05.17/outbox.cif.g08.bks.cpg/sg46_5_cif.got.tgz:9737.got - 2010.06.03 19:58:25.
