data_PCOD9379123
_publ_section_title
;
Structure prediction by ZEFSAII (Michael W. Deem and Ramdas Pophale) SiO2 
 PCOD9379123
Probable space group: I M A 2
;
_chemical_formula_sum "Si O2"
_cell_formula_units_Z 48
_cell_length_a 8.580398
_cell_length_b 20.992452
_cell_length_c 14.834331
_cell_angle_alpha 90.000000
_cell_angle_beta 90.000000
_cell_angle_gamma 90.000000
_cell_volume 2672.013002
_symmetry_space_group_name_H-M "I M A 2"
_symmetry_group_IT_number 46
_symmetry_cell_setting 'orthorhombic'
loop_
_space_group_symop_operation_xyz
x,y,z
-x,-y,z
1/2-x,y,z
1/2+x,-y,z
1/2+x,1/2+y,1/2+z
1/2-x,1/2-y,1/2+z
-x,1/2+y,1/2+z
x,1/2-y,1/2+z
loop_
_atom_site_type_symbol
_atom_site_label
_atom_site_fract_x
_atom_site_fract_y
_atom_site_fract_z
Si Si1 0.060441 0.878260 0.526830
Si Si2 0.438498 0.806600 0.225200
Si Si3 0.435068 0.314220 0.335956
Si Si4 0.563055 0.069668 0.720588
Si Si5 0.438268 0.729617 0.523919
Si Si6 0.438057 0.568781 0.834832
O O1 0.250000 0.878971 0.527076
O O2 0.008216 0.910308 0.619826
O O3 0.014227 0.804109 0.523110
O O4 0.008433 0.914083 0.436521
O O5 0.250000 0.802063 0.231088
O O6 0.506064 0.747672 0.281236
O O7 0.486384 0.873253 0.269994
O O8 0.481726 0.799600 0.120552
O O9 0.250000 0.317467 0.331306
O O10 0.506498 0.376448 0.289223
O O11 0.489779 0.305553 0.438629
O O12 0.750000 0.068825 0.720107
O O13 0.500000 0.000000 0.742901
O O14 0.250000 0.727812 0.515900
O O15 0.500000 0.500000 0.807689
O O16 0.250000 0.567248 0.835176
#
# Coordination Sequence:
#
# PCOD9379123 Si02
#       6
#     8   8   8   8   8   8
#     4   9  17  32  59  87 114 148 188 234 288 347
#     4  10  20  38  63  84 110 153 201 242 286 347
#     4  12  24  37  57  88 121 154 192 243 297 351
#     4  11  22  39  60  87 120 159 198 241 295 354
#     4  10  19  37  62  86 111 150 199 243 289 343
#     4  10  20  35  55  84 117 149 186 228 283 346
#
# _framework density 17.963984
#
# number of rings (size 3 to 8) (size 9 to 14) (size 15 to 20)
#    0.000    1.667    3.333    2.500    0.000    1.333 
#    0.000    1.667    0.000    2.000    0.000    0.000 
#    0.000    0.000    0.000    0.000    0.000    0.000 
#
# Total GULP energy -134070.962079 kJ/mol
# GULP energy per Si atom -5586.290087 kJ/mol
# Density = 1.792310 g / cm^3
# Si number density = 17.963984 Si / 1000 Ang^3
#
#
#
# Elastic Constant Matrix: (Units=GPa)
#
#
# Indices 1 2 3 4 5 6 
#
# 1 34.0414 39.7651 42.6573 0.0000 0.0000 0.0000
# 2 39.7651 177.1702 85.6437 0.0000 0.0000 0.0000
# 3 42.6573 85.6437 140.6538 0.0000 0.0000 0.0000
# 4 0.0000 0.0000 0.0000 20.7076 0.0000 0.0000
# 5 0.0000 0.0000 0.0000 0.0000 -20.3066 0.0000
# 6 0.0000 0.0000 0.0000 0.0000 0.0000 25.5888
#
#
#
# Elastic Compliance Matrix: (Units=1/GPa)
#
#
# Indices 1 2 3 4 5 6 
#
# 1 0.051065 -0.005633 -0.012057 0.000000 0.000000 0.000000
# 2 -0.005633 0.008620 -0.003540 0.000000 0.000000 0.000000
# 3 -0.012057 -0.003540 0.012922 0.000000 0.000000 0.000000
# 4 0.000000 0.000000 0.000000 0.048291 0.000000 0.000000
# 5 0.000000 0.000000 0.000000 0.000000 -0.049245 0.000000
# 6 0.000000 0.000000 0.000000 0.000000 0.000000 0.039080
#
#
# Mechanical properties :
#
#
# Convention : Reuss Voigt Hill
#
# Bulk Modulus (GPa) = 33.17177 76.44418 54.80798
# Shear Modulus (GPa) = 30.62950 17.45126 24.04038
#
# Velocity S-wave (km/s) = 4.13371 3.12020 3.66218
# Velocity P-wave (km/s) = 6.42566 7.45838 6.96120
#
# Compressibility (1/GPa) = 0.03014611
#
# Stress axis : x y z
#
# Youngs Moduli (GPa) = 19.58307 116.00983 77.38764
#
# Poissons Ratio (x) = 0.65347 0.93306
# Poissons Ratio (y) = 0.11031 0.27398
# Poissons Ratio (z) = 0.23611 0.41071
#
# Static dielectric constant tensor:
#      x y z
#    x 1.607930 0.000000 0.000000 
#    y 0.000000 1.584660 0.000000 
#    z 0.000000 0.000000 1.605730 
# 
# From -- ./inp_files/13879.got.cif
#   From: 2010.05.17/outbox.cif.g08.bks.cpg/sg46_7_cif.got.tgz:13879.got - 2010.06.03 19:58:25.
