data_PCOD9379753
_publ_section_title
;
Structure prediction by ZEFSAII (Michael W. Deem and Ramdas Pophale) SiO2 
 PCOD9379753
Probable space group: I M A 2
;
_chemical_formula_sum "Si O2"
_cell_formula_units_Z 64
_cell_length_a 8.835214
_cell_length_b 29.916186
_cell_length_c 13.080406
_cell_angle_alpha 90.000000
_cell_angle_beta 90.000000
_cell_angle_gamma 90.000000
_cell_volume 3457.359355
_symmetry_space_group_name_H-M "I M A 2"
_symmetry_group_IT_number 46
_symmetry_cell_setting 'orthorhombic'
loop_
_space_group_symop_operation_xyz
x,y,z
-x,-y,z
1/2-x,y,z
1/2+x,-y,z
1/2+x,1/2+y,1/2+z
1/2-x,1/2-y,1/2+z
-x,1/2+y,1/2+z
x,1/2-y,1/2+z
loop_
_atom_site_type_symbol
_atom_site_label
_atom_site_fract_x
_atom_site_fract_y
_atom_site_fract_z
Si Si1 0.432214 0.450302 0.362910
Si Si2 0.067328 0.144616 0.238586
Si Si3 0.923190 0.789178 0.974074
Si Si4 0.569428 0.381092 0.522790
Si Si5 0.567361 0.876310 0.467920
Si Si6 0.427168 0.792394 0.582937
Si Si7 0.067703 0.450642 0.130666
Si Si8 0.077324 0.250037 0.250636
O O1 0.500000 0.500000 0.371341
O O2 0.250000 0.451261 0.370996
O O3 0.500010 0.419951 0.452454
O O4 0.470673 0.434449 0.246393
O O5 0.250000 0.141129 0.231255
O O6 0.020128 0.124168 0.348663
O O7 0.031042 0.197941 0.240658
O O8 0.993458 0.121942 0.139257
O O9 0.750000 0.799023 0.005488
O O10 0.918034 0.762492 0.868916
O O11 0.013871 0.834946 0.971670
O O12 0.007160 0.755197 0.048121
O O13 0.750000 0.384255 0.524919
O O14 0.750000 0.875358 0.468247
O O15 0.508864 0.831625 0.522554
O O16 0.517663 0.917418 0.540141
O O17 0.250000 0.795592 0.566593
O O18 0.472332 0.788035 0.700897
O O19 0.250000 0.453594 0.126439
O O20 0.000000 0.500000 0.117935
O O21 0.250000 0.254845 0.210743
#
# Coordination Sequence:
#
# PCOD9379753 Si02
#       8
#     8   8   8   8   8   8   8   8
#     4  10  21  41  66  93 120 153 191 237 297 356
#     4  10  20  38  61  82 113 161 207 244 286 345
#     4  11  22  39  59  80 111 157 205 245 288 348
#     4  12  25  39  58  89 123 156 197 247 299 355
#     4  10  21  40  62  86 115 157 204 241 288 355
#     4  12  24  35  53  84 119 154 192 245 298 347
#     4   9  20  39  66  93 119 149 186 236 294 352
#     4  10  21  37  57  77 108 157 204 245 289 344
#
# _framework density 18.511237000000001
#
# number of rings (size 3 to 8) (size 9 to 14) (size 15 to 20)
#    0.000    1.500    2.500    3.000    1.750    2.500 
#    0.000    0.625    0.000    1.500    0.000    0.000 
#    0.000    0.000    0.000    0.000    0.000    0.000 
#
# Total GULP energy -178558.501471 kJ/mol
# GULP energy per Si atom -5579.953171 kJ/mol
# Density = 1.846910 g / cm^3
# Si number density = 18.511237 Si / 1000 Ang^3
#
#
#
# Elastic Constant Matrix: (Units=GPa)
#
#
# Indices 1 2 3 4 5 6 
#
# 1 47.9242 29.8388 45.8995 0.0000 0.0001 0.0000
# 2 29.8388 95.6762 71.9539 0.0000 0.0000 0.0000
# 3 45.8995 71.9539 144.8336 0.0000 0.0000 0.0001
# 4 0.0000 0.0000 0.0000 36.7115 0.0000 0.0000
# 5 0.0001 0.0000 0.0000 0.0000 1.8592 -0.0001
# 6 0.0000 0.0000 0.0001 0.0000 -0.0001 26.8748
#
#
#
# Elastic Compliance Matrix: (Units=1/GPa)
#
#
# Indices 1 2 3 4 5 6 
#
# 1 0.030720 -0.003607 -0.007944 0.000000 -0.000001 0.000000
# 2 -0.003607 0.017110 -0.007357 0.000000 0.000000 0.000000
# 3 -0.007944 -0.007357 0.013077 0.000000 0.000000 0.000000
# 4 0.000000 0.000000 0.000000 0.027239 0.000000 0.000000
# 5 -0.000001 0.000000 0.000000 0.000000 0.537865 0.000001
# 6 0.000000 0.000000 0.000000 0.000000 0.000001 0.037210
#
#
# Mechanical properties :
#
#
# Convention : Reuss Voigt Hill
#
# Bulk Modulus (GPa) = 43.30571 64.86872 54.08721
# Shear Modulus (GPa) = 7.05484 22.47189 14.76336
#
# Velocity S-wave (km/s) = 1.95432 3.48797 2.82713
# Velocity P-wave (km/s) = 5.34206 7.16521 6.31972
#
# Compressibility (1/GPa) = 0.02309165
#
# Stress axis : x y z
#
# Youngs Moduli (GPa) = 32.55210 58.44616 76.46981
#
# Poissons Ratio (x) = 0.21079 0.60746
# Poissons Ratio (y) = 0.11740 0.56261
# Poissons Ratio (z) = 0.25859 0.43000
#
# Static dielectric constant tensor:
#      x y z
#    x 1.628410 0.000000 0.000000 
#    y 0.000000 1.602840 0.000000 
#    z 0.000000 0.000000 1.761790 
# 
# From -- ./inp_files/9718.got.cif
#   From: 2010.05.17/outbox.cif.g08.bks.cpg/sg46_5_cif.got.tgz:9718.got - 2010.06.03 19:58:25.
