data_PCOD9379662
_publ_section_title
;
Structure prediction by ZEFSAII (Michael W. Deem and Ramdas Pophale) SiO2 
 PCOD9379662
Probable space group: I M A 2
;
_chemical_formula_sum "Si O2"
_cell_formula_units_Z 64
_cell_length_a 10.462392
_cell_length_b 19.662400
_cell_length_c 14.580131
_cell_angle_alpha 90.000000
_cell_angle_beta 90.000000
_cell_angle_gamma 90.000000
_cell_volume 2999.362386
_symmetry_space_group_name_H-M "I M A 2"
_symmetry_group_IT_number 46
_symmetry_cell_setting 'orthorhombic'
loop_
_space_group_symop_operation_xyz
x,y,z
-x,-y,z
1/2-x,y,z
1/2+x,-y,z
1/2+x,1/2+y,1/2+z
1/2-x,1/2-y,1/2+z
-x,1/2+y,1/2+z
x,1/2-y,1/2+z
loop_
_atom_site_type_symbol
_atom_site_label
_atom_site_fract_x
_atom_site_fract_y
_atom_site_fract_z
Si Si1 0.889291 0.152717 0.613840
Si Si2 0.400153 0.438092 0.027246
Si Si3 0.397845 0.196436 0.857474
Si Si4 0.102947 0.192227 0.217772
Si Si5 0.898063 0.557631 0.807746
Si Si6 0.537763 0.074079 0.793816
Si Si7 0.463830 0.702886 0.544420
Si Si8 0.113190 0.551803 0.500896
O O1 0.750000 0.128234 0.575999
O O2 0.891664 0.233575 0.591266
O O3 0.020725 0.124867 0.569022
O O4 0.895839 0.120727 0.716648
O O5 0.500000 0.500000 0.045850
O O6 0.250000 0.444727 0.058683
O O7 0.394707 0.431093 0.917333
O O8 0.250000 0.208518 0.880559
O O9 0.440763 0.241168 0.770891
O O10 0.417295 0.118367 0.828573
O O11 0.488556 0.215908 0.941729
O O12 0.250000 0.186836 0.241494
O O13 0.046125 0.124496 0.259709
O O14 0.084782 0.195449 0.110562
O O15 0.750000 0.542863 0.779891
O O16 0.000000 0.500000 0.787375
O O17 0.609567 0.060697 0.889853
O O18 0.500000 0.000000 0.756185
O O19 0.400945 0.628057 0.540889
O O20 0.250000 0.522751 0.528488
O O21 0.000000 0.500000 0.525733
#
# Coordination Sequence:
#
# PCOD9379662 Si02
#       8
#     8   8   8   8   8   8   8   8
#     4  12  24  39  60  92 134 172 212 265 328 400
#     4  10  21  38  61  89 125 169 216 264 318 381
#     4  10  21  39  63  93 128 168 218 272 328 388
#     4  10  20  37  60  89 125 162 208 263 318 380
#     4   9  19  37  60  86 120 160 206 257 312 373
#     4  10  22  39  64  93 127 169 215 267 329 393
#     4  11  23  39  63  91 128 169 218 264 330 393
#     4  10  23  44  68  93 126 169 220 272 326 390
#
# _framework density 21.337869999999999
#
# number of rings (size 3 to 8) (size 9 to 14) (size 15 to 20)
#    0.000    1.750    1.250    2.625    0.000    9.000 
#    0.000    2.500    0.000    0.000    0.000    0.000 
#    0.000    0.000    0.000    0.000    0.000    0.000 
#
# Total GULP energy -178277.313508 kJ/mol
# GULP energy per Si atom -5571.166047 kJ/mol
# Density = 2.128930 g / cm^3
# Si number density = 21.337870 Si / 1000 Ang^3
#
#
#
# Elastic Constant Matrix: (Units=GPa)
#
#
# Indices 1 2 3 4 5 6 
#
# 1 114.9030 35.5073 4.1916 0.0000 0.0000 0.0000
# 2 35.5073 101.9811 30.3865 0.0000 0.0000 0.0000
# 3 4.1916 30.3865 53.0455 0.0001 0.0000 0.0000
# 4 0.0000 0.0000 0.0001 13.6801 0.0000 0.0000
# 5 0.0000 0.0000 0.0000 0.0000 -9.3054 0.0000
# 6 0.0000 0.0000 0.0000 0.0000 0.0000 -13.5972
#
#
#
# Elastic Compliance Matrix: (Units=1/GPa)
#
#
# Indices 1 2 3 4 5 6 
#
# 1 0.009841 -0.003852 0.001429 0.000000 0.000000 0.000000
# 2 -0.003852 0.013332 -0.007333 0.000000 0.000000 0.000000
# 3 0.001429 -0.007333 0.022939 0.000000 0.000000 0.000000
# 4 0.000000 0.000000 0.000000 0.073099 0.000000 0.000000
# 5 0.000000 0.000000 0.000000 0.000000 -0.107464 0.000000
# 6 0.000000 0.000000 0.000000 0.000000 0.000000 -0.073544
#
#
# Mechanical properties :
#
#
# Convention : Reuss Voigt Hill
#
# Bulk Modulus (GPa) = 37.59289 45.56669 41.57979
# Shear Modulus (GPa) = -149.61438 11.47846 -69.06796
#
# Velocity S-wave (km/s) = -8.38266 2.32187 -5.69552
# Velocity P-wave (km/s) = 8.71986 5.34689 4.87066
#
# Compressibility (1/GPa) = 0.02660077
#
# Stress axis : x y z
#
# Youngs Moduli (GPa) = 101.61263 75.00837 43.59348
#
# Poissons Ratio (x) = 0.28896 -0.06230
# Poissons Ratio (y) = 0.39144 0.31965
# Poissons Ratio (z) = -0.14522 0.55001
#
# Static dielectric constant tensor:
#      x y z
#    x 1.790960 0.000000 0.000000 
#    y 0.000000 1.837640 0.000000 
#    z 0.000000 0.000000 1.746520 
# 
# From -- ./inp_files/15348.got.cif
#   From: 2010.05.17/outbox.cif.g08.bks.cpg/sg46_8_cif.got.tgz:15348.got - 2010.06.03 19:58:25.
