data_PCOD9379694
_publ_section_title
;
Structure prediction by ZEFSAII (Michael W. Deem and Ramdas Pophale) SiO2 
 PCOD9379694
Probable space group: I M A 2
;
_chemical_formula_sum "Si O2"
_cell_formula_units_Z 48
_cell_length_a 16.470308
_cell_length_b 5.045292
_cell_length_c 28.480197
_cell_angle_alpha 90.000000
_cell_angle_beta 90.000000
_cell_angle_gamma 90.000000
_cell_volume 2366.633546
_symmetry_space_group_name_H-M "I M A 2"
_symmetry_group_IT_number 46
_symmetry_cell_setting 'orthorhombic'
loop_
_space_group_symop_operation_xyz
x,y,z
-x,-y,z
1/2-x,y,z
1/2+x,-y,z
1/2+x,1/2+y,1/2+z
1/2-x,1/2-y,1/2+z
-x,1/2+y,1/2+z
x,1/2-y,1/2+z
loop_
_atom_site_type_symbol
_atom_site_label
_atom_site_fract_x
_atom_site_fract_y
_atom_site_fract_z
Si Si1 0.590763 0.112792 0.729760
Si Si2 0.094065 0.407495 0.574906
Si Si3 0.343518 0.380307 0.780786
Si Si4 0.344964 0.899546 0.628045
Si Si5 0.059635 0.251257 0.872411
Si Si6 0.059353 0.250451 0.475901
O O1 0.605492 0.368460 0.762178
O O2 0.613599 0.187179 0.676675
O O3 0.500000 0.000000 0.733266
O O4 0.646491 0.867174 0.745720
O O5 0.144295 0.662303 0.590943
O O6 0.111704 0.303393 0.522210
O O7 0.000000 0.500000 0.576556
O O8 0.111361 0.163267 0.609298
O O9 0.250000 0.461657 0.783800
O O10 0.377308 0.277358 0.830409
O O11 0.250000 0.953363 0.635493
O O12 0.099188 0.263095 0.924482
O O13 0.000000 0.500000 0.870259
O O14 0.000000 0.000000 0.866968
O O15 0.000000 0.500000 0.472091
O O16 0.000000 0.000000 0.483700
#
# Coordination Sequence:
#
# PCOD9379694 Si02
#       6
#     8   8   8   8   8   8
#     4  12  25  43  64  86 115 160 207 245 287 354
#     4  11  21  39  64  89 117 156 204 247 288 350
#     4  12  24  40  61  91 125 156 191 247 306 352
#     4  12  25  41  59  88 124 158 194 246 305 354
#     4  10  20  37  62  88 117 156 201 243 289 350
#     4   9  18  34  60  90 116 150 199 250 289 336
#
# _framework density 20.281974000000002
#
# number of rings (size 3 to 8) (size 9 to 14) (size 15 to 20)
#    0.000    1.000    0.000    9.500    0.000    0.000 
#    0.000    1.667    0.000    0.000    0.000    0.000 
#    0.000    0.000    0.000    0.000    0.000    0.000 
#
# Total GULP energy -134169.579702 kJ/mol
# GULP energy per Si atom -5590.399154 kJ/mol
# Density = 2.023581 g / cm^3
# Si number density = 20.281974 Si / 1000 Ang^3
#
#
#
# Elastic Constant Matrix: (Units=GPa)
#
#
# Indices 1 2 3 4 5 6 
#
# 1 75.4265 17.1534 47.1666 0.0000 0.0000 0.0000
# 2 17.1534 133.6586 31.1852 0.0000 0.0000 0.0000
# 3 47.1666 31.1852 115.8324 0.0000 0.0000 0.0000
# 4 0.0000 0.0000 0.0000 35.5399 0.0000 0.0000
# 5 0.0000 0.0000 0.0000 0.0000 -7.3955 0.0000
# 6 0.0000 0.0000 0.0000 0.0000 0.0000 18.5513
#
#
#
# Elastic Compliance Matrix: (Units=1/GPa)
#
#
# Indices 1 2 3 4 5 6 
#
# 1 0.017837 -0.000634 -0.007093 0.000000 0.000000 0.000000
# 2 -0.000634 0.008006 -0.001897 0.000000 0.000000 0.000000
# 3 -0.007093 -0.001897 0.012032 0.000000 0.000000 0.000000
# 4 0.000000 0.000000 0.000000 0.028137 0.000000 0.000000
# 5 0.000000 0.000000 0.000000 0.000000 -0.135218 0.000000
# 6 0.000000 0.000000 0.000000 0.000000 0.000000 0.053904
#
#
# Mechanical properties :
#
#
# Convention : Reuss Voigt Hill
#
# Bulk Modulus (GPa) = 53.68496 57.32534 55.50515
# Shear Modulus (GPa) = 492.30543 24.63330 258.46936
#
# Velocity S-wave (km/s) = 15.59671 3.48881 11.30109
# Velocity P-wave (km/s) = 18.73153 6.67492 14.06102
#
# Compressibility (1/GPa) = 0.01862719
#
# Stress axis : x y z
#
# Youngs Moduli (GPa) = 56.06193 124.90970 83.11186
#
# Poissons Ratio (x) = 0.07924 0.58948
# Poissons Ratio (y) = 0.03556 0.15767
# Poissons Ratio (z) = 0.39762 0.23696
#
# Static dielectric constant tensor:
#      x y z
#    x 1.689360 0.000000 0.000000 
#    y 0.000000 1.689780 0.000000 
#    z 0.000000 0.000000 1.785540 
# 
# From -- ./inp_files/24585.got.cif
#   From: 2010.05.17/outbox.cif.g08.bks.cpg/sg46_13_cif.got.tgz:24585.got - 2010.06.03 19:58:25.
