data_PCOD9379656
_publ_section_title
;
Structure prediction by ZEFSAII (Michael W. Deem and Ramdas Pophale) SiO2 
 PCOD9379656
Probable space group: I M A 2
;
_chemical_formula_sum "Si O2"
_cell_formula_units_Z 48
_cell_length_a 15.362598
_cell_length_b 9.096762
_cell_length_c 16.058921
_cell_angle_alpha 90.000000
_cell_angle_beta 90.000000
_cell_angle_gamma 90.000000
_cell_volume 2244.232567
_symmetry_space_group_name_H-M "I M A 2"
_symmetry_group_IT_number 46
_symmetry_cell_setting 'orthorhombic'
loop_
_space_group_symop_operation_xyz
x,y,z
-x,-y,z
1/2-x,y,z
1/2+x,-y,z
1/2+x,1/2+y,1/2+z
1/2-x,1/2-y,1/2+z
-x,1/2+y,1/2+z
x,1/2-y,1/2+z
loop_
_atom_site_type_symbol
_atom_site_label
_atom_site_fract_x
_atom_site_fract_y
_atom_site_fract_z
Si Si1 0.596304 0.432466 0.756800
Si Si2 0.355005 0.894659 0.949979
Si Si3 0.098502 0.560421 0.942232
Si Si4 0.595175 0.927054 0.609145
Si Si5 0.649542 0.109383 0.763356
Si Si6 0.649477 0.894929 0.098089
O O1 0.500000 0.500000 0.754817
O O2 0.635503 0.461301 0.849152
O O3 0.594725 0.256362 0.746083
O O4 0.645751 0.506620 0.680713
O O5 0.250000 0.875421 0.958729
O O6 0.397594 0.734581 0.959277
O O7 0.372867 0.947609 0.855743
O O8 0.382488 0.008479 0.020370
O O9 0.000000 0.500000 0.936901
O O10 0.138436 0.480196 0.022346
O O11 0.594540 0.752168 0.609625
O O12 0.500000 0.000000 0.610181
O O13 0.639902 0.990551 0.691437
O O14 0.750000 0.158774 0.766189
O O15 0.750000 0.851884 0.082655
#
# Coordination Sequence:
#
# PCOD9379656 Si02
#       6
#     8   8   8   8   8   8
#     4  10  20  37  60  86 116 152 193 240 288 343
#     4   9  20  38  61  87 118 153 192 237 292 348
#     4   9  20  38  59  84 115 152 196 237 284 344
#     4  11  23  39  57  83 118 155 196 242 291 345
#     4  10  20  38  62  87 115 154 196 237 287 348
#     4  11  23  38  58  89 121 154 194 241 293 348
#
# _framework density 21.388158000000001
#
# number of rings (size 3 to 8) (size 9 to 14) (size 15 to 20)
#    0.000    2.000    0.000    3.000    0.000    6.000 
#    0.000    5.833    0.000    0.000    0.000    0.000 
#    0.000    0.000    0.000    0.000    0.000    0.000 
#
# Total GULP energy -134064.077105 kJ/mol
# GULP energy per Si atom -5586.003213 kJ/mol
# Density = 2.133948 g / cm^3
# Si number density = 21.388158 Si / 1000 Ang^3
#
#
#
# Elastic Constant Matrix: (Units=GPa)
#
#
# Indices 1 2 3 4 5 6 
#
# 1 56.8122 27.1022 14.6593 0.0000 0.0000 0.0000
# 2 27.1022 137.4349 102.1389 0.0000 0.0000 0.0000
# 3 14.6593 102.1389 186.5188 0.0000 0.0000 0.0000
# 4 0.0000 0.0000 0.0000 29.8405 0.0000 0.0000
# 5 0.0000 0.0000 0.0000 0.0000 21.8251 0.0000
# 6 0.0000 0.0000 0.0000 0.0000 0.0000 13.9990
#
#
#
# Elastic Compliance Matrix: (Units=1/GPa)
#
#
# Indices 1 2 3 4 5 6 
#
# 1 0.019533 -0.004571 0.000968 0.000000 0.000000 0.000000
# 2 -0.004571 0.013339 -0.006945 0.000000 0.000000 0.000000
# 3 0.000968 -0.006945 0.009089 0.000000 0.000000 0.000000
# 4 0.000000 0.000000 0.000000 0.033512 0.000000 0.000000
# 5 0.000000 0.000000 0.000000 0.000000 0.045819 0.000000
# 6 0.000000 0.000000 0.000000 0.000000 0.000000 0.071434
#
#
# Mechanical properties :
#
#
# Convention : Reuss Voigt Hill
#
# Bulk Modulus (GPa) = 47.93060 74.28519 61.10790
# Shear Modulus (GPa) = 22.64730 28.92395 25.78562
#
# Velocity S-wave (km/s) = 3.25756 3.68140 3.47595
# Velocity P-wave (km/s) = 6.05041 7.27170 6.68899
#
# Compressibility (1/GPa) = 0.02086350
#
# Stress axis : x y z
#
# Youngs Moduli (GPa) = 51.19591 74.96617 110.02723
#
# Poissons Ratio (x) = 0.34270 -0.10652
# Poissons Ratio (y) = 0.23404 0.76419
# Poissons Ratio (z) = -0.04957 0.52067
#
# Static dielectric constant tensor:
#      x y z
#    x 1.813950 0.000000 0.000000 
#    y 0.000000 1.716280 0.000000 
#    z 0.000000 0.000000 1.812820 
# 
# From -- ./inp_files/16554.got.cif
#   From: 2010.05.17/outbox.cif.g08.bks.cpg/sg46_9_cif.got.tgz:16554.got - 2010.06.03 19:58:25.
