data_PCOD9379353
_publ_section_title
;
Structure prediction by ZEFSAII (Michael W. Deem and Ramdas Pophale) SiO2 
 PCOD9379353
Probable space group: I M A 2
;
_chemical_formula_sum "Si O2"
_cell_formula_units_Z 48
_cell_length_a 10.642992
_cell_length_b 24.283811
_cell_length_c 9.050543
_cell_angle_alpha 90.000000
_cell_angle_beta 90.000000
_cell_angle_gamma 90.000000
_cell_volume 2339.134616
_symmetry_space_group_name_H-M "I M A 2"
_symmetry_group_IT_number 46
_symmetry_cell_setting 'orthorhombic'
loop_
_space_group_symop_operation_xyz
x,y,z
-x,-y,z
1/2-x,y,z
1/2+x,-y,z
1/2+x,1/2+y,1/2+z
1/2-x,1/2-y,1/2+z
-x,1/2+y,1/2+z
x,1/2-y,1/2+z
loop_
_atom_site_type_symbol
_atom_site_label
_atom_site_fract_x
_atom_site_fract_y
_atom_site_fract_z
Si Si1 0.617403 0.962438 0.659400
Si Si2 0.967963 0.940413 0.337034
Si Si3 0.480184 0.351823 0.285004
Si Si4 0.607733 0.157744 0.484638
Si Si5 0.891102 0.639635 0.581697
Si Si6 0.606956 0.727939 0.823523
O O1 0.750000 0.987678 0.703676
O O2 0.611310 0.954894 0.482837
O O3 0.603347 0.901462 0.722917
O O4 0.500000 0.000000 0.703356
O O5 0.903249 0.904406 0.212094
O O6 0.077225 0.900910 0.405320
O O7 0.000000 0.000000 0.273029
O O8 0.588222 0.347691 0.161357
O O9 0.496903 0.367138 0.457173
O O10 0.416637 0.292122 0.298932
O O11 0.750000 0.175037 0.450969
O O12 0.500089 0.199285 0.424091
O O13 0.750000 0.635825 0.517931
O O14 0.902719 0.697790 0.664977
O O15 0.750000 0.718011 0.878894
#
# Coordination Sequence:
#
# PCOD9379353 Si02
#       6
#     8   8   8   8   8   8
#     4  10  21  37  59  85 116 157 205 252 299 355
#     4   9  20  37  60  82 113 158 205 247 295 356
#     4  11  22  36  59  88 121 157 195 243 298 356
#     4  10  23  41  61  89 123 160 203 250 302 361
#     4  10  20  34  55  86 117 145 190 249 300 348
#     4  10  21  39  63  88 116 155 202 247 296 360
#
# _framework density 20.520408
#
# number of rings (size 3 to 8) (size 9 to 14) (size 15 to 20)
#    0.000    2.000    0.000    3.000    0.000   14.667 
#    0.000    3.333    0.000    0.000    0.000    0.000 
#    0.000    0.000    0.000    0.000    0.000    0.000 
#
# Total GULP energy -133803.685783 kJ/mol
# GULP energy per Si atom -5575.153574 kJ/mol
# Density = 2.047370 g / cm^3
# Si number density = 20.520408 Si / 1000 Ang^3
#
#
#
# Elastic Constant Matrix: (Units=GPa)
#
#
# Indices 1 2 3 4 5 6 
#
# 1 143.9759 41.9358 24.2153 0.0000 0.0001 0.0000
# 2 41.9358 122.6826 18.6819 0.0000 0.0000 0.0000
# 3 24.2153 18.6819 61.8345 0.0004 0.0004 0.0001
# 4 0.0000 0.0000 0.0004 20.1059 0.0000 0.0000
# 5 0.0001 0.0000 0.0004 0.0000 15.7861 0.0000
# 6 0.0000 0.0000 0.0001 0.0000 0.0000 14.1391
#
#
#
# Elastic Compliance Matrix: (Units=1/GPa)
#
#
# Indices 1 2 3 4 5 6 
#
# 1 0.008048 -0.002381 -0.002433 0.000000 0.000000 0.000000
# 2 -0.002381 0.009248 -0.001862 0.000000 0.000000 0.000000
# 3 -0.002433 -0.001862 0.017687 0.000000 0.000000 0.000000
# 4 0.000000 0.000000 0.000000 0.049737 0.000000 0.000000
# 5 0.000000 0.000000 0.000000 0.000000 0.063347 0.000000
# 6 0.000000 0.000000 0.000000 0.000000 0.000000 0.070726
#
#
# Mechanical properties :
#
#
# Convention : Reuss Voigt Hill
#
# Bulk Modulus (GPa) = 46.22400 55.35101 50.78751
# Shear Modulus (GPa) = 20.88951 26.25022 23.56987
#
# Velocity S-wave (km/s) = 3.19405 3.58051 3.39279
# Velocity P-wave (km/s) = 6.01476 6.64271 6.33652
#
# Compressibility (1/GPa) = 0.02163378
#
# Stress axis : x y z
#
# Youngs Moduli (GPa) = 124.25242 108.12683 56.53756
#
# Poissons Ratio (x) = 0.25741 0.13753
# Poissons Ratio (y) = 0.29580 0.10527
# Poissons Ratio (z) = 0.30225 0.20132
#
# Static dielectric constant tensor:
#      x y z
#    x 1.749610 0.000000 0.000000 
#    y 0.000000 1.750620 0.000000 
#    z 0.000000 0.000000 1.778060 
# 
# From -- ./inp_files/4710.got.cif
#   From: 2010.05.17/outbox.cif.g08.bks.cpg/sg46_3_cif.got.tgz:4710.got - 2010.06.03 19:58:25.
