data_PCOD9379862
_publ_section_title
;
Structure prediction by ZEFSAII (Michael W. Deem and Ramdas Pophale) SiO2 
 PCOD9379862
Probable space group: I M A 2
;
_chemical_formula_sum "Si O2"
_cell_formula_units_Z 48
_cell_length_a 9.828065
_cell_length_b 8.671598
_cell_length_c 28.422816
_cell_angle_alpha 90.000000
_cell_angle_beta 90.000000
_cell_angle_gamma 90.000000
_cell_volume 2422.335312
_symmetry_space_group_name_H-M "I M A 2"
_symmetry_group_IT_number 46
_symmetry_cell_setting 'orthorhombic'
loop_
_space_group_symop_operation_xyz
x,y,z
-x,-y,z
1/2-x,y,z
1/2+x,-y,z
1/2+x,1/2+y,1/2+z
1/2-x,1/2-y,1/2+z
-x,1/2+y,1/2+z
x,1/2-y,1/2+z
loop_
_atom_site_type_symbol
_atom_site_label
_atom_site_fract_x
_atom_site_fract_y
_atom_site_fract_z
Si Si1 0.513601 0.184673 0.299700
Si Si2 0.979965 0.815615 0.577396
Si Si3 0.250000 0.330575 0.148378
Si Si4 0.414429 0.660312 0.904656
Si Si5 0.750000 0.206814 0.734500
Si Si6 0.250000 0.340087 0.256873
Si Si7 0.250000 0.702499 0.126856
Si Si8 0.587789 0.847530 0.981475
O O1 0.568655 0.224888 0.351671
O O2 0.619419 0.227061 0.259836
O O3 0.378194 0.276566 0.285761
O O4 0.500000 0.000000 0.299647
O O5 0.880392 0.776215 0.620102
O O6 0.923069 0.754275 0.528593
O O7 0.123273 0.753275 0.594929
O O8 0.000000 0.000000 0.573157
O O9 0.250000 0.282834 0.202571
O O10 0.250000 0.516863 0.138653
O O11 0.500000 0.500000 0.905993
O O12 0.250000 0.644005 0.914683
O O13 0.499480 0.765656 0.940581
O O14 0.750000 0.258493 0.680297
O O15 0.750000 0.023680 0.746937
O O16 0.750000 0.870430 0.970305
O O17 0.500000 0.000000 0.991474
#
# Coordination Sequence:
#
# PCOD9379862 Si02
#       8
#     8   8   4   8   4   4   4   8
#     4  11  24  42  65  96 136 173 220 273 334 398
#     4  10  20  39  67  93 124 168 224 268 321 388
#     4   9  18  39  58  95 126 169 224 271 318 377
#     4  11  25  46  73  97 128 172 223 270 325 403
#     4  11  21  43  62  99 132 173 230 273 334 387
#     4  11  23  37  70  95 132 179 222 281 326 393
#     4   9  20  33  66  93 128 167 218 277 312 385
#     4  12  27  45  66  96 137 171 213 275 341 400
#
# _framework density 19.815588999999999
#
# number of rings (size 3 to 8) (size 9 to 14) (size 15 to 20)
#    0.000    1.333    1.667    3.500    7.000    4.000 
#    0.000    5.000    0.000    0.000    0.000    0.000 
#    0.000    0.000    0.000    0.000    0.000    0.000 
#
# Total GULP energy -133850.915406 kJ/mol
# GULP energy per Si atom -5577.121475 kJ/mol
# Density = 1.977049 g / cm^3
# Si number density = 19.815589 Si / 1000 Ang^3
#
#
#
# Elastic Constant Matrix: (Units=GPa)
#
#
# Indices 1 2 3 4 5 6 
#
# 1 182.5383 17.6590 40.6830 0.0000 0.0000 0.0000
# 2 17.6590 39.8349 17.2405 0.0000 0.0000 0.0000
# 3 40.6830 17.2405 99.6662 0.0000 0.0000 0.0000
# 4 0.0000 0.0000 0.0000 26.1250 0.0000 0.0000
# 5 0.0000 0.0000 0.0000 0.0000 43.0484 0.0000
# 6 0.0000 0.0000 0.0000 0.0000 0.0000 17.5484
#
#
#
# Elastic Compliance Matrix: (Units=1/GPa)
#
#
# Indices 1 2 3 4 5 6 
#
# 1 0.006140 -0.001770 -0.002200 0.000000 0.000000 0.000000
# 2 -0.001770 0.027645 -0.004060 0.000000 0.000000 0.000000
# 3 -0.002200 -0.004060 0.011634 0.000000 0.000000 0.000000
# 4 0.000000 0.000000 0.000000 0.038277 0.000000 0.000000
# 5 0.000000 0.000000 0.000000 0.000000 0.023230 0.000000
# 6 0.000000 0.000000 0.000000 0.000000 0.000000 0.056985
#
#
# Mechanical properties :
#
#
# Convention : Reuss Voigt Hill
#
# Bulk Modulus (GPa) = 34.06018 52.57826 43.31922
# Shear Modulus (GPa) = 26.34951 33.77484 30.06217
#
# Velocity S-wave (km/s) = 3.65051 4.13299 3.89922
# Velocity P-wave (km/s) = 5.91559 7.02615 6.49465
#
# Compressibility (1/GPa) = 0.02935980
#
# Stress axis : x y z
#
# Youngs Moduli (GPa) = 162.87057 36.17271 85.95614
#
# Poissons Ratio (x) = 0.06401 0.18911
# Poissons Ratio (y) = 0.28822 0.34896
# Poissons Ratio (z) = 0.35834 0.14685
#
# Static dielectric constant tensor:
#      x y z
#    x 1.638730 0.000000 0.000000 
#    y 0.000000 1.736820 0.000000 
#    z 0.000000 0.000000 1.672680 
# 
# From -- ./inp_files/25077.got.cif
#   From: 2010.05.17/outbox.cif.g08.bks.cpg/sg46_13_cif.got.tgz:25077.got - 2010.06.03 19:58:25.
