data_PCOD9379047
_publ_section_title
;
Structure prediction by ZEFSAII (Michael W. Deem and Ramdas Pophale) SiO2 
 PCOD9379047
Probable space group: I M A 2
;
_chemical_formula_sum "Si O2"
_cell_formula_units_Z 64
_cell_length_a 17.030557
_cell_length_b 22.122283
_cell_length_c 9.420485
_cell_angle_alpha 90.000000
_cell_angle_beta 90.000000
_cell_angle_gamma 90.000000
_cell_volume 3549.212957
_symmetry_space_group_name_H-M "I M A 2"
_symmetry_group_IT_number 46
_symmetry_cell_setting 'orthorhombic'
loop_
_space_group_symop_operation_xyz
x,y,z
-x,-y,z
1/2-x,y,z
1/2+x,-y,z
1/2+x,1/2+y,1/2+z
1/2-x,1/2-y,1/2+z
-x,1/2+y,1/2+z
x,1/2-y,1/2+z
loop_
_atom_site_type_symbol
_atom_site_label
_atom_site_fract_x
_atom_site_fract_y
_atom_site_fract_z
Si Si1 0.339308 0.694849 0.849590
Si Si2 0.982504 0.875495 0.058940
Si Si3 0.160920 0.070917 0.229159
Si Si4 0.574444 0.461907 0.078536
Si Si5 0.394899 0.935747 0.262807
Si Si6 0.512613 0.867510 0.728419
Si Si7 0.838694 0.578579 0.065442
Si Si8 0.062886 0.746562 0.111352
O O1 0.250000 0.707664 0.892386
O O2 0.345872 0.624258 0.803643
O O3 0.365953 0.733024 0.712862
O O4 0.400555 0.713682 0.973208
O O5 0.901506 0.892563 0.136327
O O6 0.046223 0.917492 0.138143
O O7 0.013724 0.807091 0.077706
O O8 0.977416 0.885050 0.891357
O O9 0.250000 0.084306 0.186473
O O10 0.151649 0.086833 0.396072
O O11 0.147399 0.998207 0.222507
O O12 0.500000 0.500000 0.130530
O O13 0.565067 0.401375 0.166805
O O14 0.647738 0.506523 0.092174
O O15 0.561816 0.448510 0.912424
O O16 0.591108 0.886902 0.644052
O O17 0.493695 0.798120 0.697933
O O18 0.750000 0.595707 0.105931
#
# Coordination Sequence:
#
# PCOD9379047 Si02
#       8
#     8   8   8   8   8   8   8   8
#     4  11  22  38  61  88 120 154 195 244 292 343
#     4  11  23  36  59  85 118 157 196 243 295 360
#     4  10  21  38  59  88 119 153 198 248 298 349
#     4   9  17  32  56  81 113 147 190 235 282 348
#     4  10  19  35  61  88 115 154 197 237 291 351
#     4  11  21  37  57  84 114 154 198 235 294 354
#     4   9  20  36  58  85 115 148 194 248 293 342
#     4  11  23  40  59  85 117 157 198 240 289 354
#
# _framework density 18.032166
#
# number of rings (size 3 to 8) (size 9 to 14) (size 15 to 20)
#    0.000    1.750    2.500    3.375    1.750    4.000 
#    0.000    0.625    0.000    0.000    0.000    0.000 
#    0.000    0.000    0.000    0.000    0.000    0.000 
#
# Total GULP energy -178351.955902 kJ/mol
# GULP energy per Si atom -5573.498622 kJ/mol
# Density = 1.799112 g / cm^3
# Si number density = 18.032166 Si / 1000 Ang^3
#
#
#
# Elastic Constant Matrix: (Units=GPa)
#
#
# Indices 1 2 3 4 5 6 
#
# 1 109.2769 38.0104 47.9090 0.0000 0.0000 0.0000
# 2 38.0104 66.1592 25.0261 0.0000 0.0000 0.0000
# 3 47.9090 25.0261 81.5297 0.0000 0.0000 0.0000
# 4 0.0000 0.0000 0.0000 19.6785 0.0000 0.0000
# 5 0.0000 0.0000 0.0000 0.0000 16.7020 0.0000
# 6 0.0000 0.0000 0.0000 0.0000 0.0000 10.9558
#
#
#
# Elastic Compliance Matrix: (Units=1/GPa)
#
#
# Indices 1 2 3 4 5 6 
#
# 1 0.013920 -0.005548 -0.006477 0.000000 0.000000 0.000000
# 2 -0.005548 0.019311 -0.002668 0.000000 0.000000 0.000000
# 3 -0.006477 -0.002668 0.016891 0.000000 0.000000 0.000000
# 4 0.000000 0.000000 0.000000 0.050817 0.000000 0.000000
# 5 0.000000 0.000000 0.000000 0.000000 0.059873 0.000000
# 6 0.000000 0.000000 0.000000 0.000000 0.000000 0.091276
#
#
# Mechanical properties :
#
#
# Convention : Reuss Voigt Hill
#
# Bulk Modulus (GPa) = 48.22245 53.20631 50.71438
# Shear Modulus (GPa) = 17.33789 19.20195 18.26992
#
# Velocity S-wave (km/s) = 3.10417 3.26678 3.18651
# Velocity P-wave (km/s) = 6.29669 6.61812 6.45940
#
# Compressibility (1/GPa) = 0.02073723
#
# Stress axis : x y z
#
# Youngs Moduli (GPa) = 71.83695 51.78272 59.20471
#
# Poissons Ratio (x) = 0.28727 0.38348
# Poissons Ratio (y) = 0.39852 0.15795
# Poissons Ratio (z) = 0.46530 0.13815
#
# Static dielectric constant tensor:
#      x y z
#    x 1.605740 0.000000 0.000000 
#    y 0.000000 1.677630 0.000000 
#    z 0.000000 0.000000 1.608060 
# 
# From -- ./inp_files/6910.got.cif
#   From: 2010.05.17/outbox.cif.g08.bks.cpg/sg46_4_cif.got.tgz:6910.got - 2010.06.03 19:58:25.
