data_PCOD9379216
_publ_section_title
;
Structure prediction by ZEFSAII (Michael W. Deem and Ramdas Pophale) SiO2 
 PCOD9379216
Probable space group: I M A 2
;
_chemical_formula_sum "Si O2"
_cell_formula_units_Z 36
_cell_length_a 10.239131
_cell_length_b 21.124031
_cell_length_c 7.845285
_cell_angle_alpha 90.000000
_cell_angle_beta 90.000000
_cell_angle_gamma 90.000000
_cell_volume 1696.870192
_symmetry_space_group_name_H-M "I M A 2"
_symmetry_group_IT_number 46
_symmetry_cell_setting 'orthorhombic'
loop_
_space_group_symop_operation_xyz
x,y,z
-x,-y,z
1/2-x,y,z
1/2+x,-y,z
1/2+x,1/2+y,1/2+z
1/2-x,1/2-y,1/2+z
-x,1/2+y,1/2+z
x,1/2-y,1/2+z
loop_
_atom_site_type_symbol
_atom_site_label
_atom_site_fract_x
_atom_site_fract_y
_atom_site_fract_z
Si Si1 0.483331 0.426655 0.285090
Si Si2 0.750000 0.391039 0.751966
Si Si3 0.750000 0.971259 0.353665
Si Si4 0.453273 0.383669 0.665430
Si Si5 0.750000 0.416746 0.124145
Si Si6 0.250000 0.346308 0.178847
Si Si7 0.250000 0.213357 0.053843
O O1 0.500000 0.500000 0.246151
O O2 0.442848 0.417989 0.481395
O O3 0.625400 0.401819 0.237631
O O4 0.376488 0.390146 0.174641
O O5 0.750000 0.467743 0.728326
O O6 0.606615 0.371300 0.690984
O O7 0.750000 0.376266 0.952997
O O8 0.876935 0.928708 0.302049
O O9 0.750000 0.011667 0.533422
O O10 0.374358 0.318294 0.646363
O O11 0.250000 0.288549 0.050355
O O12 0.250000 0.312304 0.362256
#
# Coordination Sequence:
#
# PCOD9379216 Si02
#       7
#     8   4   4   8   4   4   4
#     4  11  22  39  62  95 127 173 209 277 327 398
#     4  10  20  32  56  89 124 165 209 268 321 384
#     4   9  20  35  56  89 130 166 209 270 317 404
#     4  10  20  39  65  85 130 177 226 252 321 402
#     4  10  25  33  53  91 135 151 214 262 358 352
#     4  10  23  44  68  92 131 165 235 255 332 388
#     4   9  22  42  65  97 116 177 217 273 310 390
#
# _framework density 21.215530000000001
#
# number of rings (size 3 to 8) (size 9 to 14) (size 15 to 20)
#    0.667    1.333    0.000    4.000    3.111    1.778 
#    4.000    1.111    0.000    0.000    0.000    0.000 
#    0.000    0.000    0.000    0.000    0.000    0.000 
#
# Total GULP energy -100359.296944 kJ/mol
# GULP energy per Si atom -5575.516497 kJ/mol
# Density = 2.116724 g / cm^3
# Si number density = 21.215530 Si / 1000 Ang^3
#
#
#
# Elastic Constant Matrix: (Units=GPa)
#
#
# Indices 1 2 3 4 5 6 
#
# 1 182.1964 50.9994 24.3708 0.0001 0.0000 0.0000
# 2 50.9994 96.6186 24.9647 0.0000 0.0000 0.0000
# 3 24.3708 24.9647 76.0233 0.0001 -0.0005 -0.0005
# 4 0.0001 0.0000 0.0001 26.3422 -0.0001 -0.0001
# 5 0.0000 0.0000 -0.0005 -0.0001 57.3660 0.0001
# 6 0.0000 0.0000 -0.0005 -0.0001 0.0001 16.4973
#
#
#
# Elastic Compliance Matrix: (Units=1/GPa)
#
#
# Indices 1 2 3 4 5 6 
#
# 1 0.006516 -0.003168 -0.001048 0.000000 0.000000 0.000000
# 2 -0.003168 0.012850 -0.003204 0.000000 0.000000 0.000000
# 3 -0.001048 -0.003204 0.014542 0.000000 0.000000 0.000000
# 4 0.000000 0.000000 0.000000 0.037962 0.000000 0.000000
# 5 0.000000 0.000000 0.000000 0.000000 0.017432 0.000000
# 6 0.000000 0.000000 0.000000 0.000000 0.000000 0.060616
#
#
# Mechanical properties :
#
#
# Convention : Reuss Voigt Hill
#
# Bulk Modulus (GPa) = 52.44814 61.72315 57.08565
# Shear Modulus (GPa) = 29.22014 37.00800 33.11407
#
# Velocity S-wave (km/s) = 3.71523 4.18111 3.95503
# Velocity P-wave (km/s) = 6.57108 7.24330 6.91537
#
# Compressibility (1/GPa) = 0.01906645
#
# Stress axis : x y z
#
# Youngs Moduli (GPa) = 153.47588 77.81931 68.76590
#
# Poissons Ratio (x) = 0.24656 0.07209
# Poissons Ratio (y) = 0.48627 0.22033
# Poissons Ratio (z) = 0.16089 0.24934
#
# Static dielectric constant tensor:
#      x y z
#    x 1.756150 0.000000 0.000000 
#    y 0.000000 1.772150 0.000000 
#    z 0.000000 0.000000 1.805970 
# 
# From -- ./inp_files/3437.got.cif
#   From: 2010.05.17/outbox.cif.g08.bks.cpg/sg46_2_cif.got.tgz:3437.got - 2010.06.03 19:58:25.
