data_PCOD9379009
_publ_section_title
;
Structure prediction by ZEFSAII (Michael W. Deem and Ramdas Pophale) SiO2 
 PCOD9379009
Probable space group: I M A 2
;
_chemical_formula_sum "Si O2"
_cell_formula_units_Z 40
_cell_length_a 7.909228
_cell_length_b 29.511871
_cell_length_c 8.918119
_cell_angle_alpha 90.000000
_cell_angle_beta 90.000000
_cell_angle_gamma 90.000000
_cell_volume 2081.632703
_symmetry_space_group_name_H-M "I M A 2"
_symmetry_group_IT_number 46
_symmetry_cell_setting 'orthorhombic'
loop_
_space_group_symop_operation_xyz
x,y,z
-x,-y,z
1/2-x,y,z
1/2+x,-y,z
1/2+x,1/2+y,1/2+z
1/2-x,1/2-y,1/2+z
-x,1/2+y,1/2+z
x,1/2-y,1/2+z
loop_
_atom_site_type_symbol
_atom_site_label
_atom_site_fract_x
_atom_site_fract_y
_atom_site_fract_z
Si Si1 0.563010 0.856769 0.483460
Si Si2 0.443532 0.866085 0.158739
Si Si3 0.250000 0.698024 0.117950
Si Si4 0.750000 0.202899 0.974673
Si Si5 0.953406 0.050515 0.964842
Si Si6 0.547151 0.050774 0.617959
O O1 0.750000 0.842647 0.531632
O O2 0.542610 0.851468 0.304973
O O3 0.415068 0.829298 0.564818
O O4 0.535192 0.909635 0.521997
O O5 0.250000 0.877565 0.212021
O O6 0.515483 0.909603 0.072565
O O7 0.408480 0.825736 0.040926
O O8 0.250000 0.702627 0.296664
O O9 0.250000 0.747047 0.040753
O O10 0.750000 0.054522 0.961664
O O11 0.010388 0.055700 0.792068
O O12 0.000000 0.000000 0.015261
O O13 0.750000 0.055788 0.613116
O O14 0.500000 0.000000 0.569539
#
# Coordination Sequence:
#
# PCOD9379009 Si02
#       6
#     8   8   4   4   8   8
#     4  12  24  39  63  94 130 171 211 263 319 380
#     4   9  19  39  60  90 118 168 210 250 318 376
#     4  12  22  46  70  98 126 162 214 266 325 384
#     4  10  22  42  78  90 122 172 206 266 335 376
#     4   9  18  32  56  84 122 166 213 260 310 371
#     4  10  19  35  57  87 125 170 216 264 314 378
#
# _framework density 19.215686000000002
#
# number of rings (size 3 to 8) (size 9 to 14) (size 15 to 20)
#    0.600    1.200    2.000    3.000    0.000    2.400 
#    0.000    9.000    0.000    0.000    0.000    0.000 
#    0.000    0.000    0.000    0.000    0.000    0.000 
#
# Total GULP energy -111621.882595 kJ/mol
# GULP energy per Si atom -5581.094130 kJ/mol
# Density = 1.917195 g / cm^3
# Si number density = 19.215686 Si / 1000 Ang^3
#
#
#
# Elastic Constant Matrix: (Units=GPa)
#
#
# Indices 1 2 3 4 5 6 
#
# 1 87.2280 35.9645 37.0828 0.0000 0.0000 0.0000
# 2 35.9645 124.8258 67.3514 -0.0001 0.0000 0.0000
# 3 37.0828 67.3514 121.9297 -0.0001 0.0000 0.0000
# 4 0.0000 -0.0001 -0.0001 38.7567 0.0000 0.0000
# 5 0.0000 0.0000 0.0000 0.0000 4.1464 0.0000
# 6 0.0000 0.0000 0.0000 0.0000 0.0000 21.7964
#
#
#
# Elastic Compliance Matrix: (Units=1/GPa)
#
#
# Indices 1 2 3 4 5 6 
#
# 1 0.013658 -0.002413 -0.002821 0.000000 0.000000 0.000000
# 2 -0.002413 0.011839 -0.005806 0.000000 0.000000 0.000000
# 3 -0.002821 -0.005806 0.012266 0.000000 0.000000 0.000000
# 4 0.000000 0.000000 0.000000 0.025802 0.000000 0.000000
# 5 0.000000 0.000000 0.000000 0.000000 0.241171 0.000000
# 6 0.000000 0.000000 0.000000 0.000000 0.000000 0.045879
#
#
# Mechanical properties :
#
#
# Convention : Reuss Voigt Hill
#
# Bulk Modulus (GPa) = 63.75883 68.30899 66.03391
# Shear Modulus (GPa) = 13.23019 25.84556 19.53787
#
# Velocity S-wave (km/s) = 2.62679 3.67144 3.19214
# Velocity P-wave (km/s) = 6.51557 7.32109 6.93004
#
# Compressibility (1/GPa) = 0.01568410
#
# Stress axis : x y z
#
# Youngs Moduli (GPa) = 73.21479 84.46698 81.52387
#
# Poissons Ratio (x) = 0.20383 0.22998
# Poissons Ratio (y) = 0.17668 0.47330
# Poissons Ratio (z) = 0.20654 0.49039
#
# Static dielectric constant tensor:
#      x y z
#    x 1.693880 0.000000 0.000000 
#    y 0.000000 1.654600 0.000000 
#    z 0.000000 0.000000 1.661480 
# 
# From -- ./inp_files/3765.got.cif
#   From: 2010.05.17/outbox.cif.g08.bks.cpg/sg46_2_cif.got.tgz:3765.got - 2010.06.03 19:58:25.
