data_PCOD9379082
_publ_section_title
;
Structure prediction by ZEFSAII (Michael W. Deem and Ramdas Pophale) SiO2 
 PCOD9379082
Probable space group: I M A 2
;
_chemical_formula_sum "Si O2"
_cell_formula_units_Z 48
_cell_length_a 15.019894
_cell_length_b 17.555720
_cell_length_c 9.610417
_cell_angle_alpha 90.000000
_cell_angle_beta 90.000000
_cell_angle_gamma 90.000000
_cell_volume 2534.123321
_symmetry_space_group_name_H-M "I M A 2"
_symmetry_group_IT_number 46
_symmetry_cell_setting 'orthorhombic'
loop_
_space_group_symop_operation_xyz
x,y,z
-x,-y,z
1/2-x,y,z
1/2+x,-y,z
1/2+x,1/2+y,1/2+z
1/2-x,1/2-y,1/2+z
-x,1/2+y,1/2+z
x,1/2-y,1/2+z
loop_
_atom_site_type_symbol
_atom_site_label
_atom_site_fract_x
_atom_site_fract_y
_atom_site_fract_z
Si Si1 0.750000 0.396856 0.933030
Si Si2 0.438396 0.568272 0.260410
Si Si3 0.053117 0.423807 0.693690
Si Si4 0.946503 0.310820 0.504676
Si Si5 0.750000 0.987079 0.206320
Si Si6 0.750000 0.350754 0.542203
Si Si7 0.550026 0.136568 0.452604
Si Si8 0.750000 0.079183 0.754877
O O1 0.750000 0.480559 0.864740
O O2 0.847739 0.365296 0.893215
O O3 0.750000 0.389484 0.099349
O O4 0.500000 0.500000 0.302300
O O5 0.444767 0.639879 0.362934
O O6 0.339636 0.534255 0.273685
O O7 0.451629 0.594829 0.101846
O O8 0.158064 0.441637 0.683810
O O9 0.000000 0.500000 0.649173
O O10 0.016142 0.354128 0.602825
O O11 0.017720 0.404519 0.848504
O O12 0.846003 0.312896 0.571182
O O13 0.972181 0.224597 0.475005
O O14 0.750000 0.064829 0.111958
O O15 0.750000 0.357649 0.374367
#
# Coordination Sequence:
#
# PCOD9379082 Si02
#       8
#     4   8   8   8   4   4   8   4
#     4  10  19  36  60  92 123 153 191 253 312 358
#     4  10  21  36  56  85 114 154 192 240 289 353
#     4  12  23  41  62  90 122 165 211 252 301 367
#     4  11  22  38  61  91 126 157 197 249 312 364
#     4  12  24  38  63  91 122 160 212 258 290 366
#     4  10  19  36  60  92 123 153 191 253 312 358
#     4  11  22  38  61  91 126 157 197 249 312 364
#     4   8  20  32  53  81 118 140 186 232 298 338
#
# _framework density 18.941462000000001
#
# number of rings (size 3 to 8) (size 9 to 14) (size 15 to 20)
#    0.000    1.333    3.333    2.500    4.667    0.000 
#    0.000    5.833    0.000    2.000    0.000    0.000 
#    0.000    0.000    0.000    0.000    0.000    0.000 
#
# Total GULP energy -133856.946016 kJ/mol
# GULP energy per Si atom -5577.372751 kJ/mol
# Density = 1.889835 g / cm^3
# Si number density = 18.941462 Si / 1000 Ang^3
#
#
#
# Elastic Constant Matrix: (Units=GPa)
#
#
# Indices 1 2 3 4 5 6 
#
# 1 125.1257 39.4542 13.2411 0.0000 0.0000 0.0000
# 2 39.4542 79.5765 -7.6825 0.0000 0.0000 0.0000
# 3 13.2411 -7.6825 68.3422 0.0000 0.0000 0.0000
# 4 0.0000 0.0000 0.0000 23.5944 0.0000 0.0000
# 5 0.0000 0.0000 0.0000 0.0000 20.0354 0.0000
# 6 0.0000 0.0000 0.0000 0.0000 0.0000 18.7658
#
#
#
# Elastic Compliance Matrix: (Units=1/GPa)
#
#
# Indices 1 2 3 4 5 6 
#
# 1 0.009875 -0.005137 -0.002491 0.000000 0.000000 0.000000
# 2 -0.005137 0.015376 0.002724 0.000000 0.000000 0.000000
# 3 -0.002491 0.002724 0.015421 0.000000 0.000000 0.000000
# 4 0.000000 0.000000 0.000000 0.042383 0.000000 0.000000
# 5 0.000000 0.000000 0.000000 0.000000 0.049912 0.000000
# 6 0.000000 0.000000 0.000000 0.000000 0.000000 0.053288
#
#
# Mechanical properties :
#
#
# Convention : Reuss Voigt Hill
#
# Bulk Modulus (GPa) = 32.39904 40.34114 36.37009
# Shear Modulus (GPa) = 24.23055 27.68122 25.95589
#
# Velocity S-wave (km/s) = 3.58052 3.82699 3.70580
# Velocity P-wave (km/s) = 5.85111 6.39310 6.12810
#
# Compressibility (1/GPa) = 0.03086511
#
# Stress axis : x y z
#
# Youngs Moduli (GPa) = 101.26387 65.03549 64.84671
#
# Poissons Ratio (x) = 0.33406 0.16151
# Poissons Ratio (y) = 0.52015 -0.17662
# Poissons Ratio (z) = 0.25222 -0.17714
#
# Static dielectric constant tensor:
#      x y z
#    x 1.673560 0.000000 0.000000 
#    y 0.000000 1.605070 0.000000 
#    z 0.000000 0.000000 1.739700 
# 
# From -- ./inp_files/5761.got.cif
#   From: 2010.05.17/outbox.cif.g08.bks.cpg/sg46_3_cif.got.tgz:5761.got - 2010.06.03 19:58:25.
