data_PCOD9379531
_publ_section_title
;
Structure prediction by ZEFSAII (Michael W. Deem and Ramdas Pophale) SiO2 
 PCOD9379531
Probable space group: I M A 2
;
_chemical_formula_sum "Si O2"
_cell_formula_units_Z 48
_cell_length_a 8.581756
_cell_length_b 9.317935
_cell_length_c 31.653147
_cell_angle_alpha 90.000000
_cell_angle_beta 90.000000
_cell_angle_gamma 90.000000
_cell_volume 2531.119989
_symmetry_space_group_name_H-M "I M A 2"
_symmetry_group_IT_number 46
_symmetry_cell_setting 'orthorhombic'
loop_
_space_group_symop_operation_xyz
x,y,z
-x,-y,z
1/2-x,y,z
1/2+x,-y,z
1/2+x,1/2+y,1/2+z
1/2-x,1/2-y,1/2+z
-x,1/2+y,1/2+z
x,1/2-y,1/2+z
loop_
_atom_site_type_symbol
_atom_site_label
_atom_site_fract_x
_atom_site_fract_y
_atom_site_fract_z
Si Si1 0.938419 0.338632 0.737090
Si Si2 0.061965 0.838685 0.819708
Si Si3 0.561971 0.160635 0.654793
Si Si4 0.436147 0.338850 0.481110
Si Si5 0.562617 0.339124 0.902654
Si Si6 0.562467 0.339487 0.572855
O O1 0.750000 0.343144 0.737137
O O2 0.989155 0.249432 0.778321
O O3 0.989491 0.256161 0.694699
O O4 0.000000 0.500000 0.738179
O O5 0.250000 0.843702 0.819293
O O6 0.013602 0.754845 0.862036
O O7 0.000000 0.000000 0.819211
O O8 0.750000 0.156659 0.655419
O O9 0.514272 0.236120 0.611024
O O10 0.500000 0.000000 0.658044
O O11 0.500000 0.500000 0.473680
O O12 0.250000 0.342791 0.480999
O O13 0.498079 0.235303 0.444742
O O14 0.496340 0.293730 0.527413
O O15 0.500000 0.500000 0.898606
O O16 0.750000 0.341381 0.904228
O O17 0.500000 0.500000 0.581040
O O18 0.750000 0.344227 0.570612
#
# Coordination Sequence:
#
# PCOD9379531 Si02
#       6
#     8   8   8   8   8   8
#     4  10  21  38  58  85 115 147 186 229 275 329
#     4  10  22  38  59  85 115 148 187 230 277 331
#     4  10  22  37  56  82 114 148 187 230 276 330
#     4  11  22  38  60  85 113 149 189 235 285 338
#     4  11  23  39  58  84 115 150 190 234 282 337
#     4  10  20  36  57  83 112 146 188 234 280 335
#
# _framework density 18.963937000000001
#
# number of rings (size 3 to 8) (size 9 to 14) (size 15 to 20)
#    0.000    1.667    0.000    5.500    0.000    6.000 
#    0.000    1.667    0.000    0.000    0.000    0.000 
#    0.000    0.000    0.000    0.000    0.000    0.000 
#
# Total GULP energy -134170.105716 kJ/mol
# GULP energy per Si atom -5590.421072 kJ/mol
# Density = 1.892077 g / cm^3
# Si number density = 18.963937 Si / 1000 Ang^3
#
#
#
# Elastic Constant Matrix: (Units=GPa)
#
#
# Indices 1 2 3 4 5 6 
#
# 1 56.7830 40.8509 48.1697 0.0000 0.0000 0.0000
# 2 40.8509 187.0849 141.3289 0.0000 0.0000 0.0000
# 3 48.1697 141.3289 193.1851 0.0000 0.0000 0.0000
# 4 0.0000 0.0000 0.0000 43.5681 0.0000 0.0000
# 5 0.0000 0.0000 0.0000 0.0000 -12.0129 0.0000
# 6 0.0000 0.0000 0.0000 0.0000 0.0000 40.0072
#
#
#
# Elastic Compliance Matrix: (Units=1/GPa)
#
#
# Indices 1 2 3 4 5 6 
#
# 1 0.022525 -0.001510 -0.004512 0.000000 0.000000 0.000000
# 2 -0.001510 0.012050 -0.008439 0.000000 0.000000 0.000000
# 3 -0.004512 -0.008439 0.012475 0.000000 0.000000 0.000000
# 4 0.000000 0.000000 0.000000 0.022953 0.000000 0.000000
# 5 0.000000 0.000000 0.000000 0.000000 -0.083244 0.000000
# 6 0.000000 0.000000 0.000000 0.000000 0.000000 0.024996
#
#
# Mechanical properties :
#
#
# Convention : Reuss Voigt Hill
#
# Bulk Modulus (GPa) = 55.16252 99.75023 77.45637
# Shear Modulus (GPa) = 107.02687 28.09270 67.55978
#
# Velocity S-wave (km/s) = 7.52061 3.85304 5.97518
# Velocity P-wave (km/s) = 10.22566 8.51520 9.40938
#
# Compressibility (1/GPa) = 0.01812825
#
# Stress axis : x y z
#
# Youngs Moduli (GPa) = 44.39588 82.98930 80.16122
#
# Poissons Ratio (x) = 0.12533 0.36166
# Poissons Ratio (y) = 0.06705 0.67646
# Poissons Ratio (z) = 0.20030 0.70032
#
# Static dielectric constant tensor:
#      x y z
#    x 1.642580 0.000000 0.000000 
#    y 0.000000 1.608020 0.000000 
#    z 0.000000 0.000000 1.652640 
# 
# From -- ./inp_files/24986.got.cif
#   From: 2010.05.17/outbox.cif.g08.bks.cpg/sg46_13_cif.got.tgz:24986.got - 2010.06.03 19:58:25.
