data_PCOD9379692
_publ_section_title
;
Structure prediction by ZEFSAII (Michael W. Deem and Ramdas Pophale) SiO2 
 PCOD9379692
Probable space group: I M A 2
;
_chemical_formula_sum "Si O2"
_cell_formula_units_Z 36
_cell_length_a 11.254689
_cell_length_b 24.929883
_cell_length_c 5.373102
_cell_angle_alpha 90.000000
_cell_angle_beta 90.000000
_cell_angle_gamma 90.000000
_cell_volume 1507.574643
_symmetry_space_group_name_H-M "I M A 2"
_symmetry_group_IT_number 46
_symmetry_cell_setting 'orthorhombic'
loop_
_space_group_symop_operation_xyz
x,y,z
-x,-y,z
1/2-x,y,z
1/2+x,-y,z
1/2+x,1/2+y,1/2+z
1/2-x,1/2-y,1/2+z
-x,1/2+y,1/2+z
x,1/2-y,1/2+z
loop_
_atom_site_type_symbol
_atom_site_label
_atom_site_fract_x
_atom_site_fract_y
_atom_site_fract_z
Si Si1 0.500000 0.500000 0.740381
Si Si2 0.750000 0.708538 0.776860
Si Si3 0.750000 0.029315 0.306366
Si Si4 0.000121 0.114397 0.971571
Si Si5 0.987876 0.225137 0.249364
Si Si6 0.250000 0.359692 0.273784
Si Si7 0.250000 0.594559 0.288518
O O1 0.371633 0.498509 0.870352
O O2 0.497029 0.555668 0.591776
O O3 0.627319 0.741065 0.777789
O O4 0.750000 0.674062 0.528485
O O5 0.750000 0.669575 0.011529
O O6 0.750000 0.077140 0.502377
O O7 0.750000 0.048872 0.015189
O O8 0.995817 0.162543 0.174925
O O9 0.876038 0.122894 0.829014
O O10 0.119042 0.114064 0.803828
O O11 0.935508 0.242245 0.514886
#
# Coordination Sequence:
#
# PCOD9379692 Si02
#       7
#     4   4   4   8   8   4   4
#     4  10  22  44  70 100 140 180 232 286 346 412
#     4  10  20  37  61  95 134 169 209 277 343 390
#     4  10  23  42  66  98 132 178 222 278 342 406
#     4  10  23  44  67 100 135 180 228 283 342 406
#     4  11  22  38  62  92 128 170 218 272 332 397
#     4  10  21  37  66  97 130 169 226 273 324 402
#     4  10  24  44  65  92 138 180 221 278 349 402
#
# _framework density 23.879415000000002
#
# number of rings (size 3 to 8) (size 9 to 14) (size 15 to 20)
#    0.000    1.778    0.000    4.000    0.000   14.222 
#    0.000   11.111    0.000    0.000    0.000    0.000 
#    0.000    0.000    0.000    0.000    0.000    0.000 
#
# Total GULP energy -100355.465109 kJ/mol
# GULP energy per Si atom -5575.303617 kJ/mol
# Density = 2.382506 g / cm^3
# Si number density = 23.879415 Si / 1000 Ang^3
#
#
#
# Elastic Constant Matrix: (Units=GPa)
#
#
# Indices 1 2 3 4 5 6 
#
# 1 179.9966 14.8323 13.1913 0.0076 -0.0266 -0.0076
# 2 14.8323 119.6552 46.8039 0.0161 -0.0291 -0.0098
# 3 13.1913 46.8039 102.7147 0.0239 -0.0863 -0.0294
# 4 0.0076 0.0161 0.0239 19.6542 -0.0316 -0.0096
# 5 -0.0266 -0.0291 -0.0863 -0.0316 -29.3752 0.0141
# 6 -0.0076 -0.0098 -0.0294 -0.0096 0.0141 29.4690
#
#
#
# Elastic Compliance Matrix: (Units=1/GPa)
#
#
# Indices 1 2 3 4 5 6 
#
# 1 0.005633 -0.000505 -0.000493 -0.000001 -0.000003 0.000001
# 2 -0.000505 0.010215 -0.004590 -0.000003 0.000004 -0.000001
# 3 -0.000493 -0.004590 0.011891 -0.000011 -0.000030 0.000010
# 4 -0.000001 -0.000003 -0.000011 0.050880 -0.000055 0.000017
# 5 -0.000003 0.000004 -0.000030 -0.000055 -0.034042 0.000016
# 6 0.000001 -0.000001 0.000010 0.000017 0.000016 0.033934
#
#
# Mechanical properties :
#
#
# Convention : Reuss Voigt Hill
#
# Bulk Modulus (GPa) = 60.37805 61.33572 60.85689
# Shear Modulus (GPa) = 52.51626 25.78552 39.15089
#
# Velocity S-wave (km/s) = 4.69468 3.28963 4.05350
# Velocity P-wave (km/s) = 7.39771 6.33800 6.88827
#
# Compressibility (1/GPa) = 0.01656231
#
# Stress axis : x y z
#
# Youngs Moduli (GPa) = 177.51108 97.89169 84.10070
#
# Poissons Ratio (x) = 0.04947 0.04148
# Poissons Ratio (y) = 0.08971 0.38602
# Poissons Ratio (z) = 0.08755 0.44931
#
# Static dielectric constant tensor:
#      x y z
#    x 2.041190 -0.000050 0.000000 
#    y -0.000050 1.983200 0.000000 
#    z 0.000000 0.000000 1.930840 
# 
# From -- ./inp_files/778.got.cif
#   From: 2010.05.17/outbox.cif.g08.bks.cpg/sg46_1_cif.got.tgz:778.got - 2010.06.03 19:58:25.
