data_PCOD9379135
_publ_section_title
;
Structure prediction by ZEFSAII (Michael W. Deem and Ramdas Pophale) SiO2 
 PCOD9379135
Probable space group: I M A 2
;
_chemical_formula_sum "Si O2"
_cell_formula_units_Z 36
_cell_length_a 15.899686
_cell_length_b 7.270468
_cell_length_c 16.504745
_cell_angle_alpha 90.000000
_cell_angle_beta 90.000000
_cell_angle_gamma 90.000000
_cell_volume 1907.918125
_symmetry_space_group_name_H-M "I M A 2"
_symmetry_group_IT_number 46
_symmetry_cell_setting 'orthorhombic'
loop_
_space_group_symop_operation_xyz
x,y,z
-x,-y,z
1/2-x,y,z
1/2+x,-y,z
1/2+x,1/2+y,1/2+z
1/2-x,1/2-y,1/2+z
-x,1/2+y,1/2+z
x,1/2-y,1/2+z
loop_
_atom_site_type_symbol
_atom_site_label
_atom_site_fract_x
_atom_site_fract_y
_atom_site_fract_z
Si Si1 0.158108 0.735918 0.636240
Si Si2 0.000000 0.000000 0.372686
Si Si3 0.003593 0.217384 0.734588
Si Si4 0.084044 0.384690 0.573910
Si Si5 0.850202 0.524222 0.991965
O O1 0.250000 0.768679 0.669878
O O2 0.151834 0.542122 0.590306
O O3 0.089355 0.727091 0.705554
O O4 0.139014 0.896101 0.571537
O O5 0.975726 0.830601 0.314480
O O6 0.917957 0.045461 0.426466
O O7 0.060635 0.281921 0.658530
O O8 0.000000 0.000000 0.745705
O O9 0.118084 0.229239 0.514336
O O10 0.000000 0.500000 0.548859
O O11 0.750000 0.520673 0.971179
#
# Coordination Sequence:
#
# PCOD9379135 Si02
#       5
#     8   4   8   8   8
#     4  10  20  37  64  91 116 154 210 257 295 361
#     4  12  24  40  58  92 134 164 196 254 322 374
#     4  11  21  38  61  89 119 162 205 249 308 360
#     4  10  19  37  66  92 115 156 211 256 301 363
#     4  11  24  41  64  93 128 165 206 257 312 372
#
# _framework density 18.868732999999999
#
# number of rings (size 3 to 8) (size 9 to 14) (size 15 to 20)
#    0.000    1.333    5.556    3.333    0.000    3.556 
#    0.000    1.111    0.000    0.000    0.000    0.000 
#    0.000    0.000    0.000    0.000    0.000    0.000 
#
# Total GULP energy -100407.214481 kJ/mol
# GULP energy per Si atom -5578.178582 kJ/mol
# Density = 1.882579 g / cm^3
# Si number density = 18.868733 Si / 1000 Ang^3
#
#
#
# Elastic Constant Matrix: (Units=GPa)
#
#
# Indices 1 2 3 4 5 6 
#
# 1 84.6829 -9.2205 28.8000 0.0000 0.0000 0.0000
# 2 -9.2205 93.2067 -13.5993 0.0000 0.0000 0.0000
# 3 28.8000 -13.5993 25.6306 0.0000 0.0000 0.0000
# 4 0.0000 0.0000 0.0000 12.0104 0.0000 0.0000
# 5 0.0000 0.0000 0.0000 0.0000 -0.3490 0.0000
# 6 0.0000 0.0000 0.0000 0.0000 0.0000 7.4583
#
#
#
# Elastic Compliance Matrix: (Units=1/GPa)
#
#
# Indices 1 2 3 4 5 6 
#
# 1 0.019270 -0.001358 -0.022373 0.000000 0.000000 0.000000
# 2 -0.001358 0.011725 0.007747 0.000000 0.000000 0.000000
# 3 -0.022373 0.007747 0.068266 0.000000 0.000000 0.000000
# 4 0.000000 0.000000 0.000000 0.083261 0.000000 0.000000
# 5 0.000000 0.000000 0.000000 0.000000 -2.865740 0.000000
# 6 0.000000 0.000000 0.000000 0.000000 0.000000 0.134078
#
#
# Mechanical properties :
#
#
# Convention : Reuss Voigt Hill
#
# Bulk Modulus (GPa) = 14.86054 23.94229 19.40141
# Shear Modulus (GPa) = -2.00422 16.99328 7.49453
#
# Velocity S-wave (km/s) = -1.03174 3.00426 1.99513
# Velocity P-wave (km/s) = 2.54431 4.97499 3.95121
#
# Compressibility (1/GPa) = 0.06729233
#
# Stress axis : x y z
#
# Youngs Moduli (GPa) = 51.89441 85.28908 14.64852
#
# Poissons Ratio (x) = 0.11583 0.32774
# Poissons Ratio (y) = 0.07048 -0.11348
# Poissons Ratio (z) = 1.16105 -0.66074
#
# Static dielectric constant tensor:
#      x y z
#    x 1.672130 0.000000 0.000000 
#    y 0.000000 1.672800 0.000000 
#    z 0.000000 0.000000 1.643580 
# 
# From -- ./inp_files/15635.got.cif
#   From: 2010.05.17/outbox.cif.g08.bks.cpg/sg46_8_cif.got.tgz:15635.got - 2010.06.03 19:58:25.
