data_PCOD9379699
_publ_section_title
;
Structure prediction by ZEFSAII (Michael W. Deem and Ramdas Pophale) SiO2 
 PCOD9379699
Probable space group: I M A 2
;
_chemical_formula_sum "Si O2"
_cell_formula_units_Z 64
_cell_length_a 22.568082
_cell_length_b 8.918762
_cell_length_c 14.549917
_cell_angle_alpha 90.000000
_cell_angle_beta 90.000000
_cell_angle_gamma 90.000000
_cell_volume 2928.597868
_symmetry_space_group_name_H-M "I M A 2"
_symmetry_group_IT_number 46
_symmetry_cell_setting 'orthorhombic'
loop_
_space_group_symop_operation_xyz
x,y,z
-x,-y,z
1/2-x,y,z
1/2+x,-y,z
1/2+x,1/2+y,1/2+z
1/2-x,1/2-y,1/2+z
-x,1/2+y,1/2+z
x,1/2-y,1/2+z
loop_
_atom_site_type_symbol
_atom_site_label
_atom_site_fract_x
_atom_site_fract_y
_atom_site_fract_z
Si Si1 0.684266 0.080608 0.478020
Si Si2 0.315763 0.081213 0.061847
Si Si3 0.634698 0.704794 0.914801
Si Si4 0.597447 0.309767 0.586323
Si Si5 0.543687 0.221321 0.779918
Si Si6 0.997946 0.670702 0.972287
Si Si7 0.312357 0.116110 0.656403
Si Si8 0.418731 0.406968 0.266769
O O1 0.750000 0.138739 0.451931
O O2 0.640931 0.200080 0.525848
O O3 0.655687 0.967508 0.403296
O O4 0.692950 0.958172 0.557341
O O5 0.250000 0.009538 0.062549
O O6 0.323645 0.179237 0.969275
O O7 0.317088 0.206972 0.141173
O O8 0.369274 0.967072 0.075231
O O9 0.571325 0.707264 0.966722
O O10 0.618960 0.785033 0.820677
O O11 0.583744 0.280388 0.695476
O O12 0.534795 0.283114 0.535796
O O13 0.526835 0.320629 0.868935
O O14 0.480266 0.167963 0.738605
O O15 0.569033 0.062896 0.818911
O O16 0.000000 0.500000 0.006812
O O17 0.250000 0.081629 0.706927
O O18 0.373860 0.048395 0.688314
#
# Coordination Sequence:
#
# PCOD9379699 Si02
#       8
#     8   8   8   8   8   8   8   8
#     4  10  20  37  62  91 117 163 218 262 318 390
#     4  10  23  41  60  90 128 165 220 275 321 386
#     4  10  21  39  63  88 126 165 206 272 325 381
#     4  12  23  39  69  89 130 179 212 262 344 386
#     4  10  24  38  62  95 133 167 212 270 326 389
#     4  11  24  42  63 100 136 165 216 273 327 400
#     4   9  19  36  59  86 119 156 208 263 306 375
#     4  10  20  38  61  91 126 161 215 266 320 393
#
# _framework density 21.853460999999999
#
# number of rings (size 3 to 8) (size 9 to 14) (size 15 to 20)
#    0.000    1.750    2.500    2.250    5.250    4.500 
#    0.000    0.000    0.000    1.500    0.000    0.000 
#    0.000    0.000    0.000    0.000    0.000    0.000 
#
# Total GULP energy -178172.391849 kJ/mol
# GULP energy per Si atom -5567.887245 kJ/mol
# Density = 2.180372 g / cm^3
# Si number density = 21.853461 Si / 1000 Ang^3
#
#
#
# Elastic Constant Matrix: (Units=GPa)
#
#
# Indices 1 2 3 4 5 6 
#
# 1 60.0398 -0.3492 5.0172 0.0000 0.0000 0.0000
# 2 -0.3492 42.2755 -6.8919 0.0000 0.0000 0.0000
# 3 5.0172 -6.8919 22.5859 0.0000 0.0000 0.0000
# 4 0.0000 0.0000 0.0000 12.1640 0.0000 0.0000
# 5 0.0000 0.0000 0.0000 0.0000 138.5970 0.0000
# 6 0.0000 0.0000 0.0000 0.0000 0.0000 29.9621
#
#
#
# Elastic Compliance Matrix: (Units=1/GPa)
#
#
# Indices 1 2 3 4 5 6 
#
# 1 0.016981 -0.000500 -0.003924 0.000000 0.000000 0.000000
# 2 -0.000500 0.024907 0.007711 0.000000 0.000000 0.000000
# 3 -0.003924 0.007711 0.047500 0.000000 0.000000 0.000000
# 4 0.000000 0.000000 0.000000 0.082210 0.000000 0.000000
# 5 0.000000 0.000000 0.000000 0.000000 0.007215 0.000000
# 6 0.000000 0.000000 0.000000 0.000000 0.000000 0.033375
#
#
# Mechanical properties :
#
#
# Convention : Reuss Voigt Hill
#
# Bulk Modulus (GPa) = 10.42074 13.38372 11.90223
# Shear Modulus (GPa) = 21.04364 44.61963 32.83163
#
# Velocity S-wave (km/s) = 3.10650 4.52349 3.88023
# Velocity P-wave (km/s) = 4.20071 5.78102 5.05303
#
# Compressibility (1/GPa) = 0.09596244
#
# Stress axis : x y z
#
# Youngs Moduli (GPa) = 58.89049 40.14882 21.05259
#
# Poissons Ratio (x) = 0.02006 0.08262
# Poissons Ratio (y) = 0.02942 -0.16234
# Poissons Ratio (z) = 0.23112 -0.30959
#
# Static dielectric constant tensor:
#      x y z
#    x -2.109540 0.000000 0.000000 
#    y 0.000000 1.816500 0.000000 
#    z 0.000000 0.000000 1.875080 
# 
# From -- ./inp_files/17421.got.cif
#   From: 2010.05.17/outbox.cif.g08.bks.cpg/sg46_9_cif.got.tgz:17421.got - 2010.06.03 19:58:25.
