data_PCOD9379925
_publ_section_title
;
Structure prediction by ZEFSAII (Michael W. Deem and Ramdas Pophale) SiO2 
 PCOD9379925
Probable space group: I M A 2
;
_chemical_formula_sum "Si O2"
_cell_formula_units_Z 60
_cell_length_a 25.539260
_cell_length_b 8.688396
_cell_length_c 14.671427
_cell_angle_alpha 90.000000
_cell_angle_beta 90.000000
_cell_angle_gamma 90.000000
_cell_volume 3255.519293
_symmetry_space_group_name_H-M "I M A 2"
_symmetry_group_IT_number 46
_symmetry_cell_setting 'orthorhombic'
loop_
_space_group_symop_operation_xyz
x,y,z
-x,-y,z
1/2-x,y,z
1/2+x,-y,z
1/2+x,1/2+y,1/2+z
1/2-x,1/2-y,1/2+z
-x,1/2+y,1/2+z
x,1/2-y,1/2+z
loop_
_atom_site_type_symbol
_atom_site_label
_atom_site_fract_x
_atom_site_fract_y
_atom_site_fract_z
Si Si1 0.934696 0.753785 0.167580
Si Si2 0.867339 0.256426 0.530651
Si Si3 0.510028 0.179266 0.518223
Si Si4 0.250000 0.229046 0.170252
Si Si5 0.487089 0.675055 0.328967
Si Si6 0.636491 0.287390 0.316589
Si Si7 0.341033 0.015697 0.660225
Si Si8 0.347450 0.995219 0.187279
O O1 0.968163 0.775113 0.076168
O O2 0.976842 0.716355 0.244465
O O3 0.895536 0.609384 0.157470
O O4 0.898812 0.898013 0.192859
O O5 0.853184 0.282905 0.424798
O O6 0.841333 0.107813 0.578331
O O7 0.851539 0.400297 0.593004
O O8 0.930127 0.228278 0.537455
O O9 0.501114 0.212020 0.412256
O O10 0.500000 0.000000 0.539891
O O11 0.204529 0.361069 0.153509
O O12 0.296291 0.099793 0.187612
O O13 0.500000 0.500000 0.357021
O O14 0.426023 0.690101 0.305343
O O15 0.662084 0.422692 0.256062
O O16 0.652191 0.128001 0.268827
#
# Coordination Sequence:
#
# PCOD9379925 Si02
#       8
#     8   8   8   4   8   8   8   8
#     4  11  21  35  61  84 124 162 204 234 291 351
#     4  10  22  39  62  90 126 156 197 238 302 357
#     4  11  23  36  57  92 130 165 201 235 282 356
#     4  10  24  46  66  86 116 146 210 262 312 350
#     4  11  23  36  57  92 130 165 201 235 282 356
#     4  10  22  39  62  90 126 156 197 238 302 357
#     4  10  20  42  63  85 114 163 195 256 301 349
#     4  10  24  41  62  90 115 156 200 259 301 357
#
# _framework density 18.430239
#
# number of rings (size 3 to 8) (size 9 to 14) (size 15 to 20)
#    0.000    1.600    2.667    2.000    7.467    3.200 
#    0.000    8.000    0.000    0.000    0.000    0.000 
#    0.000    0.000    0.000    0.000    0.000    0.000 
#
# Total GULP energy -167008.547499 kJ/mol
# GULP energy per Si atom -5566.951583 kJ/mol
# Density = 1.838829 g / cm^3
# Si number density = 18.430239 Si / 1000 Ang^3
#
#
#
# Elastic Constant Matrix: (Units=GPa)
#
#
# Indices 1 2 3 4 5 6 
#
# 1 68.4172 20.3581 23.7916 0.0000 0.0000 0.0000
# 2 20.3581 71.8384 7.8164 0.0000 0.0000 0.0000
# 3 23.7916 7.8164 72.1850 0.0000 0.0000 0.0000
# 4 0.0000 0.0000 0.0000 12.4931 0.0000 0.0000
# 5 0.0000 0.0000 0.0000 0.0000 1.0287 0.0000
# 6 0.0000 0.0000 0.0000 0.0000 0.0000 9.3716
#
#
#
# Elastic Compliance Matrix: (Units=1/GPa)
#
#
# Indices 1 2 3 4 5 6 
#
# 1 0.017818 -0.004463 -0.005390 0.000000 0.000000 0.000000
# 2 -0.004463 0.015204 -0.000175 0.000000 0.000000 0.000000
# 3 -0.005390 -0.000175 0.015649 0.000000 0.000000 0.000000
# 4 0.000000 0.000000 0.000000 0.080044 0.000000 0.000000
# 5 0.000000 0.000000 0.000000 0.000000 0.972106 0.000000
# 6 0.000000 0.000000 0.000000 0.000000 0.000000 0.106706
#
#
# Mechanical properties :
#
#
# Convention : Reuss Voigt Hill
#
# Bulk Modulus (GPa) = 34.94657 35.15253 35.04955
# Shear Modulus (GPa) = 4.04164 15.27698 9.65931
#
# Velocity S-wave (km/s) = 1.48246 2.88220 2.29181
# Velocity P-wave (km/s) = 4.68327 5.49462 5.10508
#
# Compressibility (1/GPa) = 0.02861511
#
# Stress axis : x y z
#
# Youngs Moduli (GPa) = 56.12175 65.77219 63.90339
#
# Poissons Ratio (x) = 0.29355 0.34441
# Poissons Ratio (y) = 0.25048 0.01120
# Poissons Ratio (z) = 0.30247 0.01153
#
# Static dielectric constant tensor:
#      x y z
#    x 1.603060 0.000000 0.000000 
#    y 0.000000 1.638620 0.000000 
#    z 0.000000 0.000000 1.639150 
# 
# From -- ./inp_files/17360.got.cif
#   From: 2010.05.17/outbox.cif.g08.bks.cpg/sg46_9_cif.got.tgz:17360.got - 2010.06.03 19:58:25.
