data_PCOD9379738
_publ_section_title
;
Structure prediction by ZEFSAII (Michael W. Deem and Ramdas Pophale) SiO2 
 PCOD9379738
Probable space group: I M A 2
;
_chemical_formula_sum "Si O2"
_cell_formula_units_Z 64
_cell_length_a 28.970664
_cell_length_b 8.900699
_cell_length_c 12.972355
_cell_angle_alpha 90.000000
_cell_angle_beta 90.000000
_cell_angle_gamma 90.000000
_cell_volume 3345.040565
_symmetry_space_group_name_H-M "I M A 2"
_symmetry_group_IT_number 46
_symmetry_cell_setting 'orthorhombic'
loop_
_space_group_symop_operation_xyz
x,y,z
-x,-y,z
1/2-x,y,z
1/2+x,-y,z
1/2+x,1/2+y,1/2+z
1/2-x,1/2-y,1/2+z
-x,1/2+y,1/2+z
x,1/2-y,1/2+z
loop_
_atom_site_type_symbol
_atom_site_label
_atom_site_fract_x
_atom_site_fract_y
_atom_site_fract_z
Si Si1 0.366682 0.274400 0.444460
Si Si2 0.164886 0.777508 0.490811
Si Si3 0.695714 0.532346 0.593533
Si Si4 0.974937 0.137162 0.059971
Si Si5 0.696441 0.533101 0.834913
Si Si6 0.591798 0.359806 0.140753
Si Si7 0.540524 0.903231 0.497611
Si Si8 0.409604 0.915353 0.879000
O O1 0.338323 0.340459 0.544318
O O2 0.332595 0.172024 0.378353
O O3 0.413175 0.173521 0.453857
O O4 0.383619 0.427925 0.393256
O O5 0.189673 0.626064 0.531605
O O6 0.142733 0.860082 0.590694
O O7 0.121370 0.718078 0.425232
O O8 0.189849 0.892486 0.413584
O O9 0.750000 0.576581 0.585714
O O10 0.684308 0.503238 0.714501
O O11 0.930567 0.197359 0.119437
O O12 0.955482 0.086660 0.948364
O O13 0.000000 0.000000 0.113308
O O14 0.012224 0.266936 0.046827
O O15 0.750000 0.573424 0.835836
O O16 0.585902 0.390726 0.259315
O O17 0.561252 0.479516 0.078897
O O18 0.500000 0.000000 0.438509
#
# Coordination Sequence:
#
# PCOD9379738 Si02
#       8
#     8   8   8   8   8   8   8   8
#     4  11  22  40  63  88 125 166 200 258 311 366
#     4  10  20  40  63  86 124 158 200 253 305 363
#     4  10  23  41  62  93 128 161 206 258 309 374
#     4  10  20  38  58  82 121 156 196 258 303 359
#     4  11  23  39  64  96 124 162 208 252 313 378
#     4  10  21  38  59  89 119 158 206 247 306 369
#     4  10  21  39  59  83 124 153 197 257 303 363
#     4  10  22  38  62  85 117 164 205 245 307 372
#
# _framework density 19.132802000000002
#
# number of rings (size 3 to 8) (size 9 to 14) (size 15 to 20)
#    0.000    1.750    2.500    1.500    1.750    1.500 
#    0.000    3.125    0.000    6.000    0.000    0.000 
#    0.000    0.000    0.000    0.000    0.000    0.000 
#
# Total GULP energy -178211.522396 kJ/mol
# GULP energy per Si atom -5569.110075 kJ/mol
# Density = 1.908925 g / cm^3
# Si number density = 19.132802 Si / 1000 Ang^3
#
#
#
# Elastic Constant Matrix: (Units=GPa)
#
#
# Indices 1 2 3 4 5 6 
#
# 1 89.3564 19.5877 30.2490 0.0000 0.0000 0.0000
# 2 19.5877 68.7477 20.4427 0.0000 0.0000 0.0000
# 3 30.2490 20.4427 98.1426 0.0000 0.0000 0.0000
# 4 0.0000 0.0000 0.0000 19.2754 0.0000 0.0000
# 5 0.0000 0.0000 0.0000 0.0000 4.0725 0.0000
# 6 0.0000 0.0000 0.0000 0.0000 0.0000 22.1075
#
#
#
# Elastic Compliance Matrix: (Units=1/GPa)
#
#
# Indices 1 2 3 4 5 6 
#
# 1 0.012937 -0.002666 -0.003432 0.000000 0.000000 0.000000
# 2 -0.002666 0.016056 -0.002523 0.000000 0.000000 0.000000
# 3 -0.003432 -0.002523 0.011773 0.000000 0.000000 0.000000
# 4 0.000000 0.000000 0.000000 0.051880 0.000000 0.000000
# 5 0.000000 0.000000 0.000000 0.000000 0.245550 0.000000
# 6 0.000000 0.000000 0.000000 0.000000 0.000000 0.045234
#
#
# Mechanical properties :
#
#
# Convention : Reuss Voigt Hill
#
# Bulk Modulus (GPa) = 42.50897 44.08949 43.29923
# Shear Modulus (GPa) = 12.23956 21.48890 16.86423
#
# Velocity S-wave (km/s) = 2.53201 3.35497 2.97211
# Velocity P-wave (km/s) = 5.55105 6.17266 5.87009
#
# Compressibility (1/GPa) = 0.02352445
#
# Stress axis : x y z
#
# Youngs Moduli (GPa) = 77.29572 62.28375 84.94294
#
# Poissons Ratio (x) = 0.16602 0.29155
# Poissons Ratio (y) = 0.20603 0.21429
# Poissons Ratio (z) = 0.26530 0.15713
#
# Static dielectric constant tensor:
#      x y z
#    x 1.740260 0.000000 0.000000 
#    y 0.000000 1.711040 0.000000 
#    z 0.000000 0.000000 1.666760 
# 
# From -- ./inp_files/13222.got.cif
#   From: 2010.05.17/outbox.cif.g08.bks.cpg/sg46_7_cif.got.tgz:13222.got - 2010.06.03 19:58:25.
