data_PCOD9379877
_publ_section_title
;
Structure prediction by ZEFSAII (Michael W. Deem and Ramdas Pophale) SiO2 
 PCOD9379877
Probable space group: I M A 2
;
_chemical_formula_sum "Si O2"
_cell_formula_units_Z 56
_cell_length_a 18.824949
_cell_length_b 8.881432
_cell_length_c 15.968622
_cell_angle_alpha 90.000000
_cell_angle_beta 90.000000
_cell_angle_gamma 90.000000
_cell_volume 2669.833905
_symmetry_space_group_name_H-M "I M A 2"
_symmetry_group_IT_number 46
_symmetry_cell_setting 'orthorhombic'
loop_
_space_group_symop_operation_xyz
x,y,z
-x,-y,z
1/2-x,y,z
1/2+x,-y,z
1/2+x,1/2+y,1/2+z
1/2-x,1/2-y,1/2+z
-x,1/2+y,1/2+z
x,1/2-y,1/2+z
loop_
_atom_site_type_symbol
_atom_site_label
_atom_site_fract_x
_atom_site_fract_y
_atom_site_fract_z
Si Si1 0.029926 0.851174 0.917180
Si Si2 0.164942 0.417435 0.276085
Si Si3 0.920716 0.432915 0.587585
Si Si4 0.332742 0.228958 0.115605
Si Si5 0.076618 0.558150 0.822839
Si Si6 0.665498 0.246538 0.209787
Si Si7 0.614759 0.778880 0.435992
O O1 0.056648 0.718165 0.861446
O O2 0.962075 0.781301 0.964820
O O3 0.083867 0.900267 0.988650
O O4 0.000000 0.000000 0.871765
O O5 0.250000 0.406125 0.278668
O O6 0.138087 0.326982 0.193586
O O7 0.150898 0.594553 0.257276
O O8 0.139881 0.336821 0.362362
O O9 0.869467 0.568270 0.611783
O O10 0.890927 0.284479 0.634705
O O11 0.000000 0.500000 0.603053
O O12 0.250000 0.210113 0.131563
O O13 0.341466 0.294504 0.021341
O O14 0.143531 0.602822 0.766281
O O15 0.101569 0.436387 0.889926
O O16 0.000000 0.500000 0.786866
O O17 0.750000 0.245137 0.187688
#
# Coordination Sequence:
#
# PCOD9379877 Si02
#       7
#     8   8   8   8   8   8   8
#     4  10  20  40  63  93 130 164 218 264 325 389
#     4  10  24  43  64  97 134 171 224 274 332 401
#     4  11  22  41  64  91 133 169 218 275 331 397
#     4  11  23  41  67  97 128 175 223 270 335 399
#     4  10  23  40  67  95 130 170 223 269 335 397
#     4  11  24  42  64  95 133 174 221 276 333 398
#     4  11  21  41  67  94 133 173 217 276 326 393
#
# _framework density 20.975088
#
# number of rings (size 3 to 8) (size 9 to 14) (size 15 to 20)
#    0.000    1.429    2.857    3.000    2.000    3.429 
#    0.000    4.286    0.000    0.000    0.000    0.000 
#    0.000    0.000    0.000    0.000    0.000    0.000 
#
# Total GULP energy -155965.500493 kJ/mol
# GULP energy per Si atom -5570.196446 kJ/mol
# Density = 2.092735 g / cm^3
# Si number density = 20.975088 Si / 1000 Ang^3
#
#
#
# Elastic Constant Matrix: (Units=GPa)
#
#
# Indices 1 2 3 4 5 6 
#
# 1 65.2651 19.0778 12.3796 0.0000 0.0000 0.0000
# 2 19.0778 105.5397 42.6112 0.0000 0.0000 0.0000
# 3 12.3796 42.6112 101.1245 0.0000 0.0000 0.0000
# 4 0.0000 0.0000 0.0000 -14.3951 0.0000 0.0000
# 5 0.0000 0.0000 0.0000 0.0000 102.0420 0.0000
# 6 0.0000 0.0000 0.0000 0.0000 0.0000 37.3608
#
#
#
# Elastic Compliance Matrix: (Units=1/GPa)
#
#
# Indices 1 2 3 4 5 6 
#
# 1 0.016245 -0.002571 -0.000905 0.000000 0.000000 0.000000
# 2 -0.002571 0.011824 -0.004668 0.000000 0.000000 0.000000
# 3 -0.000905 -0.004668 0.011967 0.000000 0.000000 0.000000
# 4 0.000000 0.000000 0.000000 -0.069468 0.000000 0.000000
# 5 0.000000 0.000000 0.000000 0.000000 0.009800 0.000000
# 6 0.000000 0.000000 0.000000 0.000000 0.000000 0.026766
#
#
# Mechanical properties :
#
#
# Convention : Reuss Voigt Hill
#
# Bulk Modulus (GPa) = 42.10882 46.67404 44.39143
# Shear Modulus (GPa) = 159.54833 38.19226 98.87030
#
# Velocity S-wave (km/s) = 8.73102 4.27176 6.87309
# Velocity P-wave (km/s) = 11.03450 6.82869 9.17582
#
# Compressibility (1/GPa) = 0.02374799
#
# Stress axis : x y z
#
# Youngs Moduli (GPa) = 61.55587 84.57061 83.56660
#
# Poissons Ratio (x) = 0.21743 0.07566
# Poissons Ratio (y) = 0.15826 0.39007
# Poissons Ratio (z) = 0.05573 0.39476
#
# Static dielectric constant tensor:
#      x y z
#    x 1.692030 0.000000 0.000000 
#    y 0.000000 1.754780 0.000000 
#    z 0.000000 0.000000 1.842700 
# 
# From -- ./inp_files/17106.got.cif
#   From: 2010.05.17/outbox.cif.g08.bks.cpg/sg46_9_cif.got.tgz:17106.got - 2010.06.03 19:58:25.
