data_PCOD9379871
_publ_section_title
;
Structure prediction by ZEFSAII (Michael W. Deem and Ramdas Pophale) SiO2 
 PCOD9379871
Probable space group: I M A 2
;
_chemical_formula_sum "Si O2"
_cell_formula_units_Z 48
_cell_length_a 7.345376
_cell_length_b 34.187492
_cell_length_c 9.851124
_cell_angle_alpha 90.000000
_cell_angle_beta 90.000000
_cell_angle_gamma 90.000000
_cell_volume 2473.814094
_symmetry_space_group_name_H-M "I M A 2"
_symmetry_group_IT_number 46
_symmetry_cell_setting 'orthorhombic'
loop_
_space_group_symop_operation_xyz
x,y,z
-x,-y,z
1/2-x,y,z
1/2+x,-y,z
1/2+x,1/2+y,1/2+z
1/2-x,1/2-y,1/2+z
-x,1/2+y,1/2+z
x,1/2-y,1/2+z
loop_
_atom_site_type_symbol
_atom_site_label
_atom_site_fract_x
_atom_site_fract_y
_atom_site_fract_z
Si Si1 0.533441 0.669382 0.365450
Si Si2 0.029328 0.133095 0.418811
Si Si3 0.250000 0.700978 0.958736
Si Si4 0.750000 0.230387 0.757405
Si Si5 0.028885 0.116753 0.111174
Si Si6 0.532632 0.954934 0.929249
Si Si7 0.467891 0.092739 0.682156
O O1 0.750000 0.676507 0.365337
O O2 0.422589 0.706346 0.315016
O O3 0.477574 0.652728 0.512951
O O4 0.497040 0.633032 0.263836
O O5 0.250000 0.137851 0.424942
O O6 0.974963 0.121911 0.266247
O O7 0.972322 0.100294 0.528839
O O8 0.925520 0.172694 0.458529
O O9 0.250000 0.727244 0.824327
O O10 0.250000 0.727223 0.094648
O O11 0.250000 0.116125 0.110083
O O12 0.966047 0.076589 0.039683
O O13 0.750000 0.949815 0.925801
O O14 0.462947 0.941525 0.780487
O O15 0.500000 0.000000 0.959691
O O16 0.250000 0.088061 0.674214
#
# Coordination Sequence:
#
# PCOD9379871 Si02
#       7
#     8   8   4   4   8   8   8
#     4   9  18  37  60  80 105 148 196 228 280 347
#     4  10  20  40  62  82 110 152 197 241 282 337
#     4  12  28  40  56  88 120 146 196 244 294 354
#     4  12  26  40  56  84 120 150 178 254 300 334
#     4   8  17  34  60  83 108 150 193 231 276 343
#     4   9  17  33  52  83 118 145 184 233 286 341
#     4   8  15  32  58  76 103 147 191 232 271 326
#
# _framework density 19.403236
#
# number of rings (size 3 to 8) (size 9 to 14) (size 15 to 20)
#    0.000    2.667    1.667    2.000    2.333    0.667 
#    9.000    0.833    0.000    0.000    0.000    0.000 
#    0.000    0.000    0.000    0.000    0.000    0.000 
#
# Total GULP energy -133845.305573 kJ/mol
# GULP energy per Si atom -5576.887732 kJ/mol
# Density = 1.935907 g / cm^3
# Si number density = 19.403236 Si / 1000 Ang^3
#
#
#
# Elastic Constant Matrix: (Units=GPa)
#
#
# Indices 1 2 3 4 5 6 
#
# 1 75.6923 9.9959 12.4510 0.0000 0.0000 0.0000
# 2 9.9959 48.4450 17.8231 0.0001 0.0000 0.0000
# 3 12.4510 17.8231 153.0575 0.0003 0.0000 0.0000
# 4 0.0000 0.0001 0.0003 21.1373 0.0000 0.0000
# 5 0.0000 0.0000 0.0000 0.0000 12.3083 0.0000
# 6 0.0000 0.0000 0.0000 0.0000 0.0000 21.8884
#
#
#
# Elastic Compliance Matrix: (Units=1/GPa)
#
#
# Indices 1 2 3 4 5 6 
#
# 1 0.013679 -0.002521 -0.000819 0.000000 0.000000 0.000000
# 2 -0.002521 0.022031 -0.002360 0.000000 0.000000 0.000000
# 3 -0.000819 -0.002360 0.006875 0.000000 0.000000 0.000000
# 4 0.000000 0.000000 0.000000 0.047310 0.000000 0.000000
# 5 0.000000 0.000000 0.000000 0.000000 0.081246 0.000000
# 6 0.000000 0.000000 0.000000 0.000000 0.000000 0.045686
#
#
# Mechanical properties :
#
#
# Convention : Reuss Voigt Hill
#
# Bulk Modulus (GPa) = 32.06834 39.74831 35.90832
# Shear Modulus (GPa) = 20.95361 26.86179 23.90770
#
# Velocity S-wave (km/s) = 3.28975 3.72479 3.51401
# Velocity P-wave (km/s) = 5.56715 6.24729 5.91700
#
# Compressibility (1/GPa) = 0.03118340
#
# Stress axis : x y z
#
# Youngs Moduli (GPa) = 73.10438 45.39153 145.45488
#
# Poissons Ratio (x) = 0.11444 0.11916
# Poissons Ratio (y) = 0.18430 0.34332
# Poissons Ratio (z) = 0.05989 0.10714
#
# Static dielectric constant tensor:
#      x y z
#    x 1.715410 0.000000 0.000000 
#    y 0.000000 1.644360 0.000000 
#    z 0.000000 0.000000 1.698410 
# 
# From -- ./inp_files/3973.got.cif
#   From: 2010.05.17/outbox.cif.g08.bks.cpg/sg46_2_cif.got.tgz:3973.got - 2010.06.03 19:58:25.
