data_PCOD9379392
_publ_section_title
;
Structure prediction by ZEFSAII (Michael W. Deem and Ramdas Pophale) SiO2 
 PCOD9379392
Probable space group: I M A 2
;
_chemical_formula_sum "Si O2"
_cell_formula_units_Z 48
_cell_length_a 17.854022
_cell_length_b 8.728859
_cell_length_c 15.052212
_cell_angle_alpha 90.000000
_cell_angle_beta 90.000000
_cell_angle_gamma 90.000000
_cell_volume 2345.815601
_symmetry_space_group_name_H-M "I M A 2"
_symmetry_group_IT_number 46
_symmetry_cell_setting 'orthorhombic'
loop_
_space_group_symop_operation_xyz
x,y,z
-x,-y,z
1/2-x,y,z
1/2+x,-y,z
1/2+x,1/2+y,1/2+z
1/2-x,1/2-y,1/2+z
-x,1/2+y,1/2+z
x,1/2-y,1/2+z
loop_
_atom_site_type_symbol
_atom_site_label
_atom_site_fract_x
_atom_site_fract_y
_atom_site_fract_z
Si Si1 0.394537 0.356695 0.021790
Si Si2 0.930225 0.308215 0.976806
Si Si3 0.576602 0.103209 0.805561
Si Si4 0.907667 0.669174 0.692273
Si Si5 0.913779 0.168154 0.156098
Si Si6 0.835721 0.684988 0.357780
O O1 0.482975 0.331915 0.003432
O O2 0.385556 0.533933 0.993910
O O3 0.379619 0.296837 0.121614
O O4 0.349473 0.248393 0.955635
O O5 0.901197 0.192614 0.051931
O O6 0.932186 0.237682 0.878664
O O7 0.605846 0.183776 0.715685
O O8 0.500000 0.000000 0.792824
O O9 0.636574 0.987419 0.846179
O O10 0.879433 0.495816 0.679876
O O11 0.887296 0.719565 0.790475
O O12 0.996883 0.661776 0.676591
O O13 0.750000 0.702571 0.331825
#
# Coordination Sequence:
#
# PCOD9379392 Si02
#       6
#     8   8   8   8   8   8
#     4  10  20  37  61  89 118 151 195 245 297 349
#     4  10  20  34  63  94 117 145 195 254 296 338
#     4  12  21  37  60  87 120 155 197 246 288 343
#     4  10  20  37  61  89 118 151 195 245 297 349
#     4  10  20  34  63  94 117 145 195 254 296 338
#     4  12  25  39  57  83 121 164 196 238 297 356
#
# _framework density 20.461966
#
# number of rings (size 3 to 8) (size 9 to 14) (size 15 to 20)
#    0.000    1.333    3.333    3.000    4.667    3.333 
#    0.000    3.333    0.000    4.000    0.000    0.000 
#    0.000    0.000    0.000    0.000    0.000    0.000 
#
# Total GULP energy -133881.274521 kJ/mol
# GULP energy per Si atom -5578.386438 kJ/mol
# Density = 2.041539 g / cm^3
# Si number density = 20.461966 Si / 1000 Ang^3
#
#
#
# Elastic Constant Matrix: (Units=GPa)
#
#
# Indices 1 2 3 4 5 6 
#
# 1 15.2413 4.6263 -7.3562 0.0000 0.0000 0.0000
# 2 4.6263 90.4177 -5.5854 0.0000 0.0000 0.0000
# 3 -7.3562 -5.5854 55.0329 0.0000 0.0000 0.0000
# 4 0.0000 0.0000 0.0000 34.4498 0.0000 0.0000
# 5 0.0000 0.0000 0.0000 0.0000 0.4181 0.0000
# 6 0.0000 0.0000 0.0000 0.0000 0.0000 4.1145
#
#
#
# Elastic Compliance Matrix: (Units=1/GPa)
#
#
# Indices 1 2 3 4 5 6 
#
# 1 0.070970 -0.003064 0.009175 0.000000 0.000000 0.000000
# 2 -0.003064 0.011262 0.000733 0.000000 0.000000 0.000000
# 3 0.009175 0.000733 0.019472 0.000000 0.000000 0.000000
# 4 0.000000 0.000000 0.000000 0.029028 0.000000 0.000000
# 5 0.000000 0.000000 0.000000 0.000000 2.391957 0.000000
# 6 0.000000 0.000000 0.000000 0.000000 0.000000 0.243043
#
#
# Mechanical properties :
#
#
# Convention : Reuss Voigt Hill
#
# Bulk Modulus (GPa) = 8.66608 16.00682 12.33645
# Shear Modulus (GPa) = 1.79179 19.06362 10.42771
#
# Velocity S-wave (km/s) = 0.93679 3.05562 2.25991
# Velocity P-wave (km/s) = 2.32691 4.50431 3.58492
#
# Compressibility (1/GPa) = 0.11539238
#
# Stress axis : x y z
#
# Youngs Moduli (GPa) = 14.09048 88.79520 51.35620
#
# Poissons Ratio (x) = 0.27210 -0.47122
# Poissons Ratio (y) = 0.04318 -0.03766
# Poissons Ratio (z) = -0.12929 -0.06512
#
# Static dielectric constant tensor:
#      x y z
#    x 1.721620 0.000000 0.000000 
#    y 0.000000 1.793040 0.000000 
#    z 0.000000 0.000000 1.716290 
# 
# From -- ./inp_files/16533.got.cif
#   From: 2010.05.17/outbox.cif.g08.bks.cpg/sg46_9_cif.got.tgz:16533.got - 2010.06.03 19:58:25.
