data_PCOD9379224
_publ_section_title
;
Structure prediction by ZEFSAII (Michael W. Deem and Ramdas Pophale) SiO2 
 PCOD9379224
Probable space group: I M A 2
;
_chemical_formula_sum "Si O2"
_cell_formula_units_Z 64
_cell_length_a 7.235802
_cell_length_b 27.643976
_cell_length_c 13.717302
_cell_angle_alpha 90.000000
_cell_angle_beta 90.000000
_cell_angle_gamma 90.000000
_cell_volume 2743.821670
_symmetry_space_group_name_H-M "I M A 2"
_symmetry_group_IT_number 46
_symmetry_cell_setting 'orthorhombic'
loop_
_space_group_symop_operation_xyz
x,y,z
-x,-y,z
1/2-x,y,z
1/2+x,-y,z
1/2+x,1/2+y,1/2+z
1/2-x,1/2-y,1/2+z
-x,1/2+y,1/2+z
x,1/2-y,1/2+z
loop_
_atom_site_type_symbol
_atom_site_label
_atom_site_fract_x
_atom_site_fract_y
_atom_site_fract_z
Si Si1 0.524316 0.374835 0.471470
Si Si2 0.025940 0.724119 0.167152
Si Si3 0.525684 0.263954 0.473621
Si Si4 0.026740 0.803036 0.301003
Si Si5 0.024547 0.621818 0.250749
Si Si6 0.030644 0.943138 0.568227
Si Si7 0.475678 0.910435 0.353617
Si Si8 0.531076 0.054962 0.144135
O O1 0.750000 0.375499 0.472874
O O2 0.465592 0.319064 0.483790
O O3 0.469276 0.390794 0.361640
O O4 0.461482 0.408094 0.561473
O O5 0.250000 0.722802 0.174190
O O6 0.971873 0.725116 0.055161
O O7 0.971246 0.778200 0.200576
O O8 0.965244 0.676605 0.224137
O O9 0.750000 0.265966 0.474871
O O10 0.471473 0.239441 0.373697
O O11 0.250000 0.806819 0.300785
O O12 0.964329 0.855378 0.332956
O O13 0.250000 0.621352 0.251143
O O14 0.963130 0.587276 0.161937
O O15 0.250000 0.934009 0.565374
O O16 0.961320 0.928527 0.459910
O O17 0.000000 0.000000 0.582826
O O18 0.250000 0.912416 0.356322
O O19 0.536687 0.938459 0.255619
O O20 0.750000 0.064000 0.149784
O O21 0.500000 0.000000 0.112813
#
# Coordination Sequence:
#
# PCOD9379224 Si02
#       8
#     8   8   8   8   8   8   8   8
#     4   9  16  27  41  61  91 124 154 187 229 274
#     4   9  14  20  33  55  85 119 147 171 211 273
#     4   9  14  20  33  55  85 119 147 171 211 273
#     4   9  14  21  35  58  87 117 143 167 212 275
#     4   9  16  27  41  61  91 124 154 187 229 274
#     4  10  20  33  49  67  91 123 158 196 236 273
#     4   9  17  29  44  66  94 121 151 191 236 279
#     4  10  20  33  49  67  91 123 158 196 236 273
#
# _framework density 23.325130999999999
#
# number of rings (size 3 to 8) (size 9 to 14) (size 15 to 20)
#    0.000    2.750    1.250    1.875    0.000    6.500 
#    0.000    0.000    0.000    0.000    0.000    0.000 
#    0.000   11.000    0.000    0.000    0.000    0.000 
#
# Total GULP energy -178563.952098 kJ/mol
# GULP energy per Si atom -5580.123503 kJ/mol
# Density = 2.327204 g / cm^3
# Si number density = 23.325131 Si / 1000 Ang^3
#
#
#
# Elastic Constant Matrix: (Units=GPa)
#
#
# Indices 1 2 3 4 5 6 
#
# 1 107.7330 -8.5432 3.9333 -0.0001 0.0000 0.0000
# 2 -8.5432 114.8050 42.9238 -0.0001 0.0000 0.0000
# 3 3.9333 42.9238 138.5747 -0.0013 0.0001 0.0001
# 4 -0.0001 -0.0001 -0.0013 -11.0566 0.0003 0.0002
# 5 0.0000 0.0000 0.0001 0.0003 -24.7680 -0.0001
# 6 0.0000 0.0000 0.0001 0.0002 -0.0001 -3.3400
#
#
#
# Elastic Compliance Matrix: (Units=1/GPa)
#
#
# Indices 1 2 3 4 5 6 
#
# 1 0.009374 0.000901 -0.000545 0.000000 0.000000 0.000000
# 2 0.000901 0.009938 -0.003104 0.000000 0.000000 0.000000
# 3 -0.000545 -0.003104 0.008193 -0.000001 0.000000 0.000000
# 4 0.000000 0.000000 -0.000001 -0.090443 -0.000001 -0.000004
# 5 0.000000 0.000000 0.000000 -0.000001 -0.040375 0.000001
# 6 0.000000 0.000000 0.000000 -0.000004 0.000001 -0.299402
#
#
# Mechanical properties :
#
#
# Convention : Reuss Voigt Hill
#
# Bulk Modulus (GPa) = 45.43535 48.63783 47.03659
# Shear Modulus (GPa) = -12.82435 13.68700 0.43132
#
# Velocity S-wave (km/s) = -2.34734 2.42501 0.43049
# Velocity P-wave (km/s) = 3.48923 5.36081 4.52289
#
# Compressibility (1/GPa) = 0.02200930
#
# Stress axis : x y z
#
# Youngs Moduli (GPa) = 106.68266 100.62387 122.05178
#
# Poissons Ratio (x) = -0.09070 0.06655
# Poissons Ratio (y) = -0.09616 0.37884
# Poissons Ratio (z) = 0.05817 0.31233
#
# Static dielectric constant tensor:
#      x y z
#    x 1.967940 0.000000 0.000000 
#    y 0.000000 1.812580 0.000000 
#    z 0.000000 0.000000 1.863920 
# 
# From -- ./inp_files/10549.got.cif
#   From: 2010.05.17/outbox.cif.g08.bks.cpg/sg46_6_cif.got.tgz:10549.got - 2010.06.03 19:58:25.
