data_PCOD9379069
_publ_section_title
;
Structure prediction by ZEFSAII (Michael W. Deem and Ramdas Pophale) SiO2 
 PCOD9379069
Probable space group: I M A 2
;
_chemical_formula_sum "Si O2"
_cell_formula_units_Z 64
_cell_length_a 7.785558
_cell_length_b 29.366757
_cell_length_c 12.883031
_cell_angle_alpha 90.000000
_cell_angle_beta 90.000000
_cell_angle_gamma 90.000000
_cell_volume 2945.532275
_symmetry_space_group_name_H-M "I M A 2"
_symmetry_group_IT_number 46
_symmetry_cell_setting 'orthorhombic'
loop_
_space_group_symop_operation_xyz
x,y,z
-x,-y,z
1/2-x,y,z
1/2+x,-y,z
1/2+x,1/2+y,1/2+z
1/2-x,1/2-y,1/2+z
-x,1/2+y,1/2+z
x,1/2-y,1/2+z
loop_
_atom_site_type_symbol
_atom_site_label
_atom_site_fract_x
_atom_site_fract_y
_atom_site_fract_z
Si Si1 0.552427 0.307772 0.782490
Si Si2 0.542680 0.052238 0.542196
Si Si3 0.050301 0.878120 0.715721
Si Si4 0.546206 0.079300 0.094867
Si Si5 0.047453 0.451386 0.377860
Si Si6 0.045451 0.790193 0.828628
Si Si7 0.054570 0.180088 0.056042
Si Si8 0.040492 0.589491 0.821711
O O1 0.750000 0.308857 0.818643
O O2 0.471307 0.260713 0.820662
O O3 0.546050 0.304105 0.657805
O O4 0.481278 0.357479 0.814005
O O5 0.750000 0.055149 0.543759
O O6 0.476369 0.090436 0.623415
O O7 0.481296 0.064930 0.426043
O O8 0.500000 0.000000 0.567962
O O9 0.250000 0.870017 0.689371
O O10 0.975500 0.829207 0.750519
O O11 0.040984 0.910409 0.816762
O O12 0.750000 0.088884 0.098863
O O13 0.451004 0.125716 0.065541
O O14 0.492463 0.066286 0.211748
O O15 0.511238 0.047933 0.997171
O O16 0.250000 0.444463 0.372290
O O17 0.000000 0.500000 0.329566
O O18 0.250000 0.787041 0.807527
O O19 0.021702 0.806468 0.946120
O O20 0.250000 0.196374 0.062773
O O21 0.250000 0.589989 0.825190
#
# Coordination Sequence:
#
# PCOD9379069 Si02
#       8
#     8   8   8   8   8   8   8   8
#     4   9  19  36  59  86 113 151 199 246 295 355
#     4  10  21  38  58  82 113 154 197 242 298 350
#     4  10  21  37  58  84 116 151 191 244 295 353
#     4  10  19  36  59  82 111 147 189 237 290 351
#     4  12  24  37  56  83 114 149 188 237 293 351
#     4  10  20  35  59  86 113 151 200 247 296 356
#     4  11  21  34  54  81 116 154 186 234 298 355
#     4   8  17  35  59  84 114 147 187 242 295 345
#
# _framework density 21.727823000000001
#
# number of rings (size 3 to 8) (size 9 to 14) (size 15 to 20)
#    0.000    2.000    1.250    3.750    0.000    3.500 
#    0.000    8.125    0.000    1.500    0.000    0.000 
#    0.000    0.000    0.000    0.000    0.000    0.000 
#
# Total GULP energy -178524.303599 kJ/mol
# GULP energy per Si atom -5578.884487 kJ/mol
# Density = 2.167837 g / cm^3
# Si number density = 21.727823 Si / 1000 Ang^3
#
#
#
# Elastic Constant Matrix: (Units=GPa)
#
#
# Indices 1 2 3 4 5 6 
#
# 1 43.0827 -9.1603 -16.3178 0.0000 0.0000 0.0000
# 2 -9.1603 49.0675 14.2863 0.0001 -0.0002 -0.0001
# 3 -16.3178 14.2863 91.8993 -0.0004 0.0004 0.0001
# 4 0.0000 0.0001 -0.0004 17.1964 0.0003 0.0001
# 5 0.0000 -0.0002 0.0004 0.0003 -21.5492 -0.0002
# 6 0.0000 -0.0001 0.0001 0.0001 -0.0002 7.0844
#
#
#
# Elastic Compliance Matrix: (Units=1/GPa)
#
#
# Indices 1 2 3 4 5 6 
#
# 1 0.025479 0.003602 0.003964 0.000000 0.000000 0.000000
# 2 0.003602 0.021856 -0.002758 0.000000 0.000000 0.000000
# 3 0.003964 -0.002758 0.012014 0.000000 0.000000 0.000000
# 4 0.000000 0.000000 0.000000 0.058152 0.000001 -0.000001
# 5 0.000000 0.000000 0.000000 0.000001 -0.046405 -0.000001
# 6 0.000000 0.000000 0.000000 -0.000001 -0.000001 0.141156
#
#
# Mechanical properties :
#
#
# Convention : Reuss Voigt Hill
#
# Bulk Modulus (GPa) = 14.50010 17.96288 16.23149
# Shear Modulus (GPa) = 22.16099 13.56240 17.86169
#
# Velocity S-wave (km/s) = 3.19711 2.50110 2.87028
# Velocity P-wave (km/s) = 4.50740 4.07748 4.29782
#
# Compressibility (1/GPa) = 0.06896503
#
# Stress axis : x y z
#
# Youngs Moduli (GPa) = 39.24875 45.75489 83.23574
#
# Poissons Ratio (x) = -0.16483 -0.32995
# Poissons Ratio (y) = -0.14139 0.22956
# Poissons Ratio (z) = -0.15558 0.12619
#
# Static dielectric constant tensor:
#      x y z
#    x 1.824950 0.000000 0.000000 
#    y 0.000000 1.808990 0.000000 
#    z 0.000000 0.000000 1.794500 
# 
# From -- ./inp_files/9786.got.cif
#   From: 2010.05.17/outbox.cif.g08.bks.cpg/sg46_5_cif.got.tgz:9786.got - 2010.06.03 19:58:25.
