data_PCOD9379581
_publ_section_title
;
Structure prediction by ZEFSAII (Michael W. Deem and Ramdas Pophale) SiO2 
 PCOD9379581
Probable space group: I M A 2
;
_chemical_formula_sum "Si O2"
_cell_formula_units_Z 56
_cell_length_a 18.749653
_cell_length_b 12.225403
_cell_length_c 12.196300
_cell_angle_alpha 90.000000
_cell_angle_beta 90.000000
_cell_angle_gamma 90.000000
_cell_volume 2795.661060
_symmetry_space_group_name_H-M "I M A 2"
_symmetry_group_IT_number 46
_symmetry_cell_setting 'orthorhombic'
loop_
_space_group_symop_operation_xyz
x,y,z
-x,-y,z
1/2-x,y,z
1/2+x,-y,z
1/2+x,1/2+y,1/2+z
1/2-x,1/2-y,1/2+z
-x,1/2+y,1/2+z
x,1/2-y,1/2+z
loop_
_atom_site_type_symbol
_atom_site_label
_atom_site_fract_x
_atom_site_fract_y
_atom_site_fract_z
Si Si1 0.665586 0.039037 0.788330
Si Si2 0.593580 0.238373 0.907519
Si Si3 0.165420 0.077330 0.340141
Si Si4 0.941009 0.428043 0.747694
Si Si5 0.523238 0.881486 0.021985
Si Si6 0.335495 0.918565 0.543221
Si Si7 0.165875 0.320899 0.423231
O O1 0.750000 0.062080 0.786741
O O2 0.630635 0.128045 0.867637
O O3 0.637993 0.051214 0.664181
O O4 0.657016 0.917326 0.834441
O O5 0.587881 0.322399 0.807788
O O6 0.515770 0.209784 0.950903
O O7 0.635533 0.302431 0.002232
O O8 0.250000 0.067872 0.321290
O O9 0.123425 0.015460 0.242713
O O10 0.150051 0.203832 0.366960
O O11 0.146748 0.008406 0.450417
O O12 0.016937 0.611085 0.639365
O O13 0.000000 0.500000 0.812535
O O14 0.500000 0.000000 0.973287
O O15 0.606875 0.853077 0.014776
O O16 0.250000 0.914167 0.546626
O O17 0.250000 0.319028 0.458810
#
# Coordination Sequence:
#
# PCOD9379581 Si02
#       7
#     8   8   8   8   8   8   8
#     4  10  20  36  59  92 125 161 209 256 313 376
#     4  11  20  37  62  87 122 164 205 254 317 375
#     4   9  19  40  65  91 124 168 216 263 316 375
#     4  10  22  39  61  87 122 165 206 259 317 379
#     4  11  22  40  57  87 127 161 201 261 317 378
#     4   9  19  36  60  91 127 163 209 260 307 376
#     4  10  21  41  66  89 125 171 212 264 320 381
#
# _framework density 20.031040000000001
#
# number of rings (size 3 to 8) (size 9 to 14) (size 15 to 20)
#    0.000    2.000    1.429    2.143    0.000    0.571 
#    7.714    4.286    6.286    0.000    0.000    0.000 
#    0.000    0.000    0.000    0.000    0.000    0.000 
#
# Total GULP energy -156033.822308 kJ/mol
# GULP energy per Si atom -5572.636511 kJ/mol
# Density = 1.998545 g / cm^3
# Si number density = 20.031040 Si / 1000 Ang^3
#
#
#
# Elastic Constant Matrix: (Units=GPa)
#
#
# Indices 1 2 3 4 5 6 
#
# 1 89.5278 49.7178 48.4898 0.0000 0.0000 0.0000
# 2 49.7178 125.0584 34.9327 0.0000 0.0000 0.0000
# 3 48.4898 34.9327 82.4119 0.0000 0.0000 0.0000
# 4 0.0000 0.0000 0.0000 7.8805 0.0000 0.0000
# 5 0.0000 0.0000 0.0000 0.0000 29.0126 0.0000
# 6 0.0000 0.0000 0.0000 0.0000 0.0000 28.4920
#
#
#
# Elastic Compliance Matrix: (Units=1/GPa)
#
#
# Indices 1 2 3 4 5 6 
#
# 1 0.018768 -0.004965 -0.008938 0.000000 0.000000 0.000000
# 2 -0.004965 0.010383 -0.001480 0.000000 0.000000 0.000000
# 3 -0.008938 -0.001480 0.018021 0.000000 0.000000 0.000000
# 4 0.000000 0.000000 0.000000 0.126895 0.000000 0.000000
# 5 0.000000 0.000000 0.000000 0.000000 0.034468 0.000000
# 6 0.000000 0.000000 0.000000 0.000000 0.000000 0.035098
#
#
# Mechanical properties :
#
#
# Convention : Reuss Voigt Hill
#
# Bulk Modulus (GPa) = 60.95404 62.58652 61.77028
# Shear Modulus (GPa) = 17.86560 24.00088 20.93324
#
# Velocity S-wave (km/s) = 2.98970 3.46524 3.23622
# Velocity P-wave (km/s) = 6.51257 6.87918 6.69838
#
# Compressibility (1/GPa) = 0.01640580
#
# Stress axis : x y z
#
# Youngs Moduli (GPa) = 53.28269 96.30729 55.49147
#
# Poissons Ratio (x) = 0.47812 0.49600
# Poissons Ratio (y) = 0.26452 0.08214
# Poissons Ratio (z) = 0.47626 0.14256
#
# Static dielectric constant tensor:
#      x y z
#    x 1.729840 0.000000 0.000000 
#    y 0.000000 1.697450 0.000000 
#    z 0.000000 0.000000 1.741830 
# 
# From -- ./inp_files/12380.got.cif
#   From: 2010.05.17/outbox.cif.g08.bks.cpg/sg46_7_cif.got.tgz:12380.got - 2010.06.03 19:58:25.
