data_PCOD9379412
_publ_section_title
;
Structure prediction by ZEFSAII (Michael W. Deem and Ramdas Pophale) SiO2 
 PCOD9379412
Probable space group: I M A 2
;
_chemical_formula_sum "Si O2"
_cell_formula_units_Z 64
_cell_length_a 8.736434
_cell_length_b 20.701926
_cell_length_c 20.224859
_cell_angle_alpha 90.000000
_cell_angle_beta 90.000000
_cell_angle_gamma 90.000000
_cell_volume 3657.888429
_symmetry_space_group_name_H-M "I M A 2"
_symmetry_group_IT_number 46
_symmetry_cell_setting 'orthorhombic'
loop_
_space_group_symop_operation_xyz
x,y,z
-x,-y,z
1/2-x,y,z
1/2+x,-y,z
1/2+x,1/2+y,1/2+z
1/2-x,1/2-y,1/2+z
-x,1/2+y,1/2+z
x,1/2-y,1/2+z
loop_
_atom_site_type_symbol
_atom_site_label
_atom_site_fract_x
_atom_site_fract_y
_atom_site_fract_z
Si Si1 0.933703 0.682631 0.457540
Si Si2 0.434350 0.823603 0.101683
Si Si3 0.934097 0.429826 0.711318
Si Si4 0.065569 0.430642 0.358343
Si Si5 0.067246 0.069289 0.705828
Si Si6 0.066542 0.824155 0.455592
Si Si7 0.566930 0.570666 0.856277
Si Si8 0.433207 0.824170 0.609635
O O1 0.750000 0.688698 0.455642
O O2 0.982182 0.627400 0.406052
O O3 0.986786 0.664210 0.531376
O O4 0.007852 0.751835 0.441247
O O5 0.250000 0.824527 0.091829
O O6 0.473512 0.876173 0.156876
O O7 0.475425 0.750547 0.123060
O O8 0.750000 0.433609 0.716888
O O9 0.000000 0.500000 0.692547
O O10 0.003524 0.413671 0.783038
O O11 0.250000 0.434094 0.359929
O O12 0.018250 0.419195 0.282099
O O13 0.000000 0.500000 0.379111
O O14 0.250000 0.065663 0.704474
O O15 0.011336 0.125890 0.658453
O O16 0.000000 0.000000 0.685205
O O17 0.250000 0.826376 0.448642
O O18 0.028604 0.837240 0.532724
O O19 0.989984 0.876145 0.407919
O O20 0.500000 0.500000 0.873503
O O21 0.750000 0.567544 0.854684
O O22 0.250000 0.829854 0.616555
#
# Coordination Sequence:
#
# PCOD9379412 Si02
#       8
#     8   8   8   8   8   8   8   8
#     4  10  20  35  55  80 109 139 177 224 269 314
#     4   9  20  37  55  77 107 142 179 217 262 319
#     4  10  20  36  56  79 109 143 180 221 267 319
#     4   9  20  36  53  77 107 139 176 217 261 312
#     4  10  20  35  54  76 104 136 171 212 258 308
#     4  10  21  38  57  78 107 142 179 218 264 320
#     4  11  22  37  57  81 109 140 178 222 268 319
#     4   9  19  36  55  76 103 135 173 215 257 307
#
# _framework density 17.496433
#
# number of rings (size 3 to 8) (size 9 to 14) (size 15 to 20)
#    0.000    2.250    0.000    4.125    0.000    7.000 
#    0.000    5.000    0.000    0.000    0.000    0.000 
#    0.000    0.000    0.000    0.000    0.000    0.000 
#
# Total GULP energy -178627.825194 kJ/mol
# GULP energy per Si atom -5582.119537 kJ/mol
# Density = 1.745661 g / cm^3
# Si number density = 17.496433 Si / 1000 Ang^3
#
#
#
# Elastic Constant Matrix: (Units=GPa)
#
#
# Indices 1 2 3 4 5 6 
#
# 1 63.6115 62.2971 55.6281 0.0000 0.0000 0.0000
# 2 62.2971 156.3429 121.6339 0.0000 0.0000 0.0000
# 3 55.6281 121.6339 110.2845 0.0000 0.0000 0.0000
# 4 0.0000 0.0000 0.0000 42.1323 0.0000 0.0000
# 5 0.0000 0.0000 0.0000 0.0000 29.5851 0.0000
# 6 0.0000 0.0000 0.0000 0.0000 0.0000 33.4064
#
#
#
# Elastic Compliance Matrix: (Units=1/GPa)
#
#
# Indices 1 2 3 4 5 6 
#
# 1 0.028159 -0.001198 -0.012882 0.000000 0.000000 0.000000
# 2 -0.001198 0.045113 -0.049151 0.000000 0.000000 0.000000
# 3 -0.012882 -0.049151 0.069775 0.000000 0.000000 0.000000
# 4 0.000000 0.000000 0.000000 0.023735 0.000000 0.000000
# 5 0.000000 0.000000 0.000000 0.000000 0.033801 0.000000
# 6 0.000000 0.000000 0.000000 0.000000 0.000000 0.029934
#
#
# Mechanical properties :
#
#
# Convention : Reuss Voigt Hill
#
# Bulk Modulus (GPa) = 60.29988 89.92858 75.11423
# Shear Modulus (GPa) = 13.79276 27.07008 20.43142
#
# Velocity S-wave (km/s) = 2.81075 3.93768 3.42094
# Velocity P-wave (km/s) = 6.71362 8.49609 7.65690
#
# Compressibility (1/GPa) = 0.01658378
#
# Stress axis : x y z
#
# Youngs Moduli (GPa) = 35.51215 22.16648 14.33180
#
# Poissons Ratio (x) = 0.02656 0.18463
# Poissons Ratio (y) = 0.04255 0.70443
# Poissons Ratio (z) = 0.45748 1.08951
#
# Static dielectric constant tensor:
#      x y z
#    x 1.589650 0.000000 0.000000 
#    y 0.000000 1.570440 0.000000 
#    z 0.000000 0.000000 1.576930 
# 
# From -- ./inp_files/21348.got.cif
#   From: 2010.05.17/outbox.cif.g08.bks.cpg/sg46_11_cif.got.tgz:21348.got - 2010.06.03 19:58:25.
