data_PCOD9379761
_publ_section_title
;
Structure prediction by ZEFSAII (Michael W. Deem and Ramdas Pophale) SiO2 
 PCOD9379761
Probable space group: I M A 2
;
_chemical_formula_sum "Si O2"
_cell_formula_units_Z 40
_cell_length_a 17.112847
_cell_length_b 5.043373
_cell_length_c 23.277850
_cell_angle_alpha 90.000000
_cell_angle_beta 90.000000
_cell_angle_gamma 90.000000
_cell_volume 2009.029075
_symmetry_space_group_name_H-M "I M A 2"
_symmetry_group_IT_number 46
_symmetry_cell_setting 'orthorhombic'
loop_
_space_group_symop_operation_xyz
x,y,z
-x,-y,z
1/2-x,y,z
1/2+x,-y,z
1/2+x,1/2+y,1/2+z
1/2-x,1/2-y,1/2+z
-x,1/2+y,1/2+z
x,1/2-y,1/2+z
loop_
_atom_site_type_symbol
_atom_site_label
_atom_site_fract_x
_atom_site_fract_y
_atom_site_fract_z
Si Si1 0.841253 0.591153 0.397440
Si Si2 0.909957 0.408905 0.957915
Si Si3 0.590043 0.091095 0.203496
Si Si4 0.658747 0.908846 0.763971
Si Si5 0.444592 0.750000 0.580706
O O1 0.750000 0.517531 0.401942
O O2 0.892491 0.347566 0.419824
O O3 0.858277 0.650374 0.330706
O O4 0.858725 0.848564 0.435353
O O5 0.000000 0.500000 0.953815
O O6 0.896928 0.333258 0.024500
O O7 0.607509 0.347567 0.241587
O O8 0.603072 0.166742 0.136912
O O9 0.500000 0.000000 0.207596
O O10 0.641275 0.848564 0.226058
O O11 0.750000 0.982469 0.759470
O O12 0.500000 0.500000 0.564971
O O13 0.500000 0.000000 0.596440
#
# Coordination Sequence:
#
# PCOD9379761 Si02
#       5
#     8   8   8   8   8
#     4  11  24  41  59  85 125 162 192 240 303 351
#     4  11  22  39  64  90 115 154 204 245 287 350
#     4  11  22  39  64  90 115 154 204 245 287 350
#     4  11  24  41  59  85 125 162 192 240 303 351
#     4  10  20  38  61  88 121 152 188 246 308 344
#
# _framework density 19.910114
#
# number of rings (size 3 to 8) (size 9 to 14) (size 15 to 20)
#    0.000    1.200    0.000    8.400    0.000    8.000 
#    0.000    6.000    0.000    0.000    0.000    0.000 
#    0.000    0.000    0.000    0.000    0.000    0.000 
#
# Total GULP energy -111851.147708 kJ/mol
# GULP energy per Si atom -5592.557385 kJ/mol
# Density = 1.986480 g / cm^3
# Si number density = 19.910114 Si / 1000 Ang^3
#
#
#
# Elastic Constant Matrix: (Units=GPa)
#
#
# Indices 1 2 3 4 5 6 
#
# 1 40.6642 18.0446 60.8925 0.0000 0.0000 0.0000
# 2 18.0446 137.2038 61.7449 0.0000 0.0000 0.0000
# 3 60.8925 61.7449 155.1085 0.0000 0.0000 0.0000
# 4 0.0000 0.0000 0.0000 45.0402 0.0000 0.0000
# 5 0.0000 0.0000 0.0000 0.0000 74.5497 0.0000
# 6 0.0000 0.0000 0.0000 0.0000 0.0000 34.2759
#
#
#
# Elastic Compliance Matrix: (Units=1/GPa)
#
#
# Indices 1 2 3 4 5 6 
#
# 1 0.060908 0.003350 -0.025245 0.000000 0.000000 0.000000
# 2 0.003350 0.009063 -0.004923 0.000000 0.000000 0.000000
# 3 -0.025245 -0.004923 0.018318 0.000000 0.000000 0.000000
# 4 0.000000 0.000000 0.000000 0.022202 0.000000 0.000000
# 5 0.000000 0.000000 0.000000 0.000000 0.013414 0.000000
# 6 0.000000 0.000000 0.000000 0.000000 0.000000 0.029175
#
#
# Mechanical properties :
#
#
# Convention : Reuss Voigt Hill
#
# Bulk Modulus (GPa) = 28.85732 68.26007 48.55869
# Shear Modulus (GPa) = 22.90780 43.59279 33.25029
#
# Velocity S-wave (km/s) = 3.39567 4.68426 4.09102
# Velocity P-wave (km/s) = 5.46803 7.97590 6.83792
#
# Compressibility (1/GPa) = 0.03465325
#
# Stress axis : x y z
#
# Youngs Moduli (GPa) = 16.41828 110.33453 54.59256
#
# Poissons Ratio (x) = -0.36966 1.37818
# Poissons Ratio (y) = -0.05501 0.26877
# Poissons Ratio (z) = 0.41448 0.54320
#
# Static dielectric constant tensor:
#      x y z
#    x 1.671300 0.000000 0.000000 
#    y 0.000000 1.682320 0.000000 
#    z 0.000000 0.000000 1.703010 
# 
# From -- ./inp_files/22140.got.cif
#   From: 2010.05.17/outbox.cif.g08.bks.cpg/sg46_12_cif.got.tgz:22140.got - 2010.06.03 19:58:25.
