data_PCOD9379944
_publ_section_title
;
Structure prediction by ZEFSAII (Michael W. Deem and Ramdas Pophale) SiO2 
 PCOD9379944
Probable space group: I M A 2
;
_chemical_formula_sum "Si O2"
_cell_formula_units_Z 56
_cell_length_a 14.107450
_cell_length_b 12.663902
_cell_length_c 13.128543
_cell_angle_alpha 90.000000
_cell_angle_beta 90.000000
_cell_angle_gamma 90.000000
_cell_volume 2345.484632
_symmetry_space_group_name_H-M "I M A 2"
_symmetry_group_IT_number 46
_symmetry_cell_setting 'orthorhombic'
loop_
_space_group_symop_operation_xyz
x,y,z
-x,-y,z
1/2-x,y,z
1/2+x,-y,z
1/2+x,1/2+y,1/2+z
1/2-x,1/2-y,1/2+z
-x,1/2+y,1/2+z
x,1/2-y,1/2+z
loop_
_atom_site_type_symbol
_atom_site_label
_atom_site_fract_x
_atom_site_fract_y
_atom_site_fract_z
Si Si1 0.862350 0.231449 0.625000
Si Si2 0.992718 0.838087 0.250936
Si Si3 0.135651 0.158523 0.862603
Si Si4 0.597020 0.934482 0.568904
Si Si5 0.639980 0.694076 0.598508
Si Si6 0.142596 0.593831 0.917400
Si Si7 0.647797 0.046828 0.764276
O O1 0.750000 0.254098 0.632673
O O2 0.873764 0.171837 0.516182
O O3 0.889698 0.156383 0.722550
O O4 0.934053 0.322483 0.654577
O O5 0.932433 0.745583 0.311144
O O6 0.904910 0.881396 0.183816
O O7 0.059428 0.888824 0.336781
O O8 0.250000 0.170374 0.836194
O O9 0.099955 0.042908 0.829154
O O10 0.130885 0.157761 0.983452
O O11 0.592254 0.811519 0.592272
O O12 0.500000 0.000000 0.577405
O O13 0.637611 0.974063 0.461527
O O14 0.658179 0.985095 0.657647
O O15 0.750000 0.711871 0.620814
O O16 0.250000 0.614621 0.880578
O O17 0.750000 0.069641 0.812468
#
# Coordination Sequence:
#
# PCOD9379944 Si02
#       7
#     8   8   8   8   8   8   8
#     4   9  19  34  54  82 116 153 198 250 303 361
#     4  12  20  33  55  85 120 160 198 254 305 372
#     4  10  21  33  50  83 119 153 197 250 314 369
#     4  11  19  33  58  89 119 154 198 254 304 368
#     4  11  22  36  56  87 124 162 204 254 309 373
#     4  10  22  37  55  86 124 161 203 255 309 366
#     4   9  17  31  50  78 115 150 190 245 303 357
#
# _framework density 23.875664
#
# number of rings (size 3 to 8) (size 9 to 14) (size 15 to 20)
#    0.000    1.714    1.429    6.429    0.000    0.000 
#    0.000    0.000    0.000    0.000   22.286    0.000 
#    0.000    0.000    0.000    0.000    0.000    0.000 
#
# Total GULP energy -155916.460773 kJ/mol
# GULP energy per Si atom -5568.445028 kJ/mol
# Density = 2.382132 g / cm^3
# Si number density = 23.875664 Si / 1000 Ang^3
#
#
#
# Elastic Constant Matrix: (Units=GPa)
#
#
# Indices 1 2 3 4 5 6 
#
# 1 160.0727 28.3657 58.3873 0.0000 0.0000 0.0000
# 2 28.3657 17.2985 9.7117 0.0000 0.0000 0.0000
# 3 58.3873 9.7117 109.7683 0.0000 0.0000 0.0000
# 4 0.0000 0.0000 0.0000 25.5460 0.0000 0.0000
# 5 0.0000 0.0000 0.0000 0.0000 44.7839 0.0000
# 6 0.0000 0.0000 0.0000 0.0000 0.0000 23.2551
#
#
#
# Elastic Compliance Matrix: (Units=1/GPa)
#
#
# Indices 1 2 3 4 5 6 
#
# 1 0.010387 -0.014659 -0.004228 0.000000 0.000000 0.000000
# 2 -0.014659 0.081517 0.000585 0.000000 0.000000 0.000000
# 3 -0.004228 0.000585 0.011307 0.000000 0.000000 0.000000
# 4 0.000000 0.000000 0.000000 0.039145 0.000000 0.000000
# 5 0.000000 0.000000 0.000000 0.000000 0.022329 0.000000
# 6 0.000000 0.000000 0.000000 0.000000 0.000000 0.043001
#
#
# Mechanical properties :
#
#
# Convention : Reuss Voigt Hill
#
# Bulk Modulus (GPa) = 15.01325 53.34099 34.17712
# Shear Modulus (GPa) = 18.76222 31.42866 25.09544
#
# Velocity S-wave (km/s) = 2.80631 3.63209 3.24557
# Velocity P-wave (km/s) = 4.09905 6.32290 5.32829
#
# Compressibility (1/GPa) = 0.06660781
#
# Stress axis : x y z
#
# Youngs Moduli (GPa) = 96.27481 12.26738 88.43837
#
# Poissons Ratio (x) = 0.17982 0.37392
# Poissons Ratio (y) = 1.41125 -0.05173
# Poissons Ratio (z) = 0.40705 -0.00718
#
# Static dielectric constant tensor:
#      x y z
#    x 2.103270 0.000000 0.000000 
#    y 0.000000 2.059190 0.000000 
#    z 0.000000 0.000000 1.957530 
# 
# From -- ./inp_files/11151.got.cif
#   From: 2010.05.17/outbox.cif.g08.bks.cpg/sg46_6_cif.got.tgz:11151.got - 2010.06.03 19:58:25.
