data_PCOD9379390
_publ_section_title
;
Structure prediction by ZEFSAII (Michael W. Deem and Ramdas Pophale) SiO2 
 PCOD9379390
Probable space group: I M A 2
;
_chemical_formula_sum "Si O2"
_cell_formula_units_Z 56
_cell_length_a 14.270289
_cell_length_b 12.324085
_cell_length_c 15.292646
_cell_angle_alpha 90.000000
_cell_angle_beta 90.000000
_cell_angle_gamma 90.000000
_cell_volume 2689.490960
_symmetry_space_group_name_H-M "I M A 2"
_symmetry_group_IT_number 46
_symmetry_cell_setting 'orthorhombic'
loop_
_space_group_symop_operation_xyz
x,y,z
-x,-y,z
1/2-x,y,z
1/2+x,-y,z
1/2+x,1/2+y,1/2+z
1/2-x,1/2-y,1/2+z
-x,1/2+y,1/2+z
x,1/2-y,1/2+z
loop_
_atom_site_type_symbol
_atom_site_label
_atom_site_fract_x
_atom_site_fract_y
_atom_site_fract_z
Si Si1 0.391158 0.526630 0.459740
Si Si2 0.363338 0.725361 0.206544
Si Si3 0.853026 0.510305 0.265412
Si Si4 0.056388 0.741804 0.011817
Si Si5 0.477414 0.873771 0.340124
Si Si6 0.858916 0.748633 0.261756
Si Si7 0.646263 0.826957 0.067474
O O1 0.500000 0.500000 0.449229
O O2 0.346553 0.489058 0.369924
O O3 0.387486 0.654081 0.474574
O O4 0.356389 0.452426 0.538588
O O5 0.250000 0.735382 0.210573
O O6 0.392944 0.606920 0.243258
O O7 0.399896 0.724472 0.107197
O O8 0.410707 0.819029 0.266142
O O9 0.750000 0.510840 0.223625
O O10 0.894552 0.626605 0.241521
O O11 0.946258 0.772360 0.026133
O O12 0.061712 0.649844 0.937495
O O13 0.573976 0.806270 0.330026
O O14 0.500000 0.000000 0.325715
O O15 0.750000 0.741401 0.289707
O O16 0.862761 0.814017 0.171292
O O17 0.750000 0.782977 0.042658
#
# Coordination Sequence:
#
# PCOD9379390 Si02
#       7
#     8   8   8   8   8   8   8
#     4  10  20  34  62  94 128 169 219 274 327 398
#     4  11  26  46  69 100 138 183 238 294 349 424
#     4  10  21  40  66  96 129 170 223 278 341 411
#     4  11  24  43  65  98 134 182 230 283 349 418
#     4  12  27  46  69 102 142 188 236 288 360 431
#     4  10  22  41  68 102 135 174 222 282 352 418
#     4  10  21  37  63  99 136 170 221 286 343 410
#
# _framework density 20.821785999999999
#
# number of rings (size 3 to 8) (size 9 to 14) (size 15 to 20)
#    0.000    1.429    2.857    2.143    2.000    5.143 
#    0.000    0.000    0.000    0.000    0.000    0.000 
#    0.000    0.000    0.000    0.000    0.000    0.000 
#
# Total GULP energy -156220.981001 kJ/mol
# GULP energy per Si atom -5579.320750 kJ/mol
# Density = 2.077439 g / cm^3
# Si number density = 20.821786 Si / 1000 Ang^3
#
#
#
# Elastic Constant Matrix: (Units=GPa)
#
#
# Indices 1 2 3 4 5 6 
#
# 1 123.5821 19.0330 23.7356 0.0000 0.0000 0.0000
# 2 19.0330 114.1974 33.7708 0.0000 0.0000 0.0000
# 3 23.7356 33.7708 100.8288 0.0000 0.0000 0.0000
# 4 0.0000 0.0000 0.0000 37.2530 0.0000 0.0000
# 5 0.0000 0.0000 0.0000 0.0000 18.9478 0.0000
# 6 0.0000 0.0000 0.0000 0.0000 0.0000 9.3549
#
#
#
# Elastic Compliance Matrix: (Units=1/GPa)
#
#
# Indices 1 2 3 4 5 6 
#
# 1 0.008562 -0.000922 -0.001707 0.000000 0.000000 0.000000
# 2 -0.000922 0.009819 -0.003072 0.000000 0.000000 0.000000
# 3 -0.001707 -0.003072 0.011348 0.000000 0.000000 0.000000
# 4 0.000000 0.000000 0.000000 0.026843 0.000000 0.000000
# 5 0.000000 0.000000 0.000000 0.000000 0.052777 0.000000
# 6 0.000000 0.000000 0.000000 0.000000 0.000000 0.106896
#
#
# Mechanical properties :
#
#
# Convention : Reuss Voigt Hill
#
# Bulk Modulus (GPa) = 54.56135 54.63190 54.59662
# Shear Modulus (GPa) = 21.38992 30.58239 25.98616
#
# Velocity S-wave (km/s) = 3.20861 3.83661 3.53658
# Velocity P-wave (km/s) = 6.32359 6.77650 6.55395
#
# Compressibility (1/GPa) = 0.01832799
#
# Stress axis : x y z
#
# Youngs Moduli (GPa) = 116.80070 101.84548 88.11906
#
# Poissons Ratio (x) = 0.09393 0.15038
# Poissons Ratio (y) = 0.10772 0.27066
# Poissons Ratio (z) = 0.19933 0.31282
#
# Static dielectric constant tensor:
#      x y z
#    x 1.819180 0.000000 0.000000 
#    y 0.000000 1.743660 0.000000 
#    z 0.000000 0.000000 1.736450 
# 
# From -- ./inp_files/15948.got.cif
#   From: 2010.05.17/outbox.cif.g08.bks.cpg/sg46_8_cif.got.tgz:15948.got - 2010.06.03 19:58:25.
