data_PCOD9379733
_publ_section_title
;
Structure prediction by ZEFSAII (Michael W. Deem and Ramdas Pophale) SiO2 
 PCOD9379733
Probable space group: I M A 2
;
_chemical_formula_sum "Si O2"
_cell_formula_units_Z 48
_cell_length_a 15.002453
_cell_length_b 10.221432
_cell_length_c 14.341379
_cell_angle_alpha 90.000000
_cell_angle_beta 90.000000
_cell_angle_gamma 90.000000
_cell_volume 2199.201037
_symmetry_space_group_name_H-M "I M A 2"
_symmetry_group_IT_number 46
_symmetry_cell_setting 'orthorhombic'
loop_
_space_group_symop_operation_xyz
x,y,z
-x,-y,z
1/2-x,y,z
1/2+x,-y,z
1/2+x,1/2+y,1/2+z
1/2-x,1/2-y,1/2+z
-x,1/2+y,1/2+z
x,1/2-y,1/2+z
loop_
_atom_site_type_symbol
_atom_site_label
_atom_site_fract_x
_atom_site_fract_y
_atom_site_fract_z
Si Si1 0.604299 0.148685 0.556940
Si Si2 0.358046 0.456447 0.789194
Si Si3 0.851060 0.395833 0.442311
Si Si4 0.599904 0.869250 0.492539
Si Si5 0.641498 0.260646 0.264124
Si Si6 0.147344 0.396800 0.584761
O O1 0.652465 0.258246 0.496080
O O2 0.502358 0.145832 0.523299
O O3 0.611153 0.192727 0.663278
O O4 0.638209 0.002768 0.536903
O O5 0.250000 0.447312 0.796104
O O6 0.394339 0.386435 0.881309
O O7 0.382936 0.610346 0.786417
O O8 0.389411 0.397180 0.689949
O O9 0.750000 0.443157 0.423072
O O10 0.893263 0.359401 0.343507
O O11 0.894124 0.498702 0.513164
O O12 0.645853 0.742022 0.534693
O O13 0.750000 0.263373 0.265400
O O14 0.250000 0.441561 0.597971
#
# Coordination Sequence:
#
# PCOD9379733 Si02
#       6
#     8   8   8   8   8   8
#     4  11  23  40  59  90 128 167 216 253 315 389
#     4  10  20  39  67  93 121 167 219 262 315 380
#     4  10  20  38  64  92 120 160 219 272 312 371
#     4  11  25  40  58  92 133 170 205 259 331 391
#     4  10  20  37  68  96 119 165 223 273 310 368
#     4  10  22  40  63  95 128 159 210 271 325 379
#
# _framework density 21.826107
#
# number of rings (size 3 to 8) (size 9 to 14) (size 15 to 20)
#    0.000    1.667    3.333    1.000    0.000    5.333 
#    0.000    5.000    0.000    0.000    0.000    0.000 
#    0.000    0.000    0.000    0.000    0.000    0.000 
#
# Total GULP energy -134096.630639 kJ/mol
# GULP energy per Si atom -5587.359610 kJ/mol
# Density = 2.177643 g / cm^3
# Si number density = 21.826107 Si / 1000 Ang^3
#
#
#
# Elastic Constant Matrix: (Units=GPa)
#
#
# Indices 1 2 3 4 5 6 
#
# 1 47.3677 1.5646 11.9534 0.0000 0.0000 0.0000
# 2 1.5646 91.2354 45.1789 0.0000 0.0000 0.0000
# 3 11.9534 45.1789 215.3056 0.0000 0.0000 0.0000
# 4 0.0000 0.0000 0.0000 40.7190 0.0000 0.0000
# 5 0.0000 0.0000 0.0000 0.0000 27.1017 0.0000
# 6 0.0000 0.0000 0.0000 0.0000 0.0000 9.8628
#
#
#
# Elastic Compliance Matrix: (Units=1/GPa)
#
#
# Indices 1 2 3 4 5 6 
#
# 1 0.021416 0.000247 -0.001241 0.000000 0.000000 0.000000
# 2 0.000247 0.012234 -0.002581 0.000000 0.000000 0.000000
# 3 -0.001241 -0.002581 0.005255 0.000000 0.000000 0.000000
# 4 0.000000 0.000000 0.000000 0.024559 0.000000 0.000000
# 5 0.000000 0.000000 0.000000 0.000000 0.036898 0.000000
# 6 0.000000 0.000000 0.000000 0.000000 0.000000 0.101391
#
#
# Mechanical properties :
#
#
# Convention : Reuss Voigt Hill
#
# Bulk Modulus (GPa) = 31.48946 52.36695 41.92821
# Shear Modulus (GPa) = 22.78022 35.21748 28.99885
#
# Velocity S-wave (km/s) = 3.23416 4.02126 3.64899
# Velocity P-wave (km/s) = 5.32965 6.75319 6.08320
#
# Compressibility (1/GPa) = 0.03175665
#
# Stress axis : x y z
#
# Youngs Moduli (GPa) = 46.69314 81.73612 190.29380
#
# Poissons Ratio (x) = -0.02020 0.23613
# Poissons Ratio (y) = -0.01154 0.49114
# Poissons Ratio (z) = 0.05794 0.21096
#
# Static dielectric constant tensor:
#      x y z
#    x 1.862090 0.000000 0.000000 
#    y 0.000000 1.780800 0.000000 
#    z 0.000000 0.000000 1.794420 
# 
# From -- ./inp_files/15863.got.cif
#   From: 2010.05.17/outbox.cif.g08.bks.cpg/sg46_8_cif.got.tgz:15863.got - 2010.06.03 19:58:25.
