data_PCOD9379584
_publ_section_title
;
Structure prediction by ZEFSAII (Michael W. Deem and Ramdas Pophale) SiO2 
 PCOD9379584
Probable space group: I M A 2
;
_chemical_formula_sum "Si O2"
_cell_formula_units_Z 64
_cell_length_a 8.352242
_cell_length_b 14.427895
_cell_length_c 25.223581
_cell_angle_alpha 90.000000
_cell_angle_beta 90.000000
_cell_angle_gamma 90.000000
_cell_volume 3039.574454
_symmetry_space_group_name_H-M "I M A 2"
_symmetry_group_IT_number 46
_symmetry_cell_setting 'orthorhombic'
loop_
_space_group_symop_operation_xyz
x,y,z
-x,-y,z
1/2-x,y,z
1/2+x,-y,z
1/2+x,1/2+y,1/2+z
1/2-x,1/2-y,1/2+z
-x,1/2+y,1/2+z
x,1/2-y,1/2+z
loop_
_atom_site_type_symbol
_atom_site_label
_atom_site_fract_x
_atom_site_fract_y
_atom_site_fract_z
Si Si1 0.943519 0.107050 0.161350
Si Si2 0.056062 0.893863 0.276109
Si Si3 0.058417 0.106253 0.596210
Si Si4 0.442953 0.895481 0.825395
Si Si5 0.440416 0.283238 0.993561
Si Si6 0.558165 0.394913 0.544559
Si Si7 0.941633 0.393121 0.207742
Si Si8 0.056731 0.784638 0.380035
O O1 0.750000 0.111143 0.160634
O O2 0.995776 0.146592 0.218487
O O3 0.999118 0.139162 0.103298
O O4 0.000000 0.000000 0.162764
O O5 0.250000 0.890798 0.276236
O O6 0.000573 0.842486 0.328987
O O7 0.000000 0.000000 0.278334
O O8 0.250000 0.106269 0.596092
O O9 0.996903 0.159426 0.544276
O O10 0.003415 0.148512 0.652670
O O11 0.000000 0.000000 0.593815
O O12 0.250000 0.897042 0.825223
O O13 0.492551 0.860804 0.766323
O O14 0.496409 0.820992 0.868490
O O15 0.500000 0.000000 0.833696
O O16 0.250000 0.287469 0.994814
O O17 0.498420 0.318510 0.936769
O O18 0.495336 0.177709 0.002136
O O19 0.500000 0.500000 0.536763
O O20 0.750000 0.394868 0.543832
O O21 0.750000 0.389272 0.205697
O O22 0.000000 0.500000 0.206927
O O23 0.250000 0.786436 0.380380
#
# Coordination Sequence:
#
# PCOD9379584 Si02
#       8
#     8   8   8   8   8   8   8   8
#     4   8  15  29  52  82 111 138 171 212 262 322
#     4   9  18  34  56  81 110 141 174 217 268 322
#     4  10  21  37  57  81 110 143 180 225 275 326
#     4   9  19  35  56  82 110 140 174 216 266 320
#     4  11  25  41  55  77 109 144 188 235 273 318
#     4  10  20  36  60  86 113 146 181 220 270 325
#     4   9  16  29  53  83 112 139 171 213 265 326
#     4  10  22  39  56  76 105 143 186 226 267 319
#
# _framework density 21.055579000000002
#
# number of rings (size 3 to 8) (size 9 to 14) (size 15 to 20)
#    0.000    2.500    0.000    2.250    0.000    6.000 
#    0.000    6.250    0.000    0.000    0.000    0.000 
#    0.000    0.000    0.000    0.000    0.000    0.000 
#
# Total GULP energy -178529.653184 kJ/mol
# GULP energy per Si atom -5579.051662 kJ/mol
# Density = 2.100766 g / cm^3
# Si number density = 21.055579 Si / 1000 Ang^3
#
#
#
# Elastic Constant Matrix: (Units=GPa)
#
#
# Indices 1 2 3 4 5 6 
#
# 1 22.0664 -2.7783 13.4159 0.0000 0.0000 0.0000
# 2 -2.7783 38.4971 12.0583 0.0000 0.0000 0.0000
# 3 13.4159 12.0583 110.0109 0.0000 0.0000 0.0000
# 4 0.0000 0.0000 0.0000 30.8086 0.0000 0.0000
# 5 0.0000 0.0000 0.0000 0.0000 20.6718 0.0000
# 6 0.0000 0.0000 0.0000 0.0000 0.0000 14.8949
#
#
#
# Elastic Compliance Matrix: (Units=1/GPa)
#
#
# Indices 1 2 3 4 5 6 
#
# 1 0.050139 0.005730 -0.006743 0.000000 0.000000 0.000000
# 2 0.005730 0.027554 -0.003719 0.000000 0.000000 0.000000
# 3 -0.006743 -0.003719 0.010320 0.000000 0.000000 0.000000
# 4 0.000000 0.000000 0.000000 0.032458 0.000000 0.000000
# 5 0.000000 0.000000 0.000000 0.000000 0.048375 0.000000
# 6 0.000000 0.000000 0.000000 0.000000 0.000000 0.067137
#
#
# Mechanical properties :
#
#
# Convention : Reuss Voigt Hill
#
# Bulk Modulus (GPa) = 12.73066 23.99623 18.36345
# Shear Modulus (GPa) = 18.40743 23.13364 20.77053
#
# Velocity S-wave (km/s) = 2.95995 3.31825 3.14421
# Velocity P-wave (km/s) = 4.21201 5.10905 4.68207
#
# Compressibility (1/GPa) = 0.07855053
#
# Stress axis : x y z
#
# Youngs Moduli (GPa) = 19.94470 36.29176 96.90014
#
# Poissons Ratio (x) = -0.20796 0.65335
# Poissons Ratio (y) = -0.11429 0.36038
# Poissons Ratio (z) = 0.13448 0.13497
#
# Static dielectric constant tensor:
#      x y z
#    x 1.689410 0.000000 0.000000 
#    y 0.000000 1.757580 0.000000 
#    z 0.000000 0.000000 1.796640 
# 
# From -- ./inp_files/23156.got.cif
#   From: 2010.05.17/outbox.cif.g08.bks.cpg/sg46_12_cif.got.tgz:23156.got - 2010.06.03 19:58:25.
