data_PCOD9379716
_publ_section_title
;
Structure prediction by ZEFSAII (Michael W. Deem and Ramdas Pophale) SiO2 
 PCOD9379716
Probable space group: I M A 2
;
_chemical_formula_sum "Si O2"
_cell_formula_units_Z 48
_cell_length_a 8.420089
_cell_length_b 28.071471
_cell_length_c 9.767654
_cell_angle_alpha 90.000000
_cell_angle_beta 90.000000
_cell_angle_gamma 90.000000
_cell_volume 2308.724546
_symmetry_space_group_name_H-M "I M A 2"
_symmetry_group_IT_number 46
_symmetry_cell_setting 'orthorhombic'
loop_
_space_group_symop_operation_xyz
x,y,z
-x,-y,z
1/2-x,y,z
1/2+x,-y,z
1/2+x,1/2+y,1/2+z
1/2-x,1/2-y,1/2+z
-x,1/2+y,1/2+z
x,1/2-y,1/2+z
loop_
_atom_site_type_symbol
_atom_site_label
_atom_site_fract_x
_atom_site_fract_y
_atom_site_fract_z
Si Si1 0.943950 0.722023 0.495540
Si Si2 0.563390 0.947616 0.639849
Si Si3 0.565551 0.086260 0.357704
Si Si4 0.942709 0.807643 0.302556
Si Si5 0.937699 0.872387 0.852673
Si Si6 0.935097 0.548001 0.582362
O O1 0.750000 0.720704 0.495861
O O2 0.989155 0.771373 0.423654
O O3 0.990929 0.712811 0.653044
O O4 0.002338 0.678600 0.399277
O O5 0.750000 0.948849 0.669428
O O6 0.532650 0.935737 0.482145
O O7 0.493966 0.903598 0.728523
O O8 0.500000 0.000000 0.672498
O O9 0.750000 0.083962 0.393614
O O10 0.513174 0.140399 0.328319
O O11 0.531886 0.057400 0.219622
O O12 0.750000 0.811726 0.301776
O O13 0.750000 0.864150 0.822540
O O14 0.949534 0.907015 0.983205
O O15 0.750000 0.542585 0.615640
O O16 0.000000 0.500000 0.514471
#
# Coordination Sequence:
#
# PCOD9379716 Si02
#       6
#     8   8   8   8   8   8
#     4   9  18  34  61  95 120 150 197 246 296 356
#     4  11  23  40  63  89 122 160 203 251 304 359
#     4  12  25  41  59  85 123 163 206 247 297 359
#     4  10  20  37  64  92 121 154 199 251 301 356
#     4   9  19  36  61  91 122 155 197 247 297 360
#     4  11  21  38  63  90 119 153 197 248 303 361
#
# _framework density 20.790700999999999
#
# number of rings (size 3 to 8) (size 9 to 14) (size 15 to 20)
#    0.000    1.667    1.667    3.500    2.333    0.000 
#    0.000    3.333    0.000    0.000    0.000    0.000 
#    0.000    0.000    0.000    0.000    0.000    0.000 
#
# Total GULP energy -134076.236114 kJ/mol
# GULP energy per Si atom -5586.509838 kJ/mol
# Density = 2.074338 g / cm^3
# Si number density = 20.790701 Si / 1000 Ang^3
#
#
#
# Elastic Constant Matrix: (Units=GPa)
#
#
# Indices 1 2 3 4 5 6 
#
# 1 20.0949 9.6383 -7.4857 -0.0015 0.0001 -0.0001
# 2 9.6383 82.8127 -12.8047 0.0168 0.0144 0.0005
# 3 -7.4857 -12.8047 37.0304 -0.0195 -0.0097 -0.0004
# 4 -0.0015 0.0168 -0.0195 53.6047 -0.0639 -0.0018
# 5 0.0001 0.0144 -0.0097 -0.0639 80.0328 -0.0016
# 6 -0.0001 0.0005 -0.0004 -0.0018 -0.0016 27.9316
#
#
#
# Elastic Compliance Matrix: (Units=1/GPa)
#
#
# Indices 1 2 3 4 5 6 
#
# 1 0.055718 -0.005011 0.009531 0.000007 0.000002 0.000000
# 2 -0.005011 0.013208 0.003554 -0.000003 -0.000002 0.000000
# 3 0.009531 0.003554 0.030160 0.000010 0.000003 0.000000
# 4 0.000007 -0.000003 0.000010 0.018655 0.000015 0.000001
# 5 0.000002 -0.000002 0.000003 0.000015 0.012495 0.000001
# 6 0.000000 0.000000 0.000000 0.000001 0.000001 0.035802
#
#
# Mechanical properties :
#
#
# Convention : Reuss Voigt Hill
#
# Bulk Modulus (GPa) = 8.67800 13.18150 10.92975
# Shear Modulus (GPa) = 26.55307 42.35316 34.45311
#
# Velocity S-wave (km/s) = 3.57762 4.51834 4.07522
# Velocity P-wave (km/s) = 4.60964 5.79434 5.23561
#
# Compressibility (1/GPa) = 0.11523397
#
# Stress axis : x y z
#
# Youngs Moduli (GPa) = 17.94759 75.71027 33.15595
#
# Poissons Ratio (x) = 0.37939 -0.31600
# Poissons Ratio (y) = 0.08994 -0.11785
# Poissons Ratio (z) = -0.17105 -0.26909
#
# Static dielectric constant tensor:
#      x y z
#    x 1.655820 0.000190 0.000000 
#    y 0.000190 1.412760 0.000010 
#    z 0.000000 0.000010 1.729900 
# 
# From -- ./inp_files/3894.got.cif
#   From: 2010.05.17/outbox.cif.g08.bks.cpg/sg46_2_cif.got.tgz:3894.got - 2010.06.03 19:58:25.
