data_PCOD9380068
_publ_section_title
;
Structure prediction by ZEFSAII (Michael W. Deem and Ramdas Pophale) SiO2 
 PCOD9380068
Probable space group: I M A 2
;
_chemical_formula_sum "Si O2"
_cell_formula_units_Z 32
_cell_length_a 23.259577
_cell_length_b 5.582617
_cell_length_c 9.332356
_cell_angle_alpha 90.000000
_cell_angle_beta 90.000000
_cell_angle_gamma 90.000000
_cell_volume 1211.799987
_symmetry_space_group_name_H-M "I M A 2"
_symmetry_group_IT_number 46
_symmetry_cell_setting 'orthorhombic'
loop_
_space_group_symop_operation_xyz
x,y,z
-x,-y,z
1/2-x,y,z
1/2+x,-y,z
1/2+x,1/2+y,1/2+z
1/2-x,1/2-y,1/2+z
-x,1/2+y,1/2+z
x,1/2-y,1/2+z
loop_
_atom_site_type_symbol
_atom_site_label
_atom_site_fract_x
_atom_site_fract_y
_atom_site_fract_z
Si Si1 0.402943 0.546685 0.971420
Si Si2 0.185387 0.929223 0.949649
Si Si3 0.683470 0.798866 0.673382
Si Si4 0.009646 0.257520 0.831310
O O1 0.357297 0.724026 0.900128
O O2 0.428045 0.306441 0.897398
O O3 0.461442 0.705483 0.956372
O O4 0.367549 0.463052 0.109639
O O5 0.250000 0.833565 0.948267
O O6 0.184561 0.154200 0.841673
O O7 0.172446 0.037672 0.106275
O O8 0.750000 0.856947 0.627454
O O9 0.000000 0.500000 0.738773
O O10 0.000000 0.000000 0.765203
#
# Coordination Sequence:
#
# PCOD9380068 Si02
#       4
#     8   8   8   8
#     4   9  19  34  64  83 131 169 229 274 342 406
#     4  10  21  37  60  96 138 183 229 284 347 415
#     4  10  21  37  60  93 134 179 227 282 347 415
#     4   8  18  34  64  90 126 170 219 278 342 403
#
# _framework density 26.406995999999999
#
# number of rings (size 3 to 8) (size 9 to 14) (size 15 to 20)
#    1.500    1.000    0.000    2.250    0.000    2.000 
#    0.000    5.000   33.000    0.000    0.000    0.000 
#    0.000    0.000    0.000    0.000    0.000    0.000 
#
# Total GULP energy -89134.549229 kJ/mol
# GULP energy per Si atom -5570.909327 kJ/mol
# Density = 2.634689 g / cm^3
# Si number density = 26.406996 Si / 1000 Ang^3
#
#
#
# Elastic Constant Matrix: (Units=GPa)
#
#
# Indices 1 2 3 4 5 6 
#
# 1 177.5441 61.1367 24.9615 0.0000 0.0000 0.0000
# 2 61.1367 157.0921 47.3615 0.0000 0.0000 0.0000
# 3 24.9615 47.3615 77.1646 0.0000 0.0000 0.0000
# 4 0.0000 0.0000 0.0000 28.5276 0.0000 0.0000
# 5 0.0000 0.0000 0.0000 0.0000 -4.1768 0.0000
# 6 0.0000 0.0000 0.0000 0.0000 0.0000 50.9665
#
#
#
# Elastic Compliance Matrix: (Units=1/GPa)
#
#
# Indices 1 2 3 4 5 6 
#
# 1 0.006533 -0.002338 -0.000678 0.000000 0.000000 0.000000
# 2 -0.002338 0.008648 -0.004551 0.000000 0.000000 0.000000
# 3 -0.000678 -0.004551 0.015972 0.000000 0.000000 0.000000
# 4 0.000000 0.000000 0.000000 0.035054 0.000000 0.000000
# 5 0.000000 0.000000 0.000000 0.000000 -0.239420 0.000000
# 6 0.000000 0.000000 0.000000 0.000000 0.000000 0.019621
#
#
# Mechanical properties :
#
#
# Convention : Reuss Voigt Hill
#
# Bulk Modulus (GPa) = 62.43186 75.41338 68.92262
# Shear Modulus (GPa) = -37.56069 33.61956 -1.97057
#
# Velocity S-wave (km/s) = -3.77553 3.57197 -0.86478
# Velocity P-wave (km/s) = 2.16502 6.75515 5.01594
#
# Compressibility (1/GPa) = 0.01601746
#
# Stress axis : x y z
#
# Youngs Moduli (GPa) = 153.07312 115.63658 62.60839
#
# Poissons Ratio (x) = 0.27035 0.04247
# Poissons Ratio (y) = 0.35787 0.28496
# Poissons Ratio (z) = 0.10383 0.52632
#
# Static dielectric constant tensor:
#      x y z
#    x 2.050900 0.000000 0.000000 
#    y 0.000000 2.109800 0.000000 
#    z 0.000000 0.000000 2.045160 
# 
# From -- ./inp_files/8273.got.cif
#   From: 2010.05.17/outbox.cif.g08.bks.cpg/sg46_5_cif.got.tgz:8273.got - 2010.06.03 19:58:25.
