data_PCOD9380812
_publ_section_title
;
Structure prediction by ZEFSAII (Michael W. Deem and Ramdas Pophale) SiO2 
 PCOD9380812
Probable space group: I M A 2
;
_chemical_formula_sum "Si O2"
_cell_formula_units_Z 44
_cell_length_a 24.018152
_cell_length_b 10.710837
_cell_length_c 8.817688
_cell_angle_alpha 90.000000
_cell_angle_beta 90.000000
_cell_angle_gamma 90.000000
_cell_volume 2268.390016
_symmetry_space_group_name_H-M "I M A 2"
_symmetry_group_IT_number 46
_symmetry_cell_setting 'orthorhombic'
loop_
_space_group_symop_operation_xyz
x,y,z
-x,-y,z
1/2-x,y,z
1/2+x,-y,z
1/2+x,1/2+y,1/2+z
1/2-x,1/2-y,1/2+z
-x,1/2+y,1/2+z
x,1/2-y,1/2+z
loop_
_atom_site_type_symbol
_atom_site_label
_atom_site_fract_x
_atom_site_fract_y
_atom_site_fract_z
Si Si1 0.500000 0.500000 0.459870
Si Si2 0.497765 0.711162 0.232625
Si Si3 0.313256 0.560388 0.605668
Si Si4 0.570776 0.114934 0.453320
Si Si5 0.814069 0.284714 0.912314
Si Si6 0.579790 0.933734 0.195262
O O1 0.519156 0.610872 0.353031
O O2 0.450161 0.527572 0.575693
O O3 0.451143 0.788273 0.325628
O O4 0.547292 0.803556 0.181762
O O5 0.468377 0.639072 0.095547
O O6 0.250000 0.514517 0.603767
O O7 0.323752 0.638900 0.451687
O O8 0.356301 0.452184 0.650444
O O9 0.317606 0.665404 0.739577
O O10 0.634950 0.143397 0.491298
O O11 0.568881 0.983365 0.365375
O O12 0.750000 0.310658 0.961954
#
# Coordination Sequence:
#
# PCOD9380812 Si02
#       6
#     4   8   8   8   8   8
#     4  12  24  36  56  82 112 148 194 236 292 344
#     4  12  23  36  55  83 113 150 189 235 286 347
#     4   9  18  33  56  81 112 153 193 236 289 339
#     4  11  20  35  56  79 118 150 181 234 291 341
#     4   9  17  29  49  79 110 145 185 228 278 337
#     4  11  22  39  56  83 119 148 188 240 290 354
#
# _framework density 19.397017999999999
#
# number of rings (size 3 to 8) (size 9 to 14) (size 15 to 20)
#    0.000    1.455    3.636    3.273    2.545    0.000 
#    0.000    0.000    0.000    1.091    0.000    0.000 
#    0.000    0.000    0.000    0.000    0.000    0.000 
#
# Total GULP energy -122608.396777 kJ/mol
# GULP energy per Si atom -5573.108944 kJ/mol
# Density = 1.935287 g / cm^3
# Si number density = 19.397018 Si / 1000 Ang^3
#
#
#
# Elastic Constant Matrix: (Units=GPa)
#
#
# Indices 1 2 3 4 5 6 
#
# 1 113.2020 28.8507 25.9560 0.0000 0.0000 0.0000
# 2 28.8507 45.5553 18.9278 0.0000 0.0000 0.0000
# 3 25.9560 18.9278 76.5422 0.0000 0.0000 0.0000
# 4 0.0000 0.0000 0.0000 26.6787 0.0000 0.0000
# 5 0.0000 0.0000 0.0000 0.0000 22.0820 0.0000
# 6 0.0000 0.0000 0.0000 0.0000 0.0000 20.4034
#
#
#
# Elastic Compliance Matrix: (Units=1/GPa)
#
#
# Indices 1 2 3 4 5 6 
#
# 1 0.010859 -0.005959 -0.002209 0.000000 0.000000 0.000000
# 2 -0.005959 0.027736 -0.004838 0.000000 0.000000 0.000000
# 3 -0.002209 -0.004838 0.015010 0.000000 0.000000 0.000000
# 4 0.000000 0.000000 0.000000 0.037483 0.000000 0.000000
# 5 0.000000 0.000000 0.000000 0.000000 0.045286 0.000000
# 6 0.000000 0.000000 0.000000 0.000000 0.000000 0.049011
#
#
# Mechanical properties :
#
#
# Convention : Reuss Voigt Hill
#
# Bulk Modulus (GPa) = 36.24127 42.52981 39.38554
# Shear Modulus (GPa) = 22.66605 24.60381 23.63493
#
# Velocity S-wave (km/s) = 3.42209 3.56537 3.49446
# Velocity P-wave (km/s) = 5.85993 6.23881 6.05233
#
# Compressibility (1/GPa) = 0.02759285
#
# Stress axis : x y z
#
# Youngs Moduli (GPa) = 92.08933 36.05485 66.62240
#
# Poissons Ratio (x) = 0.21487 0.14715
# Poissons Ratio (y) = 0.54880 0.32230
# Poissons Ratio (z) = 0.20340 0.17442
#
# Static dielectric constant tensor:
#      x y z
#    x 1.720940 0.000000 0.000000 
#    y 0.000000 1.699590 0.000000 
#    z 0.000000 0.000000 1.711270 
# 
# From -- ./inp_files/7789.got.cif
#   From: 2010.05.17/outbox.cif.g08.bks.cpg/sg46_4_cif.got.tgz:7789.got - 2010.06.03 19:58:25.
