data_PCOD9380786
_publ_section_title
;
Structure prediction by ZEFSAII (Michael W. Deem and Ramdas Pophale) SiO2 
 PCOD9380786
Probable space group: I M A 2
;
_chemical_formula_sum "Si O2"
_cell_formula_units_Z 36
_cell_length_a 11.282164
_cell_length_b 5.199539
_cell_length_c 26.049818
_cell_angle_alpha 90.000000
_cell_angle_beta 90.000000
_cell_angle_gamma 90.000000
_cell_volume 1528.135771
_symmetry_space_group_name_H-M "I M A 2"
_symmetry_group_IT_number 46
_symmetry_cell_setting 'orthorhombic'
loop_
_space_group_symop_operation_xyz
x,y,z
-x,-y,z
1/2-x,y,z
1/2+x,-y,z
1/2+x,1/2+y,1/2+z
1/2-x,1/2-y,1/2+z
-x,1/2+y,1/2+z
x,1/2-y,1/2+z
loop_
_atom_site_type_symbol
_atom_site_label
_atom_site_fract_x
_atom_site_fract_y
_atom_site_fract_z
Si Si1 0.750000 0.957320 0.077080
Si Si2 0.500000 0.000000 0.246156
Si Si3 0.750000 0.449764 0.011655
Si Si4 0.374622 0.632390 0.314621
Si Si5 0.387513 0.328311 0.156342
Si Si6 0.930429 0.252526 0.928210
O O1 0.750000 0.742686 0.031387
O O2 0.639028 0.886994 0.113251
O O3 0.750000 0.247243 0.058044
O O4 0.396806 0.890297 0.282587
O O5 0.563627 0.797616 0.208328
O O6 0.858271 0.372218 0.975076
O O7 0.500000 0.500000 0.305119
O O8 0.250000 0.512368 0.297977
O O9 0.368673 0.660870 0.376035
O O10 0.500000 0.500000 0.138994
O O11 0.250000 0.438830 0.163198
O O12 0.000000 0.500000 0.908262
O O13 0.000000 0.000000 0.946808
#
# Coordination Sequence:
#
# PCOD9380786 Si02
#       6
#     4   4   4   8   8   8
#     4  10  28  46  77 111 145 199 254 314 380 450
#     4  12  24  44  76 104 148 200 254 314 392 450
#     4  12  24  50  73 113 141 203 244 310 382 444
#     4  11  25  46  71 109 151 200 250 313 381 466
#     4  10  26  47  73 107 146 198 249 327 374 464
#     4  11  24  45  73 110 151 196 246 305 372 457
#
# _framework density 23.558116999999999
#
# number of rings (size 3 to 8) (size 9 to 14) (size 15 to 20)
#    0.667    0.444    2.222    2.667    3.111    8.000 
#    2.000    0.000    0.000    0.000    0.000    0.000 
#    0.000    0.000    0.000    0.000    0.000    0.000 
#
# Total GULP energy -100345.270994 kJ/mol
# GULP energy per Si atom -5574.737277 kJ/mol
# Density = 2.350450 g / cm^3
# Si number density = 23.558117 Si / 1000 Ang^3
#
#
#
# Elastic Constant Matrix: (Units=GPa)
#
#
# Indices 1 2 3 4 5 6 
#
# 1 166.0257 26.3164 7.1894 0.0000 0.0000 0.0000
# 2 26.3164 47.0558 -16.0500 0.0000 0.0000 0.0000
# 3 7.1894 -16.0500 86.9255 0.0000 0.0000 0.0000
# 4 0.0000 0.0000 0.0000 48.9530 0.0000 0.0000
# 5 0.0000 0.0000 0.0000 0.0000 -212.1272 0.0000
# 6 0.0000 0.0000 0.0000 0.0000 0.0000 78.9240
#
#
#
# Elastic Compliance Matrix: (Units=1/GPa)
#
#
# Indices 1 2 3 4 5 6 
#
# 1 0.006752 -0.004233 -0.001340 0.000000 0.000000 0.000000
# 2 -0.004233 0.025334 0.005028 0.000000 0.000000 0.000000
# 3 -0.001340 0.005028 0.012543 0.000000 0.000000 0.000000
# 4 0.000000 0.000000 0.000000 0.020428 0.000000 0.000000
# 5 0.000000 0.000000 0.000000 0.000000 -0.004714 0.000000
# 6 0.000000 0.000000 0.000000 0.000000 0.000000 0.012670
#
#
# Mechanical properties :
#
#
# Convention : Reuss Voigt Hill
#
# Bulk Modulus (GPa) = 22.96846 37.21317 30.09082
# Shear Modulus (GPa) = 56.42246 1.98672 29.20459
#
# Velocity S-wave (km/s) = 4.89922 0.91932 3.52473
# Velocity P-wave (km/s) = 6.46328 4.11795 5.41902
#
# Compressibility (1/GPa) = 0.04353796
#
# Stress axis : x y z
#
# Youngs Moduli (GPa) = 148.09967 39.47302 79.72402
#
# Poissons Ratio (x) = 0.16710 0.10684
# Poissons Ratio (y) = 0.62695 -0.40083
# Poissons Ratio (z) = 0.19847 -0.19846
#
# Static dielectric constant tensor:
#      x y z
#    x 2.005940 0.000000 0.000000 
#    y 0.000000 1.944100 0.000000 
#    z 0.000000 0.000000 1.846520 
# 
# From -- ./inp_files/23394.got.cif
#   From: 2010.05.17/outbox.cif.g08.bks.cpg/sg46_12_cif.got.tgz:23394.got - 2010.06.03 19:58:25.
