data_PCOD9380840
_publ_section_title
;
Structure prediction by ZEFSAII (Michael W. Deem and Ramdas Pophale) SiO2 
 PCOD9380840
Probable space group: I M A 2
;
_chemical_formula_sum "Si O2"
_cell_formula_units_Z 48
_cell_length_a 23.389965
_cell_length_b 5.041862
_cell_length_c 19.431995
_cell_angle_alpha 90.000000
_cell_angle_beta 90.000000
_cell_angle_gamma 90.000000
_cell_volume 2291.595266
_symmetry_space_group_name_H-M "I M A 2"
_symmetry_group_IT_number 46
_symmetry_cell_setting 'orthorhombic'
loop_
_space_group_symop_operation_xyz
x,y,z
-x,-y,z
1/2-x,y,z
1/2+x,-y,z
1/2+x,1/2+y,1/2+z
1/2-x,1/2-y,1/2+z
-x,1/2+y,1/2+z
x,1/2-y,1/2+z
loop_
_atom_site_type_symbol
_atom_site_label
_atom_site_fract_x
_atom_site_fract_y
_atom_site_fract_z
Si Si1 0.159044 0.654901 0.905070
Si Si2 0.440519 0.655931 0.191295
Si Si3 0.038764 0.757757 0.852516
Si Si4 0.685498 0.664413 0.319247
Si Si5 0.750000 0.728822 0.607535
Si Si6 0.630196 0.823549 0.180596
Si Si7 0.750000 0.243773 0.520506
O O1 0.091300 0.698782 0.902887
O O2 0.174547 0.358640 0.882602
O O3 0.179346 0.865123 0.846327
O O4 0.193790 0.702423 0.974145
O O5 0.500000 0.500000 0.175346
O O6 0.440310 0.670502 0.275023
O O7 0.394214 0.459769 0.158760
O O8 0.418038 0.949698 0.170673
O O9 0.000000 0.500000 0.844947
O O10 0.000000 0.000000 0.877238
O O11 0.750000 0.695218 0.292970
O O12 0.642937 0.775395 0.261486
O O13 0.808037 0.642380 0.646466
O O14 0.750000 0.549735 0.540247
O O15 0.750000 0.037011 0.584387
#
# Coordination Sequence:
#
# PCOD9380840 Si02
#       7
#     8   8   8   8   4   8   4
#     4  12  23  39  64  90 132 164 203 261 318 387
#     4  11  22  37  61  97 137 168 196 247 323 401
#     4  11  21  35  58  95 132 163 193 243 314 388
#     4  12  20  36  59  99 125 162 199 252 339 390
#     4  12  28  44  66  90 124 172 226 272 316 364
#     4  12  22  40  63  93 133 166 207 262 322 389
#     4  12  26  46  62  90 122 174 224 268 318 364
#
# _framework density 20.946106
#
# number of rings (size 3 to 8) (size 9 to 14) (size 15 to 20)
#    0.000    0.333    5.833    5.500    0.000    0.000 
#    0.000    0.000    0.000   10.000    0.000    0.000 
#    0.000    0.000    0.000    0.000    0.000    0.000 
#
# Total GULP energy -133911.390074 kJ/mol
# GULP energy per Si atom -5579.641253 kJ/mol
# Density = 2.089843 g / cm^3
# Si number density = 20.946106 Si / 1000 Ang^3
#
#
#
# Elastic Constant Matrix: (Units=GPa)
#
#
# Indices 1 2 3 4 5 6 
#
# 1 115.6639 40.3533 17.1019 0.0000 0.0000 0.0000
# 2 40.3533 88.6470 -3.8143 0.0000 0.0000 0.0000
# 3 17.1019 -3.8143 23.5823 0.0000 0.0000 0.0000
# 4 0.0000 0.0000 0.0000 28.1417 0.0000 0.0000
# 5 0.0000 0.0000 0.0000 0.0000 -41.2593 0.0000
# 6 0.0000 0.0000 0.0000 0.0000 0.0000 36.7098
#
#
#
# Elastic Compliance Matrix: (Units=1/GPa)
#
#
# Indices 1 2 3 4 5 6 
#
# 1 0.012174 -0.005963 -0.009793 0.000000 0.000000 0.000000
# 2 -0.005963 0.014281 0.006634 0.000000 0.000000 0.000000
# 3 -0.009793 0.006634 0.050580 0.000000 0.000000 0.000000
# 4 0.000000 0.000000 0.000000 0.035535 0.000000 0.000000
# 5 0.000000 0.000000 0.000000 0.000000 -0.024237 0.000000
# 6 0.000000 0.000000 0.000000 0.000000 0.000000 0.027241
#
#
# Mechanical properties :
#
#
# Convention : Reuss Voigt Hill
#
# Bulk Modulus (GPa) = 17.00954 37.24167 27.12561
# Shear Modulus (GPa) = 32.59149 16.33525 24.46337
#
# Velocity S-wave (km/s) = 3.94886 2.79565 3.42119
# Velocity P-wave (km/s) = 5.37862 5.31406 5.34644
#
# Compressibility (1/GPa) = 0.05879052
#
# Stress axis : x y z
#
# Youngs Moduli (GPa) = 82.14065 70.02451 19.77069
#
# Poissons Ratio (x) = 0.41757 0.19362
# Poissons Ratio (y) = 0.48983 -0.13117
# Poissons Ratio (z) = 0.80443 -0.46457
#
# Static dielectric constant tensor:
#      x y z
#    x 1.790980 0.000000 0.000000 
#    y 0.000000 1.716230 0.000000 
#    z 0.000000 0.000000 1.745870 
# 
# From -- ./inp_files/22372.got.cif
#   From: 2010.05.17/outbox.cif.g08.bks.cpg/sg46_12_cif.got.tgz:22372.got - 2010.06.03 19:58:25.
