data_PCOD9380188
_publ_section_title
;
Structure prediction by ZEFSAII (Michael W. Deem and Ramdas Pophale) SiO2 
 PCOD9380188
Probable space group: I M A 2
;
_chemical_formula_sum "Si O2"
_cell_formula_units_Z 56
_cell_length_a 8.782529
_cell_length_b 24.057332
_cell_length_c 14.027263
_cell_angle_alpha 90.000000
_cell_angle_beta 90.000000
_cell_angle_gamma 90.000000
_cell_volume 2963.739265
_symmetry_space_group_name_H-M "I M A 2"
_symmetry_group_IT_number 46
_symmetry_cell_setting 'orthorhombic'
loop_
_space_group_symop_operation_xyz
x,y,z
-x,-y,z
1/2-x,y,z
1/2+x,-y,z
1/2+x,1/2+y,1/2+z
1/2-x,1/2-y,1/2+z
-x,1/2+y,1/2+z
x,1/2-y,1/2+z
loop_
_atom_site_type_symbol
_atom_site_label
_atom_site_fract_x
_atom_site_fract_y
_atom_site_fract_z
Si Si1 0.569675 0.834205 0.313040
Si Si2 0.931740 0.939618 0.621295
Si Si3 0.567682 0.333869 0.016446
Si Si4 0.567065 0.060674 0.993916
Si Si5 0.432964 0.939061 0.211975
Si Si6 0.566811 0.380804 0.303341
Si Si7 0.568508 0.234353 0.703531
O O1 0.750000 0.838001 0.320996
O O2 0.497413 0.818061 0.414353
O O3 0.500590 0.892984 0.281023
O O4 0.521182 0.788157 0.236118
O O5 0.750000 0.941120 0.616614
O O6 0.996392 0.892119 0.551351
O O7 0.985915 0.920441 0.726636
O O8 0.000000 0.000000 0.599813
O O9 0.750000 0.339696 0.012743
O O10 0.532745 0.288554 0.098202
O O11 0.750000 0.056713 0.992695
O O12 0.523354 0.075554 0.102146
O O13 0.500000 0.000000 0.972466
O O14 0.522270 0.102888 0.910396
O O15 0.250000 0.940189 0.218756
O O16 0.500000 0.000000 0.231547
O O17 0.750000 0.388224 0.292657
O O18 0.534170 0.317502 0.273701
O O19 0.750000 0.245601 0.708305
#
# Coordination Sequence:
#
# PCOD9380188 Si02
#       7
#     8   8   8   8   8   8   8
#     4  12  25  40  61  89 118 149 186 230 284 342
#     4  11  21  34  54  83 118 154 193 237 288 342
#     4  10  22  42  64  85 112 148 192 238 284 336
#     4   9  18  32  53  81 113 149 190 235 280 331
#     4  10  21  39  60  84 115 151 193 239 286 336
#     4   9  18  34  55  82 115 153 196 237 282 336
#     4   9  20  39  61  84 113 150 191 234 278 331
#
# _framework density 18.895049
#
# number of rings (size 3 to 8) (size 9 to 14) (size 15 to 20)
#    0.000    2.000    0.000    4.714    0.000    6.857 
#    0.000    5.714    0.000    0.000    0.000    0.000 
#    0.000    0.000    0.000    0.000    0.000    0.000 
#
# Total GULP energy -156417.882345 kJ/mol
# GULP energy per Si atom -5586.352941 kJ/mol
# Density = 1.885204 g / cm^3
# Si number density = 18.895049 Si / 1000 Ang^3
#
#
#
# Elastic Constant Matrix: (Units=GPa)
#
#
# Indices 1 2 3 4 5 6 
#
# 1 84.0538 51.7956 42.6387 0.0000 0.0000 0.0000
# 2 51.7956 79.9183 50.2847 0.0000 0.0000 0.0000
# 3 42.6387 50.2847 87.0497 0.0000 0.0000 0.0000
# 4 0.0000 0.0000 0.0000 16.0975 0.0000 0.0000
# 5 0.0000 0.0000 0.0000 0.0000 19.5488 0.0000
# 6 0.0000 0.0000 0.0000 0.0000 0.0000 33.1208
#
#
#
# Elastic Compliance Matrix: (Units=1/GPa)
#
#
# Indices 1 2 3 4 5 6 
#
# 1 0.020550 -0.010974 -0.003727 0.000000 0.000000 0.000000
# 2 -0.010974 0.025517 -0.009365 0.000000 0.000000 0.000000
# 3 -0.003727 -0.009365 0.018723 0.000000 0.000000 0.000000
# 4 0.000000 0.000000 0.000000 0.062121 0.000000 0.000000
# 5 0.000000 0.000000 0.000000 0.000000 0.051154 0.000000
# 6 0.000000 0.000000 0.000000 0.000000 0.000000 0.030193
#
#
# Mechanical properties :
#
#
# Convention : Reuss Voigt Hill
#
# Bulk Modulus (GPa) = 60.02711 60.05109 60.03910
# Shear Modulus (GPa) = 19.08818 20.84027 19.96423
#
# Velocity S-wave (km/s) = 3.18185 3.32467 3.25404
# Velocity P-wave (km/s) = 6.73324 6.82556 6.77956
#
# Compressibility (1/GPa) = 0.01665914
#
# Stress axis : x y z
#
# Youngs Moduli (GPa) = 48.66235 39.18888 53.41022
#
# Poissons Ratio (x) = 0.43004 0.19905
# Poissons Ratio (y) = 0.53400 0.50020
# Poissons Ratio (z) = 0.18135 0.36701
#
# Static dielectric constant tensor:
#      x y z
#    x 1.632730 0.000000 0.000000 
#    y 0.000000 1.624980 0.000000 
#    z 0.000000 0.000000 1.663150 
# 
# From -- ./inp_files/14145.got.cif
#   From: 2010.05.17/outbox.cif.g08.bks.cpg/sg46_8_cif.got.tgz:14145.got - 2010.06.03 19:58:25.
