data_PCOD9380861
_publ_section_title
;
Structure prediction by ZEFSAII (Michael W. Deem and Ramdas Pophale) SiO2 
 PCOD9380861
Probable space group: I M A 2
;
_chemical_formula_sum "Si O2"
_cell_formula_units_Z 48
_cell_length_a 14.722157
_cell_length_b 16.911665
_cell_length_c 9.319127
_cell_angle_alpha 90.000000
_cell_angle_beta 90.000000
_cell_angle_gamma 90.000000
_cell_volume 2320.240709
_symmetry_space_group_name_H-M "I M A 2"
_symmetry_group_IT_number 46
_symmetry_cell_setting 'orthorhombic'
loop_
_space_group_symop_operation_xyz
x,y,z
-x,-y,z
1/2-x,y,z
1/2+x,-y,z
1/2+x,1/2+y,1/2+z
1/2-x,1/2-y,1/2+z
-x,1/2+y,1/2+z
x,1/2-y,1/2+z
loop_
_atom_site_type_symbol
_atom_site_label
_atom_site_fract_x
_atom_site_fract_y
_atom_site_fract_z
Si Si1 0.649395 0.697047 0.132500
Si Si2 0.110279 0.338920 0.440134
Si Si3 0.852602 0.180400 0.349525
Si Si4 0.101194 0.516387 0.381189
Si Si5 0.898193 0.167253 0.020507
Si Si6 0.471869 0.584229 0.073999
O O1 0.750000 0.661928 0.100712
O O2 0.637488 0.709213 0.300500
O O3 0.562043 0.639587 0.096941
O O4 0.646600 0.784529 0.066459
O O5 0.141576 0.428510 0.400022
O O6 0.002235 0.336437 0.466812
O O7 0.750000 0.151095 0.335272
O O8 0.893379 0.184587 0.189453
O O9 0.852816 0.265725 0.424634
O O10 0.908434 0.128043 0.461700
O O11 0.143976 0.582814 0.480126
O O12 0.080877 0.556411 0.222830
O O13 0.000000 0.500000 0.438113
O O14 0.500000 0.500000 0.010738
#
# Coordination Sequence:
#
# PCOD9380861 Si02
#       6
#     8   8   8   8   8   8
#     4  12  24  42  68 104 139 179 235 289 347 420
#     4  11  22  44  71  99 134 188 231 281 349 420
#     4  12  26  42  66 102 136 177 230 285 350 420
#     4   9  19  41  73  96 126 178 239 274 349 409
#     4  11  21  42  70  96 133 181 227 286 347 418
#     4  11  22  45  72  98 132 185 227 285 350 409
#
# _framework density 20.687508000000001
#
# number of rings (size 3 to 8) (size 9 to 14) (size 15 to 20)
#    0.000    1.000    6.667    3.000    0.000    2.667 
#    0.000    4.167    0.000    0.000    0.000    0.000 
#    0.000    0.000    0.000    0.000    0.000    0.000 
#
# Total GULP energy -133648.408271 kJ/mol
# GULP energy per Si atom -5568.683678 kJ/mol
# Density = 2.064042 g / cm^3
# Si number density = 20.687508 Si / 1000 Ang^3
#
#
#
# Elastic Constant Matrix: (Units=GPa)
#
#
# Indices 1 2 3 4 5 6 
#
# 1 104.2552 25.3296 33.1930 0.0000 0.0000 0.0000
# 2 25.3296 139.4832 93.3177 0.0000 0.0000 0.0000
# 3 33.1930 93.3177 126.9437 0.0000 0.0000 0.0000
# 4 0.0000 0.0000 0.0000 41.9564 0.0000 0.0000
# 5 0.0000 0.0000 0.0000 0.0000 143.4973 0.0000
# 6 0.0000 0.0000 0.0000 0.0000 0.0000 -12.7324
#
#
#
# Elastic Compliance Matrix: (Units=1/GPa)
#
#
# Indices 1 2 3 4 5 6 
#
# 1 0.010464 -0.000137 -0.002635 0.000000 0.000000 0.000000
# 2 -0.000137 0.014109 -0.010336 0.000000 0.000000 0.000000
# 3 -0.002635 -0.010336 0.016165 0.000000 0.000000 0.000000
# 4 0.000000 0.000000 0.000000 0.023834 0.000000 0.000000
# 5 0.000000 0.000000 0.000000 0.000000 0.006969 0.000000
# 6 0.000000 0.000000 0.000000 0.000000 0.000000 -0.078540
#
#
# Mechanical properties :
#
#
# Convention : Reuss Voigt Hill
#
# Bulk Modulus (GPa) = 68.86496 74.92921 71.89708
# Shear Modulus (GPa) = 207.82482 49.13372 128.47927
#
# Velocity S-wave (km/s) = 10.03380 4.87873 7.88921
# Velocity P-wave (km/s) = 12.94591 8.24828 10.85428
#
# Compressibility (1/GPa) = 0.01452117
#
# Stress axis : x y z
#
# Youngs Moduli (GPa) = 95.56378 70.87537 61.86314
#
# Poissons Ratio (x) = 0.00972 0.16303
# Poissons Ratio (y) = 0.01311 0.63942
# Poissons Ratio (z) = 0.25184 0.73257
#
# Static dielectric constant tensor:
#      x y z
#    x 1.766730 0.000000 0.000000 
#    y 0.000000 1.849700 0.000000 
#    z 0.000000 0.000000 1.731310 
# 
# From -- ./inp_files/5714.got.cif
#   From: 2010.05.17/outbox.cif.g08.bks.cpg/sg46_3_cif.got.tgz:5714.got - 2010.06.03 19:58:25.
