data_PCOD9380716
_publ_section_title
;
Structure prediction by ZEFSAII (Michael W. Deem and Ramdas Pophale) SiO2 
 PCOD9380716
Probable space group: I M A 2
;
_chemical_formula_sum "Si O2"
_cell_formula_units_Z 64
_cell_length_a 17.225132
_cell_length_b 15.112067
_cell_length_c 13.022013
_cell_angle_alpha 90.000000
_cell_angle_beta 90.000000
_cell_angle_gamma 90.000000
_cell_volume 3389.725681
_symmetry_space_group_name_H-M "I M A 2"
_symmetry_group_IT_number 46
_symmetry_cell_setting 'orthorhombic'
loop_
_space_group_symop_operation_xyz
x,y,z
-x,-y,z
1/2-x,y,z
1/2+x,-y,z
1/2+x,1/2+y,1/2+z
1/2-x,1/2-y,1/2+z
-x,1/2+y,1/2+z
x,1/2-y,1/2+z
loop_
_atom_site_type_symbol
_atom_site_label
_atom_site_fract_x
_atom_site_fract_y
_atom_site_fract_z
Si Si1 0.159463 0.403752 0.720400
Si Si2 0.471073 0.094353 0.089604
Si Si3 0.156087 0.688208 0.013141
Si Si4 0.155880 0.998017 0.415737
Si Si5 0.053258 0.833134 0.897793
Si Si6 0.441564 0.248812 0.729540
Si Si7 0.659572 0.093125 0.724592
Si Si8 0.657480 0.901529 0.617823
O O1 0.250000 0.408710 0.713837
O O2 0.121134 0.411021 0.608620
O O3 0.130195 0.475673 0.802370
O O4 0.130204 0.310309 0.764887
O O5 0.489272 0.181264 0.158465
O O6 0.500000 0.000000 0.128742
O O7 0.503444 0.110222 0.977644
O O8 0.250000 0.701134 0.004386
O O9 0.139936 0.661491 0.131752
O O10 0.133035 0.599599 0.950578
O O11 0.108138 0.768110 0.964491
O O12 0.250000 0.997996 0.417206
O O13 0.134192 0.070158 0.502016
O O14 0.106652 0.890375 0.822240
O O15 0.993882 0.782756 0.822695
O O16 0.401469 0.170091 0.664697
O O17 0.750000 0.107196 0.749724
O O18 0.651838 0.993919 0.680360
O O19 0.750000 0.875106 0.619553
#
# Coordination Sequence:
#
# PCOD9380716 Si02
#       8
#     8   8   8   8   8   8   8   8
#     4   9  20  40  63  88 118 159 208 249 304 371
#     4  10  26  43  58  84 134 161 198 259 306 369
#     4   9  19  38  63  92 118 153 208 263 304 368
#     4   8  16  33  64  91 112 143 192 258 307 345
#     4  12  23  38  60  89 126 168 202 246 318 380
#     4  10  24  35  62  86 121 165 201 248 302 363
#     4   9  20  39  64  90 120 158 206 263 315 369
#     4   9  18  37  61  90 119 149 203 263 304 356
#
# _framework density 18.880583999999999
#
# number of rings (size 3 to 8) (size 9 to 14) (size 15 to 20)
#    0.750    1.750    0.000    3.000    5.250    0.000 
#    0.000    2.500    0.000    0.000    0.000    0.000 
#    0.000    0.000    0.000    0.000    0.000    0.000 
#
# Total GULP energy -178139.167130 kJ/mol
# GULP energy per Si atom -5566.848973 kJ/mol
# Density = 1.883761 g / cm^3
# Si number density = 18.880584 Si / 1000 Ang^3
#
#
#
# Elastic Constant Matrix: (Units=GPa)
#
#
# Indices 1 2 3 4 5 6 
#
# 1 67.5412 37.1760 64.3269 0.0000 0.0000 0.0000
# 2 37.1760 63.1232 41.0477 0.0000 0.0000 0.0000
# 3 64.3269 41.0477 109.5029 0.0000 0.0000 0.0000
# 4 0.0000 0.0000 0.0000 20.6468 0.0000 0.0000
# 5 0.0000 0.0000 0.0000 0.0000 35.8439 0.0000
# 6 0.0000 0.0000 0.0000 0.0000 0.0000 15.4417
#
#
#
# Elastic Compliance Matrix: (Units=1/GPa)
#
#
# Indices 1 2 3 4 5 6 
#
# 1 0.038200 -0.010453 -0.018522 0.000000 0.000000 0.000000
# 2 -0.010453 0.023809 -0.002784 0.000000 0.000000 0.000000
# 3 -0.018522 -0.002784 0.021056 0.000000 0.000000 0.000000
# 4 0.000000 0.000000 0.000000 0.048434 0.000000 0.000000
# 5 0.000000 0.000000 0.000000 0.000000 0.027899 0.000000
# 6 0.000000 0.000000 0.000000 0.000000 0.000000 0.064760
#
#
# Mechanical properties :
#
#
# Convention : Reuss Voigt Hill
#
# Bulk Modulus (GPa) = 51.15972 58.36318 54.76145
# Shear Modulus (GPa) = 16.99576 20.89426 18.94501
#
# Velocity S-wave (km/s) = 3.00354 3.33025 3.17110
# Velocity P-wave (km/s) = 6.25968 6.76508 6.51728
#
# Compressibility (1/GPa) = 0.01954663
#
# Stress axis : x y z
#
# Youngs Moduli (GPa) = 26.17820 42.00113 47.49149
#
# Poissons Ratio (x) = 0.43904 0.87963
# Poissons Ratio (y) = 0.27364 0.13223
# Poissons Ratio (z) = 0.48487 0.11694
#
# Static dielectric constant tensor:
#      x y z
#    x 1.665460 0.000000 0.000000 
#    y 0.000000 1.674510 0.000000 
#    z 0.000000 0.000000 1.652280 
# 
# From -- ./inp_files/16870.got.cif
#   From: 2010.05.17/outbox.cif.g08.bks.cpg/sg46_9_cif.got.tgz:16870.got - 2010.06.03 19:58:25.
