data_PCOD9380956
_publ_section_title
;
Structure prediction by ZEFSAII (Michael W. Deem and Ramdas Pophale) SiO2 
 PCOD9380956
Probable space group: I M A 2
;
_chemical_formula_sum "Si O2"
_cell_formula_units_Z 44
_cell_length_a 27.809941
_cell_length_b 4.984422
_cell_length_c 12.556402
_cell_angle_alpha 90.000000
_cell_angle_beta 90.000000
_cell_angle_gamma 90.000000
_cell_volume 1740.524269
_symmetry_space_group_name_H-M "I M A 2"
_symmetry_group_IT_number 46
_symmetry_cell_setting 'orthorhombic'
loop_
_space_group_symop_operation_xyz
x,y,z
-x,-y,z
1/2-x,y,z
1/2+x,-y,z
1/2+x,1/2+y,1/2+z
1/2-x,1/2-y,1/2+z
-x,1/2+y,1/2+z
x,1/2-y,1/2+z
loop_
_atom_site_type_symbol
_atom_site_label
_atom_site_fract_x
_atom_site_fract_y
_atom_site_fract_z
Si Si1 0.500000 0.000000 0.178301
Si Si2 0.454007 0.698078 0.984363
Si Si3 0.650080 0.053536 0.785930
Si Si4 0.250000 0.087665 0.790723
Si Si5 0.353029 0.452167 0.932288
Si Si6 0.250000 0.915380 0.438647
Si Si7 0.050658 0.422220 0.277478
O O1 0.459339 0.109282 0.262710
O O2 0.535739 0.136128 0.091177
O O3 0.500000 0.500000 0.973739
O O4 0.403815 0.534530 0.983450
O O5 0.451053 0.917410 0.888204
O O6 0.700414 0.979471 0.733624
O O7 0.646771 0.851495 0.888899
O O8 0.601102 0.990743 0.725946
O O9 0.650051 0.354542 0.828232
O O10 0.250000 0.387278 0.835149
O O11 0.250000 0.887769 0.894248
O O12 0.302057 0.517727 0.989276
O O13 0.000000 0.500000 0.221997
#
# Coordination Sequence:
#
# PCOD9380956 Si02
#       7
#     4   8   8   4   8   4   8
#     4  12  28  44  64  98 130 176 222 274 322 404
#     4  11  24  44  65  94 135 176 217 271 330 392
#     4   9  18  31  56  87 121 164 209 261 320 382
#     4   8  14  28  48  83 121 153 205 260 310 379
#     4   9  18  31  58  85 122 165 206 264 319 382
#     4   8  14  28  48  87 117 151 211 256 310 381
#     4  11  24  40  65  91 129 172 216 265 326 387
#
# _framework density 25.279737000000001
#
# number of rings (size 3 to 8) (size 9 to 14) (size 15 to 20)
#    0.000    2.182    0.909    1.636    8.909    0.000 
#    1.636    0.000    0.000    1.091    0.000    5.091 
#    0.000    0.000    0.000    0.000    0.000    0.000 
#
# Total GULP energy -122580.856180 kJ/mol
# GULP energy per Si atom -5571.857099 kJ/mol
# Density = 2.522220 g / cm^3
# Si number density = 25.279737 Si / 1000 Ang^3
#
#
#
# Elastic Constant Matrix: (Units=GPa)
#
#
# Indices 1 2 3 4 5 6 
#
# 1 285.5431 20.0733 26.4985 0.0000 0.0000 0.0000
# 2 20.0733 79.3203 34.0939 0.0000 0.0000 0.0000
# 3 26.4985 34.0939 107.6785 0.0000 0.0000 0.0000
# 4 0.0000 0.0000 0.0000 24.1555 0.0000 0.0000
# 5 0.0000 0.0000 0.0000 0.0000 -5.6852 0.0000
# 6 0.0000 0.0000 0.0000 0.0000 0.0000 56.3921
#
#
#
# Elastic Compliance Matrix: (Units=1/GPa)
#
#
# Indices 1 2 3 4 5 6 
#
# 1 0.003610 -0.000615 -0.000693 0.000000 0.000000 0.000000
# 2 -0.000615 0.014698 -0.004502 0.000000 0.000000 0.000000
# 3 -0.000693 -0.004502 0.010883 0.000000 0.000000 0.000000
# 4 0.000000 0.000000 0.000000 0.041398 0.000000 0.000000
# 5 0.000000 0.000000 0.000000 0.000000 -0.175896 0.000000
# 6 0.000000 0.000000 0.000000 0.000000 0.000000 0.017733
#
#
# Mechanical properties :
#
#
# Convention : Reuss Voigt Hill
#
# Bulk Modulus (GPa) = 56.92020 70.43034 63.67527
# Shear Modulus (GPa) = -71.33218 41.09756 -15.11731
#
# Velocity S-wave (km/s) = -5.31774 4.03639 -2.44806
# Velocity P-wave (km/s) = 3.89095 7.04586 4.15359
#
# Compressibility (1/GPa) = 0.01756845
#
# Stress axis : x y z
#
# Youngs Moduli (GPa) = 277.03023 68.03604 91.88539
#
# Poissons Ratio (x) = 0.04187 0.06372
# Poissons Ratio (y) = 0.17049 0.41370
# Poissons Ratio (z) = 0.19211 0.30632
#
# Static dielectric constant tensor:
#      x y z
#    x 2.107770 0.000000 0.000000 
#    y 0.000000 1.060950 0.000000 
#    z 0.000000 0.000000 1.897550 
# 
# From -- ./inp_files/17524.got.cif
#   From: 2010.05.17/outbox.cif.g08.bks.cpg/sg46_9_cif.got.tgz:17524.got - 2010.06.03 19:58:25.
