data_PCOD9380842
_publ_section_title
;
Structure prediction by ZEFSAII (Michael W. Deem and Ramdas Pophale) SiO2 
 PCOD9380842
Probable space group: I M A 2
;
_chemical_formula_sum "Si O2"
_cell_formula_units_Z 48
_cell_length_a 8.696213
_cell_length_b 28.758611
_cell_length_c 10.465588
_cell_angle_alpha 90.000000
_cell_angle_beta 90.000000
_cell_angle_gamma 90.000000
_cell_volume 2617.349440
_symmetry_space_group_name_H-M "I M A 2"
_symmetry_group_IT_number 46
_symmetry_cell_setting 'orthorhombic'
loop_
_space_group_symop_operation_xyz
x,y,z
-x,-y,z
1/2-x,y,z
1/2+x,-y,z
1/2+x,1/2+y,1/2+z
1/2-x,1/2-y,1/2+z
-x,1/2+y,1/2+z
x,1/2-y,1/2+z
loop_
_atom_site_type_symbol
_atom_site_label
_atom_site_fract_x
_atom_site_fract_y
_atom_site_fract_z
Si Si1 0.433658 0.142473 0.152030
Si Si2 0.934244 0.357402 0.159023
Si Si3 0.066443 0.549609 0.553010
Si Si4 0.566088 0.950115 0.767144
Si Si5 0.934354 0.695682 0.914375
Si Si6 0.065880 0.799475 0.915401
O O1 0.250000 0.136809 0.143714
O O2 0.512652 0.092358 0.139193
O O3 0.471155 0.168353 0.283911
O O4 0.491179 0.173542 0.033861
O O5 0.750000 0.361676 0.151178
O O6 0.971052 0.326459 0.284252
O O7 0.008482 0.407807 0.180830
O O8 0.999043 0.331985 0.034824
O O9 0.250000 0.547549 0.544730
O O10 0.000000 0.500000 0.596448
O O11 0.999288 0.557839 0.410445
O O12 0.750000 0.951748 0.772415
O O13 0.500000 0.000000 0.724984
O O14 0.750000 0.699147 0.925385
O O15 0.004855 0.747107 0.909994
O O16 0.250000 0.799572 0.931025
#
# Coordination Sequence:
#
# PCOD9380842 Si02
#       6
#     8   8   8   8   8   8
#     4  11  23  40  62  89 121 158 201 248 300 356
#     4  11  23  40  62  90 122 158 202 247 299 356
#     4  11  21  36  60  90 121 154 197 245 297 352
#     4  11  21  36  61  90 122 155 196 246 296 350
#     4  11  25  41  59  86 122 161 202 247 302 358
#     4  11  23  39  62  89 118 156 204 251 298 354
#
# _framework density 18.339164
#
# number of rings (size 3 to 8) (size 9 to 14) (size 15 to 20)
#    0.000    1.000    1.667    7.000    0.000    7.333 
#    0.000    0.833    0.000    4.000    0.000    0.000 
#    0.000    0.000    0.000    0.000    0.000    0.000 
#
# Total GULP energy -134263.568652 kJ/mol
# GULP energy per Si atom -5594.315360 kJ/mol
# Density = 1.829742 g / cm^3
# Si number density = 18.339164 Si / 1000 Ang^3
#
#
#
# Elastic Constant Matrix: (Units=GPa)
#
#
# Indices 1 2 3 4 5 6 
#
# 1 102.0387 61.3835 61.9463 -0.0002 0.0000 0.0001
# 2 61.3835 164.3232 65.7250 -0.0028 -0.0001 0.0002
# 3 61.9463 65.7250 115.1104 -0.0074 -0.0004 0.0006
# 4 -0.0002 -0.0028 -0.0074 -40.0235 -0.0005 0.0015
# 5 0.0000 -0.0001 -0.0004 -0.0005 27.1208 0.0001
# 6 0.0001 0.0002 0.0006 0.0015 0.0001 38.3690
#
#
#
# Elastic Compliance Matrix: (Units=1/GPa)
#
#
# Indices 1 2 3 4 5 6 
#
# 1 0.015781 -0.003238 -0.006644 0.000001 0.000000 0.000000
# 2 -0.003238 0.008551 -0.003140 0.000000 0.000000 0.000000
# 3 -0.006644 -0.003140 0.014056 -0.000002 0.000000 0.000000
# 4 0.000001 0.000000 -0.000002 -0.024985 0.000000 0.000001
# 5 0.000000 0.000000 0.000000 0.000000 0.036872 0.000000
# 6 0.000000 0.000000 0.000000 0.000001 0.000000 0.026063
#
#
# Mechanical properties :
#
#
# Convention : Reuss Voigt Hill
#
# Bulk Modulus (GPa) = 81.00814 84.39801 82.70308
# Shear Modulus (GPa) = 46.95014 17.92110 32.43562
#
# Velocity S-wave (km/s) = 5.06523 3.12942 4.21010
# Velocity P-wave (km/s) = 8.85872 7.69274 8.29624
#
# Compressibility (1/GPa) = 0.01234444
#
# Stress axis : x y z
#
# Youngs Moduli (GPa) = 63.36541 116.94593 71.14582
#
# Poissons Ratio (x) = 0.37864 0.47270
# Poissons Ratio (y) = 0.20516 0.22340
# Poissons Ratio (z) = 0.42100 0.36721
#
# Static dielectric constant tensor:
#      x y z
#    x 1.612470 0.000000 0.000000 
#    y 0.000000 1.621490 0.000000 
#    z 0.000000 0.000000 1.599900 
# 
# From -- ./inp_files/3908.got.cif
#   From: 2010.05.17/outbox.cif.g08.bks.cpg/sg46_2_cif.got.tgz:3908.got - 2010.06.03 19:58:25.
