data_PCOD9380989
_publ_section_title
;
Structure prediction by ZEFSAII (Michael W. Deem and Ramdas Pophale) SiO2 
 PCOD9380989
Probable space group: I M A 2
;
_chemical_formula_sum "Si O2"
_cell_formula_units_Z 40
_cell_length_a 28.220172
_cell_length_b 5.104965
_cell_length_c 11.110219
_cell_angle_alpha 90.000000
_cell_angle_beta 90.000000
_cell_angle_gamma 90.000000
_cell_volume 1600.571373
_symmetry_space_group_name_H-M "I M A 2"
_symmetry_group_IT_number 46
_symmetry_cell_setting 'orthorhombic'
loop_
_space_group_symop_operation_xyz
x,y,z
-x,-y,z
1/2-x,y,z
1/2+x,-y,z
1/2+x,1/2+y,1/2+z
1/2-x,1/2-y,1/2+z
-x,1/2+y,1/2+z
x,1/2-y,1/2+z
loop_
_atom_site_type_symbol
_atom_site_label
_atom_site_fract_x
_atom_site_fract_y
_atom_site_fract_z
Si Si1 0.198986 0.970477 0.679780
Si Si2 0.802991 0.361068 0.920920
Si Si3 0.091043 0.080198 0.403980
Si Si4 0.597478 0.627436 0.159167
Si Si5 0.532463 0.257690 0.748424
O O1 0.250000 0.104912 0.673328
O O2 0.195103 0.842755 0.811115
O O3 0.197053 0.777702 0.562456
O O4 0.153948 0.149172 0.660143
O O5 0.750000 0.489489 0.906422
O O6 0.853193 0.508672 0.908366
O O7 0.083781 0.245944 0.284483
O O8 0.079340 0.217108 0.529746
O O9 0.055475 0.839701 0.376496
O O10 0.578419 0.327388 0.169927
O O11 0.500000 0.500000 0.706319
O O12 0.500000 0.000000 0.748535
#
# Coordination Sequence:
#
# PCOD9380989 Si02
#       5
#     8   8   8   8   8
#     4   9  18  35  62  97 137 181 230 287 352 425
#     4   9  18  35  62  97 137 181 230 287 352 425
#     4  11  25  45  71 104 144 187 238 296 361 433
#     4  11  25  45  71 104 144 187 238 296 361 433
#     4  12  26  50  73 110 141 186 244 310 368 424
#
# _framework density 24.991074999999999
#
# number of rings (size 3 to 8) (size 9 to 14) (size 15 to 20)
#    0.000    1.600    4.000    0.000    0.000    5.600 
#    0.000    0.000    0.000    0.000    0.000    0.000 
#    0.000    0.000    0.000    0.000    0.000    0.000 
#
# Total GULP energy -111396.494931 kJ/mol
# GULP energy per Si atom -5569.824747 kJ/mol
# Density = 2.493419 g / cm^3
# Si number density = 24.991075 Si / 1000 Ang^3
#
#
#
# Elastic Constant Matrix: (Units=GPa)
#
#
# Indices 1 2 3 4 5 6 
#
# 1 115.7588 26.9178 -25.0708 0.0000 0.0000 0.0000
# 2 26.9178 68.1566 28.3974 0.0000 0.0000 0.0000
# 3 -25.0708 28.3974 138.1091 0.0000 0.0000 0.0000
# 4 0.0000 0.0000 0.0000 30.3607 0.0000 0.0000
# 5 0.0000 0.0000 0.0000 0.0000 5.6848 0.0000
# 6 0.0000 0.0000 0.0000 0.0000 0.0000 2.7087
#
#
#
# Elastic Compliance Matrix: (Units=1/GPa)
#
#
# Indices 1 2 3 4 5 6 
#
# 1 0.010560 -0.005435 0.003034 0.000000 0.000000 0.000000
# 2 -0.005435 0.018844 -0.004861 0.000000 0.000000 0.000000
# 3 0.003034 -0.004861 0.008791 0.000000 0.000000 0.000000
# 4 0.000000 0.000000 0.000000 0.032937 0.000000 0.000000
# 5 0.000000 0.000000 0.000000 0.000000 0.175908 0.000000
# 6 0.000000 0.000000 0.000000 0.000000 0.000000 0.369178
#
#
# Mechanical properties :
#
#
# Convention : Reuss Voigt Hill
#
# Bulk Modulus (GPa) = 42.24494 42.50146 42.37320
# Shear Modulus (GPa) = 7.82924 27.20284 17.51604
#
# Velocity S-wave (km/s) = 1.77190 3.30282 2.65031
# Velocity P-wave (km/s) = 4.59640 5.62036 5.13397
#
# Compressibility (1/GPa) = 0.02367148
#
# Stress axis : x y z
#
# Youngs Moduli (GPa) = 94.70099 53.06774 113.75280
#
# Poissons Ratio (x) = 0.28840 -0.34516
# Poissons Ratio (y) = 0.51467 0.55297
# Poissons Ratio (z) = -0.28735 0.25797
#
# Static dielectric constant tensor:
#      x y z
#    x 2.040960 0.000000 0.000000 
#    y 0.000000 2.127990 0.000000 
#    z 0.000000 0.000000 1.982650 
# 
# From -- ./inp_files/12928.got.cif
#   From: 2010.05.17/outbox.cif.g08.bks.cpg/sg46_7_cif.got.tgz:12928.got - 2010.06.03 19:58:25.
