data_PCOD9380379
_publ_section_title
;
Structure prediction by ZEFSAII (Michael W. Deem and Ramdas Pophale) SiO2 
 PCOD9380379
Probable space group: I M A 2
;
_chemical_formula_sum "Si O2"
_cell_formula_units_Z 40
_cell_length_a 19.229057
_cell_length_b 13.348843
_cell_length_c 8.111429
_cell_angle_alpha 90.000000
_cell_angle_beta 90.000000
_cell_angle_gamma 90.000000
_cell_volume 2082.087530
_symmetry_space_group_name_H-M "I M A 2"
_symmetry_group_IT_number 46
_symmetry_cell_setting 'orthorhombic'
loop_
_space_group_symop_operation_xyz
x,y,z
-x,-y,z
1/2-x,y,z
1/2+x,-y,z
1/2+x,1/2+y,1/2+z
1/2-x,1/2-y,1/2+z
-x,1/2+y,1/2+z
x,1/2-y,1/2+z
loop_
_atom_site_type_symbol
_atom_site_label
_atom_site_fract_x
_atom_site_fract_y
_atom_site_fract_z
Si Si1 0.250000 0.303272 0.431931
Si Si2 0.331966 0.521465 0.982815
Si Si3 0.750000 0.894260 0.284110
Si Si4 0.613614 0.856578 0.734549
Si Si5 0.535306 0.109841 0.353653
Si Si6 0.968804 0.798594 0.036391
O O1 0.250000 0.183836 0.433443
O O2 0.250000 0.343598 0.612740
O O3 0.183681 0.338538 0.333003
O O4 0.250000 0.545504 0.030599
O O5 0.318413 0.458207 0.815867
O O6 0.385525 0.604179 0.919805
O O7 0.370916 0.451103 0.116264
O O8 0.594918 0.753908 0.636409
O O9 0.555735 0.864254 0.879645
O O10 0.517704 0.143369 0.165891
O O11 0.502519 0.197904 0.462837
O O12 0.500000 0.000000 0.378168
#
# Coordination Sequence:
#
# PCOD9380379 Si02
#       6
#     4   8   4   8   8   8
#     4  12  20  30  54  86 139 158 206 271 342 429
#     4  10  22  41  62  90 126 174 219 272 339 389
#     4  10  22  32  54  86 121 172 204 261 342 393
#     4  11  20  36  59  97 126 170 213 275 345 411
#     4  11  23  45  65  94 133 173 216 280 329 394
#     4  10  24  39  64  96 129 172 227 260 341 407
#
# _framework density 19.211489
#
# number of rings (size 3 to 8) (size 9 to 14) (size 15 to 20)
#    0.600    0.800    3.000    3.600    5.600    0.000 
#    7.200    1.000    0.000    0.000    0.000    0.000 
#    0.000    0.000    0.000    0.000    0.000    0.000 
#
# Total GULP energy -111360.653770 kJ/mol
# GULP energy per Si atom -5568.032689 kJ/mol
# Density = 1.916776 g / cm^3
# Si number density = 19.211489 Si / 1000 Ang^3
#
#
#
# Elastic Constant Matrix: (Units=GPa)
#
#
# Indices 1 2 3 4 5 6 
#
# 1 102.4887 45.8575 56.6131 0.0000 0.0000 0.0000
# 2 45.8575 57.5672 32.2380 0.0000 0.0000 0.0000
# 3 56.6131 32.2380 107.7711 0.0000 0.0000 0.0000
# 4 0.0000 0.0000 0.0000 32.6589 0.0000 0.0000
# 5 0.0000 0.0000 0.0000 0.0000 24.1347 0.0000
# 6 0.0000 0.0000 0.0000 0.0000 0.0000 24.4401
#
#
#
# Elastic Compliance Matrix: (Units=1/GPa)
#
#
# Indices 1 2 3 4 5 6 
#
# 1 0.018085 -0.010915 -0.006235 0.000000 0.000000 0.000000
# 2 -0.010915 0.027454 -0.002479 0.000000 0.000000 0.000000
# 3 -0.006235 -0.002479 0.013296 0.000000 0.000000 0.000000
# 4 0.000000 0.000000 0.000000 0.030619 0.000000 0.000000
# 5 0.000000 0.000000 0.000000 0.000000 0.041434 0.000000
# 6 0.000000 0.000000 0.000000 0.000000 0.000000 0.040916
#
#
# Mechanical properties :
#
#
# Convention : Reuss Voigt Hill
#
# Bulk Modulus (GPa) = 51.07986 59.69379 55.38682
# Shear Modulus (GPa) = 22.97926 25.12132 24.05029
#
# Velocity S-wave (km/s) = 3.46225 3.62003 3.54202
# Velocity P-wave (km/s) = 6.52907 6.97224 6.75429
#
# Compressibility (1/GPa) = 0.01957719
#
# Stress axis : x y z
#
# Youngs Moduli (GPa) = 55.29421 36.42511 75.21122
#
# Poissons Ratio (x) = 0.39756 0.46897
# Poissons Ratio (y) = 0.60351 0.18643
# Poissons Ratio (z) = 0.34478 0.09029
#
# Static dielectric constant tensor:
#      x y z
#    x 1.748240 0.000000 0.000000 
#    y 0.000000 1.675690 0.000000 
#    z 0.000000 0.000000 1.706340 
# 
# From -- ./inp_files/7294.got.cif
#   From: 2010.05.17/outbox.cif.g08.bks.cpg/sg46_4_cif.got.tgz:7294.got - 2010.06.03 19:58:25.
