data_PCOD9380800
_publ_section_title
;
Structure prediction by ZEFSAII (Michael W. Deem and Ramdas Pophale) SiO2 
 PCOD9380800
Probable space group: I M A 2
;
_chemical_formula_sum "Si O2"
_cell_formula_units_Z 40
_cell_length_a 11.461924
_cell_length_b 10.499787
_cell_length_c 14.575476
_cell_angle_alpha 90.000000
_cell_angle_beta 90.000000
_cell_angle_gamma 90.000000
_cell_volume 1754.125896
_symmetry_space_group_name_H-M "I M A 2"
_symmetry_group_IT_number 46
_symmetry_cell_setting 'orthorhombic'
loop_
_space_group_symop_operation_xyz
x,y,z
-x,-y,z
1/2-x,y,z
1/2+x,-y,z
1/2+x,1/2+y,1/2+z
1/2-x,1/2-y,1/2+z
-x,1/2+y,1/2+z
x,1/2-y,1/2+z
loop_
_atom_site_type_symbol
_atom_site_label
_atom_site_fract_x
_atom_site_fract_y
_atom_site_fract_z
Si Si1 0.750000 0.799656 0.075540
Si Si2 0.500000 0.500000 0.134211
Si Si3 0.562285 0.613290 0.442553
Si Si4 0.750000 0.328111 0.789035
Si Si5 0.250000 0.484664 0.121190
Si Si6 0.996876 0.753429 0.766746
Si Si7 0.750000 0.603617 0.756519
Si Si8 0.750000 0.448795 0.334100
O O1 0.750000 0.667531 0.127679
O O2 0.750000 0.916656 0.146108
O O3 0.861395 0.805571 0.010859
O O4 0.377346 0.518109 0.080877
O O5 0.487278 0.375724 0.199682
O O6 0.500000 0.500000 0.497261
O O7 0.493304 0.700683 0.372338
O O8 0.643639 0.528332 0.375394
O O9 0.620525 0.313634 0.741933
O O10 0.750000 0.476093 0.816614
O O11 0.750000 0.201736 0.853096
O O12 0.250000 0.541194 0.224079
O O13 0.873902 0.677032 0.768344
#
# Coordination Sequence:
#
# PCOD9380800 Si02
#       8
#     4   4   8   4   4   8   4   4
#     4  11  25  38  59  95 140 175 198 256 353 399
#     4  12  18  36  76  94 118 158 220 298 302 356
#     4  11  20  37  69  93 125 168 220 274 311 386
#     4  12  23  36  68  98 126 166 217 282 329 369
#     4  12  20  39  65 100 123 158 219 274 327 368
#     4  12  20  41  69  98 121 163 232 277 319 365
#     4  12  26  42  59  98 145 170 205 270 342 396
#     4  11  18  37  65 101 116 161 239 274 301 364
#
# _framework density 22.803380000000001
#
# number of rings (size 3 to 8) (size 9 to 14) (size 15 to 20)
#    0.000    0.400    9.000    1.800    0.000    1.600 
#    0.000    0.000    8.800    4.800    0.000    0.000 
#    0.000    0.000    0.000    0.000    0.000    0.000 
#
# Total GULP energy -111334.436436 kJ/mol
# GULP energy per Si atom -5566.721822 kJ/mol
# Density = 2.275148 g / cm^3
# Si number density = 22.803380 Si / 1000 Ang^3
#
#
#
# Elastic Constant Matrix: (Units=GPa)
#
#
# Indices 1 2 3 4 5 6 
#
# 1 212.8453 53.5701 8.9579 0.0000 0.0000 0.0000
# 2 53.5701 106.6645 -1.2434 0.0000 0.0000 0.0000
# 3 8.9579 -1.2434 24.5369 0.0000 0.0000 0.0000
# 4 0.0000 0.0000 0.0000 6.0291 0.0000 0.0000
# 5 0.0000 0.0000 0.0000 0.0000 -77.4762 0.0000
# 6 0.0000 0.0000 0.0000 0.0000 0.0000 32.1495
#
#
#
# Elastic Compliance Matrix: (Units=1/GPa)
#
#
# Indices 1 2 3 4 5 6 
#
# 1 0.005489 -0.002782 -0.002145 0.000000 0.000000 0.000000
# 2 -0.002782 0.010790 0.001562 0.000000 0.000000 0.000000
# 3 -0.002145 0.001562 0.041617 0.000000 0.000000 0.000000
# 4 0.000000 0.000000 0.000000 0.165863 0.000000 0.000000
# 5 0.000000 0.000000 0.000000 0.000000 -0.012907 0.000000
# 6 0.000000 0.000000 0.000000 0.000000 0.000000 0.031105
#
#
# Mechanical properties :
#
#
# Convention : Reuss Voigt Hill
#
# Bulk Modulus (GPa) = 19.54344 51.84622 35.69483
# Shear Modulus (GPa) = 18.81533 10.99128 14.90331
#
# Velocity S-wave (km/s) = 2.87559 2.19784 2.55925
# Velocity P-wave (km/s) = 4.42881 5.40613 4.94169
#
# Compressibility (1/GPa) = 0.05116806
#
# Stress axis : x y z
#
# Youngs Moduli (GPa) = 182.19632 92.67523 24.02862
#
# Poissons Ratio (x) = 0.25778 0.05153
# Poissons Ratio (y) = 0.50679 -0.03754
# Poissons Ratio (z) = 0.39076 -0.14479
#
# Static dielectric constant tensor:
#      x y z
#    x 2.120640 0.000000 0.000000 
#    y 0.000000 1.848210 0.000000 
#    z 0.000000 0.000000 1.798330 
# 
# From -- ./inp_files/18824.got.cif
#   From: 2010.05.17/outbox.cif.g08.bks.cpg/sg46_10_cif.got.tgz:18824.got - 2010.06.03 19:58:25.
