data_PCOD9380797
_publ_section_title
;
Structure prediction by ZEFSAII (Michael W. Deem and Ramdas Pophale) SiO2 
 PCOD9380797
Probable space group: I M A 2
;
_chemical_formula_sum "Si O2"
_cell_formula_units_Z 40
_cell_length_a 10.279735
_cell_length_b 10.796658
_cell_length_c 19.792504
_cell_angle_alpha 90.000000
_cell_angle_beta 90.000000
_cell_angle_gamma 90.000000
_cell_volume 2196.706349
_symmetry_space_group_name_H-M "I M A 2"
_symmetry_group_IT_number 46
_symmetry_cell_setting 'orthorhombic'
loop_
_space_group_symop_operation_xyz
x,y,z
-x,-y,z
1/2-x,y,z
1/2+x,-y,z
1/2+x,1/2+y,1/2+z
1/2-x,1/2-y,1/2+z
-x,1/2+y,1/2+z
x,1/2-y,1/2+z
loop_
_atom_site_type_symbol
_atom_site_label
_atom_site_fract_x
_atom_site_fract_y
_atom_site_fract_z
Si Si1 0.250000 0.504401 0.912560
Si Si2 0.990035 0.352743 0.099381
Si Si3 0.500000 0.500000 0.819868
Si Si4 0.750000 0.236880 0.505685
Si Si5 0.250000 0.289544 0.022311
Si Si6 0.000000 0.500000 0.600187
Si Si7 0.750000 0.526163 0.509532
Si Si8 0.594920 0.307775 0.711227
O O1 0.375632 0.482788 0.866813
O O2 0.250000 0.643339 0.942685
O O3 0.250000 0.408777 0.974313
O O4 0.960468 0.317656 0.177718
O O5 0.000000 0.500000 0.091626
O O6 0.124421 0.298648 0.070638
O O7 0.874481 0.298231 0.052115
O O8 0.527363 0.378112 0.773770
O O9 0.750000 0.382547 0.484221
O O10 0.250000 0.163807 0.976475
O O11 0.119896 0.465004 0.553564
O O12 0.061619 0.600975 0.649399
O O13 0.750000 0.299528 0.722558
#
# Coordination Sequence:
#
# PCOD9380797 Si02
#       8
#     4   8   4   4   4   4   4   8
#     4  12  24  45  62  90 131 178 230 254 304 390
#     4  12  21  37  62 100 130 167 201 269 351 378
#     4  11  26  42  68  86 122 184 229 258 298 381
#     4  12  22  39  64  90 134 173 204 263 332 388
#     4  12  24  35  64 100 134 163 214 273 316 388
#     4  11  18  30  56  88 128 144 189 250 318 381
#     4  12  20  35  56  98 123 168 194 254 334 378
#     4  11  21  38  62  91 122 163 213 268 320 370
#
# _framework density 18.209078999999999
#
# number of rings (size 3 to 8) (size 9 to 14) (size 15 to 20)
#    0.000    0.400    9.000    1.200    0.000    0.800 
#    0.000    0.000    4.400    0.000    0.000    0.000 
#    0.000    0.000    0.000    0.000    0.000    0.000 
#
# Total GULP energy -111438.184551 kJ/mol
# GULP energy per Si atom -5571.909228 kJ/mol
# Density = 1.816763 g / cm^3
# Si number density = 18.209079 Si / 1000 Ang^3
#
#
#
# Elastic Constant Matrix: (Units=GPa)
#
#
# Indices 1 2 3 4 5 6 
#
# 1 168.5519 29.0633 52.7911 0.0000 0.0000 0.0000
# 2 29.0633 138.4930 19.8996 0.0000 0.0000 0.0000
# 3 52.7911 19.8996 70.5395 0.0000 0.0000 0.0000
# 4 0.0000 0.0000 0.0000 -33.1215 0.0000 0.0000
# 5 0.0000 0.0000 0.0000 0.0000 32.8452 0.0000
# 6 0.0000 0.0000 0.0000 0.0000 0.0000 10.2078
#
#
#
# Elastic Compliance Matrix: (Units=1/GPa)
#
#
# Indices 1 2 3 4 5 6 
#
# 1 0.007841 -0.000836 -0.005632 0.000000 0.000000 0.000000
# 2 -0.000836 0.007615 -0.001522 0.000000 0.000000 0.000000
# 3 -0.005632 -0.001522 0.018821 0.000000 0.000000 0.000000
# 4 0.000000 0.000000 0.000000 -0.030192 0.000000 0.000000
# 5 0.000000 0.000000 0.000000 0.000000 0.030446 0.000000
# 6 0.000000 0.000000 0.000000 0.000000 0.000000 0.097964
#
#
# Mechanical properties :
#
#
# Convention : Reuss Voigt Hill
#
# Bulk Modulus (GPa) = 54.65909 64.56584 59.61247
# Shear Modulus (GPa) = 32.34673 20.37500 26.36086
#
# Velocity S-wave (km/s) = 4.21932 3.34870 3.80896
# Velocity P-wave (km/s) = 7.33618 7.10540 7.22171
#
# Compressibility (1/GPa) = 0.01829522
#
# Stress axis : x y z
#
# Youngs Moduli (GPa) = 127.53242 131.32309 53.13186
#
# Poissons Ratio (x) = 0.10981 0.29926
# Poissons Ratio (y) = 0.10664 0.08089
# Poissons Ratio (z) = 0.71831 0.19992
#
# Static dielectric constant tensor:
#      x y z
#    x 1.607180 0.000000 0.000000 
#    y 0.000000 1.786840 0.000000 
#    z 0.000000 0.000000 1.604320 
# 
# From -- ./inp_files/20868.got.cif
#   From: 2010.05.17/outbox.cif.g08.bks.cpg/sg46_11_cif.got.tgz:20868.got - 2010.06.03 19:58:25.
