data_PCOD9380336
_publ_section_title
;
Structure prediction by ZEFSAII (Michael W. Deem and Ramdas Pophale) SiO2 
 PCOD9380336
Probable space group: I M A 2
;
_chemical_formula_sum "Si O2"
_cell_formula_units_Z 64
_cell_length_a 14.553950
_cell_length_b 11.490482
_cell_length_c 17.429677
_cell_angle_alpha 90.000000
_cell_angle_beta 90.000000
_cell_angle_gamma 90.000000
_cell_volume 2914.798010
_symmetry_space_group_name_H-M "I M A 2"
_symmetry_group_IT_number 46
_symmetry_cell_setting 'orthorhombic'
loop_
_space_group_symop_operation_xyz
x,y,z
-x,-y,z
1/2-x,y,z
1/2+x,-y,z
1/2+x,1/2+y,1/2+z
1/2-x,1/2-y,1/2+z
-x,1/2+y,1/2+z
x,1/2-y,1/2+z
loop_
_atom_site_type_symbol
_atom_site_label
_atom_site_fract_x
_atom_site_fract_y
_atom_site_fract_z
Si Si1 0.395563 0.030734 0.329220
Si Si2 0.985292 0.379873 0.420917
Si Si3 0.855392 0.481824 0.555149
Si Si4 0.359920 0.174228 0.176312
Si Si5 0.649264 0.265202 0.818731
Si Si6 0.148091 0.748675 0.139737
Si Si7 0.355840 0.295388 0.964775
Si Si8 0.030431 0.128718 0.609206
O O1 0.389819 0.098735 0.248943
O O2 0.356575 0.116577 0.393224
O O3 0.500000 0.000000 0.348676
O O4 0.349722 0.904787 0.323107
O O5 0.922753 0.428611 0.491443
O O6 0.927394 0.287777 0.372924
O O7 0.000000 0.500000 0.374551
O O8 0.079785 0.315551 0.444268
O O9 0.750000 0.491414 0.526632
O O10 0.882165 0.600292 0.599117
O O11 0.853860 0.385367 0.622346
O O12 0.250000 0.191002 0.178933
O O13 0.415435 0.294289 0.171702
O O14 0.750000 0.220899 0.842040
O O15 0.633467 0.231030 0.730109
O O16 0.250000 0.705371 0.118573
O O17 0.066213 0.691883 0.092825
O O18 0.250000 0.264527 0.982652
O O19 0.404349 0.362706 0.035128
O O20 0.000000 0.000000 0.631571
#
# Coordination Sequence:
#
# PCOD9380336 Si02
#       8
#     8   8   8   8   8   8   8   8
#     4  12  23  44  76 107 137 181 236 304 362 420
#     4  12  26  43  68 101 147 191 230 284 361 437
#     4  10  21  41  73 108 137 174 231 296 360 419
#     4  11  24  44  75 111 142 181 238 305 364 421
#     4  11  23  44  73 106 138 175 229 295 359 426
#     4  10  22  43  70 102 135 172 229 300 356 415
#     4  12  27  47  68 100 145 189 239 299 363 431
#     4  12  27  45  67  97 141 193 236 284 356 432
#
# _framework density 21.956925999999999
#
# number of rings (size 3 to 8) (size 9 to 14) (size 15 to 20)
#    0.000    0.750    3.750    3.750    0.000    3.500 
#    0.000    0.000    0.000    0.000    0.000    0.000 
#    0.000    0.000    0.000    0.000    0.000    0.000 
#
# Total GULP energy -178996.261751 kJ/mol
# GULP energy per Si atom -5593.633180 kJ/mol
# Density = 2.190695 g / cm^3
# Si number density = 21.956926 Si / 1000 Ang^3
#
#
#
# Elastic Constant Matrix: (Units=GPa)
#
#
# Indices 1 2 3 4 5 6 
#
# 1 144.0483 38.9090 32.8380 0.0000 0.0000 0.0000
# 2 38.9090 134.0231 27.9736 0.0000 0.0000 0.0000
# 3 32.8380 27.9736 67.7072 0.0000 0.0000 0.0000
# 4 0.0000 0.0000 0.0000 29.4356 0.0000 0.0000
# 5 0.0000 0.0000 0.0000 0.0000 20.7338 0.0000
# 6 0.0000 0.0000 0.0000 0.0000 0.0000 3.3607
#
#
#
# Elastic Compliance Matrix: (Units=1/GPa)
#
#
# Indices 1 2 3 4 5 6 
#
# 1 0.008138 -0.001684 -0.003251 0.000000 0.000000 0.000000
# 2 -0.001684 0.008514 -0.002701 0.000000 0.000000 0.000000
# 3 -0.003251 -0.002701 0.017462 0.000000 0.000000 0.000000
# 4 0.000000 0.000000 0.000000 0.033972 0.000000 0.000000
# 5 0.000000 0.000000 0.000000 0.000000 0.048230 0.000000
# 6 0.000000 0.000000 0.000000 0.000000 0.000000 0.297557
#
#
# Mechanical properties :
#
#
# Convention : Reuss Voigt Hill
#
# Bulk Modulus (GPa) = 53.07256 60.57998 56.82627
# Shear Modulus (GPa) = 11.48297 27.10989 19.29643
#
# Velocity S-wave (km/s) = 2.28935 3.51762 2.96772
# Velocity P-wave (km/s) = 5.58676 6.64443 6.13842
#
# Compressibility (1/GPa) = 0.01884213
#
# Stress axis : x y z
#
# Youngs Moduli (GPa) = 122.87789 117.45317 57.26645
#
# Poissons Ratio (x) = 0.19779 0.18619
# Poissons Ratio (y) = 0.20693 0.15467
# Poissons Ratio (z) = 0.39951 0.31723
#
# Static dielectric constant tensor:
#      x y z
#    x 1.850090 0.000000 0.000000 
#    y 0.000000 1.821250 0.000000 
#    z 0.000000 0.000000 1.791260 
# 
# From -- ./inp_files/19645.got.cif
#   From: 2010.05.17/outbox.cif.g08.bks.cpg/sg46_10_cif.got.tgz:19645.got - 2010.06.03 19:58:25.
