data_PCOD9380247
_publ_section_title
;
Structure prediction by ZEFSAII (Michael W. Deem and Ramdas Pophale) SiO2 
 PCOD9380247
Probable space group: I M A 2
;
_chemical_formula_sum "Si O2"
_cell_formula_units_Z 60
_cell_length_a 7.630549
_cell_length_b 16.581970
_cell_length_c 19.737433
_cell_angle_alpha 90.000000
_cell_angle_beta 90.000000
_cell_angle_gamma 90.000000
_cell_volume 2497.368212
_symmetry_space_group_name_H-M "I M A 2"
_symmetry_group_IT_number 46
_symmetry_cell_setting 'orthorhombic'
loop_
_space_group_symop_operation_xyz
x,y,z
-x,-y,z
1/2-x,y,z
1/2+x,-y,z
1/2+x,1/2+y,1/2+z
1/2-x,1/2-y,1/2+z
-x,1/2+y,1/2+z
x,1/2-y,1/2+z
loop_
_atom_site_type_symbol
_atom_site_label
_atom_site_fract_x
_atom_site_fract_y
_atom_site_fract_z
Si Si1 0.540313 0.406490 0.878110
Si Si2 0.958814 0.086458 0.134779
Si Si3 0.957355 0.588842 0.114571
Si Si4 0.963422 0.298581 0.752713
Si Si5 0.250000 0.927774 0.881281
Si Si6 0.045926 0.704915 0.998419
Si Si7 0.045758 0.386368 0.269228
Si Si8 0.938421 0.613576 0.484046
O O1 0.500000 0.500000 0.878310
O O2 0.750000 0.399393 0.879013
O O3 0.479950 0.360106 0.811333
O O4 0.475695 0.359633 0.944360
O O5 0.750000 0.093417 0.125300
O O6 0.015453 0.160957 0.181638
O O7 0.000000 0.000000 0.168506
O O8 0.047689 0.086594 0.061792
O O9 0.750000 0.600001 0.113161
O O10 0.011434 0.590448 0.192991
O O11 0.000000 0.500000 0.085943
O O12 0.035607 0.661401 0.070837
O O13 0.750000 0.292385 0.753339
O O14 0.036972 0.211014 0.768705
O O15 0.406360 0.918472 0.822814
O O16 0.403423 0.918830 0.940149
O O17 0.250000 0.722592 0.983982
O O18 0.951629 0.789463 0.989013
O O19 0.250000 0.410327 0.281426
O O20 0.750000 0.590043 0.453665
#
# Coordination Sequence:
#
# PCOD9380247 Si02
#       8
#     8   8   8   8   4   8   8   8
#     4  10  22  37  57  92 136 176 223 269 331 407
#     4  11  23  42  68 100 139 184 232 291 350 408
#     4  11  25  43  67  99 136 179 235 287 350 414
#     4  10  21  39  67  97 136 185 226 277 342 410
#     4  12  24  46  70  98 136 176 220 294 348 406
#     4  11  22  39  67 100 137 185 227 281 342 409
#     4  11  25  43  71 102 134 177 234 287 349 418
#     4  12  25  44  72 102 137 179 234 286 349 420
#
# _framework density 24.025289999999998
#
# number of rings (size 3 to 8) (size 9 to 14) (size 15 to 20)
#    0.000    1.067    2.000    4.000    3.733    5.867 
#    0.000    0.667    0.000    0.000    0.000    0.000 
#    0.000    0.000    0.000    0.000    0.000    0.000 
#
# Total GULP energy -167624.395838 kJ/mol
# GULP energy per Si atom -5587.479861 kJ/mol
# Density = 2.397061 g / cm^3
# Si number density = 24.025290 Si / 1000 Ang^3
#
#
#
# Elastic Constant Matrix: (Units=GPa)
#
#
# Indices 1 2 3 4 5 6 
#
# 1 144.4429 16.3944 44.0001 0.0000 0.0000 0.0000
# 2 16.3944 149.9624 22.2665 0.0000 0.0000 0.0000
# 3 44.0001 22.2665 116.0031 0.0000 0.0000 0.0000
# 4 0.0000 0.0000 0.0000 31.1999 0.0000 0.0000
# 5 0.0000 0.0000 0.0000 0.0000 230.3505 0.0000
# 6 0.0000 0.0000 0.0000 0.0000 0.0000 32.7891
#
#
#
# Elastic Compliance Matrix: (Units=1/GPa)
#
#
# Indices 1 2 3 4 5 6 
#
# 1 0.007854 -0.000429 -0.002897 0.000000 0.000000 0.000000
# 2 -0.000429 0.006887 -0.001159 0.000000 0.000000 0.000000
# 3 -0.002897 -0.001159 0.009942 0.000000 0.000000 0.000000
# 4 0.000000 0.000000 0.000000 0.032051 0.000000 0.000000
# 5 0.000000 0.000000 0.000000 0.000000 0.004341 0.000000
# 6 0.000000 0.000000 0.000000 0.000000 0.000000 0.030498
#
#
# Mechanical properties :
#
#
# Convention : Reuss Voigt Hill
#
# Bulk Modulus (GPa) = 63.63888 63.97004 63.80446
# Shear Modulus (GPa) = 47.26726 80.71775 63.99251
#
# Velocity S-wave (km/s) = 4.44035 5.80258 5.16656
# Velocity P-wave (km/s) = 7.26875 8.46033 7.88707
#
# Compressibility (1/GPa) = 0.01571366
#
# Stress axis : x y z
#
# Youngs Moduli (GPa) = 127.31997 145.19389 100.58547
#
# Poissons Ratio (x) = 0.06222 0.29138
# Poissons Ratio (y) = 0.05456 0.11663
# Poissons Ratio (z) = 0.36883 0.16835
#
# Static dielectric constant tensor:
#      x y z
#    x 1.870990 0.000000 0.000000 
#    y 0.000000 1.919990 0.000000 
#    z 0.000000 0.000000 1.887150 
# 
# From -- ./inp_files/18387.got.cif
#   From: 2010.05.17/outbox.cif.g08.bks.cpg/sg46_10_cif.got.tgz:18387.got - 2010.06.03 19:58:25.
