data_PCOD9380090
_publ_section_title
;
Structure prediction by ZEFSAII (Michael W. Deem and Ramdas Pophale) SiO2 
 PCOD9380090
Probable space group: I M A 2
;
_chemical_formula_sum "Si O2"
_cell_formula_units_Z 60
_cell_length_a 31.430407
_cell_length_b 11.321619
_cell_length_c 8.033574
_cell_angle_alpha 90.000000
_cell_angle_beta 90.000000
_cell_angle_gamma 90.000000
_cell_volume 2858.691821
_symmetry_space_group_name_H-M "I M A 2"
_symmetry_group_IT_number 46
_symmetry_cell_setting 'orthorhombic'
loop_
_space_group_symop_operation_xyz
x,y,z
-x,-y,z
1/2-x,y,z
1/2+x,-y,z
1/2+x,1/2+y,1/2+z
1/2-x,1/2-y,1/2+z
-x,1/2+y,1/2+z
x,1/2-y,1/2+z
loop_
_atom_site_type_symbol
_atom_site_label
_atom_site_fract_x
_atom_site_fract_y
_atom_site_fract_z
Si Si1 0.700176 0.857483 0.025980
Si Si2 0.641773 0.082190 0.467006
Si Si3 0.886990 0.275911 0.683046
Si Si4 0.605155 0.634767 0.605564
Si Si5 0.070296 0.590467 0.421148
Si Si6 0.073643 0.388683 0.976439
Si Si7 0.500000 0.000000 0.681174
Si Si8 0.702624 0.908357 0.643372
O O1 0.750000 0.899000 0.062248
O O2 0.656324 0.884619 0.126569
O O3 0.702993 0.717013 0.051201
O O4 0.688410 0.889107 0.834687
O O5 0.643546 0.207173 0.558890
O O6 0.636352 0.118460 0.276637
O O7 0.599960 0.007638 0.517897
O O8 0.678103 0.998645 0.529402
O O9 0.928043 0.333134 0.591856
O O10 0.900222 0.173162 0.808442
O O11 0.588247 0.538146 0.472568
O O12 0.578768 0.619867 0.776910
O O13 0.595555 0.768962 0.545205
O O14 0.028875 0.573669 0.310125
O O15 0.028424 0.414910 0.062907
O O16 0.750000 0.953374 0.660445
#
# Coordination Sequence:
#
# PCOD9380090 Si02
#       8
#     8   8   8   8   8   8   4   8
#     4  10  21  37  66 107 149 183 222 279 350 435
#     4  11  21  44  65  95 130 182 227 280 337 417
#     4  10  23  42  70  91 125 181 231 270 337 413
#     4  12  24  44  71 108 141 186 227 290 364 417
#     4  11  24  44  69  97 129 178 226 286 345 412
#     4  12  26  44  69  99 140 180 226 294 355 422
#     4  12  28  48  68 102 132 178 232 298 360 416
#     4  10  21  37  65 102 144 183 226 282 341 416
#
# _framework density 20.988621999999999
#
# number of rings (size 3 to 8) (size 9 to 14) (size 15 to 20)
#    0.000    1.067    4.000    2.400    0.000    2.667 
#    0.000    0.667    0.000    3.200    0.000    0.000 
#    0.000    0.000    0.000    0.000    0.000    0.000 
#
# Total GULP energy -167124.973259 kJ/mol
# GULP energy per Si atom -5570.832442 kJ/mol
# Density = 2.094085 g / cm^3
# Si number density = 20.988622 Si / 1000 Ang^3
#
#
#
# Elastic Constant Matrix: (Units=GPa)
#
#
# Indices 1 2 3 4 5 6 
#
# 1 77.3976 31.2257 42.9007 0.0000 0.0000 0.0000
# 2 31.2257 91.0920 37.3540 -0.0001 0.0000 0.0000
# 3 42.9007 37.3540 98.4729 -0.0001 -0.0001 0.0000
# 4 0.0000 -0.0001 -0.0001 41.1526 0.0000 0.0000
# 5 0.0000 0.0000 -0.0001 0.0000 21.5759 0.0000
# 6 0.0000 0.0000 0.0000 0.0000 0.0000 9.6288
#
#
#
# Elastic Compliance Matrix: (Units=1/GPa)
#
#
# Indices 1 2 3 4 5 6 
#
# 1 0.017921 -0.003483 -0.006486 0.000000 0.000000 0.000000
# 2 -0.003483 0.013677 -0.003671 0.000000 0.000000 0.000000
# 3 -0.006486 -0.003671 0.014373 0.000000 0.000000 0.000000
# 4 0.000000 0.000000 0.000000 0.024300 0.000000 0.000000
# 5 0.000000 0.000000 0.000000 0.000000 0.046348 0.000000
# 6 0.000000 0.000000 0.000000 0.000000 0.000000 0.103856
#
#
# Mechanical properties :
#
#
# Convention : Reuss Voigt Hill
#
# Bulk Modulus (GPa) = 53.50147 54.43593 53.96870
# Shear Modulus (GPa) = 19.68619 24.83691 22.26155
#
# Velocity S-wave (km/s) = 3.06591 3.44372 3.26029
# Velocity P-wave (km/s) = 6.17083 6.46564 6.31995
#
# Compressibility (1/GPa) = 0.01869107
#
# Stress axis : x y z
#
# Youngs Moduli (GPa) = 55.80111 73.11435 69.57407
#
# Poissons Ratio (x) = 0.25469 0.45126
# Poissons Ratio (y) = 0.19438 0.25538
# Poissons Ratio (z) = 0.36193 0.26838
#
# Static dielectric constant tensor:
#      x y z
#    x 1.807450 0.000000 0.000000 
#    y 0.000000 1.736300 0.000000 
#    z 0.000000 0.000000 1.896480 
# 
# From -- ./inp_files/8222.got.cif
#   From: 2010.05.17/outbox.cif.g08.bks.cpg/sg46_5_cif.got.tgz:8222.got - 2010.06.03 19:58:25.
