data_PCOD9380405
_publ_section_title
;
Structure prediction by ZEFSAII (Michael W. Deem and Ramdas Pophale) SiO2 
 PCOD9380405
Probable space group: I M A 2
;
_chemical_formula_sum "Si O2"
_cell_formula_units_Z 60
_cell_length_a 17.051082
_cell_length_b 15.104393
_cell_length_c 10.577913
_cell_angle_alpha 90.000000
_cell_angle_beta 90.000000
_cell_angle_gamma 90.000000
_cell_volume 2724.301758
_symmetry_space_group_name_H-M "I M A 2"
_symmetry_group_IT_number 46
_symmetry_cell_setting 'orthorhombic'
loop_
_space_group_symop_operation_xyz
x,y,z
-x,-y,z
1/2-x,y,z
1/2+x,-y,z
1/2+x,1/2+y,1/2+z
1/2-x,1/2-y,1/2+z
-x,1/2+y,1/2+z
x,1/2-y,1/2+z
loop_
_atom_site_type_symbol
_atom_site_label
_atom_site_fract_x
_atom_site_fract_y
_atom_site_fract_z
Si Si1 0.250000 0.652303 0.461720
Si Si2 0.611227 0.366347 0.296356
Si Si3 0.512183 0.776212 0.963998
Si Si4 0.406821 0.006844 0.169205
Si Si5 0.840869 0.615176 0.437936
Si Si6 0.156237 0.030182 0.662421
Si Si7 0.880930 0.306010 0.654540
Si Si8 0.058418 0.083505 0.424968
O O1 0.318754 0.600098 0.383681
O O2 0.181217 0.702417 0.542549
O O3 0.531917 0.346661 0.372162
O O4 0.611035 0.436049 0.182849
O O5 0.638688 0.268612 0.254765
O O6 0.602012 0.803368 0.966957
O O7 0.509701 0.674678 0.920985
O O8 0.466496 0.785994 0.096314
O O9 0.377155 0.907528 0.197809
O O10 0.500000 0.000000 0.141626
O O11 0.397442 0.068265 0.291800
O O12 0.364494 0.045273 0.046879
O O13 0.750000 0.636775 0.449979
O O14 0.855251 0.582291 0.294524
O O15 0.250000 0.017498 0.641999
O O16 0.115918 0.079358 0.544814
O O17 0.000000 0.000000 0.433049
#
# Coordination Sequence:
#
# PCOD9380405 Si02
#       8
#     4   8   8   8   8   8   8   8
#     4  10  22  38  60 100 136 176 232 286 336 426
#     4  11  22  41  67  99 139 184 235 292 350 431
#     4  11  25  43  73  97 136 185 242 286 354 428
#     4  11  23  44  70 103 140 181 235 290 349 420
#     4  11  26  45  72 104 131 184 247 294 343 418
#     4  11  26  45  69 103 144 184 236 293 360 424
#     4  11  23  40  66  99 136 184 232 281 353 424
#     4  11  26  46  69 106 143 180 230 294 362 420
#
# _framework density 22.023992
#
# number of rings (size 3 to 8) (size 9 to 14) (size 15 to 20)
#    0.000    1.067    2.000    4.400    6.533    2.133 
#    0.000    1.333    0.000    0.000    0.000    0.000 
#    0.000    0.000    0.000    0.000    0.000    0.000 
#
# Total GULP energy -167201.950155 kJ/mol
# GULP energy per Si atom -5573.398338 kJ/mol
# Density = 2.197386 g / cm^3
# Si number density = 22.023992 Si / 1000 Ang^3
#
#
#
# Elastic Constant Matrix: (Units=GPa)
#
#
# Indices 1 2 3 4 5 6 
#
# 1 113.0066 20.8038 37.1869 0.0000 0.0000 0.0000
# 2 20.8038 78.9752 7.3801 0.0000 0.0000 0.0000
# 3 37.1869 7.3801 103.9878 0.0000 0.0000 0.0000
# 4 0.0000 0.0000 0.0000 18.0537 0.0000 0.0000
# 5 0.0000 0.0000 0.0000 0.0000 211.5339 0.0000
# 6 0.0000 0.0000 0.0000 0.0000 0.0000 10.2274
#
#
#
# Elastic Compliance Matrix: (Units=1/GPa)
#
#
# Indices 1 2 3 4 5 6 
#
# 1 0.010471 -0.002424 -0.003572 0.000000 0.000000 0.000000
# 2 -0.002424 0.013308 -0.000077 0.000000 0.000000 0.000000
# 3 -0.003572 -0.000077 0.010900 0.000000 0.000000 0.000000
# 4 0.000000 0.000000 0.000000 0.055390 0.000000 0.000000
# 5 0.000000 0.000000 0.000000 0.000000 0.004727 0.000000
# 6 0.000000 0.000000 0.000000 0.000000 0.000000 0.097777
#
#
# Mechanical properties :
#
#
# Convention : Reuss Voigt Hill
#
# Bulk Modulus (GPa) = 44.38553 47.41235 45.89894
# Shear Modulus (GPa) = 23.55914 63.33625 43.44770
#
# Velocity S-wave (km/s) = 3.27418 5.36845 4.44638
# Velocity P-wave (km/s) = 5.87288 7.74605 6.87357
#
# Compressibility (1/GPa) = 0.02252986
#
# Stress axis : x y z
#
# Youngs Moduli (GPa) = 95.50249 75.14229 91.74702
#
# Poissons Ratio (x) = 0.18218 0.32776
# Poissons Ratio (y) = 0.23154 0.00711
# Poissons Ratio (z) = 0.34118 0.00582
#
# Static dielectric constant tensor:
#      x y z
#    x 1.731560 0.000000 0.000000 
#    y 0.000000 1.826250 0.000000 
#    z 0.000000 0.000000 1.888310 
# 
# From -- ./inp_files/11933.got.cif
#   From: 2010.05.17/outbox.cif.g08.bks.cpg/sg46_6_cif.got.tgz:11933.got - 2010.06.03 19:58:25.
