data_PCOD9380743
_publ_section_title
;
Structure prediction by ZEFSAII (Michael W. Deem and Ramdas Pophale) SiO2 
 PCOD9380743
Probable space group: I M A 2
;
_chemical_formula_sum "Si O2"
_cell_formula_units_Z 36
_cell_length_a 18.477011
_cell_length_b 7.492913
_cell_length_c 10.724058
_cell_angle_alpha 90.000000
_cell_angle_beta 90.000000
_cell_angle_gamma 90.000000
_cell_volume 1484.709754
_symmetry_space_group_name_H-M "I M A 2"
_symmetry_group_IT_number 46
_symmetry_cell_setting 'orthorhombic'
loop_
_space_group_symop_operation_xyz
x,y,z
-x,-y,z
1/2-x,y,z
1/2+x,-y,z
1/2+x,1/2+y,1/2+z
1/2-x,1/2-y,1/2+z
-x,1/2+y,1/2+z
x,1/2-y,1/2+z
loop_
_atom_site_type_symbol
_atom_site_label
_atom_site_fract_x
_atom_site_fract_y
_atom_site_fract_z
Si Si1 0.250000 0.205957 0.720580
Si Si2 0.986288 0.208222 0.987178
Si Si3 0.250000 0.877471 0.144033
Si Si4 0.750000 0.064415 0.495668
Si Si5 0.092455 0.684046 0.735434
Si Si6 0.876235 0.643717 0.860839
O O1 0.250000 0.405917 0.653819
O O2 0.250000 0.047458 0.623707
O O3 0.176810 0.207816 0.803079
O O4 0.949184 0.263203 0.116588
O O5 0.936452 0.241136 0.865649
O O6 0.000000 0.000000 0.994635
O O7 0.063010 0.298113 0.956836
O O8 0.250000 0.776954 0.011584
O O9 0.322551 0.802033 0.206577
O O10 0.679819 0.991370 0.425179
O O11 0.084484 0.467996 0.751536
#
# Coordination Sequence:
#
# PCOD9380743 Si02
#       6
#     4   8   4   4   8   8
#     4   9  23  43  70 103 147 184 237 314 356 442
#     4  12  27  42  73 103 142 194 243 293 379 434
#     4  10  24  44  73 103 142 185 252 292 376 429
#     4  11  23  43  79 102 139 199 235 308 372 445
#     4  11  26  48  69 103 146 190 235 317 353 441
#     4  10  24  46  65 104 147 184 244 307 364 429
#
# _framework density 24.247164999999999
#
# number of rings (size 3 to 8) (size 9 to 14) (size 15 to 20)
#    0.000    1.333    0.000    4.000   12.444    2.667 
#    0.000    2.222    0.000    0.000    0.000    0.000 
#    0.000    0.000    0.000    0.000    0.000    0.000 
#
# Total GULP energy -100689.822992 kJ/mol
# GULP energy per Si atom -5593.879055 kJ/mol
# Density = 2.419198 g / cm^3
# Si number density = 24.247165 Si / 1000 Ang^3
#
#
#
# Elastic Constant Matrix: (Units=GPa)
#
#
# Indices 1 2 3 4 5 6 
#
# 1 164.1814 30.9472 56.1940 0.0000 0.0000 0.0000
# 2 30.9472 52.5800 21.1960 0.0000 0.0000 0.0000
# 3 56.1940 21.1960 130.5712 0.0000 0.0000 0.0000
# 4 0.0000 0.0000 0.0000 44.0229 0.0000 0.0000
# 5 0.0000 0.0000 0.0000 0.0000 -2.1341 0.0000
# 6 0.0000 0.0000 0.0000 0.0000 0.0000 20.4437
#
#
#
# Elastic Compliance Matrix: (Units=1/GPa)
#
#
# Indices 1 2 3 4 5 6 
#
# 1 0.007674 -0.003409 -0.002750 0.000000 0.000000 0.000000
# 2 -0.003409 0.021864 -0.002082 0.000000 0.000000 0.000000
# 3 -0.002750 -0.002082 0.009180 0.000000 0.000000 0.000000
# 4 0.000000 0.000000 0.000000 0.022715 0.000000 0.000000
# 5 0.000000 0.000000 0.000000 0.000000 -0.468583 0.000000
# 6 0.000000 0.000000 0.000000 0.000000 0.000000 0.048915
#
#
# Mechanical properties :
#
#
# Convention : Reuss Voigt Hill
#
# Bulk Modulus (GPa) = 44.96845 62.66742 53.81794
# Shear Modulus (GPa) = -14.95480 28.39953 6.72237
#
# Velocity S-wave (km/s) = -2.48617 3.42607 1.66687
# Velocity P-wave (km/s) = 3.21632 6.44608 5.09395
#
# Compressibility (1/GPa) = 0.02223781
#
# Stress axis : x y z
#
# Youngs Moduli (GPa) = 130.30359 45.73678 108.93249
#
# Poissons Ratio (x) = 0.15590 0.29951
# Poissons Ratio (y) = 0.44415 0.22683
# Poissons Ratio (z) = 0.35827 0.09524
#
# Static dielectric constant tensor:
#      x y z
#    x 2.007940 0.000000 0.000000 
#    y 0.000000 1.953440 0.000000 
#    z 0.000000 0.000000 2.016040 
# 
# From -- ./inp_files/7176.got.cif
#   From: 2010.05.17/outbox.cif.g08.bks.cpg/sg46_4_cif.got.tgz:7176.got - 2010.06.03 19:58:25.
