data_PCOD9380523
_publ_section_title
;
Structure prediction by ZEFSAII (Michael W. Deem and Ramdas Pophale) SiO2 
 PCOD9380523
Probable space group: I M A 2
;
_chemical_formula_sum "Si O2"
_cell_formula_units_Z 32
_cell_length_a 14.836487
_cell_length_b 20.533483
_cell_length_c 5.151667
_cell_angle_alpha 90.000000
_cell_angle_beta 90.000000
_cell_angle_gamma 90.000000
_cell_volume 1569.428324
_symmetry_space_group_name_H-M "I M A 2"
_symmetry_group_IT_number 46
_symmetry_cell_setting 'orthorhombic'
loop_
_space_group_symop_operation_xyz
x,y,z
-x,-y,z
1/2-x,y,z
1/2+x,-y,z
1/2+x,1/2+y,1/2+z
1/2-x,1/2-y,1/2+z
-x,1/2+y,1/2+z
x,1/2-y,1/2+z
loop_
_atom_site_type_symbol
_atom_site_label
_atom_site_fract_x
_atom_site_fract_y
_atom_site_fract_z
Si Si1 0.423656 0.793108 0.592390
Si Si2 0.541829 0.588374 0.147205
Si Si3 0.651491 0.426766 0.987303
Si Si4 0.645353 0.538813 0.644616
O O1 0.415877 0.737546 0.376564
O O2 0.516046 0.835548 0.603176
O O3 0.352732 0.848927 0.506571
O O4 0.441444 0.556523 0.132711
O O5 0.588480 0.569206 0.413607
O O6 0.604878 0.567455 0.910341
O O7 0.750000 0.449572 0.084720
O O8 0.640564 0.460704 0.705209
O O9 0.750000 0.554861 0.610559
#
# Coordination Sequence:
#
# PCOD9380523 Si02
#       4
#     8   8   8   8
#     4  10  22  41  64  94 133 175 218 260 317 397
#     4  10  23  40  65  94 134 169 214 269 330 380
#     4   9  23  40  66 101 133 168 213 264 330 402
#     4  11  22  42  66  96 129 166 218 274 330 388
#
# _framework density 20.389592
#
# number of rings (size 3 to 8) (size 9 to 14) (size 15 to 20)
#    1.500    0.500    0.000    3.000    0.000    7.000 
#    0.000    8.750    0.000   16.500    0.000    0.000 
#    0.000    0.000    0.000    0.000    0.000    0.000 
#
# Total GULP energy -89075.181810 kJ/mol
# GULP energy per Si atom -5567.198863 kJ/mol
# Density = 2.034318 g / cm^3
# Si number density = 20.389592 Si / 1000 Ang^3
#
#
#
# Elastic Constant Matrix: (Units=GPa)
#
#
# Indices 1 2 3 4 5 6 
#
# 1 160.1450 26.6897 46.6592 0.0000 0.0000 0.0000
# 2 26.6897 45.3355 5.8257 0.0000 0.0000 0.0000
# 3 46.6592 5.8257 114.9587 0.0000 0.0000 0.0000
# 4 0.0000 0.0000 0.0000 33.4389 0.0000 0.0000
# 5 0.0000 0.0000 0.0000 0.0000 12.6205 0.0000
# 6 0.0000 0.0000 0.0000 0.0000 0.0000 19.2237
#
#
#
# Elastic Compliance Matrix: (Units=1/GPa)
#
#
# Indices 1 2 3 4 5 6 
#
# 1 0.007808 -0.004217 -0.002955 0.000000 0.000000 0.000000
# 2 -0.004217 0.024480 0.000471 0.000000 0.000000 0.000000
# 3 -0.002955 0.000471 0.009874 0.000000 0.000000 0.000000
# 4 0.000000 0.000000 0.000000 0.029905 0.000000 0.000000
# 5 0.000000 0.000000 0.000000 0.000000 0.079236 0.000000
# 6 0.000000 0.000000 0.000000 0.000000 0.000000 0.052019
#
#
# Mechanical properties :
#
#
# Convention : Reuss Voigt Hill
#
# Bulk Modulus (GPa) = 34.77097 53.19872 43.98485
# Shear Modulus (GPa) = 22.09329 29.14090 25.61710
#
# Velocity S-wave (km/s) = 3.29531 3.78458 3.54839
# Velocity P-wave (km/s) = 5.61864 6.72645 6.19735
#
# Compressibility (1/GPa) = 0.02875962
#
# Stress axis : x y z
#
# Youngs Moduli (GPa) = 128.06964 40.84986 101.27121
#
# Poissons Ratio (x) = 0.17227 0.29931
# Poissons Ratio (y) = 0.54008 -0.04770
# Poissons Ratio (z) = 0.37851 -0.01924
#
# Static dielectric constant tensor:
#      x y z
#    x 1.733040 0.000000 0.000000 
#    y 0.000000 1.828670 0.000000 
#    z 0.000000 0.000000 1.703750 
# 
# From -- ./inp_files/1124.got.cif
#   From: 2010.05.17/outbox.cif.g08.bks.cpg/sg46_1_cif.got.tgz:1124.got - 2010.06.03 19:58:25.
