data_PCOD9380674
_publ_section_title
;
Structure prediction by ZEFSAII (Michael W. Deem and Ramdas Pophale) SiO2 
 PCOD9380674
Probable space group: I M A 2
;
_chemical_formula_sum "Si O2"
_cell_formula_units_Z 32
_cell_length_a 21.915247
_cell_length_b 7.196622
_cell_length_c 7.984435
_cell_angle_alpha 90.000000
_cell_angle_beta 90.000000
_cell_angle_gamma 90.000000
_cell_volume 1259.271144
_symmetry_space_group_name_H-M "I M A 2"
_symmetry_group_IT_number 46
_symmetry_cell_setting 'orthorhombic'
loop_
_space_group_symop_operation_xyz
x,y,z
-x,-y,z
1/2-x,y,z
1/2+x,-y,z
1/2+x,1/2+y,1/2+z
1/2-x,1/2-y,1/2+z
-x,1/2+y,1/2+z
x,1/2-y,1/2+z
loop_
_atom_site_type_symbol
_atom_site_label
_atom_site_fract_x
_atom_site_fract_y
_atom_site_fract_z
Si Si1 0.679153 0.048882 0.016690
Si Si2 0.368046 0.554181 0.892722
Si Si3 0.403461 0.061843 0.715057
Si Si4 0.018499 0.815052 0.211765
O O1 0.750000 0.006825 0.998370
O O2 0.658865 0.014289 0.208707
O O3 0.666410 0.265540 0.967859
O O4 0.638395 0.952014 0.876086
O O5 0.440180 0.589277 0.853880
O O6 0.365887 0.409059 0.044443
O O7 0.455343 0.212774 0.741447
O O8 0.436231 0.860740 0.683831
O O9 0.000000 0.000000 0.101019
#
# Coordination Sequence:
#
# PCOD9380674 Si02
#       4
#     8   8   8   8
#     4  11  22  40  68 104 144 196 258 307 365 447
#     4  11  22  39  65 106 139 191 246 303 372 450
#     4  10  24  44  66 107 143 186 247 299 371 450
#     4  10  23  42  69 104 147 187 231 302 379 449
#
# _framework density 25.411525000000001
#
# number of rings (size 3 to 8) (size 9 to 14) (size 15 to 20)
#    0.000    1.500    5.000    0.750    3.500    3.000 
#    0.000    0.000    0.000    9.000    0.000    0.000 
#    0.000    0.000    0.000    0.000    0.000    0.000 
#
# Total GULP energy -89345.089629 kJ/mol
# GULP energy per Si atom -5584.068102 kJ/mol
# Density = 2.535369 g / cm^3
# Si number density = 25.411525 Si / 1000 Ang^3
#
#
#
# Elastic Constant Matrix: (Units=GPa)
#
#
# Indices 1 2 3 4 5 6 
#
# 1 174.4728 40.0572 82.6382 0.0000 0.0000 0.0000
# 2 40.0572 142.9377 55.6860 0.0000 0.0000 0.0000
# 3 82.6382 55.6860 217.9950 0.0000 0.0000 0.0000
# 4 0.0000 0.0000 0.0000 -1.1430 0.0000 0.0000
# 5 0.0000 0.0000 0.0000 0.0000 -5.9305 0.0000
# 6 0.0000 0.0000 0.0000 0.0000 0.0000 24.9765
#
#
#
# Elastic Compliance Matrix: (Units=1/GPa)
#
#
# Indices 1 2 3 4 5 6 
#
# 1 0.007125 -0.001049 -0.002433 0.000000 0.000000 0.000000
# 2 -0.001049 0.007924 -0.001626 0.000000 0.000000 0.000000
# 3 -0.002433 -0.001626 0.005925 0.000000 0.000000 0.000000
# 4 0.000000 0.000000 0.000000 -0.874865 0.000000 0.000000
# 5 0.000000 0.000000 0.000000 0.000000 -0.168621 0.000000
# 6 0.000000 0.000000 0.000000 0.000000 0.000000 0.040038
#
#
# Mechanical properties :
#
#
# Convention : Reuss Voigt Hill
#
# Bulk Modulus (GPa) = 92.96362 99.12982 96.04672
# Shear Modulus (GPa) = -5.16170 27.38220 11.11025
#
# Velocity S-wave (km/s) = -1.42676 3.28617 2.09323
# Velocity P-wave (km/s) = 5.82653 7.31389 6.61217
#
# Compressibility (1/GPa) = 0.01075690
#
# Stress axis : x y z
#
# Youngs Moduli (GPa) = 140.35684 126.20493 168.77572
#
# Poissons Ratio (x) = 0.13237 0.41062
# Poissons Ratio (y) = 0.14721 0.27451
# Poissons Ratio (z) = 0.34148 0.20527
#
# Static dielectric constant tensor:
#      x y z
#    x 1.950800 0.000000 0.000000 
#    y 0.000000 2.119420 0.000000 
#    z 0.000000 0.000000 2.040690 
# 
# From -- ./inp_files/7101.got.cif
#   From: 2010.05.17/outbox.cif.g08.bks.cpg/sg46_4_cif.got.tgz:7101.got - 2010.06.03 19:58:25.
