data_PCOD9380560
_publ_section_title
;
Structure prediction by ZEFSAII (Michael W. Deem and Ramdas Pophale) SiO2 
 PCOD9380560
Probable space group: I M A 2
;
_chemical_formula_sum "Si O2"
_cell_formula_units_Z 48
_cell_length_a 14.638864
_cell_length_b 15.196843
_cell_length_c 9.616542
_cell_angle_alpha 90.000000
_cell_angle_beta 90.000000
_cell_angle_gamma 90.000000
_cell_volume 2139.339380
_symmetry_space_group_name_H-M "I M A 2"
_symmetry_group_IT_number 46
_symmetry_cell_setting 'orthorhombic'
loop_
_space_group_symop_operation_xyz
x,y,z
-x,-y,z
1/2-x,y,z
1/2+x,-y,z
1/2+x,1/2+y,1/2+z
1/2-x,1/2-y,1/2+z
-x,1/2+y,1/2+z
x,1/2-y,1/2+z
loop_
_atom_site_type_symbol
_atom_site_label
_atom_site_fract_x
_atom_site_fract_y
_atom_site_fract_z
Si Si1 0.100219 0.039407 0.469450
Si Si2 0.146006 0.849580 0.391687
Si Si3 0.139631 0.705987 0.592279
Si Si4 0.015701 0.406925 0.511739
Si Si5 0.647565 0.889420 0.769307
Si Si6 0.642150 0.679928 0.736146
O O1 0.140048 0.069426 0.616339
O O2 0.106419 0.121629 0.365199
O O3 0.146992 0.954000 0.401664
O O4 0.000000 0.000000 0.491427
O O5 0.250000 0.818552 0.382775
O O6 0.112921 0.801727 0.532002
O O7 0.104372 0.813844 0.248328
O O8 0.250000 0.692177 0.589299
O O9 0.082301 0.639195 0.496831
O O10 0.069336 0.424571 0.369935
O O11 0.083179 0.347136 0.602882
O O12 0.000000 0.500000 0.586859
O O13 0.750000 0.907019 0.824008
O O14 0.635068 0.783965 0.761182
O O15 0.750000 0.659840 0.716481
#
# Coordination Sequence:
#
# PCOD9380560 Si02
#       6
#     8   8   8   8   8   8
#     4  12  25  42  69 106 137 182 239 293 363 421
#     4  10  22  42  67  96 136 185 234 289 354 431
#     4  10  24  43  67 100 140 187 234 290 365 430
#     4  12  26  42  66 102 137 179 232 287 352 412
#     4  11  26  46  69 100 139 186 235 291 352 416
#     4  11  24  45  72  99 136 186 235 291 350 418
#
# _framework density 22.436831000000002
#
# number of rings (size 3 to 8) (size 9 to 14) (size 15 to 20)
#    0.000    1.000    0.000    6.000    7.000    6.667 
#    0.000    1.667    0.000    0.000    0.000    0.000 
#    0.000    0.000    0.000    0.000    0.000    0.000 
#
# Total GULP energy -134132.824932 kJ/mol
# GULP energy per Si atom -5588.867706 kJ/mol
# Density = 2.238576 g / cm^3
# Si number density = 22.436831 Si / 1000 Ang^3
#
#
#
# Elastic Constant Matrix: (Units=GPa)
#
#
# Indices 1 2 3 4 5 6 
#
# 1 99.4687 30.6128 23.6870 0.0000 0.0000 0.0000
# 2 30.6128 90.5366 25.6839 0.0000 0.0000 0.0000
# 3 23.6870 25.6839 113.8721 0.0000 0.0000 0.0000
# 4 0.0000 0.0000 0.0000 37.0525 0.0000 0.0000
# 5 0.0000 0.0000 0.0000 0.0000 32.2469 0.0000
# 6 0.0000 0.0000 0.0000 0.0000 0.0000 33.3075
#
#
#
# Elastic Compliance Matrix: (Units=1/GPa)
#
#
# Indices 1 2 3 4 5 6 
#
# 1 0.011493 -0.003427 -0.001618 0.000000 0.000000 0.000000
# 2 -0.003427 0.012822 -0.002179 0.000000 0.000000 0.000000
# 3 -0.001618 -0.002179 0.009610 0.000000 0.000000 0.000000
# 4 0.000000 0.000000 0.000000 0.026989 0.000000 0.000000
# 5 0.000000 0.000000 0.000000 0.000000 0.031011 0.000000
# 6 0.000000 0.000000 0.000000 0.000000 0.000000 0.030023
#
#
# Mechanical properties :
#
#
# Convention : Reuss Voigt Hill
#
# Bulk Modulus (GPa) = 51.34228 51.53833 51.44031
# Shear Modulus (GPa) = 34.99216 35.44762 35.21989
#
# Velocity S-wave (km/s) = 3.95344 3.97909 3.96629
# Velocity P-wave (km/s) = 6.61607 6.64313 6.62961
#
# Compressibility (1/GPa) = 0.01947712
#
# Stress axis : x y z
#
# Youngs Moduli (GPa) = 87.00605 77.98911 104.06030
#
# Poissons Ratio (x) = 0.26729 0.16835
# Poissons Ratio (y) = 0.29820 0.22676
# Poissons Ratio (z) = 0.14076 0.16995
#
# Static dielectric constant tensor:
#      x y z
#    x 1.960230 0.000000 0.000000 
#    y 0.000000 1.803160 0.000000 
#    z 0.000000 0.000000 1.850460 
# 
# From -- ./inp_files/5727.got.cif
#   From: 2010.05.17/outbox.cif.g08.bks.cpg/sg46_3_cif.got.tgz:5727.got - 2010.06.03 19:58:25.
