data_PCOD9381277
_publ_section_title
;
Structure prediction by ZEFSAII (Michael W. Deem and Ramdas Pophale) SiO2 
 PCOD9381277
Probable space group: P M M M
;
_chemical_formula_sum "Si O2"
_cell_formula_units_Z 64
_cell_length_a 32.669677
_cell_length_b 7.712529
_cell_length_c 15.092003
_cell_angle_alpha 90.000000
_cell_angle_beta 90.000000
_cell_angle_gamma 90.000000
_cell_volume 3802.669082
_symmetry_space_group_name_H-M "P M M M"
_symmetry_group_IT_number 47
_symmetry_cell_setting 'orthorhombic'
loop_
_space_group_symop_operation_xyz
x,y,z
-x,-y,z
x,-y,-z
-x,y,-z
-x,-y,-z
x,y,-z
-x,y,z
x,-y,z
loop_
_atom_site_type_symbol
_atom_site_label
_atom_site_fract_x
_atom_site_fract_y
_atom_site_fract_z
Si Si1 0.279024 0.203757 0.898787
Si Si2 0.876378 0.712560 0.101858
Si Si3 0.078838 0.710855 0.597679
Si Si4 0.201136 0.294683 0.214900
Si Si5 0.544103 0.791836 0.897243
Si Si6 0.045352 0.712071 0.215151
Si Si7 0.824947 0.288808 0.402483
Si Si8 0.631892 0.294680 0.100679
O O1 0.243631 0.272501 0.835818
O O2 0.324889 0.232360 0.862043
O O3 0.272424 0.000000 0.905641
O O4 0.277077 0.277164 0.000000
O O5 0.875994 0.500000 0.101844
O O6 0.836495 0.773424 0.155733
O O7 0.917684 0.767181 0.151858
O O8 0.875084 0.768220 0.000000
O O9 0.065153 0.770309 0.500000
O O10 0.076652 0.500000 0.596983
O O11 0.054587 0.769153 0.684098
O O12 0.126907 0.754435 0.608220
O O13 0.193720 0.500000 0.222369
O O14 0.198734 0.226083 0.315397
O O15 0.500000 0.732830 0.859650
O O16 0.587889 0.744203 0.856327
O O17 0.543120 0.000000 0.899482
O O18 0.545049 0.729211 0.000000
O O19 0.045926 0.500000 0.215350
O O20 0.000000 0.766693 0.187264
O O21 0.811524 0.227332 0.500000
O O22 0.822802 0.500000 0.404846
O O23 0.634813 0.500000 0.094727
O O24 0.630373 0.219452 0.000000
#
# Coordination Sequence:
#
# PCOD9381277 Si02
#       8
#     8   8   8   8   8   8   8   8
#     4  10  20  31  41  55  78 106 134 167 209 251
#     4   9  16  24  33  47  67  92 124 160 193 224
#     4   8  12  19  30  44  65  92 120 148 181 225
#     4  10  17  27  44  61  76  97 129 165 197 235
#     4   8  13  21  33  49  71 102 139 177 217 256
#     4   9  15  21  28  41  65  96 125 150 183 230
#     4   8  13  22  38  58  77  96 120 153 193 236
#     4   9  16  25  37  53  74 101 136 177 215 249
#
# _framework density 16.830285
#
# number of rings (size 3 to 8) (size 9 to 14) (size 15 to 20)
#    0.000    3.125    1.250    2.250    0.000    3.500 
#    0.000    3.750    0.000    0.375    0.000    0.000 
#    0.000    0.500    0.000    2.625    0.000    7.125 
#
# Total GULP energy -356354.860411 kJ/mol
# GULP energy per Si atom -5568.044694 kJ/mol
# Density = 1.679198 g / cm^3
# Si number density = 16.830285 Si / 1000 Ang^3
#
#
#
# Elastic Constant Matrix: (Units=GPa)
#
#
# Indices 1 2 3 4 5 6 
#
# 1 131.4974 -4.4280 68.2592 0.0000 0.0000 0.0000
# 2 -4.4280 23.4246 6.9923 0.0000 0.0000 0.0000
# 3 68.2592 6.9923 99.6253 0.0000 0.0000 0.0000
# 4 0.0000 0.0000 0.0000 -2.0522 0.0000 0.0000
# 5 0.0000 0.0000 0.0000 0.0000 2.8768 0.0000
# 6 0.0000 0.0000 0.0000 0.0000 0.0000 34.5367
#
#
#
# Elastic Compliance Matrix: (Units=1/GPa)
#
#
# Indices 1 2 3 4 5 6 
#
# 1 0.012342 0.004961 -0.008805 0.000000 0.000000 0.000000
# 2 0.004961 0.045598 -0.006600 0.000000 0.000000 0.000000
# 3 -0.008805 -0.006600 0.016533 0.000000 0.000000 0.000000
# 4 0.000000 0.000000 0.000000 -0.487286 0.000000 0.000000
# 5 0.000000 0.000000 0.000000 0.000000 0.347612 0.000000
# 6 0.000000 0.000000 0.000000 0.000000 0.000000 0.028955
#
#
# Mechanical properties :
#
#
# Convention : Reuss Voigt Hill
#
# Bulk Modulus (GPa) = 18.66104 44.02161 31.34132
# Shear Modulus (GPa) = 1997.86778 19.32051 1008.59415
#
# Velocity S-wave (km/s) = 34.49122 3.39183 24.50662
# Velocity P-wave (km/s) = 39.96629 6.44611 28.62566
#
# Compressibility (1/GPa) = 0.05358759
#
# Stress axis : x y z
#
# Youngs Moduli (GPa) = 81.02330 21.93084 60.48396
#
# Poissons Ratio (x) = -0.10880 0.53253
# Poissons Ratio (y) = -0.40197 0.39917
# Poissons Ratio (z) = 0.71337 0.14473
#
# Static dielectric constant tensor:
#      x y z
#    x 1.592290 0.000000 0.000000 
#    y 0.000000 1.630720 0.000000 
#    z 0.000000 0.000000 1.573220 
# 
# From -- ./inp_files/25864.got.cif
#   From: 2010.05.17/outbox.cif.g08.bks.cpg/sg47_13_cif.got.tgz:25864.got - 2010.06.03 20:15:42.
