data_PCOD9381509
_publ_section_title
;
Structure prediction by ZEFSAII (Michael W. Deem and Ramdas Pophale) SiO2 
 PCOD9381509
Probable space group: P M M M
;
_chemical_formula_sum "Si O2"
_cell_formula_units_Z 56
_cell_length_a 22.152753
_cell_length_b 19.052729
_cell_length_c 8.740717
_cell_angle_alpha 90.000000
_cell_angle_beta 90.000000
_cell_angle_gamma 90.000000
_cell_volume 3689.197916
_symmetry_space_group_name_H-M "P M M M"
_symmetry_group_IT_number 47
_symmetry_cell_setting 'orthorhombic'
loop_
_space_group_symop_operation_xyz
x,y,z
-x,-y,z
x,-y,-z
-x,y,-z
-x,-y,-z
x,y,-z
-x,y,z
x,-y,z
loop_
_atom_site_type_symbol
_atom_site_label
_atom_site_fract_x
_atom_site_fract_y
_atom_site_fract_z
Si Si1 0.569325 0.417969 0.684053
Si Si2 0.931517 0.165474 0.317119
Si Si3 0.180453 0.919199 0.814150
Si Si4 0.682907 0.659345 0.184368
Si Si5 0.255604 0.794002 0.175605
Si Si6 0.200618 0.418657 0.316675
Si Si7 0.130454 0.295085 0.824509
O O1 0.574848 0.412094 0.500000
O O2 0.500000 0.401036 0.725037
O O3 0.579892 0.500000 0.722945
O O4 0.619022 0.370233 0.763236
O O5 0.926410 0.161975 0.500000
O O6 0.882231 0.113668 0.244178
O O7 0.915418 0.244288 0.262703
O O8 0.000000 0.147734 0.272387
O O9 0.234501 0.868224 0.756706
O O10 0.187044 0.000000 0.769242
O O11 0.180046 0.915181 0.000000
O O12 0.696544 0.738879 0.242041
O O13 0.736206 0.610069 0.249406
O O14 0.687628 0.659540 0.000000
O O15 0.193416 0.748955 0.173852
O O16 0.273966 0.807496 0.000000
O O17 0.203057 0.412995 0.500000
O O18 0.192285 0.500000 0.274842
O O19 0.148019 0.368182 0.253562
O O20 0.111835 0.305111 0.000000
#
# Coordination Sequence:
#
# PCOD9381509 Si02
#       7
#     8   8   8   8   8   8   8
#     4   9  18  31  43  56  81 118 154 187 225 266
#     4  10  20  32  46  64  87 116 146 174 210 260
#     4   9  17  30  48  67  88 116 147 177 211 254
#     4  10  18  27  42  63  87 115 148 185 219 254
#     4   7  13  26  41  60  84 107 134 171 214 254
#     4  10  19  29  43  64  89 115 142 175 219 268
#     4   9  17  30  47  64  83 108 141 182 221 256
#
# _framework density 15.179451
#
# number of rings (size 3 to 8) (size 9 to 14) (size 15 to 20)
#    0.000    2.857    0.000    4.286    0.000    5.143 
#    0.000    2.857    0.000    0.429    0.000    3.000 
#    0.000    0.571    0.000    7.143    0.000    1.143 
#
# Total GULP energy -311795.993047 kJ/mol
# GULP energy per Si atom -5567.785590 kJ/mol
# Density = 1.514490 g / cm^3
# Si number density = 15.179451 Si / 1000 Ang^3
#
#
#
# Elastic Constant Matrix: (Units=GPa)
#
#
# Indices 1 2 3 4 5 6 
#
# 1 51.3815 51.1040 13.3977 0.0000 0.0000 0.0000
# 2 51.1040 140.4439 30.4158 0.0000 0.0000 0.0000
# 3 13.3977 30.4158 27.0837 0.0000 0.0000 0.0000
# 4 0.0000 0.0000 0.0000 15.9933 0.0000 0.0000
# 5 0.0000 0.0000 0.0000 0.0000 18.2587 0.0000
# 6 0.0000 0.0000 0.0000 0.0000 0.0000 18.6745
#
#
#
# Elastic Compliance Matrix: (Units=1/GPa)
#
#
# Indices 1 2 3 4 5 6 
#
# 1 0.030749 -0.010432 -0.003496 0.000000 0.000000 0.000000
# 2 -0.010432 0.012948 -0.009380 0.000000 0.000000 0.000000
# 3 -0.003496 -0.009380 0.049186 0.000000 0.000000 0.000000
# 4 0.000000 0.000000 0.000000 0.062526 0.000000 0.000000
# 5 0.000000 0.000000 0.000000 0.000000 0.054769 0.000000
# 6 0.000000 0.000000 0.000000 0.000000 0.000000 0.053549
#
#
# Mechanical properties :
#
#
# Convention : Reuss Voigt Hill
#
# Bulk Modulus (GPa) = 21.61342 45.41601 33.51471
# Shear Modulus (GPa) = 15.34850 18.85139 17.09995
#
# Velocity S-wave (km/s) = 3.18329 3.52789 3.36001
# Velocity P-wave (km/s) = 5.27073 6.82488 6.09752
#
# Compressibility (1/GPa) = 0.04626756
#
# Stress axis : x y z
#
# Youngs Moduli (GPa) = 32.52112 77.23434 20.33093
#
# Poissons Ratio (x) = 0.80569 0.07107
# Poissons Ratio (y) = 0.33925 0.19071
# Poissons Ratio (z) = 0.11368 0.72447
#
# Static dielectric constant tensor:
#      x y z
#    x 1.490160 0.000000 0.000000 
#    y 0.000000 1.525170 0.000000 
#    z 0.000000 0.000000 1.516240 
# 
# From -- ./inp_files/12829.got.cif
#   From: 2010.05.17/outbox.cif.g08.bks.cpg/sg47_7_cif.got.tgz:12829.got - 2010.06.03 20:15:42.
