data_PCOD9381142
_publ_section_title
;
Structure prediction by ZEFSAII (Michael W. Deem and Ramdas Pophale) SiO2 
 PCOD9381142
Probable space group: I M A 2
;
_chemical_formula_sum "Si O2"
_cell_formula_units_Z 32
_cell_length_a 18.000000
_cell_length_b 12.000000
_cell_length_c 15.000000
_cell_angle_alpha 90.000000
_cell_angle_beta 90.000000
_cell_angle_gamma 90.000000
_cell_volume 3240.000000
_symmetry_space_group_name_H-M "I M A 2"
_symmetry_group_IT_number 46
_symmetry_cell_setting 'orthorhombic'
loop_
_space_group_symop_operation_xyz
x,y,z
-x,-y,z
1/2-x,y,z
1/2+x,-y,z
1/2+x,1/2+y,1/2+z
1/2-x,1/2-y,1/2+z
-x,1/2+y,1/2+z
x,1/2-y,1/2+z
loop_
_atom_site_type_symbol
_atom_site_label
_atom_site_fract_x
_atom_site_fract_y
_atom_site_fract_z
Si Si1 0.834260 0.926729 0.047260
Si Si2 0.087206 0.892523 0.781591
Si Si3 0.593006 0.247449 0.622801
Si Si4 0.658408 0.859617 0.379415
Si Si5 0.909411 0.851265 0.765889
Si Si6 0.577797 0.794629 0.560552
Si Si7 0.163969 0.949667 0.232654
Si Si8 0.663328 0.157550 0.953887
O O1 0.750000 0.894226 0.022026
O O2 0.889993 0.826614 0.038401
O O3 0.833403 0.964438 0.149969
O O4 0.856518 0.034309 0.990493
O O5 0.114272 0.855824 0.684468
O O6 0.120471 0.822911 0.862975
O O7 0.999302 0.861201 0.778953
O O8 0.110551 0.021805 0.793485
O O9 0.510520 0.224928 0.581041
O O10 0.608827 0.352967 0.691924
O O11 0.643802 0.265010 0.536958
O O12 0.750000 0.850795 0.391108
O O13 0.627665 0.750207 0.322983
O O14 0.611535 0.862193 0.474049
O O15 0.645385 0.972678 0.319060
O O16 0.894370 0.833951 0.659347
O O17 0.250000 0.906400 0.242924
O O18 0.750000 0.160651 0.936075
#
# Coordination Sequence:
#
# PCOD9381142 Si02
#       8
#     8   8   8   8   8   8   8   8
#     4   9  17  33  56  85 122 156 197 253 305 368
#     4  10  22  41  62  86 122 164 209 262 308 374
#     4  10  22  40  62  88 126 167 213 258 314 374
#     4  11  22  38  64  98 131 164 205 265 332 389
#     4  10  22  41  62  88 125 162 206 258 320 378
#     4  11  21  35  61  93 126 162 211 257 319 385
#     4   9  19  37  60  87 125 166 209 264 320 380
#     4  10  21  37  60  89 116 157 209 254 308 366
#
# _framework density 9.8765429999999999
#
# number of rings (size 3 to 8) (size 9 to 14) (size 15 to 20)
#    0.000    2.000    1.250    3.000    0.000    6.000 
#    2.250    0.000    8.250    0.000    0.000    0.000 
#    0.000    0.000    0.000    0.000    0.000    0.000 
#
# Total GULP energy -178204.311912 kJ/mol
# GULP energy per Si atom -5568.884747 kJ/mol
# Density = 0.985406 g / cm^3
# Si number density = 9.876543 Si / 1000 Ang^3
#
#
#
# Elastic Constant Matrix: (Units=GPa)
#
#
# Indices 1 2 3 4 5 6 
#
# 1 27.6043 13.5992 29.9174 0.0000 0.0000 0.0000
# 2 13.5992 22.1580 11.1885 0.0000 0.0000 0.0000
# 3 29.9174 11.1885 143.5280 0.0000 0.0000 0.0000
# 4 0.0000 0.0000 0.0000 26.2143 0.0000 0.0000
# 5 0.0000 0.0000 0.0000 0.0000 32.6668 0.0000
# 6 0.0000 0.0000 0.0000 0.0000 0.0000 18.9286
#
#
#
# Elastic Compliance Matrix: (Units=1/GPa)
#
#
# Indices 1 2 3 4 5 6 
#
# 1 0.064917 -0.034362 -0.010853 0.000000 0.000000 0.000000
# 2 -0.034362 0.065168 0.002082 0.000000 0.000000 0.000000
# 3 -0.010853 0.002082 0.009067 0.000000 0.000000 0.000000
# 4 0.000000 0.000000 0.000000 0.038147 0.000000 0.000000
# 5 0.000000 0.000000 0.000000 0.000000 0.030612 0.000000
# 6 0.000000 0.000000 0.000000 0.000000 0.000000 0.052830
#
#
# Mechanical properties :
#
#
# Convention : Reuss Voigt Hill
#
# Bulk Modulus (GPa) = 18.90804 33.63339 26.27071
# Shear Modulus (GPa) = 13.71234 24.80096 19.25665
#
# Velocity S-wave (km/s) = 2.63760 3.54722 3.12567
# Velocity P-wave (km/s) = 4.34383 5.81729 5.13370
#
# Compressibility (1/GPa) = 0.05288756
#
# Stress axis : x y z
#
# Youngs Moduli (GPa) = 15.40434 15.34490 110.28828
#
# Poissons Ratio (x) = 0.52728 1.19694
# Poissons Ratio (y) = 0.52932 -0.22967
# Poissons Ratio (z) = 0.16718 -0.03195
#
# Static dielectric constant tensor:
#      x y z
#    x 1.713210 0.000000 0.000000 
#    y 0.000000 1.729410 0.000000 
#    z 0.000000 0.000000 1.718960 
# 
# From -- ./inp_files/16762.got.cif
#   From: 2010.05.17/outbox.ucp.g08.bks.cvg/sg46_9_cif.got.tgz:16762.got - 2010.06.11 16:34:52.
