data_PCOD9381380
_publ_section_title
;
Structure prediction by ZEFSAII (Michael W. Deem and Ramdas Pophale) SiO2 
 PCOD9381380
Probable space group: P M M M
;
_chemical_formula_sum "Si O2"
_cell_formula_units_Z 64
_cell_length_a 20.596541
_cell_length_b 7.452556
_cell_length_c 21.153269
_cell_angle_alpha 90.000000
_cell_angle_beta 90.000000
_cell_angle_gamma 90.000000
_cell_volume 3246.960692
_symmetry_space_group_name_H-M "P M M M"
_symmetry_group_IT_number 47
_symmetry_cell_setting 'orthorhombic'
loop_
_space_group_symop_operation_xyz
x,y,z
-x,-y,z
x,-y,-z
-x,y,-z
-x,-y,-z
x,y,-z
-x,y,z
x,-y,z
loop_
_atom_site_type_symbol
_atom_site_label
_atom_site_fract_x
_atom_site_fract_y
_atom_site_fract_z
Si Si1 0.428476 0.781107 0.240042
Si Si2 0.296766 0.207345 0.815714
Si Si3 0.928960 0.214753 0.882808
Si Si4 0.210471 0.289438 0.695882
Si Si5 0.209063 0.219810 0.070194
Si Si6 0.071357 0.285363 0.732946
Si Si7 0.571480 0.781593 0.387909
Si Si8 0.711563 0.216644 0.568917
O O1 0.500000 0.725870 0.217757
O O2 0.366873 0.713561 0.201275
O O3 0.422435 0.731720 0.313943
O O4 0.426821 0.000000 0.239494
O O5 0.254212 0.209191 0.751739
O O6 0.255274 0.284391 0.873383
O O7 0.308579 0.000000 0.832668
O O8 0.864722 0.281248 0.917280
O O9 0.921449 0.249473 0.807859
O O10 0.000000 0.284719 0.902239
O O11 0.930498 0.000000 0.891727
O O12 0.207603 0.500000 0.710601
O O13 0.136684 0.218147 0.699332
O O14 0.244641 0.268078 0.628420
O O15 0.207637 0.000000 0.073007
O O16 0.230419 0.270528 0.000000
O O17 0.069268 0.500000 0.724020
O O18 0.000000 0.214812 0.713830
O O19 0.500000 0.722611 0.410686
O O20 0.637077 0.721206 0.421583
O O21 0.571048 0.000000 0.391144
O O22 0.735448 0.276101 0.500000
O O23 0.709880 0.000000 0.569153
#
# Coordination Sequence:
#
# PCOD9381380 Si02
#       8
#     8   8   8   8   8   8   8   8
#     4   8  13  22  41  68  91 115 153 198 236 270
#     4  10  17  29  50  69  91 124 160 199 236 277
#     4   9  16  26  43  67  93 122 155 189 226 274
#     4  11  21  32  50  73  96 122 154 195 237 279
#     4   9  17  27  41  66  97 127 158 193 235 279
#     4   9  18  32  49  69  93 120 152 192 235 277
#     4   8  13  23  42  69  97 122 154 193 226 263
#     4  10  20  33  50  72  98 128 160 192 229 276
#
# _framework density 19.710740000000001
#
# number of rings (size 3 to 8) (size 9 to 14) (size 15 to 20)
#    0.000    2.750    2.500    1.125    0.000    1.250 
#    0.000    2.500    0.000    3.750    0.000    7.875 
#    0.000    0.000    0.000    1.125    0.000    1.250 
#
# Total GULP energy -356945.832792 kJ/mol
# GULP energy per Si atom -5577.278637 kJ/mol
# Density = 1.966588 g / cm^3
# Si number density = 19.710740 Si / 1000 Ang^3
#
#
#
# Elastic Constant Matrix: (Units=GPa)
#
#
# Indices 1 2 3 4 5 6 
#
# 1 145.1004 1.4053 66.8457 0.0000 0.0000 0.0000
# 2 1.4053 58.4332 -8.5282 0.0000 0.0000 0.0000
# 3 66.8457 -8.5282 103.9073 0.0000 0.0000 0.0000
# 4 0.0000 0.0000 0.0000 54.8681 0.0000 0.0000
# 5 0.0000 0.0000 0.0000 0.0000 24.5039 0.0000
# 6 0.0000 0.0000 0.0000 0.0000 0.0000 8.9275
#
#
#
# Elastic Compliance Matrix: (Units=1/GPa)
#
#
# Indices 1 2 3 4 5 6 
#
# 1 0.009874 -0.001179 -0.006449 0.000000 0.000000 0.000000
# 2 -0.001179 0.017462 0.002191 0.000000 0.000000 0.000000
# 3 -0.006449 0.002191 0.013953 0.000000 0.000000 0.000000
# 4 0.000000 0.000000 0.000000 0.018226 0.000000 0.000000
# 5 0.000000 0.000000 0.000000 0.000000 0.040810 0.000000
# 6 0.000000 0.000000 0.000000 0.000000 0.000000 0.112013
#
#
# Mechanical properties :
#
#
# Convention : Reuss Voigt Hill
#
# Bulk Modulus (GPa) = 32.87741 47.43184 40.15463
# Shear Modulus (GPa) = 21.42721 34.17443 27.80082
#
# Velocity S-wave (km/s) = 3.30067 4.16841 3.75966
# Velocity P-wave (km/s) = 5.58946 6.87631 6.26601
#
# Compressibility (1/GPa) = 0.03041602
#
# Stress axis : x y z
#
# Youngs Moduli (GPa) = 101.27461 57.26807 71.67136
#
# Poissons Ratio (x) = 0.06750 0.46221
# Poissons Ratio (y) = 0.11937 -0.15706
# Poissons Ratio (z) = 0.65312 -0.12550
#
# Static dielectric constant tensor:
#      x y z
#    x 1.725510 0.000000 0.000000 
#    y 0.000000 2.069010 0.000000 
#    z 0.000000 0.000000 1.656540 
# 
# From -- ./inp_files/11873.got.cif
#   From: 2010.05.17/outbox.cif.g08.bks.cpg/sg47_6_cif.got.tgz:11873.got - 2010.06.03 20:15:42.
