data_PCOD9381370
_publ_section_title
;
Structure prediction by ZEFSAII (Michael W. Deem and Ramdas Pophale) SiO2 
 PCOD9381370
Probable space group: P M M M
;
_chemical_formula_sum "Si O2"
_cell_formula_units_Z 46
_cell_length_a 14.045841
_cell_length_b 7.347145
_cell_length_c 21.361850
_cell_angle_alpha 90.000000
_cell_angle_beta 90.000000
_cell_angle_gamma 90.000000
_cell_volume 2204.475213
_symmetry_space_group_name_H-M "P M M M"
_symmetry_group_IT_number 47
_symmetry_cell_setting 'orthorhombic'
loop_
_space_group_symop_operation_xyz
x,y,z
-x,-y,z
x,-y,-z
-x,y,-z
-x,-y,-z
x,y,-z
-x,y,z
x,-y,z
loop_
_atom_site_type_symbol
_atom_site_label
_atom_site_fract_x
_atom_site_fract_y
_atom_site_fract_z
Si Si1 0.106725 0.280105 0.812252
Si Si2 0.500000 0.719512 0.573690
Si Si3 0.893531 0.277647 0.333284
Si Si4 0.294020 0.792164 0.112553
Si Si5 0.301897 0.500000 0.000000
Si Si6 0.695583 0.705992 0.368552
Si Si7 0.608431 0.780434 0.759859
O O1 0.112602 0.500000 0.813026
O O2 0.117488 0.222761 0.739722
O O3 0.188491 0.209232 0.857194
O O4 0.000000 0.229201 0.832392
O O5 0.500000 0.500000 0.585426
O O6 0.500000 0.751132 0.500000
O O7 0.400442 0.789625 0.602369
O O8 0.891155 0.500000 0.333845
O O9 0.801762 0.214120 0.372407
O O10 0.000000 0.223610 0.353680
O O11 0.300641 0.658240 0.054867
O O12 0.359765 0.729963 0.170685
O O13 0.319625 0.000000 0.096139
O O14 0.701118 0.500000 0.393804
O O15 0.673923 0.701680 0.294359
O O16 0.500000 0.726325 0.747622
O O17 0.615229 0.000000 0.755901
#
# Coordination Sequence:
#
# PCOD9381370 Si02
#       7
#     8   4   8   8   2   8   8
#     4   9  16  30  54  81 110 141 174 231 299 346
#     4   9  18  30  45  79 123 155 186 233 278 322
#     4   8  14  24  44  76 109 137 176 233 290 336
#     4  11  23  40  60  81 107 146 189 233 293 346
#     4  12  26  44  62  78 112 152 188 244 270 356
#     4  10  17  28  53  80 105 145 192 227 272 342
#     4  10  21  36  55  82 112 135 168 237 295 329
#
# _framework density 20.866644000000001
#
# number of rings (size 3 to 8) (size 9 to 14) (size 15 to 20)
#    0.000    2.348    3.478    1.304    1.217    0.348 
#    0.000    1.739    0.000    5.217    0.000    3.652 
#    0.000    0.000    0.000    1.565    0.000    1.739 
#
# Total GULP energy -256201.405877 kJ/mol
# GULP energy per Si atom -5569.595780 kJ/mol
# Density = 2.081915 g / cm^3
# Si number density = 20.866644 Si / 1000 Ang^3
#
#
#
# Elastic Constant Matrix: (Units=GPa)
#
#
# Indices 1 2 3 4 5 6 
#
# 1 136.9562 8.5139 45.2525 0.0000 0.0000 0.0000
# 2 8.5139 90.9391 12.8020 0.0000 0.0000 0.0000
# 3 45.2525 12.8020 50.9022 0.0000 0.0000 0.0000
# 4 0.0000 0.0000 0.0000 88.2603 0.0000 0.0000
# 5 0.0000 0.0000 0.0000 0.0000 -9.8532 0.0000
# 6 0.0000 0.0000 0.0000 0.0000 0.0000 0.8734
#
#
#
# Elastic Compliance Matrix: (Units=1/GPa)
#
#
# Indices 1 2 3 4 5 6 
#
# 1 0.010348 0.000338 -0.009285 0.000000 0.000000 0.000000
# 2 0.000338 0.011411 -0.003171 0.000000 0.000000 0.000000
# 3 -0.009285 -0.003171 0.028697 0.000000 0.000000 0.000000
# 4 0.000000 0.000000 0.000000 0.011330 0.000000 0.000000
# 5 0.000000 0.000000 0.000000 0.000000 -0.101490 0.000000
# 6 0.000000 0.000000 0.000000 0.000000 0.000000 1.144995
#
#
# Mechanical properties :
#
#
# Convention : Reuss Voigt Hill
#
# Bulk Modulus (GPa) = 38.13556 45.77049 41.95302
# Shear Modulus (GPa) = 4.39264 30.00469 17.19867
#
# Velocity S-wave (km/s) = 1.45247 3.79611 2.87403
# Velocity P-wave (km/s) = 4.59657 6.41844 5.58233
#
# Compressibility (1/GPa) = 0.02622224
#
# Stress axis : x y z
#
# Youngs Moduli (GPa) = 96.63255 87.63436 34.84639
#
# Poissons Ratio (x) = -0.02964 0.32355
# Poissons Ratio (y) = -0.03269 0.11048
# Poissons Ratio (z) = 0.89723 0.27785
#
# Static dielectric constant tensor:
#      x y z
#    x 1.797470 0.000000 0.000000 
#    y 0.000000 2.117260 0.000000 
#    z 0.000000 0.000000 1.678750 
# 
# From -- ./inp_files/30783.got.cif
#   From: 2010.05.17/outbox.cif.g08.bks.cpg/sg47_16_cif.got.tgz:30783.got - 2010.06.03 20:15:42.
