data_PCOD9381386
_publ_section_title
;
Structure prediction by ZEFSAII (Michael W. Deem and Ramdas Pophale) SiO2 
 PCOD9381386
Probable space group: P M M M
;
_chemical_formula_sum "Si O2"
_cell_formula_units_Z 64
_cell_length_a 7.424534
_cell_length_b 21.286480
_cell_length_c 20.594985
_cell_angle_alpha 90.000000
_cell_angle_beta 90.000000
_cell_angle_gamma 90.000000
_cell_volume 3254.876625
_symmetry_space_group_name_H-M "P M M M"
_symmetry_group_IT_number 47
_symmetry_cell_setting 'orthorhombic'
loop_
_space_group_symop_operation_xyz
x,y,z
-x,-y,z
x,-y,-z
-x,y,-z
-x,-y,-z
x,y,-z
-x,y,z
x,-y,z
loop_
_atom_site_type_symbol
_atom_site_label
_atom_site_fract_x
_atom_site_fract_y
_atom_site_fract_z
Si Si1 0.291128 0.568270 0.287821
Si Si2 0.218942 0.725059 0.071374
Si Si3 0.209946 0.692552 0.790162
Si Si4 0.220688 0.811856 0.707895
Si Si5 0.779957 0.929629 0.793092
Si Si6 0.782545 0.383140 0.571912
Si Si7 0.780764 0.236733 0.571653
Si Si8 0.781279 0.872599 0.071599
O O1 0.500000 0.566686 0.270549
O O2 0.210923 0.500000 0.272148
O O3 0.217880 0.628379 0.249924
O O4 0.277591 0.579497 0.365095
O O5 0.282809 0.690283 0.136408
O O6 0.264783 0.798926 0.079097
O O7 0.000000 0.721355 0.068882
O O8 0.283111 0.704189 0.000000
O O9 0.283467 0.750878 0.748521
O O10 0.000000 0.708206 0.797990
O O11 0.277367 0.875357 0.743522
O O12 0.278815 0.802730 0.633587
O O13 0.000000 0.811427 0.707604
O O14 0.721027 0.910956 0.865840
O O15 0.000000 0.928875 0.793411
O O16 0.723013 0.000000 0.776360
O O17 0.723525 0.404563 0.500000
O O18 0.728680 0.309988 0.579657
O O19 0.000000 0.384822 0.572221
O O20 0.722138 0.215804 0.500000
O O21 0.000000 0.236483 0.571633
O O22 0.000000 0.875304 0.071371
O O23 0.720848 0.893750 0.000000
#
# Coordination Sequence:
#
# PCOD9381386 Si02
#       8
#     8   8   8   8   8   8   8   8
#     4  11  24  37  47  65  97 130 154 184 233 284
#     4   8  13  22  40  67  92 110 138 189 245 282
#     4  10  17  29  51  71  87 116 158 198 231 271
#     4   9  14  22  38  59  80 108 149 192 228 262
#     4   9  15  20  27  46  81 121 153 180 217 269
#     4   9  17  31  52  75  95 120 158 195 224 266
#     4   8  13  22  39  62  83 103 136 186 231 258
#     4   8  12  18  28  46  77 115 148 175 212 268
#
# _framework density 19.662803
#
# number of rings (size 3 to 8) (size 9 to 14) (size 15 to 20)
#    0.000    3.000    2.500    1.875    0.000    1.750 
#    0.000    2.500    0.000    1.125    0.000    5.250 
#    0.000    0.500    0.000    0.000    0.000    8.000 
#
# Total GULP energy -356878.850791 kJ/mol
# GULP energy per Si atom -5576.232044 kJ/mol
# Density = 1.961805 g / cm^3
# Si number density = 19.662803 Si / 1000 Ang^3
#
#
#
# Elastic Constant Matrix: (Units=GPa)
#
#
# Indices 1 2 3 4 5 6 
#
# 1 56.9986 -4.7725 0.8075 0.0000 0.0000 0.0000
# 2 -4.7725 110.0018 85.2053 0.0000 0.0000 0.0000
# 3 0.8075 85.2053 171.3110 0.0000 0.0000 0.0000
# 4 0.0000 0.0000 0.0000 17.7727 0.0000 0.0000
# 5 0.0000 0.0000 0.0000 0.0000 -33.2795 0.0000
# 6 0.0000 0.0000 0.0000 0.0000 0.0000 18.7539
#
#
#
# Elastic Compliance Matrix: (Units=1/GPa)
#
#
# Indices 1 2 3 4 5 6 
#
# 1 0.017668 0.001352 -0.000756 0.000000 0.000000 0.000000
# 2 0.001352 0.014891 -0.007413 0.000000 0.000000 0.000000
# 3 -0.000756 -0.007413 0.009528 0.000000 0.000000 0.000000
# 4 0.000000 0.000000 0.000000 0.056266 0.000000 0.000000
# 5 0.000000 0.000000 0.000000 0.000000 -0.030049 0.000000
# 6 0.000000 0.000000 0.000000 0.000000 0.000000 0.053322
#
#
# Mechanical properties :
#
#
# Convention : Reuss Voigt Hill
#
# Bulk Modulus (GPa) = 35.14445 55.64354 45.39400
# Shear Modulus (GPa) = 34.54343 17.78748 26.16545
#
# Velocity S-wave (km/s) = 4.19596 3.01096 3.65184
# Velocity P-wave (km/s) = 6.43328 6.35989 6.39669
#
# Compressibility (1/GPa) = 0.02845400
#
# Stress axis : x y z
#
# Youngs Moduli (GPa) = 56.59890 67.15326 104.95528
#
# Poissons Ratio (x) = -0.09078 0.07931
# Poissons Ratio (y) = -0.07651 0.77802
# Poissons Ratio (z) = 0.04277 0.49780
#
# Static dielectric constant tensor:
#      x y z
#    x 1.814040 0.000000 0.000000 
#    y 0.000000 1.660420 0.000000 
#    z 0.000000 0.000000 1.708460 
# 
# From -- ./inp_files/30122.got.cif
#   From: 2010.05.17/outbox.cif.g08.bks.cpg/sg47_16_cif.got.tgz:30122.got - 2010.06.03 20:15:42.
