data_PCOD9381714
_publ_section_title
;
Structure prediction by ZEFSAII (Michael W. Deem and Ramdas Pophale) SiO2 
 PCOD9381714
Probable space group: P M M M
;
_chemical_formula_sum "Si O2"
_cell_formula_units_Z 48
_cell_length_a 18.790131
_cell_length_b 24.116333
_cell_length_c 8.209386
_cell_angle_alpha 90.000000
_cell_angle_beta 90.000000
_cell_angle_gamma 90.000000
_cell_volume 3720.075519
_symmetry_space_group_name_H-M "P M M M"
_symmetry_group_IT_number 47
_symmetry_cell_setting 'orthorhombic'
loop_
_space_group_symop_operation_xyz
x,y,z
-x,-y,z
x,-y,-z
-x,y,-z
-x,-y,-z
x,y,-z
-x,y,z
x,-y,z
loop_
_atom_site_type_symbol
_atom_site_label
_atom_site_fract_x
_atom_site_fract_y
_atom_site_fract_z
Si Si1 0.769033 0.064247 0.193125
Si Si2 0.636310 0.865680 0.693058
Si Si3 0.500000 0.063526 0.698883
Si Si4 0.586518 0.632176 0.681242
Si Si5 0.417411 0.248546 0.808176
Si Si6 0.077213 0.066326 0.694786
Si Si7 0.586763 0.435702 0.000000
O O1 0.709123 0.102406 0.271616
O O2 0.848858 0.085594 0.229101
O O3 0.763425 0.000000 0.252884
O O4 0.758060 0.063545 0.000000
O O5 0.628111 0.858059 0.500000
O O6 0.570539 0.903903 0.751560
O O7 0.628648 0.805625 0.773553
O O8 0.500000 0.062584 0.500000
O O9 0.500000 0.000000 0.754698
O O10 0.609588 0.614438 0.500000
O O11 0.500000 0.630398 0.683134
O O12 0.605502 0.696360 0.713245
O O13 0.610377 0.595314 0.834688
O O14 0.500000 0.235894 0.762446
O O15 0.416775 0.261803 0.000000
O O16 0.080798 0.074129 0.500000
O O17 0.000000 0.088256 0.751981
O O18 0.075835 0.000000 0.724932
O O19 0.607699 0.500000 0.000000
O O20 0.500000 0.433794 0.000000
#
# Coordination Sequence:
#
# PCOD9381714 Si02
#       7
#     8   8   4   8   8   8   4
#     4  10  20  31  41  56  78  99 119 148 193 243
#     4  11  20  30  43  57  72  94 127 162 198 239
#     4   9  18  30  41  53  69  89 119 160 201 243
#     4   9  16  26  40  56  74  98 125 154 190 230
#     4  10  18  29  43  56  74  94 123 163 200 233
#     4   8  14  26  44  62  76  92 115 141 174 223
#     4   9  16  26  38  56  80 100 120 150 189 232
#
# _framework density 12.902964000000001
#
# number of rings (size 3 to 8) (size 9 to 14) (size 15 to 20)
#    0.000    2.500    1.667    2.500    0.000    3.000 
#    0.000    3.333    0.000    2.000    0.000    0.000 
#    0.000    0.000    0.000    0.000    0.000    0.000 
#
# Total GULP energy -267398.685770 kJ/mol
# GULP energy per Si atom -5570.805954 kJ/mol
# Density = 1.287360 g / cm^3
# Si number density = 12.902964 Si / 1000 Ang^3
#
#
#
# Elastic Constant Matrix: (Units=GPa)
#
#
# Indices 1 2 3 4 5 6 
#
# 1 45.7161 16.2349 11.9705 0.0000 0.0000 0.0000
# 2 16.2349 66.2040 28.0598 0.0000 0.0000 0.0000
# 3 11.9705 28.0598 51.7514 0.0000 0.0000 0.0000
# 4 0.0000 0.0000 0.0000 12.1813 0.0000 0.0000
# 5 0.0000 0.0000 0.0000 0.0000 9.9195 0.0000
# 6 0.0000 0.0000 0.0000 0.0000 0.0000 1.8393
#
#
#
# Elastic Compliance Matrix: (Units=1/GPa)
#
#
# Indices 1 2 3 4 5 6 
#
# 1 0.024340 -0.004651 -0.003108 0.000000 0.000000 0.000000
# 2 -0.004651 0.020501 -0.010040 0.000000 0.000000 0.000000
# 3 -0.003108 -0.010040 0.025486 0.000000 0.000000 0.000000
# 4 0.000000 0.000000 0.000000 0.082093 0.000000 0.000000
# 5 0.000000 0.000000 0.000000 0.000000 0.100811 0.000000
# 6 0.000000 0.000000 0.000000 0.000000 0.000000 0.543683
#
#
# Mechanical properties :
#
#
# Convention : Reuss Voigt Hill
#
# Bulk Modulus (GPa) = 28.79522 30.68908 29.74215
# Shear Modulus (GPa) = 5.92356 11.94845 8.93600
#
# Velocity S-wave (km/s) = 2.14495 3.04636 2.63450
# Velocity P-wave (km/s) = 5.33850 6.01747 5.68813
#
# Compressibility (1/GPa) = 0.03472798
#
# Stress axis : x y z
#
# Youngs Moduli (GPa) = 41.08498 48.77893 39.23799
#
# Poissons Ratio (x) = 0.22689 0.12195
# Poissons Ratio (y) = 0.19111 0.39393
# Poissons Ratio (z) = 0.12769 0.48972
#
# Static dielectric constant tensor:
#      x y z
#    x 1.408200 0.000000 0.000000 
#    y 0.000000 1.407230 0.000000 
#    z 0.000000 0.000000 1.454680 
# 
# From -- ./inp_files/9763.got.cif
#   From: 2010.05.17/outbox.cif.g08.bks.cpg/sg47_5_cif.got.tgz:9763.got - 2010.06.03 20:15:42.
