data_PCOD9381972
_publ_section_title
;
Structure prediction by ZEFSAII (Michael W. Deem and Ramdas Pophale) SiO2 
 PCOD9381972
Probable space group: P M M M
;
_chemical_formula_sum "Si O2"
_cell_formula_units_Z 52
_cell_length_a 7.788466
_cell_length_b 16.996221
_cell_length_c 18.944653
_cell_angle_alpha 90.000000
_cell_angle_beta 90.000000
_cell_angle_gamma 90.000000
_cell_volume 2507.788767
_symmetry_space_group_name_H-M "P M M M"
_symmetry_group_IT_number 47
_symmetry_cell_setting 'orthorhombic'
loop_
_space_group_symop_operation_xyz
x,y,z
-x,-y,z
x,-y,-z
-x,y,-z
-x,-y,-z
x,y,-z
-x,y,z
x,-y,z
loop_
_atom_site_type_symbol
_atom_site_label
_atom_site_fract_x
_atom_site_fract_y
_atom_site_fract_z
Si Si1 0.705152 0.500000 0.416418
Si Si2 0.290480 0.828753 0.680705
Si Si3 0.801252 0.589424 0.782909
Si Si4 0.695839 0.662307 0.353693
Si Si5 0.301361 0.328373 0.079234
Si Si6 0.203494 0.171216 0.847227
Si Si7 0.698584 0.000000 0.330257
Si Si8 0.791574 0.000000 0.832979
O O1 0.500000 0.500000 0.398468
O O2 0.723405 0.500000 0.500000
O O3 0.775304 0.582832 0.386570
O O4 0.500000 0.828913 0.679337
O O5 0.229440 0.750080 0.640455
O O6 0.238011 0.822610 0.763107
O O7 0.228968 0.913580 0.651311
O O8 0.740771 0.500000 0.775719
O O9 0.697067 0.644288 0.730001
O O10 0.788736 0.617972 0.862754
O O11 0.000000 0.594021 0.761181
O O12 0.500000 0.666527 0.380636
O O13 0.500000 0.352314 0.077907
O O14 0.290532 0.239758 0.108813
O O15 0.231464 0.333154 0.000000
O O16 0.254978 0.082494 0.868334
O O17 0.000000 0.180419 0.857602
O O18 0.500000 0.000000 0.352923
O O19 0.709113 0.000000 0.244775
O O20 0.000000 0.000000 0.823335
#
# Coordination Sequence:
#
# PCOD9381972 Si02
#       8
#     4   8   8   8   8   8   4   4
#     4   9  18  32  51  79 112 143 176 213 249 292
#     4   9  16  26  44  70  98 130 168 209 255 304
#     4  11  23  37  55  78 101 126 161 207 258 313
#     4  10  18  30  52  78 103 136 174 211 250 298
#     4  11  24  39  53  70  95 129 170 215 261 310
#     4  10  18  30  49  71  97 129 165 210 259 308
#     4   8  14  24  38  63  98 128 160 208 255 296
#     4   8  16  28  43  67  96 126 161 202 255 310
#
# _framework density 20.735398
#
# number of rings (size 3 to 8) (size 9 to 14) (size 15 to 20)
#    0.000    2.231    2.308    1.385    0.000    3.077 
#    0.000    1.923    0.000    3.231    0.000    0.538 
#    0.000    4.308    0.000    0.000    0.000   29.231 
#
# Total GULP energy -289884.283391 kJ/mol
# GULP energy per Si atom -5574.697758 kJ/mol
# Density = 2.068820 g / cm^3
# Si number density = 20.735398 Si / 1000 Ang^3
#
#
#
# Elastic Constant Matrix: (Units=GPa)
#
#
# Indices 1 2 3 4 5 6 
#
# 1 37.9919 1.0885 0.7411 0.0000 0.0000 0.0000
# 2 1.0885 162.3282 26.9468 0.0000 0.0000 0.0000
# 3 0.7411 26.9468 26.2922 0.0000 0.0000 0.0000
# 4 0.0000 0.0000 0.0000 12.9457 0.0000 0.0000
# 5 0.0000 0.0000 0.0000 0.0000 75.9314 0.0000
# 6 0.0000 0.0000 0.0000 0.0000 0.0000 13.8269
#
#
#
# Elastic Compliance Matrix: (Units=1/GPa)
#
#
# Indices 1 2 3 4 5 6 
#
# 1 0.026336 -0.000064 -0.000676 0.000000 0.000000 0.000000
# 2 -0.000064 0.007423 -0.007606 0.000000 0.000000 0.000000
# 3 -0.000676 -0.007606 0.045849 0.000000 0.000000 0.000000
# 4 0.000000 0.000000 0.000000 0.077246 0.000000 0.000000
# 5 0.000000 0.000000 0.000000 0.000000 0.013170 0.000000
# 6 0.000000 0.000000 0.000000 0.000000 0.000000 0.072323
#
#
# Mechanical properties :
#
#
# Convention : Reuss Voigt Hill
#
# Bulk Modulus (GPa) = 15.89459 31.57390 23.73424
# Shear Modulus (GPa) = 17.85630 33.72987 25.79308
#
# Velocity S-wave (km/s) = 2.93772 4.03759 3.53074
# Velocity P-wave (km/s) = 4.38053 6.08246 5.30025
#
# Compressibility (1/GPa) = 0.06291448
#
# Stress axis : x y z
#
# Youngs Moduli (GPa) = 37.97020 134.70778 21.81076
#
# Poissons Ratio (x) = 0.00866 0.01475
# Poissons Ratio (y) = 0.00244 0.16590
# Poissons Ratio (z) = 0.02568 1.02465
#
# Static dielectric constant tensor:
#      x y z
#    x 1.742080 0.000000 0.000000 
#    y 0.000000 1.818220 0.000000 
#    z 0.000000 0.000000 1.698860 
# 
# From -- ./inp_files/26836.got.cif
#   From: 2010.05.17/outbox.cif.g08.bks.cpg/sg47_14_cif.got.tgz:26836.got - 2010.06.03 20:15:42.
