data_PCOD9381832
_publ_section_title
;
Structure prediction by ZEFSAII (Michael W. Deem and Ramdas Pophale) SiO2 
 PCOD9381832
Probable space group: P M M M
;
_chemical_formula_sum "Si O2"
_cell_formula_units_Z 64
_cell_length_a 14.891567
_cell_length_b 32.321251
_cell_length_c 7.846146
_cell_angle_alpha 90.000000
_cell_angle_beta 90.000000
_cell_angle_gamma 90.000000
_cell_volume 3776.460503
_symmetry_space_group_name_H-M "P M M M"
_symmetry_group_IT_number 47
_symmetry_cell_setting 'orthorhombic'
loop_
_space_group_symop_operation_xyz
x,y,z
-x,-y,z
x,-y,-z
-x,y,-z
-x,-y,-z
x,y,-z
-x,y,z
x,-y,z
loop_
_atom_site_type_symbol
_atom_site_label
_atom_site_fract_x
_atom_site_fract_y
_atom_site_fract_z
Si Si1 0.896970 0.865366 0.296155
Si Si2 0.400609 0.342857 0.701845
Si Si3 0.102035 0.546662 0.794579
Si Si4 0.786399 0.786731 0.294719
Si Si5 0.895033 0.955419 0.205170
Si Si6 0.399503 0.751830 0.203174
Si Si7 0.214363 0.626042 0.704518
Si Si8 0.896458 0.705889 0.291397
O O1 0.902861 0.860793 0.500000
O O2 0.835193 0.828157 0.230705
O O3 0.858527 0.911193 0.262218
O O4 0.000000 0.862835 0.229065
O O5 0.405561 0.351462 0.500000
O O6 0.500000 0.350914 0.775553
O O7 0.381998 0.293873 0.721716
O O8 0.315293 0.367445 0.772443
O O9 0.124760 0.500000 0.736622
O O10 0.169908 0.582205 0.741568
O O11 0.000000 0.556120 0.735899
O O12 0.100169 0.545961 0.000000
O O13 0.792078 0.786866 0.500000
O O14 0.682229 0.781544 0.249639
O O15 0.840350 0.745978 0.235109
O O16 0.000000 0.955087 0.259161
O O17 0.856911 0.000000 0.263132
O O18 0.893450 0.955526 0.000000
O O19 0.500000 0.764697 0.259263
O O20 0.400824 0.747329 0.000000
O O21 0.218853 0.630578 0.500000
O O22 0.151638 0.663752 0.766462
O O23 0.896245 0.705966 0.500000
O O24 0.000000 0.707855 0.237329
#
# Coordination Sequence:
#
# PCOD9381832 Si02
#       8
#     8   8   8   8   8   8   8   8
#     4   9  17  27  41  63  89 119 154 189 224 262
#     4   9  17  31  50  70  92 117 146 180 221 268
#     4   9  19  35  51  67  91 122 150 179 221 267
#     4  10  18  30  45  62  88 123 155 180 216 267
#     4   8  14  25  40  57  80 114 154 192 229 267
#     4  10  20  32  46  65  88 114 148 191 231 261
#     4  10  18  29  48  73  93 114 148 186 222 259
#     4   9  16  26  41  63  91 119 146 178 213 251
#
# _framework density 16.947085999999999
#
# number of rings (size 3 to 8) (size 9 to 14) (size 15 to 20)
#    0.000    2.750    1.250    1.875    0.000    4.500 
#    0.000    1.875    0.000    1.500    0.000    2.625 
#    0.000    0.500    0.000    5.500    0.000    4.250 
#
# Total GULP energy -356614.904574 kJ/mol
# GULP energy per Si atom -5572.107884 kJ/mol
# Density = 1.690851 g / cm^3
# Si number density = 16.947086 Si / 1000 Ang^3
#
#
#
# Elastic Constant Matrix: (Units=GPa)
#
#
# Indices 1 2 3 4 5 6 
#
# 1 127.7481 85.6015 5.6750 0.0000 0.0000 0.0000
# 2 85.6015 136.4612 2.4120 0.0000 0.0000 0.0000
# 3 5.6750 2.4120 15.8084 0.0000 0.0000 0.0000
# 4 0.0000 0.0000 0.0000 28.9388 0.0000 0.0000
# 5 0.0000 0.0000 0.0000 0.0000 9.8350 0.0000
# 6 0.0000 0.0000 0.0000 0.0000 0.0000 10.2609
#
#
#
# Elastic Compliance Matrix: (Units=1/GPa)
#
#
# Indices 1 2 3 4 5 6 
#
# 1 0.013708 -0.008535 -0.003619 0.000000 0.000000 0.000000
# 2 -0.008535 0.012662 0.001132 0.000000 0.000000 0.000000
# 3 -0.003619 0.001132 0.064384 0.000000 0.000000 0.000000
# 4 0.000000 0.000000 0.000000 0.034556 0.000000 0.000000
# 5 0.000000 0.000000 0.000000 0.000000 0.101678 0.000000
# 6 0.000000 0.000000 0.000000 0.000000 0.000000 0.097458
#
#
# Mechanical properties :
#
#
# Convention : Reuss Voigt Hill
#
# Bulk Modulus (GPa) = 14.55386 51.93273 33.24330
# Shear Modulus (GPa) = 13.53580 22.22888 17.88234
#
# Velocity S-wave (km/s) = 2.82921 3.62562 3.25189
# Velocity P-wave (km/s) = 4.39079 6.94531 5.81018
#
# Compressibility (1/GPa) = 0.06871029
#
# Stress axis : x y z
#
# Youngs Moduli (GPa) = 72.95197 78.97694 15.53190
#
# Poissons Ratio (x) = 0.67405 0.05620
# Poissons Ratio (y) = 0.62263 -0.01758
# Poissons Ratio (z) = 0.26398 -0.08940
#
# Static dielectric constant tensor:
#      x y z
#    x 1.584960 0.000000 0.000000 
#    y 0.000000 1.574650 0.000000 
#    z 0.000000 0.000000 1.620350 
# 
# From -- ./inp_files/8287.got.cif
#   From: 2010.05.17/outbox.cif.g08.bks.cpg/sg47_5_cif.got.tgz:8287.got - 2010.06.03 20:15:42.
