data_PCOD9381757
_publ_section_title
;
Structure prediction by ZEFSAII (Michael W. Deem and Ramdas Pophale) SiO2 
 PCOD9381757
Probable space group: P M M M
;
_chemical_formula_sum "Si O2"
_cell_formula_units_Z 56
_cell_length_a 22.316270
_cell_length_b 7.528625
_cell_length_c 15.526318
_cell_angle_alpha 90.000000
_cell_angle_beta 90.000000
_cell_angle_gamma 90.000000
_cell_volume 2608.589547
_symmetry_space_group_name_H-M "P M M M"
_symmetry_group_IT_number 47
_symmetry_cell_setting 'orthorhombic'
loop_
_space_group_symop_operation_xyz
x,y,z
-x,-y,z
x,-y,-z
-x,y,-z
-x,-y,-z
x,y,-z
-x,y,z
x,-y,z
loop_
_atom_site_type_symbol
_atom_site_label
_atom_site_fract_x
_atom_site_fract_y
_atom_site_fract_z
Si Si1 0.236243 0.782731 0.903677
Si Si2 0.167135 0.787770 0.738615
Si Si3 0.500000 0.282943 0.340173
Si Si4 0.245910 0.203425 0.410323
Si Si5 0.627341 0.706345 0.360224
Si Si6 0.630780 0.216074 0.156907
Si Si7 0.068892 0.286572 0.596407
Si Si8 0.500000 0.795729 0.137645
O O1 0.187431 0.721760 0.832745
O O2 0.305213 0.729088 0.882429
O O3 0.237385 0.000000 0.902637
O O4 0.220915 0.725963 0.000000
O O5 0.218137 0.714977 0.674312
O O6 0.107830 0.758133 0.680912
O O7 0.171443 0.000000 0.747639
O O8 0.500000 0.500000 0.333408
O O9 0.438549 0.228767 0.384201
O O10 0.500000 0.211557 0.242337
O O11 0.228791 0.291064 0.500000
O O12 0.316715 0.199485 0.401267
O O13 0.224397 0.000000 0.412154
O O14 0.632448 0.500000 0.383175
O O15 0.631281 0.726158 0.256709
O O16 0.566733 0.277872 0.116152
O O17 0.629026 0.000000 0.155049
O O18 0.089519 0.223989 0.500000
O O19 0.068916 0.500000 0.592378
O O20 0.000000 0.227073 0.606385
O O21 0.500000 0.000000 0.108173
#
# Coordination Sequence:
#
# PCOD9381757 Si02
#       8
#     8   8   4   8   8   8   8   4
#     4   9  17  30  50  74 102 137 174 214 260 305
#     4  10  19  33  54  78 105 137 174 210 246 292
#     4   8  16  28  41  60  85 117 156 202 252 302
#     4  10  20  33  48  69  98 129 162 203 250 299
#     4  10  18  29  46  66  90 121 161 206 254 306
#     4   9  15  28  46  66  94 126 164 210 263 313
#     4   9  19  36  57  83 115 145 170 200 243 295
#     4   8  14  22  41  67  87 117 160 207 258 316
#
# _framework density 21.467538000000001
#
# number of rings (size 3 to 8) (size 9 to 14) (size 15 to 20)
#    0.000    2.714    1.429    1.286    0.000    2.571 
#    0.000    1.429    0.000    6.429    0.000    3.000 
#    0.000    5.714    0.000    0.000    0.000    0.000 
#
# Total GULP energy -311990.877382 kJ/mol
# GULP energy per Si atom -5571.265668 kJ/mol
# Density = 2.141868 g / cm^3
# Si number density = 21.467538 Si / 1000 Ang^3
#
#
#
# Elastic Constant Matrix: (Units=GPa)
#
#
# Indices 1 2 3 4 5 6 
#
# 1 141.3342 1.7060 77.4426 0.0000 0.0000 0.0000
# 2 1.7060 58.2528 5.1906 0.0000 0.0000 0.0000
# 3 77.4426 5.1906 153.9857 0.0000 0.0000 0.0000
# 4 0.0000 0.0000 0.0000 15.6103 0.0000 0.0000
# 5 0.0000 0.0000 0.0000 0.0000 21.9794 0.0000
# 6 0.0000 0.0000 0.0000 0.0000 0.0000 20.4340
#
#
#
# Elastic Compliance Matrix: (Units=1/GPa)
#
#
# Indices 1 2 3 4 5 6 
#
# 1 0.009768 0.000152 -0.004918 0.000000 0.000000 0.000000
# 2 0.000152 0.017221 -0.000657 0.000000 0.000000 0.000000
# 3 -0.004918 -0.000657 0.008990 0.000000 0.000000 0.000000
# 4 0.000000 0.000000 0.000000 0.064060 0.000000 0.000000
# 5 0.000000 0.000000 0.000000 0.000000 0.045497 0.000000
# 6 0.000000 0.000000 0.000000 0.000000 0.000000 0.048938
#
#
# Mechanical properties :
#
#
# Convention : Reuss Voigt Hill
#
# Bulk Modulus (GPa) = 39.78815 58.02792 48.90803
# Shear Modulus (GPa) = 23.39767 29.55366 26.47566
#
# Velocity S-wave (km/s) = 3.30496 3.71437 3.51563
# Velocity P-wave (km/s) = 5.75656 6.74423 6.26987
#
# Compressibility (1/GPa) = 0.02513311
#
# Stress axis : x y z
#
# Youngs Moduli (GPa) = 102.37264 58.06982 111.24082
#
# Poissons Ratio (x) = -0.00883 0.54706
# Poissons Ratio (y) = -0.01557 0.07308
# Poissons Ratio (z) = 0.50345 0.03815
#
# Static dielectric constant tensor:
#      x y z
#    x 1.816730 0.000000 0.000000 
#    y 0.000000 1.803170 0.000000 
#    z 0.000000 0.000000 1.796630 
# 
# From -- ./inp_files/25176.got.cif
#   From: 2010.05.17/outbox.cif.g08.bks.cpg/sg47_13_cif.got.tgz:25176.got - 2010.06.03 20:15:42.
