data_PCOD9381618
_publ_section_title
;
Structure prediction by ZEFSAII (Michael W. Deem and Ramdas Pophale) SiO2 
 PCOD9381618
Probable space group: P M M M
;
_chemical_formula_sum "Si O2"
_cell_formula_units_Z 64
_cell_length_a 32.174288
_cell_length_b 15.024916
_cell_length_c 7.477710
_cell_angle_alpha 90.000000
_cell_angle_beta 90.000000
_cell_angle_gamma 90.000000
_cell_volume 3614.844467
_symmetry_space_group_name_H-M "P M M M"
_symmetry_group_IT_number 47
_symmetry_cell_setting 'orthorhombic'
loop_
_space_group_symop_operation_xyz
x,y,z
-x,-y,z
x,-y,-z
-x,y,-z
-x,-y,-z
x,y,-z
-x,y,z
x,-y,z
loop_
_atom_site_type_symbol
_atom_site_label
_atom_site_fract_x
_atom_site_fract_y
_atom_site_fract_z
Si Si1 0.838589 0.099116 0.783439
Si Si2 0.635109 0.397964 0.784627
Si Si3 0.544717 0.607252 0.786211
Si Si4 0.717280 0.712657 0.713021
Si Si5 0.047395 0.601608 0.781644
Si Si6 0.877601 0.720644 0.788365
Si Si7 0.796896 0.398080 0.283848
Si Si8 0.740883 0.901964 0.288980
O O1 0.865504 0.182085 0.716506
O O2 0.790518 0.111562 0.729614
O O3 0.851566 0.000000 0.724930
O O4 0.839332 0.100235 0.000000
O O5 0.641779 0.500000 0.721570
O O6 0.589991 0.363609 0.718656
O O7 0.673871 0.336495 0.740592
O O8 0.632374 0.402215 0.000000
O O9 0.500000 0.639643 0.714587
O O10 0.545141 0.500000 0.763499
O O11 0.544023 0.623701 0.000000
O O12 0.723852 0.719562 0.500000
O O13 0.755705 0.653188 0.781575
O O14 0.719507 0.813289 0.785406
O O15 0.057352 0.500000 0.727479
O O16 0.081827 0.670655 0.716300
O O17 0.000000 0.621578 0.727920
O O18 0.048100 0.602022 0.000000
O O19 0.837780 0.656891 0.766191
O O20 0.884636 0.732105 0.000000
O O21 0.795246 0.400601 0.500000
O O22 0.798368 0.500000 0.220399
O O23 0.731348 0.906317 0.500000
O O24 0.731138 0.000000 0.212617
#
# Coordination Sequence:
#
# PCOD9381618 Si02
#       8
#     8   8   8   8   8   8   8   8
#     4   9  17  28  42  62  86 106 126 163 214 251
#     4   9  17  27  40  60  84 112 146 176 200 236
#     4   7  10  19  36  56  77 102 135 175 211 237
#     4  10  19  30  42  57  82 113 139 165 204 250
#     4   8  14  25  41  61  83 105 132 168 205 238
#     4  10  18  28  45  65  82 104 138 173 201 238
#     4  10  20  31  41  57  84 114 139 165 200 241
#     4   9  17  30  47  62  76 101 140 177 203 238
#
# _framework density 17.704774
#
# number of rings (size 3 to 8) (size 9 to 14) (size 15 to 20)
#    0.000    3.000    1.250    2.250    0.000    2.500 
#    0.000    0.000    0.000    1.125    0.000    6.125 
#    0.000    0.500    0.000   10.500    0.000    4.875 
#
# Total GULP energy -356644.937007 kJ/mol
# GULP energy per Si atom -5572.577141 kJ/mol
# Density = 1.766448 g / cm^3
# Si number density = 17.704774 Si / 1000 Ang^3
#
#
#
# Elastic Constant Matrix: (Units=GPa)
#
#
# Indices 1 2 3 4 5 6 
#
# 1 130.8973 86.8286 -7.8031 0.0000 0.0000 0.0000
# 2 86.8286 150.8714 2.5005 0.0000 0.0000 0.0000
# 3 -7.8031 2.5005 47.4731 0.0000 0.0000 0.0000
# 4 0.0000 0.0000 0.0000 7.3426 0.0000 0.0000
# 5 0.0000 0.0000 0.0000 0.0000 31.1722 0.0000
# 6 0.0000 0.0000 0.0000 0.0000 0.0000 6.7596
#
#
#
# Elastic Compliance Matrix: (Units=1/GPa)
#
#
# Indices 1 2 3 4 5 6 
#
# 1 0.012638 -0.007314 0.002463 0.000000 0.000000 0.000000
# 2 -0.007314 0.010867 -0.001775 0.000000 0.000000 0.000000
# 3 0.002463 -0.001775 0.021563 0.000000 0.000000 0.000000
# 4 0.000000 0.000000 0.000000 0.136191 0.000000 0.000000
# 5 0.000000 0.000000 0.000000 0.000000 0.032080 0.000000
# 6 0.000000 0.000000 0.000000 0.000000 0.000000 0.147937
#
#
# Mechanical properties :
#
#
# Convention : Reuss Voigt Hill
#
# Bulk Modulus (GPa) = 31.43134 54.69933 43.06534
# Shear Modulus (GPa) = 12.98250 25.56928 19.27589
#
# Velocity S-wave (km/s) = 2.71085 3.80439 3.30319
# Velocity P-wave (km/s) = 5.25260 7.08944 6.23899
#
# Compressibility (1/GPa) = 0.03181538
#
# Stress axis : x y z
#
# Youngs Moduli (GPa) = 79.12534 92.02138 46.37619
#
# Poissons Ratio (x) = 0.67307 -0.11421
# Poissons Ratio (y) = 0.57874 0.08230
# Poissons Ratio (z) = -0.19485 0.16330
#
# Static dielectric constant tensor:
#      x y z
#    x 1.604550 0.000000 0.000000 
#    y 0.000000 1.616510 0.000000 
#    z 0.000000 0.000000 1.678110 
# 
# From -- ./inp_files/14273.got.cif
#   From: 2010.05.17/outbox.cif.g08.bks.cpg/sg47_8_cif.got.tgz:14273.got - 2010.06.03 20:15:42.
