data_PCOD9381915
_publ_section_title
;
Structure prediction by ZEFSAII (Michael W. Deem and Ramdas Pophale) SiO2 
 PCOD9381915
Probable space group: P M M M
;
_chemical_formula_sum "Si O2"
_cell_formula_units_Z 52
_cell_length_a 12.400898
_cell_length_b 8.720733
_cell_length_c 28.512410
_cell_angle_alpha 90.000000
_cell_angle_beta 90.000000
_cell_angle_gamma 90.000000
_cell_volume 3083.472310
_symmetry_space_group_name_H-M "P M M M"
_symmetry_group_IT_number 47
_symmetry_cell_setting 'orthorhombic'
loop_
_space_group_symop_operation_xyz
x,y,z
-x,-y,z
x,-y,-z
-x,y,-z
-x,-y,-z
x,y,-z
-x,y,z
x,-y,z
loop_
_atom_site_type_symbol
_atom_site_label
_atom_site_fract_x
_atom_site_fract_y
_atom_site_fract_z
Si Si1 0.125651 0.316550 0.676611
Si Si2 0.500000 0.313922 0.805499
Si Si3 0.375252 0.815310 0.945865
Si Si4 0.500000 0.186450 0.553383
Si Si5 0.500000 0.684694 0.302067
Si Si6 0.128609 0.180240 0.778041
Si Si7 0.675353 0.184031 0.629020
Si Si8 0.719029 0.683868 0.144163
O O1 0.132787 0.500000 0.675876
O O2 0.159373 0.258739 0.728569
O O3 0.205378 0.247576 0.637742
O O4 0.000000 0.271984 0.669817
O O5 0.500000 0.500000 0.806342
O O6 0.500000 0.266522 0.751694
O O7 0.607816 0.263267 0.831215
O O8 0.500000 0.766674 0.936131
O O9 0.293286 0.743673 0.908735
O O10 0.372354 0.000000 0.942124
O O11 0.352192 0.774903 0.000000
O O12 0.500000 0.241797 0.500000
O O13 0.606900 0.231335 0.582821
O O14 0.500000 0.000000 0.552533
O O15 0.500000 0.500000 0.304771
O O16 0.603410 0.750872 0.328576
O O17 0.187212 0.251463 0.822934
O O18 0.000000 0.199195 0.782823
O O19 0.153323 0.000000 0.774902
O O20 0.677131 0.000000 0.630494
O O21 0.724097 0.500000 0.144219
#
# Coordination Sequence:
#
# PCOD9381915 Si02
#       8
#     8   4   8   4   4   8   8   8
#     4  10  20  34  52  74 102 137 174 210 252 302
#     4   9  19  30  41  66  99 130 157 188 235 290
#     4   9  18  33  51  71  97 129 165 204 249 302
#     4   8  16  32  53  77 105 136 171 214 260 305
#     4  10  18  30  47  66  99 139 169 201 245 300
#     4  10  21  36  53  74 101 134 173 212 248 292
#     4  10  19  31  50  76 102 132 173 215 257 302
#     4  11  20  32  50  73 102 131 164 202 248 304
#
# _framework density 16.864104000000001
#
# number of rings (size 3 to 8) (size 9 to 14) (size 15 to 20)
#    0.000    2.231    0.769    3.923    0.000    3.385 
#    0.000    3.077    0.000    9.231    0.000    6.462 
#    0.000    0.000    0.000    0.000    0.000    0.000 
#
# Total GULP energy -290045.268289 kJ/mol
# GULP energy per Si atom -5577.793621 kJ/mol
# Density = 1.682572 g / cm^3
# Si number density = 16.864104 Si / 1000 Ang^3
#
#
#
# Elastic Constant Matrix: (Units=GPa)
#
#
# Indices 1 2 3 4 5 6 
#
# 1 77.0976 36.6800 55.5598 0.0000 0.0000 0.0000
# 2 36.6800 48.5055 37.0352 0.0000 0.0000 0.0000
# 3 55.5598 37.0352 127.7843 0.0000 0.0000 0.0000
# 4 0.0000 0.0000 0.0000 90.7540 0.0000 0.0000
# 5 0.0000 0.0000 0.0000 0.0000 3.9578 0.0000
# 6 0.0000 0.0000 0.0000 0.0000 0.0000 26.7130
#
#
#
# Elastic Compliance Matrix: (Units=1/GPa)
#
#
# Indices 1 2 3 4 5 6 
#
# 1 0.023963 -0.013055 -0.006636 0.000000 0.000000 0.000000
# 2 -0.013055 0.033587 -0.004058 0.000000 0.000000 0.000000
# 3 -0.006636 -0.004058 0.011887 0.000000 0.000000 0.000000
# 4 0.000000 0.000000 0.000000 0.011019 0.000000 0.000000
# 5 0.000000 0.000000 0.000000 0.000000 0.252665 0.000000
# 6 0.000000 0.000000 0.000000 0.000000 0.000000 0.037435
#
#
# Mechanical properties :
#
#
# Convention : Reuss Voigt Hill
#
# Bulk Modulus (GPa) = 45.57852 56.88194 51.23023
# Shear Modulus (GPa) = 11.75458 32.55912 22.15685
#
# Velocity S-wave (km/s) = 2.64297 4.39871 3.62863
# Velocity P-wave (km/s) = 6.03319 7.72017 6.92822
#
# Compressibility (1/GPa) = 0.02194016
#
# Stress axis : x y z
#
# Youngs Moduli (GPa) = 41.73038 29.77354 84.12589
#
# Poissons Ratio (x) = 0.38869 0.55822
# Poissons Ratio (y) = 0.54478 0.34140
# Poissons Ratio (z) = 0.27690 0.12083
#
# Static dielectric constant tensor:
#      x y z
#    x 1.591970 0.000000 0.000000 
#    y 0.000000 1.568550 0.000000 
#    z 0.000000 0.000000 1.559470 
# 
# From -- ./inp_files/33667.got.cif
#   From: 2010.05.17/outbox.cif.g08.bks.cpg/sg47_17_cif.got.tgz:33667.got - 2010.06.03 20:15:42.
