data_PCOD9381369
_publ_section_title
;
Structure prediction by ZEFSAII (Michael W. Deem and Ramdas Pophale) SiO2 
 PCOD9381369
Probable space group: P M M M
;
_chemical_formula_sum "Si O2"
_cell_formula_units_Z 32
_cell_length_a 12.602188
_cell_length_b 7.480841
_cell_length_c 15.345097
_cell_angle_alpha 90.000000
_cell_angle_beta 90.000000
_cell_angle_gamma 90.000000
_cell_volume 1446.658478
_symmetry_space_group_name_H-M "P M M M"
_symmetry_group_IT_number 47
_symmetry_cell_setting 'orthorhombic'
loop_
_space_group_symop_operation_xyz
x,y,z
-x,-y,z
x,-y,-z
-x,y,-z
-x,-y,-z
x,y,-z
-x,y,z
x,-y,z
loop_
_atom_site_type_symbol
_atom_site_label
_atom_site_fract_x
_atom_site_fract_y
_atom_site_fract_z
Si Si1 0.290191 0.713957 0.098587
Si Si2 0.500000 0.755757 0.399543
Si Si3 0.263453 0.783063 0.403223
Si Si4 0.500000 0.720223 0.795827
Si Si5 0.119722 0.786728 0.757259
O O1 0.298816 0.500000 0.093212
O O2 0.395153 0.771769 0.150681
O O3 0.186971 0.754197 0.155776
O O4 0.285838 0.783959 0.000000
O O5 0.500000 0.828251 0.500000
O O6 0.378076 0.690039 0.399148
O O7 0.500000 0.812407 0.298024
O O8 0.217859 0.755552 0.500000
O O9 0.187583 0.722513 0.325748
O O10 0.283811 0.000000 0.394684
O O11 0.500000 0.500000 0.783116
O O12 0.000000 0.715892 0.760884
O O13 0.112835 0.000000 0.745981
#
# Coordination Sequence:
#
# PCOD9381369 Si02
#       5
#     8   4   8   4   8
#     4  10  21  38  59  80 104 139 181 222 268 323
#     4  10  17  28  51  80 106 135 171 214 265 322
#     4   9  17  30  50  77 108 141 176 214 260 317
#     4  10  19  34  55  79 107 138 173 216 265 322
#     4  10  21  36  55  80 109 142 181 225 268 309
#
# _framework density 22.11994
#
# number of rings (size 3 to 8) (size 9 to 14) (size 15 to 20)
#    0.000    2.250    2.500    0.750    0.000    5.250 
#    0.000    5.625    0.000    2.250    0.000    1.750 
#    0.000    0.000    0.000    0.000    0.000    0.000 
#
# Total GULP energy -178226.827108 kJ/mol
# GULP energy per Si atom -5569.588347 kJ/mol
# Density = 2.206959 g / cm^3
# Si number density = 22.119940 Si / 1000 Ang^3
#
#
#
# Elastic Constant Matrix: (Units=GPa)
#
#
# Indices 1 2 3 4 5 6 
#
# 1 201.2515 15.0790 124.9550 0.0000 0.0000 0.0000
# 2 15.0790 76.9424 19.2989 0.0000 0.0000 0.0000
# 3 124.9550 19.2989 252.1115 0.0000 0.0000 0.0000
# 4 0.0000 0.0000 0.0000 15.9273 0.0000 0.0000
# 5 0.0000 0.0000 0.0000 0.0000 4.7525 0.0000
# 6 0.0000 0.0000 0.0000 0.0000 0.0000 3.1267
#
#
#
# Elastic Compliance Matrix: (Units=1/GPa)
#
#
# Indices 1 2 3 4 5 6 
#
# 1 0.007199 -0.000526 -0.003528 0.000000 0.000000 0.000000
# 2 -0.000526 0.013290 -0.000757 0.000000 0.000000 0.000000
# 3 -0.003528 -0.000757 0.005773 0.000000 0.000000 0.000000
# 4 0.000000 0.000000 0.000000 0.062785 0.000000 0.000000
# 5 0.000000 0.000000 0.000000 0.000000 0.210414 0.000000
# 6 0.000000 0.000000 0.000000 0.000000 0.000000 0.319824
#
#
# Mechanical properties :
#
#
# Convention : Reuss Voigt Hill
#
# Bulk Modulus (GPa) = 60.09391 94.33014 77.21203
# Shear Modulus (GPa) = 7.88082 29.49280 18.68681
#
# Velocity S-wave (km/s) = 1.88958 3.65542 2.90969
# Velocity P-wave (km/s) = 5.65570 7.78161 6.80222
#
# Compressibility (1/GPa) = 0.01664062
#
# Stress axis : x y z
#
# Youngs Moduli (GPa) = 138.91667 75.24686 173.22582
#
# Poissons Ratio (x) = 0.03958 0.61107
# Poissons Ratio (y) = 0.07306 0.13107
# Poissons Ratio (z) = 0.49004 0.05693
#
# Static dielectric constant tensor:
#      x y z
#    x 1.766580 0.000000 0.000000 
#    y 0.000000 2.050090 0.000000 
#    z 0.000000 0.000000 1.778350 
# 
# From -- ./inp_files/3418.got.cif
#   From: 2010.05.17/outbox.cif.g08.bks.cpg/sg47_2_cif.got.tgz:3418.got - 2010.06.03 20:15:42.
