data_PCOD9381440
_publ_section_title
;
Structure prediction by ZEFSAII (Michael W. Deem and Ramdas Pophale) SiO2 
 PCOD9381440
Probable space group: P M M M
;
_chemical_formula_sum "Si O2"
_cell_formula_units_Z 37
_cell_length_a 7.893806
_cell_length_b 15.868215
_cell_length_c 14.804463
_cell_angle_alpha 90.000000
_cell_angle_beta 90.000000
_cell_angle_gamma 90.000000
_cell_volume 1854.416078
_symmetry_space_group_name_H-M "P M M M"
_symmetry_group_IT_number 47
_symmetry_cell_setting 'orthorhombic'
loop_
_space_group_symop_operation_xyz
x,y,z
-x,-y,z
x,-y,-z
-x,y,-z
-x,-y,-z
x,y,-z
-x,y,z
x,-y,z
loop_
_atom_site_type_symbol
_atom_site_label
_atom_site_fract_x
_atom_site_fract_y
_atom_site_fract_z
Si Si1 0.313636 0.680028 0.000000
Si Si2 0.697269 0.155373 0.500000
Si Si3 0.500000 0.500000 0.000000
Si Si4 0.797631 0.093817 0.698572
Si Si5 0.205057 0.350101 0.500000
Si Si6 0.793008 0.409746 0.694516
Si Si7 0.798272 0.746262 0.191739
O O1 0.227813 0.716746 0.089500
O O2 0.500000 0.719147 0.000000
O O3 0.352780 0.578311 0.000000
O O4 0.500000 0.134969 0.500000
O O5 0.771040 0.120375 0.594029
O O6 0.725239 0.255755 0.500000
O O7 0.731371 0.165751 0.767285
O O8 0.000000 0.089301 0.711996
O O9 0.727002 0.000000 0.713241
O O10 0.254332 0.398016 0.409489
O O11 0.000000 0.343160 0.500000
O O12 0.735006 0.500000 0.730521
O O13 0.726813 0.330473 0.748940
O O14 0.000000 0.409165 0.698565
O O15 0.000000 0.749196 0.207522
#
# Coordination Sequence:
#
# PCOD9381440 Si02
#       7
#     4   4   1   8   4   8   8
#     4  10  23  41  60  82 118 153 190 228 287 350
#     4  12  23  34  53  83 122 160 198 242 286 341
#     4   8  24  44  62  84 118 162 198 216 296 356
#     4  10  21  39  63  88 115 151 196 245 296 347
#     4  10  17  33  53  75 112 153 192 233 283 341
#     4   9  17  28  51  83 111 141 183 235 287 336
#     4  10  20  37  61  88 114 145 193 248 295 343
#
# _framework density 19.952372
#
# number of rings (size 3 to 8) (size 9 to 14) (size 15 to 20)
#    0.324    1.730    2.162    1.946    1.514    3.892 
#    0.000    1.081    0.000    4.541    0.000    0.000 
#    0.000    0.000    0.000    0.000    0.000    0.000 
#
# Total GULP energy -205982.259044 kJ/mol
# GULP energy per Si atom -5567.088082 kJ/mol
# Density = 1.990696 g / cm^3
# Si number density = 19.952372 Si / 1000 Ang^3
#
#
#
# Elastic Constant Matrix: (Units=GPa)
#
#
# Indices 1 2 3 4 5 6 
#
# 1 17.5303 9.0309 -8.4132 0.0000 0.0000 0.0000
# 2 9.0309 210.2033 79.9982 0.0000 0.0000 0.0000
# 3 -8.4132 79.9982 117.6922 0.0000 0.0000 0.0000
# 4 0.0000 0.0000 0.0000 5.1580 0.0000 0.0000
# 5 0.0000 0.0000 0.0000 0.0000 -43.6677 0.0000
# 6 0.0000 0.0000 0.0000 0.0000 0.0000 4.6220
#
#
#
# Elastic Compliance Matrix: (Units=1/GPa)
#
#
# Indices 1 2 3 4 5 6 
#
# 1 0.064380 -0.006094 0.008744 0.000000 0.000000 0.000000
# 2 -0.006094 0.006994 -0.005190 0.000000 0.000000 0.000000
# 3 0.008744 -0.005190 0.012649 0.000000 0.000000 0.000000
# 4 0.000000 0.000000 0.000000 0.193874 0.000000 0.000000
# 5 0.000000 0.000000 0.000000 0.000000 -0.022900 0.000000
# 6 0.000000 0.000000 0.000000 0.000000 0.000000 0.216357
#
#
# Mechanical properties :
#
#
# Convention : Reuss Voigt Hill
#
# Bulk Modulus (GPa) = 12.66703 56.29527 34.48115
# Shear Modulus (GPa) = 9.94533 10.87645 10.41089
#
# Velocity S-wave (km/s) = 2.23503 2.33731 2.28674
# Velocity P-wave (km/s) = 3.60872 5.96323 4.92864
#
# Compressibility (1/GPa) = 0.07894512
#
# Stress axis : x y z
#
# Youngs Moduli (GPa) = 15.53278 142.97582 79.05504
#
# Poissons Ratio (x) = 0.87126 -0.69128
# Poissons Ratio (y) = 0.09465 0.41027
# Poissons Ratio (z) = -0.13582 0.74201
#
# Static dielectric constant tensor:
#      x y z
#    x 1.718510 0.000000 0.000000 
#    y 0.000000 1.726940 0.000000 
#    z 0.000000 0.000000 1.623200 
# 
# From -- ./inp_files/20628.got.cif
#   From: 2010.05.17/outbox.cif.g08.bks.cpg/sg47_11_cif.got.tgz:20628.got - 2010.06.03 20:15:42.
