data_PCOD9381560
_publ_section_title
;
Structure prediction by ZEFSAII (Michael W. Deem and Ramdas Pophale) SiO2 
 PCOD9381560
Probable space group: P M M M
;
_chemical_formula_sum "Si O2"
_cell_formula_units_Z 64
_cell_length_a 27.334070
_cell_length_b 7.913476
_cell_length_c 14.532203
_cell_angle_alpha 90.000000
_cell_angle_beta 90.000000
_cell_angle_gamma 90.000000
_cell_volume 3143.424601
_symmetry_space_group_name_H-M "P M M M"
_symmetry_group_IT_number 47
_symmetry_cell_setting 'orthorhombic'
loop_
_space_group_symop_operation_xyz
x,y,z
-x,-y,z
x,-y,-z
-x,y,-z
-x,-y,-z
x,y,-z
-x,y,z
x,-y,z
loop_
_atom_site_type_symbol
_atom_site_label
_atom_site_fract_x
_atom_site_fract_y
_atom_site_fract_z
Si Si1 0.447511 0.195122 0.792541
Si Si2 0.198066 0.203839 0.604777
Si Si3 0.148727 0.296724 0.217054
Si Si4 0.756174 0.294720 0.891230
Si Si5 0.411478 0.304050 0.395299
Si Si6 0.649610 0.701576 0.895477
Si Si7 0.304191 0.193637 0.388384
Si Si8 0.944991 0.706312 0.106345
O O1 0.500000 0.273271 0.819253
O O2 0.441247 0.210356 0.682809
O O3 0.398732 0.266663 0.837674
O O4 0.448586 0.000000 0.818618
O O5 0.189851 0.262080 0.500000
O O6 0.156973 0.254148 0.676633
O O7 0.251550 0.266158 0.640046
O O8 0.202106 0.000000 0.602498
O O9 0.148426 0.500000 0.207840
O O10 0.196680 0.230244 0.163093
O O11 0.098649 0.233837 0.171514
O O12 0.757364 0.500000 0.884115
O O13 0.702295 0.235030 0.858629
O O14 0.759841 0.255185 0.000000
O O15 0.416655 0.239192 0.500000
O O16 0.425768 0.500000 0.394423
O O17 0.353962 0.291090 0.368800
O O18 0.654893 0.500000 0.901139
O O19 0.643421 0.766482 0.000000
O O20 0.300443 0.188423 0.500000
O O21 0.310270 0.000000 0.356351
O O22 0.945104 0.500000 0.108383
O O23 0.000000 0.761211 0.131557
O O24 0.935731 0.754130 0.000000
#
# Coordination Sequence:
#
# PCOD9381560 Si02
#       8
#     8   8   8   8   8   8   8   8
#     4  11  25  41  56  76 102 135 175 216 257 308
#     4   9  19  34  48  66 100 143 178 210 255 309
#     4  10  18  27  48  80 106 133 174 221 259 296
#     4   8  15  29  49  76 108 134 157 194 250 311
#     4  10  21  36  56  81 106 132 165 210 261 311
#     4   9  19  37  59  80 104 134 167 208 260 315
#     4   8  15  30  50  70  95 130 168 202 244 303
#     4   8  14  26  46  74 108 143 177 214 259 311
#
# _framework density 20.359960999999998
#
# number of rings (size 3 to 8) (size 9 to 14) (size 15 to 20)
#    0.000    2.875    0.000    3.000    1.750    4.750 
#    0.000    3.750    0.000    3.000    0.000    3.500 
#    0.000    0.000    0.000    0.000    0.000    0.000 
#
# Total GULP energy -356996.575414 kJ/mol
# GULP energy per Si atom -5578.071491 kJ/mol
# Density = 2.031362 g / cm^3
# Si number density = 20.359961 Si / 1000 Ang^3
#
#
#
# Elastic Constant Matrix: (Units=GPa)
#
#
# Indices 1 2 3 4 5 6 
#
# 1 155.0874 6.2370 77.7054 0.0000 0.0000 0.0000
# 2 6.2370 18.8396 -1.9350 0.0000 0.0000 0.0000
# 3 77.7054 -1.9350 78.8718 0.0000 0.0000 0.0000
# 4 0.0000 0.0000 0.0000 73.3209 0.0000 0.0000
# 5 0.0000 0.0000 0.0000 0.0000 22.4529 0.0000
# 6 0.0000 0.0000 0.0000 0.0000 0.0000 81.7670
#
#
#
# Elastic Compliance Matrix: (Units=1/GPa)
#
#
# Indices 1 2 3 4 5 6 
#
# 1 0.013333 -0.005778 -0.013278 0.000000 0.000000 0.000000
# 2 -0.005778 0.055718 0.007059 0.000000 0.000000 0.000000
# 3 -0.013278 0.007059 0.025933 0.000000 0.000000 0.000000
# 4 0.000000 0.000000 0.000000 0.013639 0.000000 0.000000
# 5 0.000000 0.000000 0.000000 0.000000 0.044538 0.000000
# 6 0.000000 0.000000 0.000000 0.000000 0.000000 0.012230
#
#
# Mechanical properties :
#
#
# Convention : Reuss Voigt Hill
#
# Bulk Modulus (GPa) = 14.08617 46.31261 30.19939
# Shear Modulus (GPa) = 23.46913 46.89424 35.18169
#
# Velocity S-wave (km/s) = 3.39884 4.80443 4.16141
# Velocity P-wave (km/s) = 4.72614 7.31936 6.16074
#
# Compressibility (1/GPa) = 0.07099161
#
# Stress axis : x y z
#
# Youngs Moduli (GPa) = 75.00217 17.94767 38.56063
#
# Poissons Ratio (x) = 0.10370 0.51199
# Poissons Ratio (y) = 0.43334 -0.27221
# Poissons Ratio (z) = 0.99584 -0.12670
#
# Static dielectric constant tensor:
#      x y z
#    x 1.757550 0.000000 0.000000 
#    y 0.000000 1.736000 0.000000 
#    z 0.000000 0.000000 1.736770 
# 
# From -- ./inp_files/21940.got.cif
#   From: 2010.05.17/outbox.cif.g08.bks.cpg/sg47_11_cif.got.tgz:21940.got - 2010.06.03 20:15:42.
