data_PCOD9381426
_publ_section_title
;
Structure prediction by ZEFSAII (Michael W. Deem and Ramdas Pophale) SiO2 
 PCOD9381426
Probable space group: P M M M
;
_chemical_formula_sum "Si O2"
_cell_formula_units_Z 52
_cell_length_a 7.714269
_cell_length_b 27.054338
_cell_length_c 15.122323
_cell_angle_alpha 90.000000
_cell_angle_beta 90.000000
_cell_angle_gamma 90.000000
_cell_volume 3156.095968
_symmetry_space_group_name_H-M "P M M M"
_symmetry_group_IT_number 47
_symmetry_cell_setting 'orthorhombic'
loop_
_space_group_symop_operation_xyz
x,y,z
-x,-y,z
x,-y,-z
-x,y,-z
-x,-y,-z
x,y,-z
-x,y,z
x,-y,z
loop_
_atom_site_type_symbol
_atom_site_label
_atom_site_fract_x
_atom_site_fract_y
_atom_site_fract_z
Si Si1 0.693102 0.677947 0.743818
Si Si2 0.794232 0.500000 0.654278
Si Si3 0.206915 0.240269 0.600614
Si Si4 0.302645 0.500000 0.146979
Si Si5 0.792027 0.607383 0.404006
Si Si6 0.801872 0.870496 0.607063
Si Si7 0.500000 0.943092 0.392011
Si Si8 0.711718 0.389911 0.101269
O O1 0.500000 0.693312 0.769559
O O2 0.761817 0.721472 0.680151
O O3 0.694421 0.632623 0.675250
O O4 0.776745 0.652070 0.830262
O O5 0.698381 0.500000 0.747140
O O6 0.758979 0.450625 0.601017
O O7 0.000000 0.500000 0.675186
O O8 0.272041 0.252655 0.500000
O O9 0.265917 0.184945 0.625642
O O10 0.000000 0.236914 0.591959
O O11 0.500000 0.500000 0.111977
O O12 0.226259 0.553535 0.119795
O O13 0.743362 0.627217 0.500000
O O14 0.000000 0.615562 0.392988
O O15 0.808955 0.872883 0.500000
O O16 0.669669 0.912606 0.636864
O O17 0.000000 0.876387 0.639266
O O18 0.500000 0.942980 0.500000
O O19 0.500000 0.000000 0.363632
O O20 0.500000 0.391395 0.111922
O O21 0.750917 0.377649 0.000000
#
# Coordination Sequence:
#
# PCOD9381426 Si02
#       8
#     8   4   8   4   8   8   4   8
#     4  11  21  30  45  68  86 103 136 180 220 257
#     4  10  19  31  47  62  80 106 133 163 203 254
#     4   9  18  32  47  62  85 120 154 183 220 262
#     4  10  17  31  53  68  78 100 133 167 209 264
#     4  10  20  33  46  59  81 112 138 161 201 261
#     4   8  15  27  41  58  83 119 161 198 233 273
#     4   9  16  24  38  62  90 122 159 202 243 266
#     4   9  18  32  49  67  85 105 132 168 215 272
#
# _framework density 16.476053
#
# number of rings (size 3 to 8) (size 9 to 14) (size 15 to 20)
#    0.000    2.538    1.538    2.308    1.077    4.615 
#    0.000    1.538    0.000    6.000    0.000    0.000 
#    0.000    0.000    0.000    0.000    0.000    1.538 
#
# Total GULP energy -289544.287473 kJ/mol
# GULP energy per Si atom -5568.159374 kJ/mol
# Density = 1.643855 g / cm^3
# Si number density = 16.476053 Si / 1000 Ang^3
#
#
#
# Elastic Constant Matrix: (Units=GPa)
#
#
# Indices 1 2 3 4 5 6 
#
# 1 35.0524 34.7534 12.4218 0.0000 0.0000 0.0000
# 2 34.7534 128.0869 38.8769 0.0000 0.0000 0.0000
# 3 12.4218 38.8769 90.7577 0.0000 0.0000 0.0000
# 4 0.0000 0.0000 0.0000 8.4091 0.0000 0.0000
# 5 0.0000 0.0000 0.0000 0.0000 10.6727 0.0000
# 6 0.0000 0.0000 0.0000 0.0000 0.0000 19.9911
#
#
#
# Elastic Compliance Matrix: (Units=1/GPa)
#
#
# Indices 1 2 3 4 5 6 
#
# 1 0.039096 -0.010326 -0.000928 0.000000 0.000000 0.000000
# 2 -0.010326 0.011701 -0.003599 0.000000 0.000000 0.000000
# 3 -0.000928 -0.003599 0.012687 0.000000 0.000000 0.000000
# 4 0.000000 0.000000 0.000000 0.118919 0.000000 0.000000
# 5 0.000000 0.000000 0.000000 0.000000 0.093697 0.000000
# 6 0.000000 0.000000 0.000000 0.000000 0.000000 0.050022
#
#
# Mechanical properties :
#
#
# Convention : Reuss Voigt Hill
#
# Bulk Modulus (GPa) = 29.60485 47.33345 38.46915
# Shear Modulus (GPa) = 13.62077 19.00425 16.31251
#
# Velocity S-wave (km/s) = 2.87836 3.39993 3.14996
# Velocity P-wave (km/s) = 5.39018 6.64859 6.05218
#
# Compressibility (1/GPa) = 0.03377824
#
# Stress axis : x y z
#
# Youngs Moduli (GPa) = 25.57839 85.46039 78.82085
#
# Poissons Ratio (x) = 0.88247 0.07312
# Poissons Ratio (y) = 0.26412 0.28368
# Poissons Ratio (z) = 0.02373 0.30758
#
# Static dielectric constant tensor:
#      x y z
#    x 1.636060 0.000000 0.000000 
#    y 0.000000 1.575660 0.000000 
#    z 0.000000 0.000000 1.543670 
# 
# From -- ./inp_files/21818.got.cif
#   From: 2010.05.17/outbox.cif.g08.bks.cpg/sg47_11_cif.got.tgz:21818.got - 2010.06.03 20:15:42.
