data_PCOD9381750
_publ_section_title
;
Structure prediction by ZEFSAII (Michael W. Deem and Ramdas Pophale) SiO2 
 PCOD9381750
Probable space group: P M M M
;
_chemical_formula_sum "Si O2"
_cell_formula_units_Z 60
_cell_length_a 18.667874
_cell_length_b 7.284057
_cell_length_c 20.181706
_cell_angle_alpha 90.000000
_cell_angle_beta 90.000000
_cell_angle_gamma 90.000000
_cell_volume 2744.265158
_symmetry_space_group_name_H-M "P M M M"
_symmetry_group_IT_number 47
_symmetry_cell_setting 'orthorhombic'
loop_
_space_group_symop_operation_xyz
x,y,z
-x,-y,z
x,-y,-z
-x,y,-z
-x,-y,-z
x,y,-z
-x,y,z
x,-y,z
loop_
_atom_site_type_symbol
_atom_site_label
_atom_site_fract_x
_atom_site_fract_y
_atom_site_fract_z
Si Si1 0.500000 0.224001 0.576183
Si Si2 0.081425 0.776027 0.664679
Si Si3 0.082774 0.721301 0.926816
Si Si4 0.835526 0.211398 0.206916
Si Si5 0.641675 0.223354 0.653625
Si Si6 0.673855 0.775619 0.199799
Si Si7 0.417067 0.776682 0.074063
Si Si8 0.215084 0.776539 0.576284
O O1 0.500000 0.281345 0.500000
O O2 0.572064 0.282784 0.613280
O O3 0.500000 0.000000 0.576760
O O4 0.112093 0.714796 0.736245
O O5 0.140860 0.720547 0.610908
O O6 0.000000 0.714208 0.653668
O O7 0.078872 0.000000 0.663997
O O8 0.083512 0.500000 0.926292
O O9 0.128369 0.783320 0.864705
O O10 0.000000 0.778916 0.919340
O O11 0.107934 0.780436 0.000000
O O12 0.755948 0.289296 0.202424
O O13 0.824505 0.000000 0.226878
O O14 0.638823 0.277525 0.730428
O O15 0.715946 0.281661 0.619103
O O16 0.642445 0.000000 0.652443
O O17 0.632165 0.714143 0.134411
O O18 0.673808 0.000000 0.197251
O O19 0.500000 0.722852 0.083449
O O20 0.416003 0.000000 0.074380
O O21 0.394164 0.719619 0.000000
O O22 0.220445 0.718398 0.500000
O O23 0.215722 0.000000 0.576586
#
# Coordination Sequence:
#
# PCOD9381750 Si02
#       8
#     4   8   8   8   8   8   8   8
#     4   9  16  22  30  46  67 101 154 199 219 255
#     4   9  16  25  36  53  78 106 139 178 217 257
#     4   9  19  35  51  67  90 119 149 183 224 269
#     4  10  18  29  45  67  92 119 149 185 229 271
#     4   9  15  23  32  46  70 103 143 184 224 263
#     4   9  16  24  36  54  79 109 142 178 221 269
#     4   8  14  23  33  46  68 101 137 169 205 253
#     4   9  15  23  34  46  68 105 142 176 218 264
#
# _framework density 21.863775
#
# number of rings (size 3 to 8) (size 9 to 14) (size 15 to 20)
#    0.000    3.000    1.333    1.600    0.933    3.467 
#    0.000    3.333    0.000    0.000    0.000    0.000 
#    0.000    1.067    0.000    5.733    0.000    5.733 
#
# Total GULP energy -335085.428537 kJ/mol
# GULP energy per Si atom -5584.757142 kJ/mol
# Density = 2.181401 g / cm^3
# Si number density = 21.863775 Si / 1000 Ang^3
#
#
#
# Elastic Constant Matrix: (Units=GPa)
#
#
# Indices 1 2 3 4 5 6 
#
# 1 177.1607 5.2319 117.7190 0.0000 0.0000 0.0000
# 2 5.2319 91.5291 -0.0583 0.0000 0.0000 0.0000
# 3 117.7190 -0.0583 201.4734 0.0000 0.0000 0.0000
# 4 0.0000 0.0000 0.0000 87.6470 0.0000 0.0000
# 5 0.0000 0.0000 0.0000 0.0000 42.7244 0.0000
# 6 0.0000 0.0000 0.0000 0.0000 0.0000 -14.9090
#
#
#
# Elastic Compliance Matrix: (Units=1/GPa)
#
#
# Indices 1 2 3 4 5 6 
#
# 1 0.009253 -0.000532 -0.005406 0.000000 0.000000 0.000000
# 2 -0.000532 0.010956 0.000314 0.000000 0.000000 0.000000
# 3 -0.005406 0.000314 0.008122 0.000000 0.000000 0.000000
# 4 0.000000 0.000000 0.000000 0.011409 0.000000 0.000000
# 5 0.000000 0.000000 0.000000 0.000000 0.023406 0.000000
# 6 0.000000 0.000000 0.000000 0.000000 0.000000 -0.067074
#
#
# Mechanical properties :
#
#
# Convention : Reuss Voigt Hill
#
# Bulk Modulus (GPa) = 58.54055 79.54983 69.04519
# Shear Modulus (GPa) = 384.13426 46.24387 215.18907
#
# Velocity S-wave (km/s) = 13.26936 4.60400 9.93158
# Velocity P-wave (km/s) = 16.17408 8.04523 12.77354
#
# Compressibility (1/GPa) = 0.01708218
#
# Stress axis : x y z
#
# Youngs Moduli (GPa) = 108.07562 91.27323 123.11522
#
# Poissons Ratio (x) = 0.04859 0.66562
# Poissons Ratio (y) = 0.05753 -0.03868
# Poissons Ratio (z) = 0.58431 -0.02868
#
# Static dielectric constant tensor:
#      x y z
#    x 1.742770 0.000000 0.000000 
#    y 0.000000 1.838630 0.000000 
#    z 0.000000 0.000000 1.749930 
# 
# From -- ./inp_files/28679.got.cif
#   From: 2010.05.17/outbox.cif.g08.bks.cpg/sg47_15_cif.got.tgz:28679.got - 2010.06.03 20:15:42.
