data_PCOD9381882
_publ_section_title
;
Structure prediction by ZEFSAII (Michael W. Deem and Ramdas Pophale) SiO2 
 PCOD9381882
Probable space group: P M M M
;
_chemical_formula_sum "Si O2"
_cell_formula_units_Z 56
_cell_length_a 15.697057
_cell_length_b 21.014418
_cell_length_c 7.872340
_cell_angle_alpha 90.000000
_cell_angle_beta 90.000000
_cell_angle_gamma 90.000000
_cell_volume 2596.805633
_symmetry_space_group_name_H-M "P M M M"
_symmetry_group_IT_number 47
_symmetry_cell_setting 'orthorhombic'
loop_
_space_group_symop_operation_xyz
x,y,z
-x,-y,z
x,-y,-z
-x,y,-z
-x,-y,-z
x,y,-z
-x,y,z
x,-y,z
loop_
_atom_site_type_symbol
_atom_site_label
_atom_site_fract_x
_atom_site_fract_y
_atom_site_fract_z
Si Si1 0.355687 0.431964 0.200669
Si Si2 0.254805 0.928297 0.798330
Si Si3 0.844669 0.431148 0.707096
Si Si4 0.406326 0.835569 0.299021
Si Si5 0.138207 0.705471 0.303128
Si Si6 0.906716 0.844046 0.294490
Si Si7 0.667954 0.297344 0.799846
O O1 0.386182 0.500000 0.273969
O O2 0.252974 0.431579 0.227351
O O3 0.379986 0.361416 0.262763
O O4 0.375545 0.433786 0.000000
O O5 0.334603 0.887457 0.735970
O O6 0.169371 0.889302 0.759536
O O7 0.252435 0.000000 0.727737
O O8 0.262483 0.932240 0.000000
O O9 0.841656 0.428743 0.500000
O O10 0.882703 0.500000 0.754310
O O11 0.884845 0.364487 0.767175
O O12 0.408063 0.825102 0.500000
O O13 0.500000 0.856272 0.240814
O O14 0.382423 0.767715 0.219877
O O15 0.111170 0.705015 0.500000
O O16 0.105305 0.771643 0.228345
O O17 0.241136 0.709096 0.292692
O O18 0.903572 0.840942 0.500000
O O19 0.000000 0.867583 0.243348
O O20 0.686907 0.306488 0.000000
#
# Coordination Sequence:
#
# PCOD9381882 Si02
#       7
#     8   8   8   8   8   8   8
#     4   8  14  24  39  65 102 141 183 231 281 333
#     4  11  25  44  66  92 120 148 181 229 287 341
#     4   8  13  21  36  62  96 136 184 234 281 328
#     4  11  24  41  62  88 118 153 191 230 277 338
#     4   9  16  28  48  73 106 148 192 237 283 332
#     4  10  21  37  59  87 119 158 200 238 279 332
#     4  10  18  29  51  80 110 147 191 238 287 336
#
# _framework density 21.564955000000001
#
# number of rings (size 3 to 8) (size 9 to 14) (size 15 to 20)
#    0.000    2.429    1.429    1.286    0.000    3.714 
#    0.000    2.857    0.000    0.857    0.000    6.000 
#    0.000    0.000    0.000   24.429    0.000   12.286 
#
# Total GULP energy -312265.930001 kJ/mol
# GULP energy per Si atom -5576.177321 kJ/mol
# Density = 2.151587 g / cm^3
# Si number density = 21.564955 Si / 1000 Ang^3
#
#
#
# Elastic Constant Matrix: (Units=GPa)
#
#
# Indices 1 2 3 4 5 6 
#
# 1 84.5583 53.7765 -1.4780 0.0000 0.0000 0.0000
# 2 53.7765 188.6311 4.9809 0.0000 0.0000 0.0000
# 3 -1.4780 4.9809 35.0280 0.0000 0.0000 0.0000
# 4 0.0000 0.0000 0.0000 17.8390 0.0000 0.0000
# 5 0.0000 0.0000 0.0000 0.0000 24.4157 0.0000
# 6 0.0000 0.0000 0.0000 0.0000 0.0000 -16.2246
#
#
#
# Elastic Compliance Matrix: (Units=1/GPa)
#
#
# Indices 1 2 3 4 5 6 
#
# 1 0.014496 -0.004164 0.001204 0.000000 0.000000 0.000000
# 2 -0.004164 0.006518 -0.001103 0.000000 0.000000 0.000000
# 3 0.001204 -0.001103 0.028756 0.000000 0.000000 0.000000
# 4 0.000000 0.000000 0.000000 0.056057 0.000000 0.000000
# 5 0.000000 0.000000 0.000000 0.000000 0.040957 0.000000
# 6 0.000000 0.000000 0.000000 0.000000 0.000000 -0.061635
#
#
# Mechanical properties :
#
#
# Convention : Reuss Voigt Hill
#
# Bulk Modulus (GPa) = 24.01344 46.97512 35.49428
# Shear Modulus (GPa) = 46.66095 21.93522 34.29808
#
# Velocity S-wave (km/s) = 4.65665 3.19277 3.99238
# Velocity P-wave (km/s) = 6.33025 5.95165 6.14386
#
# Compressibility (1/GPa) = 0.04164335
#
# Stress axis : x y z
#
# Youngs Moduli (GPa) = 68.98660 153.42934 34.77517
#
# Poissons Ratio (x) = 0.63893 -0.04186
# Poissons Ratio (y) = 0.28728 0.03834
# Poissons Ratio (z) = -0.08305 0.16916
#
# Static dielectric constant tensor:
#      x y z
#    x 1.798150 0.000000 0.000000 
#    y 0.000000 1.854490 0.000000 
#    z 0.000000 0.000000 1.840280 
# 
# From -- ./inp_files/7274.got.cif
#   From: 2010.05.17/outbox.cif.g08.bks.cpg/sg47_4_cif.got.tgz:7274.got - 2010.06.03 20:15:42.
