data_PCOD9381960
_publ_section_title
;
Structure prediction by ZEFSAII (Michael W. Deem and Ramdas Pophale) SiO2 
 PCOD9381960
Probable space group: P M M M
;
_chemical_formula_sum "Si O2"
_cell_formula_units_Z 56
_cell_length_a 7.657450
_cell_length_b 15.711484
_cell_length_c 23.489559
_cell_angle_alpha 90.000000
_cell_angle_beta 90.000000
_cell_angle_gamma 90.000000
_cell_volume 2826.026568
_symmetry_space_group_name_H-M "P M M M"
_symmetry_group_IT_number 47
_symmetry_cell_setting 'orthorhombic'
loop_
_space_group_symop_operation_xyz
x,y,z
-x,-y,z
x,-y,-z
-x,y,-z
-x,-y,-z
x,y,-z
-x,y,z
x,-y,z
loop_
_atom_site_type_symbol
_atom_site_label
_atom_site_fract_x
_atom_site_fract_y
_atom_site_fract_z
Si Si1 0.203386 0.402352 0.242115
Si Si2 0.711933 0.337493 0.367323
Si Si3 0.709843 0.169758 0.434459
Si Si4 0.205480 0.777173 0.225135
Si Si5 0.712618 0.500000 0.437481
Si Si6 0.294245 0.902600 0.124706
Si Si7 0.209642 0.092511 0.318844
Si Si8 0.791635 0.902885 0.000000
O O1 0.276535 0.500000 0.239005
O O2 0.217578 0.365065 0.306114
O O3 0.278970 0.317415 0.211183
O O4 0.000000 0.410963 0.226126
O O5 0.500000 0.332559 0.362473
O O6 0.773413 0.254423 0.401361
O O7 0.764191 0.415943 0.405951
O O8 0.773632 0.159663 0.500000
O O9 0.500000 0.175848 0.438683
O O10 0.750267 0.100592 0.385946
O O11 0.219800 0.841201 0.172516
O O12 0.279044 0.828821 0.280386
O O13 0.000000 0.764305 0.236704
O O14 0.500000 0.500000 0.438866
O O15 0.781795 0.500000 0.500000
O O16 0.500000 0.907414 0.134541
O O17 0.222883 0.000000 0.127415
O O18 0.264792 0.867299 0.060875
O O19 0.000000 0.093731 0.312771
O O20 0.272862 0.000000 0.297815
O O21 0.000000 0.905211 0.000000
O O22 0.721128 0.000000 0.000000
#
# Coordination Sequence:
#
# PCOD9381960 Si02
#       8
#     8   8   8   8   4   8   8   4
#     4  10  20  34  53  75 100 129 164 210 262 312
#     4  10  18  30  49  70  91 119 156 198 248 312
#     4  10  21  35  50  69  93 122 160 207 260 317
#     4  10  20  35  54  75 103 139 176 213 257 312
#     4   9  16  26  43  67  91 115 147 188 239 304
#     4  10  20  33  52  82 118 151 183 220 257 292
#     4  10  21  36  53  72  94 126 170 214 256 309
#     4   9  17  31  53  81 116 157 192 217 247 294
#
# _framework density 19.815809000000002
#
# number of rings (size 3 to 8) (size 9 to 14) (size 15 to 20)
#    0.000    2.143    2.143    1.500    0.000    6.000 
#    0.000    1.429    0.000    1.714    0.000    0.500 
#    0.000    4.000    0.000    0.000    0.000    0.000 
#
# Total GULP energy -311942.545264 kJ/mol
# GULP energy per Si atom -5570.402594 kJ/mol
# Density = 1.977071 g / cm^3
# Si number density = 19.815809 Si / 1000 Ang^3
#
#
#
# Elastic Constant Matrix: (Units=GPa)
#
#
# Indices 1 2 3 4 5 6 
#
# 1 41.4640 9.0864 -5.8146 0.0000 0.0000 0.0000
# 2 9.0864 152.5273 45.9497 0.0000 0.0000 0.0000
# 3 -5.8146 45.9497 99.4114 0.0000 0.0000 0.0000
# 4 0.0000 0.0000 0.0000 24.0320 0.0000 0.0000
# 5 0.0000 0.0000 0.0000 0.0000 24.0453 0.0000
# 6 0.0000 0.0000 0.0000 0.0000 0.0000 9.8775
#
#
#
# Elastic Compliance Matrix: (Units=1/GPa)
#
#
# Indices 1 2 3 4 5 6 
#
# 1 0.024958 -0.002238 0.002494 0.000000 0.000000 0.000000
# 2 -0.002238 0.007818 -0.003744 0.000000 0.000000 0.000000
# 3 0.002494 -0.003744 0.011936 0.000000 0.000000 0.000000
# 4 0.000000 0.000000 0.000000 0.041611 0.000000 0.000000
# 5 0.000000 0.000000 0.000000 0.000000 0.041588 0.000000
# 6 0.000000 0.000000 0.000000 0.000000 0.000000 0.101241
#
#
# Mechanical properties :
#
#
# Convention : Reuss Voigt Hill
#
# Bulk Modulus (GPa) = 26.50096 43.53841 35.01969
# Shear Modulus (GPa) = 20.10410 27.86970 23.98690
#
# Velocity S-wave (km/s) = 3.18865 3.75432 3.48299
# Velocity P-wave (km/s) = 5.19224 6.38846 5.82116
#
# Compressibility (1/GPa) = 0.03773448
#
# Stress axis : x y z
#
# Youngs Moduli (GPa) = 40.06800 127.91762 83.78169
#
# Poissons Ratio (x) = 0.28631 -0.20898
# Poissons Ratio (y) = 0.08968 0.31370
# Poissons Ratio (z) = -0.09994 0.47896
#
# Static dielectric constant tensor:
#      x y z
#    x 1.743120 0.000000 0.000000 
#    y 0.000000 1.779770 0.000000 
#    z 0.000000 0.000000 1.707480 
# 
# From -- ./inp_files/29764.got.cif
#   From: 2010.05.17/outbox.cif.g08.bks.cpg/sg47_15_cif.got.tgz:29764.got - 2010.06.03 20:15:42.
