data_PCOD9381040
_publ_section_title
;
Structure prediction by ZEFSAII (Michael W. Deem and Ramdas Pophale) SiO2 
 PCOD9381040
Probable space group: I M A 2
;
_chemical_formula_sum "Si O2"
_cell_formula_units_Z 32
_cell_length_a 32.248521
_cell_length_b 4.756385
_cell_length_c 8.209442
_cell_angle_alpha 90.000000
_cell_angle_beta 90.000000
_cell_angle_gamma 90.000000
_cell_volume 1259.216603
_symmetry_space_group_name_H-M "I M A 2"
_symmetry_group_IT_number 46
_symmetry_cell_setting 'orthorhombic'
loop_
_space_group_symop_operation_xyz
x,y,z
-x,-y,z
1/2-x,y,z
1/2+x,-y,z
1/2+x,1/2+y,1/2+z
1/2-x,1/2-y,1/2+z
-x,1/2+y,1/2+z
x,1/2-y,1/2+z
loop_
_atom_site_type_symbol
_atom_site_label
_atom_site_fract_x
_atom_site_fract_y
_atom_site_fract_z
Si Si1 0.797696 0.336897 0.902520
Si Si2 0.078250 0.126371 0.543010
Si Si3 0.670859 0.674839 0.590620
Si Si4 0.454793 0.897586 0.221062
O O1 0.750000 0.258856 0.873175
O O2 0.816741 0.507289 0.751937
O O3 0.799764 0.562888 0.049666
O O4 0.823785 0.062712 0.950893
O O5 0.125204 0.193561 0.590781
O O6 0.054490 0.419952 0.559603
O O7 0.075657 0.994339 0.364726
O O8 0.054821 0.917148 0.667107
O O9 0.500000 0.000000 0.276888
#
# Coordination Sequence:
#
# PCOD9381040 Si02
#       4
#     8   8   8   8
#     4  12  25  47  74 106 145 194 246 304 368 441
#     4  12  27  47  73 108 147 191 241 301 367 434
#     4  12  27  47  73 108 147 192 246 305 369 439
#     4  12  25  47  74 106 144 191 243 300 363 438
#
# _framework density 25.412624999999998
#
# number of rings (size 3 to 8) (size 9 to 14) (size 15 to 20)
#    0.000    0.000    0.000   10.500    0.000    4.000 
#    0.000    0.000    0.000    0.000    0.000    0.000 
#    0.000    0.000    0.000    0.000    0.000    0.000 
#
# Total GULP energy -89753.966946 kJ/mol
# GULP energy per Si atom -5609.622934 kJ/mol
# Density = 2.535479 g / cm^3
# Si number density = 25.412625 Si / 1000 Ang^3
#
#
#
# Elastic Constant Matrix: (Units=GPa)
#
#
# Indices 1 2 3 4 5 6 
#
# 1 159.3789 39.5128 23.3446 0.0000 0.0000 0.0000
# 2 39.5128 142.1380 27.9478 0.0000 0.0000 0.0000
# 3 23.3446 27.9478 94.2150 0.0000 0.0000 0.0000
# 4 0.0000 0.0000 0.0000 39.4691 0.0000 0.0000
# 5 0.0000 0.0000 0.0000 0.0000 33.6646 0.0000
# 6 0.0000 0.0000 0.0000 0.0000 0.0000 34.6442
#
#
#
# Elastic Compliance Matrix: (Units=1/GPa)
#
#
# Indices 1 2 3 4 5 6 
#
# 1 0.006865 -0.001671 -0.001205 0.000000 0.000000 0.000000
# 2 -0.001671 0.007878 -0.001923 0.000000 0.000000 0.000000
# 3 -0.001205 -0.001923 0.011483 0.000000 0.000000 0.000000
# 4 0.000000 0.000000 0.000000 0.025336 0.000000 0.000000
# 5 0.000000 0.000000 0.000000 0.000000 0.029705 0.000000
# 6 0.000000 0.000000 0.000000 0.000000 0.000000 0.028865
#
#
# Mechanical properties :
#
#
# Convention : Reuss Voigt Hill
#
# Bulk Modulus (GPa) = 60.14178 64.14914 62.14546
# Shear Modulus (GPa) = 39.91254 41.88403 40.89829
#
# Velocity S-wave (km/s) = 3.96735 4.06416 4.01605
# Velocity P-wave (km/s) = 6.68610 6.87902 6.78325
#
# Compressibility (1/GPa) = 0.01662738
#
# Stress axis : x y z
#
# Youngs Moduli (GPa) = 145.66044 126.93352 87.08503
#
# Poissons Ratio (x) = 0.21217 0.10496
# Poissons Ratio (y) = 0.24347 0.16745
# Poissons Ratio (z) = 0.17556 0.24407
#
# Static dielectric constant tensor:
#      x y z
#    x 1.999670 0.000000 0.000000 
#    y 0.000000 1.939890 0.000000 
#    z 0.000000 0.000000 2.078100 
# 
# From -- ./inp_files/8296.got.cif
#   From: 2010.05.17/outbox.cif.g08.bks.cpg/sg46_5_cif.got.tgz:8296.got - 2010.06.03 19:58:25.
