data_PCOD9381377
_publ_section_title
;
Structure prediction by ZEFSAII (Michael W. Deem and Ramdas Pophale) SiO2 
 PCOD9381377
Probable space group: P M M M
;
_chemical_formula_sum "Si O2"
_cell_formula_units_Z 52
_cell_length_a 15.155475
_cell_length_b 7.607680
_cell_length_c 25.397316
_cell_angle_alpha 90.000000
_cell_angle_beta 90.000000
_cell_angle_gamma 90.000000
_cell_volume 2928.259843
_symmetry_space_group_name_H-M "P M M M"
_symmetry_group_IT_number 47
_symmetry_cell_setting 'orthorhombic'
loop_
_space_group_symop_operation_xyz
x,y,z
-x,-y,z
x,-y,-z
-x,y,-z
-x,-y,-z
x,y,-z
-x,y,z
x,-y,z
loop_
_atom_site_type_symbol
_atom_site_label
_atom_site_fract_x
_atom_site_fract_y
_atom_site_fract_z
Si Si1 0.397870 0.205511 0.728988
Si Si2 0.399670 0.208152 0.500000
Si Si3 0.256160 0.801182 0.189676
Si Si4 0.148509 0.799305 0.000000
Si Si5 0.349801 0.288979 0.000000
Si Si6 0.600412 0.708031 0.387131
Si Si7 0.898957 0.214542 0.882929
Si Si8 0.405252 0.287959 0.885790
O O1 0.500000 0.276625 0.732636
O O2 0.319740 0.282554 0.765484
O O3 0.367472 0.217613 0.668202
O O4 0.404165 0.000000 0.743446
O O5 0.500000 0.287092 0.500000
O O6 0.357003 0.257970 0.444104
O O7 0.406649 0.000000 0.500000
O O8 0.169089 0.721702 0.162118
O O9 0.324526 0.804368 0.141507
O O10 0.233334 0.000000 0.207251
O O11 0.254084 0.796534 0.000000
O O12 0.120573 0.722768 0.943021
O O13 0.114357 0.000000 0.000000
O O14 0.400909 0.246185 0.052826
O O15 0.335585 0.500000 0.000000
O O16 0.500000 0.779126 0.391874
O O17 0.597025 0.500000 0.380205
O O18 0.000000 0.255614 0.870252
O O19 0.888844 0.000000 0.884224
O O20 0.500000 0.236563 0.862972
O O21 0.396314 0.500000 0.880045
#
# Coordination Sequence:
#
# PCOD9381377 Si02
#       8
#     8   4   8   4   4   8   8   8
#     4   9  17  28  40  56  81 112 143 176 214 251
#     4   9  15  23  37  57  83 115 148 183 220 249
#     4  10  19  31  47  65  84 107 140 180 216 254
#     4  10  17  29  49  68  84 104 133 169 213 266
#     4  10  19  31  45  60  82 108 133 165 207 254
#     4   9  16  25  38  57  81 111 149 186 213 242
#     4   9  17  29  47  69  88 106 132 171 220 270
#     4  10  20  32  45  60  81 110 139 167 206 256
#
# _framework density 17.757985999999999
#
# number of rings (size 3 to 8) (size 9 to 14) (size 15 to 20)
#    0.000    2.538    1.538    1.615    0.000    6.154 
#    0.000    1.538    0.000    3.692    0.000    0.000 
#    0.000    0.000    0.000    0.692    0.000   16.385 
#
# Total GULP energy -289531.754283 kJ/mol
# GULP energy per Si atom -5567.918352 kJ/mol
# Density = 1.771757 g / cm^3
# Si number density = 17.757986 Si / 1000 Ang^3
#
#
#
# Elastic Constant Matrix: (Units=GPa)
#
#
# Indices 1 2 3 4 5 6 
#
# 1 104.3426 4.6025 44.4275 0.0000 0.0000 0.0000
# 2 4.6025 38.5922 3.1993 0.0000 0.0000 0.0000
# 3 44.4275 3.1993 133.1444 0.0000 0.0000 0.0000
# 4 0.0000 0.0000 0.0000 23.1543 0.0000 0.0000
# 5 0.0000 0.0000 0.0000 0.0000 33.5057 0.0000
# 6 0.0000 0.0000 0.0000 0.0000 0.0000 3.4722
#
#
#
# Elastic Compliance Matrix: (Units=1/GPa)
#
#
# Indices 1 2 3 4 5 6 
#
# 1 0.011212 -0.001029 -0.003716 0.000000 0.000000 0.000000
# 2 -0.001029 0.026058 -0.000283 0.000000 0.000000 0.000000
# 3 -0.003716 -0.000283 0.008758 0.000000 0.000000 0.000000
# 4 0.000000 0.000000 0.000000 0.043189 0.000000 0.000000
# 5 0.000000 0.000000 0.000000 0.000000 0.029846 0.000000
# 6 0.000000 0.000000 0.000000 0.000000 0.000000 0.288003
#
#
# Mechanical properties :
#
#
# Convention : Reuss Voigt Hill
#
# Bulk Modulus (GPa) = 27.80022 42.28199 35.04111
# Shear Modulus (GPa) = 11.65201 26.94976 19.30088
#
# Velocity S-wave (km/s) = 2.56433 3.89988 3.30037
# Velocity P-wave (km/s) = 4.94538 6.64384 5.85651
#
# Compressibility (1/GPa) = 0.03597094
#
# Stress axis : x y z
#
# Youngs Moduli (GPa) = 89.19364 38.37570 114.18779
#
# Poissons Ratio (x) = 0.03949 0.42436
# Poissons Ratio (y) = 0.09178 0.03229
# Poissons Ratio (z) = 0.33147 0.01085
#
# Static dielectric constant tensor:
#      x y z
#    x 1.593930 0.000000 0.000000 
#    y 0.000000 1.667470 0.000000 
#    z 0.000000 0.000000 1.668920 
# 
# From -- ./inp_files/12601.got.cif
#   From: 2010.05.17/outbox.cif.g08.bks.cpg/sg47_7_cif.got.tgz:12601.got - 2010.06.03 20:15:42.
