data_PCOD9381844
_publ_section_title
;
Structure prediction by ZEFSAII (Michael W. Deem and Ramdas Pophale) SiO2 
 PCOD9381844
Probable space group: P M M M
;
_chemical_formula_sum "Si O2"
_cell_formula_units_Z 64
_cell_length_a 17.016144
_cell_length_b 7.946404
_cell_length_c 22.428393
_cell_angle_alpha 90.000000
_cell_angle_beta 90.000000
_cell_angle_gamma 90.000000
_cell_volume 3032.703487
_symmetry_space_group_name_H-M "P M M M"
_symmetry_group_IT_number 47
_symmetry_cell_setting 'orthorhombic'
loop_
_space_group_symop_operation_xyz
x,y,z
-x,-y,z
x,-y,-z
-x,y,-z
-x,-y,-z
x,y,-z
-x,y,z
x,-y,z
loop_
_atom_site_type_symbol
_atom_site_label
_atom_site_fract_x
_atom_site_fract_y
_atom_site_fract_z
Si Si1 0.630690 0.200124 0.803928
Si Si2 0.749404 0.809179 0.375398
Si Si3 0.612329 0.691981 0.933902
Si Si4 0.913165 0.702637 0.160599
Si Si5 0.587058 0.794185 0.330547
Si Si6 0.214686 0.190094 0.067025
Si Si7 0.087100 0.202626 0.428899
Si Si8 0.787413 0.302244 0.248659
O O1 0.591178 0.240259 0.867773
O O2 0.595352 0.257728 0.739705
O O3 0.719145 0.273359 0.800113
O O4 0.634499 0.000000 0.800467
O O5 0.660595 0.734342 0.371396
O O6 0.829094 0.731619 0.403649
O O7 0.767775 0.808693 0.305159
O O8 0.742793 0.000000 0.399447
O O9 0.586905 0.500000 0.935466
O O10 0.707027 0.700520 0.932176
O O11 0.591186 0.768225 0.000000
O O12 0.915639 0.500000 0.158750
O O13 0.854820 0.760668 0.109750
O O14 0.870812 0.747293 0.222074
O O15 0.000000 0.771086 0.154610
O O16 0.500000 0.744452 0.351001
O O17 0.590976 0.000000 0.330955
O O18 0.242043 0.000000 0.080759
O O19 0.183611 0.194021 0.000000
O O20 0.088477 0.228150 0.500000
O O21 0.000000 0.264318 0.407529
O O22 0.087467 0.000000 0.417909
O O23 0.787092 0.500000 0.264675
#
# Coordination Sequence:
#
# PCOD9381844 Si02
#       8
#     8   8   8   8   8   8   8   8
#     4  10  18  29  49  71  90 115 153 198 239 287
#     4   9  17  29  49  74  97 128 169 207 242 288
#     4  10  19  30  46  67  90 117 148 187 243 307
#     4  10  21  34  45  58  81 117 154 188 237 300
#     4   8  15  28  46  70  99 129 160 199 248 297
#     4  10  20  32  46  63  82 107 146 197 245 290
#     4   8  14  26  46  74 107 139 172 212 253 288
#     4  10  19  31  46  64  90 122 154 193 242 295
#
# _framework density 21.103282
#
# number of rings (size 3 to 8) (size 9 to 14) (size 15 to 20)
#    0.000    2.625    1.250    2.625    0.000    3.000 
#    0.000    1.250    0.000   10.500    0.000    6.125 
#    0.000    0.000    0.000    4.500    0.000    5.000 
#
# Total GULP energy -356278.208613 kJ/mol
# GULP energy per Si atom -5566.847010 kJ/mol
# Density = 2.105525 g / cm^3
# Si number density = 21.103282 Si / 1000 Ang^3
#
#
#
# Elastic Constant Matrix: (Units=GPa)
#
#
# Indices 1 2 3 4 5 6 
#
# 1 185.0139 15.4966 35.9085 0.0000 0.0000 0.0000
# 2 15.4966 22.0166 -3.0824 0.0000 0.0000 0.0000
# 3 35.9085 -3.0824 34.0102 0.0000 0.0000 0.0000
# 4 0.0000 0.0000 0.0000 -215.2710 0.0000 0.0000
# 5 0.0000 0.0000 0.0000 0.0000 -4.7468 0.0000
# 6 0.0000 0.0000 0.0000 0.0000 0.0000 -2.4872
#
#
#
# Elastic Compliance Matrix: (Units=1/GPa)
#
#
# Indices 1 2 3 4 5 6 
#
# 1 0.007638 -0.006589 -0.008661 0.000000 0.000000 0.000000
# 2 -0.006589 0.051688 0.011641 0.000000 0.000000 0.000000
# 3 -0.008661 0.011641 0.039603 0.000000 0.000000 0.000000
# 4 0.000000 0.000000 0.000000 -0.004645 0.000000 0.000000
# 5 0.000000 0.000000 0.000000 0.000000 -0.210667 0.000000
# 6 0.000000 0.000000 0.000000 0.000000 0.000000 -0.402056
#
#
# Mechanical properties :
#
#
# Convention : Reuss Voigt Hill
#
# Bulk Modulus (GPa) = 10.90389 37.52066 24.21228
# Shear Modulus (GPa) = -10.40254 -31.65315 -21.02784
#
# Velocity S-wave (km/s) = -2.22262 -3.87708 -3.16004
# Velocity P-wave (km/s) = 1.18684 1.49136 1.34773
#
# Compressibility (1/GPa) = 0.09171036
#
# Stress axis : x y z
#
# Youngs Moduli (GPa) = 130.92592 19.34699 25.25069
#
# Poissons Ratio (x) = 0.12747 0.21871
# Poissons Ratio (y) = 0.86263 -0.29394
# Poissons Ratio (z) = 1.13400 -0.22522
#
# Static dielectric constant tensor:
#      x y z
#    x 1.818050 0.000000 0.000000 
#    y 0.000000 1.776540 0.000000 
#    z 0.000000 0.000000 1.771470 
# 
# From -- ./inp_files/31350.got.cif
#   From: 2010.05.17/outbox.cif.g08.bks.cpg/sg47_16_cif.got.tgz:31350.got - 2010.06.03 20:15:42.
