data_PCOD9381491
_publ_section_title
;
Structure prediction by ZEFSAII (Michael W. Deem and Ramdas Pophale) SiO2 
 PCOD9381491
Probable space group: P M M M
;
_chemical_formula_sum "Si O2"
_cell_formula_units_Z 52
_cell_length_a 28.848954
_cell_length_b 14.125254
_cell_length_c 8.092713
_cell_angle_alpha 90.000000
_cell_angle_beta 90.000000
_cell_angle_gamma 90.000000
_cell_volume 3297.770860
_symmetry_space_group_name_H-M "P M M M"
_symmetry_group_IT_number 47
_symmetry_cell_setting 'orthorhombic'
loop_
_space_group_symop_operation_xyz
x,y,z
-x,-y,z
x,-y,-z
-x,y,-z
-x,-y,-z
x,y,-z
-x,y,z
x,-y,z
loop_
_atom_site_type_symbol
_atom_site_label
_atom_site_fract_x
_atom_site_fract_y
_atom_site_fract_z
Si Si1 0.806895 0.294184 0.199961
Si Si2 0.387230 0.615183 0.183380
Si Si3 0.712948 0.390585 0.304385
Si Si4 0.446423 0.384505 0.500000
Si Si5 0.144996 0.105031 0.197341
Si Si6 0.097820 0.606747 0.199996
Si Si7 0.051651 0.202170 0.303642
O O1 0.758284 0.330196 0.266670
O O2 0.822075 0.189671 0.259152
O O3 0.849634 0.363258 0.246153
O O4 0.804659 0.293791 0.000000
O O5 0.387555 0.500000 0.187261
O O6 0.333832 0.642709 0.214935
O O7 0.419459 0.646602 0.334749
O O8 0.402409 0.644711 0.000000
O O9 0.703354 0.390273 0.500000
O O10 0.721954 0.500000 0.254305
O O11 0.445636 0.500000 0.500000
O O12 0.500000 0.355389 0.500000
O O13 0.092449 0.139034 0.228149
O O14 0.152993 0.000000 0.265582
O O15 0.151558 0.101484 0.000000
O O16 0.087397 0.500000 0.254381
O O17 0.064644 0.688640 0.267067
O O18 0.095258 0.609761 0.000000
O O19 0.052413 0.187832 0.500000
O O20 0.000000 0.181018 0.241159
#
# Coordination Sequence:
#
# PCOD9381491 Si02
#       7
#     8   8   8   4   8   8   8
#     4   9  17  29  45  65  85 106 137 173 214 264
#     4   9  16  26  39  55  79 113 152 194 237 273
#     4  10  18  27  40  60  88 118 148 183 220 261
#     4   9  16  26  38  54  80 112 153 203 240 271
#     4   9  19  36  54  68  84 108 139 177 217 260
#     4   9  18  32  48  65  87 114 144 177 209 249
#     4  10  21  34  47  66  90 112 136 170 213 261
#
# _framework density 15.768227
#
# number of rings (size 3 to 8) (size 9 to 14) (size 15 to 20)
#    0.000    2.692    0.769    2.308    0.000    6.769 
#    0.000    4.615    0.000    0.000    0.000    0.000 
#    0.000    0.000    0.000    0.000    0.000    1.538 
#
# Total GULP energy -289842.975808 kJ/mol
# GULP energy per Si atom -5573.903381 kJ/mol
# Density = 1.573234 g / cm^3
# Si number density = 15.768227 Si / 1000 Ang^3
#
#
#
# Elastic Constant Matrix: (Units=GPa)
#
#
# Indices 1 2 3 4 5 6 
#
# 1 95.0438 15.9307 29.0925 0.0000 0.0000 0.0000
# 2 15.9307 57.7326 5.1857 0.0000 0.0000 0.0000
# 3 29.0925 5.1857 45.2479 0.0000 0.0000 0.0000
# 4 0.0000 0.0000 0.0000 5.8831 0.0000 0.0000
# 5 0.0000 0.0000 0.0000 0.0000 43.7163 0.0000
# 6 0.0000 0.0000 0.0000 0.0000 0.0000 7.3605
#
#
#
# Elastic Compliance Matrix: (Units=1/GPa)
#
#
# Indices 1 2 3 4 5 6 
#
# 1 0.013594 -0.002997 -0.008397 0.000000 0.000000 0.000000
# 2 -0.002997 0.018162 -0.000155 0.000000 0.000000 0.000000
# 3 -0.008397 -0.000155 0.027517 0.000000 0.000000 0.000000
# 4 0.000000 0.000000 0.000000 0.169978 0.000000 0.000000
# 5 0.000000 0.000000 0.000000 0.000000 0.022875 0.000000
# 6 0.000000 0.000000 0.000000 0.000000 0.000000 0.135860
#
#
# Mechanical properties :
#
#
# Convention : Reuss Voigt Hill
#
# Bulk Modulus (GPa) = 27.64242 33.16023 30.40132
# Shear Modulus (GPa) = 11.81636 21.24634 16.53135
#
# Velocity S-wave (km/s) = 2.74045 3.67470 3.24141
# Velocity P-wave (km/s) = 5.25185 6.25140 5.77329
#
# Compressibility (1/GPa) = 0.03617629
#
# Stress axis : x y z
#
# Youngs Moduli (GPa) = 73.56156 55.05977 36.34112
#
# Poissons Ratio (x) = 0.16501 0.30515
# Poissons Ratio (y) = 0.22046 0.00562
# Poissons Ratio (z) = 0.61769 0.00851
#
# Static dielectric constant tensor:
#      x y z
#    x 1.513010 0.000000 0.000000 
#    y 0.000000 1.519070 0.000000 
#    z 0.000000 0.000000 1.562330 
# 
# From -- ./inp_files/13419.got.cif
#   From: 2010.05.17/outbox.cif.g08.bks.cpg/sg47_7_cif.got.tgz:13419.got - 2010.06.03 20:15:42.
