data_PCOD9381862
_publ_section_title
;
Structure prediction by ZEFSAII (Michael W. Deem and Ramdas Pophale) SiO2 
 PCOD9381862
Probable space group: P M M M
;
_chemical_formula_sum "Si O2"
_cell_formula_units_Z 52
_cell_length_a 8.101376
_cell_length_b 24.272968
_cell_length_c 14.764958
_cell_angle_alpha 90.000000
_cell_angle_beta 90.000000
_cell_angle_gamma 90.000000
_cell_volume 2903.446903
_symmetry_space_group_name_H-M "P M M M"
_symmetry_group_IT_number 47
_symmetry_cell_setting 'orthorhombic'
loop_
_space_group_symop_operation_xyz
x,y,z
-x,-y,z
x,-y,-z
-x,y,-z
-x,-y,-z
x,y,-z
-x,y,z
x,-y,z
loop_
_atom_site_type_symbol
_atom_site_label
_atom_site_fract_x
_atom_site_fract_y
_atom_site_fract_z
Si Si1 0.196042 0.223154 0.898302
Si Si2 0.697282 0.831966 0.602524
Si Si3 0.305816 0.901744 0.898182
Si Si4 0.806006 0.939862 0.292531
Si Si5 0.308927 0.500000 0.389976
Si Si6 0.702403 0.620345 0.394920
Si Si7 0.300279 0.273405 0.283661
O O1 0.282540 0.163963 0.884662
O O2 0.245461 0.264332 0.819114
O O3 0.000000 0.213134 0.894040
O O4 0.237365 0.242328 0.000000
O O5 0.762943 0.833222 0.500000
O O6 0.500000 0.825106 0.597108
O O7 0.729705 0.888552 0.654896
O O8 0.760445 0.779652 0.659320
O O9 0.500000 0.914571 0.894498
O O10 0.219638 0.931243 0.814745
O O11 0.244826 0.914734 0.000000
O O12 0.000000 0.939156 0.311751
O O13 0.738114 0.000000 0.318425
O O14 0.500000 0.500000 0.359435
O O15 0.311126 0.500000 0.500000
O O16 0.237429 0.440396 0.364883
O O17 0.749489 0.629863 0.500000
O O18 0.500000 0.618708 0.394267
O O19 0.755438 0.670424 0.331546
O O20 0.500000 0.273179 0.285526
#
# Coordination Sequence:
#
# PCOD9381862 Si02
#       7
#     8   8   8   8   4   8   8
#     4  10  20  33  50  72  99 129 158 193 241 296
#     4  10  21  36  53  73  97 127 163 203 247 291
#     4  10  20  35  56  79 100 123 154 195 244 297
#     4  11  24  39  54  73  98 129 164 201 243 292
#     4   7  10  18  34  60  98 139 170 196 231 277
#     4   8  13  22  39  67 103 138 168 198 235 281
#     4  10  18  29  49  76 102 128 160 201 244 287
#
# _framework density 17.909748
#
# number of rings (size 3 to 8) (size 9 to 14) (size 15 to 20)
#    0.000    2.385    1.538    2.769    0.000    5.846 
#    0.000    3.077    0.000    1.385    0.000    1.077 
#    0.000    6.154    0.000    0.000    0.000    0.000 
#
# Total GULP energy -290031.753591 kJ/mol
# GULP energy per Si atom -5577.533723 kJ/mol
# Density = 1.786898 g / cm^3
# Si number density = 17.909748 Si / 1000 Ang^3
#
#
#
# Elastic Constant Matrix: (Units=GPa)
#
#
# Indices 1 2 3 4 5 6 
#
# 1 12.6276 3.5520 3.3436 0.0000 0.0000 0.0000
# 2 3.5520 137.1282 62.9432 0.0000 0.0000 0.0000
# 3 3.3436 62.9432 98.0951 0.0000 0.0000 0.0000
# 4 0.0000 0.0000 0.0000 23.7116 0.0000 0.0000
# 5 0.0000 0.0000 0.0000 0.0000 -20.1805 0.0000
# 6 0.0000 0.0000 0.0000 0.0000 0.0000 910.0479
#
#
#
# Elastic Compliance Matrix: (Units=1/GPa)
#
#
# Indices 1 2 3 4 5 6 
#
# 1 0.080043 -0.001164 -0.001982 0.000000 0.000000 0.000000
# 2 -0.001164 0.010354 -0.006604 0.000000 0.000000 0.000000
# 3 -0.001982 -0.006604 0.014499 0.000000 0.000000 0.000000
# 4 0.000000 0.000000 0.000000 0.042173 0.000000 0.000000
# 5 0.000000 0.000000 0.000000 0.000000 -0.049553 0.000000
# 6 0.000000 0.000000 0.000000 0.000000 0.000000 0.001099
#
#
# Mechanical properties :
#
#
# Convention : Reuss Voigt Hill
#
# Bulk Modulus (GPa) = 11.70989 43.05873 27.38431
# Shear Modulus (GPa) = 34.11097 194.58329 114.34713
#
# Velocity S-wave (km/s) = 4.36891 10.43467 7.99906
# Velocity P-wave (km/s) = 5.65706 13.01041 10.03178
#
# Compressibility (1/GPa) = 0.08539791
#
# Stress axis : x y z
#
# Youngs Moduli (GPa) = 12.49322 96.58236 68.96951
#
# Poissons Ratio (x) = 0.11241 0.13666
# Poissons Ratio (y) = 0.01454 0.45547
# Poissons Ratio (z) = 0.02476 0.63782
#
# Static dielectric constant tensor:
#      x y z
#    x 1.633620 0.000000 0.000000 
#    y 0.000000 1.625520 0.000000 
#    z 0.000000 0.000000 1.607840 
# 
# From -- ./inp_files/21473.got.cif
#   From: 2010.05.17/outbox.cif.g08.bks.cpg/sg47_11_cif.got.tgz:21473.got - 2010.06.03 20:15:42.
