data_PCOD9381366
_publ_section_title
;
Structure prediction by ZEFSAII (Michael W. Deem and Ramdas Pophale) SiO2 
 PCOD9381366
Probable space group: P M M M
;
_chemical_formula_sum "Si O2"
_cell_formula_units_Z 60
_cell_length_a 7.419900
_cell_length_b 25.871607
_cell_length_c 15.378676
_cell_angle_alpha 90.000000
_cell_angle_beta 90.000000
_cell_angle_gamma 90.000000
_cell_volume 2952.163490
_symmetry_space_group_name_H-M "P M M M"
_symmetry_group_IT_number 47
_symmetry_cell_setting 'orthorhombic'
loop_
_space_group_symop_operation_xyz
x,y,z
-x,-y,z
x,-y,-z
-x,y,-z
-x,-y,-z
x,y,-z
-x,y,z
x,-y,z
loop_
_atom_site_type_symbol
_atom_site_label
_atom_site_fract_x
_atom_site_fract_y
_atom_site_fract_z
Si Si1 0.782157 0.705434 0.906209
Si Si2 0.779226 0.251805 0.599775
Si Si3 0.710970 0.563041 0.000000
Si Si4 0.717406 0.058220 0.599087
Si Si5 0.283746 0.441433 0.190077
Si Si6 0.210879 0.844225 0.283426
Si Si7 0.217931 0.827970 0.906129
Si Si8 0.785875 0.340188 0.726377
O O1 0.745094 0.766598 0.903223
O O2 0.710749 0.680883 0.818090
O O3 0.000000 0.700372 0.906178
O O4 0.717733 0.685077 0.000000
O O5 0.719663 0.247618 0.500000
O O6 0.717362 0.203503 0.659044
O O7 0.721420 0.304998 0.646893
O O8 0.000000 0.250612 0.597705
O O9 0.787349 0.577669 0.094953
O O10 0.720180 0.500000 0.000000
O O11 0.500000 0.576751 0.000000
O O12 0.777117 0.069025 0.500000
O O13 0.500000 0.057970 0.598378
O O14 0.775005 0.103050 0.663397
O O15 0.776547 0.000000 0.622289
O O16 0.500000 0.443662 0.181715
O O17 0.219977 0.500000 0.205012
O O18 0.242874 0.401304 0.266385
O O19 0.285573 0.849442 0.185789
O O20 0.000000 0.831565 0.272021
O O21 0.000000 0.834169 0.908236
O O22 0.284718 0.847734 0.000000
O O23 0.000000 0.331723 0.728171
#
# Coordination Sequence:
#
# PCOD9381366 Si02
#       8
#     8   8   4   8   8   8   8   8
#     4   8  13  22  37  60  91 121 147 177 216 265
#     4   9  17  29  45  69 100 126 147 181 233 282
#     4   7  12  26  45  61  81 115 151 175 210 273
#     4   9  19  35  51  68  95 130 162 194 240 291
#     4   9  18  32  47  62  85 118 151 183 224 272
#     4  10  17  28  50  77  99 123 160 198 230 269
#     4   8  13  23  41  66  98 131 157 183 223 276
#     4  10  18  28  45  68  91 117 150 186 224 269
#
# _framework density 20.324076999999999
#
# number of rings (size 3 to 8) (size 9 to 14) (size 15 to 20)
#    0.000    3.133    1.333    2.400    0.933    1.333 
#    0.000    1.333    0.000    3.600    0.000    7.467 
#    0.000    0.000    0.000    0.000    0.000    0.000 
#
# Total GULP energy -334539.791834 kJ/mol
# GULP energy per Si atom -5575.663197 kJ/mol
# Density = 2.027782 g / cm^3
# Si number density = 20.324077 Si / 1000 Ang^3
#
#
#
# Elastic Constant Matrix: (Units=GPa)
#
#
# Indices 1 2 3 4 5 6 
#
# 1 63.8402 -3.8362 8.1836 0.0000 0.0000 0.0000
# 2 -3.8362 100.7669 90.5109 0.0000 0.0000 0.0000
# 3 8.1836 90.5109 178.5039 0.0000 0.0000 0.0000
# 4 0.0000 0.0000 0.0000 31.6182 0.0000 0.0000
# 5 0.0000 0.0000 0.0000 0.0000 -8.7602 0.0000
# 6 0.0000 0.0000 0.0000 0.0000 0.0000 20.4339
#
#
#
# Elastic Compliance Matrix: (Units=1/GPa)
#
#
# Indices 1 2 3 4 5 6 
#
# 1 0.016051 0.002336 -0.001920 0.000000 0.000000 0.000000
# 2 0.002336 0.018564 -0.009520 0.000000 0.000000 0.000000
# 3 -0.001920 -0.009520 0.010517 0.000000 0.000000 0.000000
# 4 0.000000 0.000000 0.000000 0.031627 0.000000 0.000000
# 5 0.000000 0.000000 0.000000 0.000000 -0.114153 0.000000
# 6 0.000000 0.000000 0.000000 0.000000 0.000000 0.048938
#
#
# Mechanical properties :
#
#
# Convention : Reuss Voigt Hill
#
# Bulk Modulus (GPa) = 37.14287 59.20305 48.17296
# Shear Modulus (GPa) = 129.10656 25.20857 77.15756
#
# Velocity S-wave (km/s) = 7.97884 3.52565 6.16815
# Velocity P-wave (km/s) = 10.15861 6.76509 8.63029
#
# Compressibility (1/GPa) = 0.02692307
#
# Stress axis : x y z
#
# Youngs Moduli (GPa) = 62.30288 53.86833 95.08196
#
# Poissons Ratio (x) = -0.12583 0.18258
# Poissons Ratio (y) = -0.14553 0.90517
# Poissons Ratio (z) = 0.11964 0.51282
#
# Static dielectric constant tensor:
#      x y z
#    x 1.791060 0.000000 0.000000 
#    y 0.000000 1.720570 0.000000 
#    z 0.000000 0.000000 1.742600 
# 
# From -- ./inp_files/23102.got.cif
#   From: 2010.05.17/outbox.cif.g08.bks.cpg/sg47_12_cif.got.tgz:23102.got - 2010.06.03 20:15:42.
