data_PCOD9381848
_publ_section_title
;
Structure prediction by ZEFSAII (Michael W. Deem and Ramdas Pophale) SiO2 
 PCOD9381848
Probable space group: P M M M
;
_chemical_formula_sum "Si O2"
_cell_formula_units_Z 52
_cell_length_a 9.153670
_cell_length_b 28.879560
_cell_length_c 12.078021
_cell_angle_alpha 90.000000
_cell_angle_beta 90.000000
_cell_angle_gamma 90.000000
_cell_volume 3192.872704
_symmetry_space_group_name_H-M "P M M M"
_symmetry_group_IT_number 47
_symmetry_cell_setting 'orthorhombic'
loop_
_space_group_symop_operation_xyz
x,y,z
-x,-y,z
x,-y,-z
-x,y,-z
-x,-y,-z
x,y,-z
-x,y,z
x,-y,z
loop_
_atom_site_type_symbol
_atom_site_label
_atom_site_fract_x
_atom_site_fract_y
_atom_site_fract_z
Si Si1 0.337240 0.165071 0.000000
Si Si2 0.669800 0.776200 0.224576
Si Si3 0.823249 0.948781 0.246464
Si Si4 0.667927 0.593290 0.134520
Si Si5 0.173311 0.072333 0.000000
Si Si6 0.825577 0.688861 0.130962
Si Si7 0.831136 0.500000 0.864915
Si Si8 0.324853 0.137262 0.369408
O O1 0.325867 0.196127 0.108603
O O2 0.215213 0.126117 0.000000
O O3 0.500000 0.143095 0.000000
O O4 0.500000 0.763980 0.246726
O O5 0.763326 0.730377 0.204963
O O6 0.720396 0.813714 0.315135
O O7 0.774265 0.946889 0.117663
O O8 0.752108 0.906049 0.310455
O O9 0.000000 0.944030 0.249201
O O10 0.786722 0.000000 0.291359
O O11 0.500000 0.594512 0.171548
O O12 0.752997 0.640128 0.163683
O O13 0.749115 0.546622 0.171466
O O14 0.666767 0.591837 0.000000
O O15 0.000000 0.064971 0.000000
O O16 0.000000 0.686033 0.138531
O O17 0.788840 0.697350 0.000000
O O18 0.000000 0.500000 0.830938
O O19 0.829314 0.500000 0.000000
O O20 0.296154 0.136649 0.500000
O O21 0.500000 0.133527 0.351326
#
# Coordination Sequence:
#
# PCOD9381848 Si02
#       8
#     4   8   8   8   4   8   4   8
#     4  10  18  29  49  73  94 119 153 190 233 284
#     4  10  19  32  49  68  92 119 149 189 237 285
#     4  10  21  36  54  76 101 127 154 188 232 281
#     4   9  16  25  37  54  80 117 160 199 236 279
#     4  10  19  32  52  76 102 126 151 185 229 280
#     4  10  19  28  41  64  92 119 151 192 237 283
#     4   9  15  23  35  51  77 115 160 205 242 275
#     4  10  22  39  56  73  94 123 160 198 235 279
#
# _framework density 16.286273999999999
#
# number of rings (size 3 to 8) (size 9 to 14) (size 15 to 20)
#    0.000    2.231    2.308    1.385    0.000    6.462 
#    0.000    1.538    0.000    1.385    0.000    0.000 
#    0.000    0.000    0.000    0.692    0.000   14.385 
#
# Total GULP energy -289869.715547 kJ/mol
# GULP energy per Si atom -5574.417607 kJ/mol
# Density = 1.624921 g / cm^3
# Si number density = 16.286274 Si / 1000 Ang^3
#
#
#
# Elastic Constant Matrix: (Units=GPa)
#
#
# Indices 1 2 3 4 5 6 
#
# 1 64.9363 71.8616 30.1686 0.0000 0.0000 0.0000
# 2 71.8616 165.8304 49.2209 0.0000 0.0000 0.0000
# 3 30.1686 49.2209 60.2970 0.0000 0.0000 0.0000
# 4 0.0000 0.0000 0.0000 -15.4577 0.0000 0.0000
# 5 0.0000 0.0000 0.0000 0.0000 14.0309 0.0000
# 6 0.0000 0.0000 0.0000 0.0000 0.0000 32.6655
#
#
#
# Elastic Compliance Matrix: (Units=1/GPa)
#
#
# Indices 1 2 3 4 5 6 
#
# 1 0.031167 -0.011716 -0.006030 0.000000 0.000000 0.000000
# 2 -0.011716 0.012363 -0.004230 0.000000 0.000000 0.000000
# 3 -0.006030 -0.004230 0.023054 0.000000 0.000000 0.000000
# 4 0.000000 0.000000 0.000000 -0.064693 0.000000 0.000000
# 5 0.000000 0.000000 0.000000 0.000000 0.071271 0.000000
# 6 0.000000 0.000000 0.000000 0.000000 0.000000 0.030613
#
#
# Mechanical properties :
#
#
# Convention : Reuss Voigt Hill
#
# Bulk Modulus (GPa) = 44.18467 65.95175 55.06821
# Shear Modulus (GPa) = 32.20160 15.56858 23.88509
#
# Velocity S-wave (km/s) = 4.45142 3.09517 3.83375
# Velocity P-wave (km/s) = 7.32182 7.30456 7.31320
#
# Compressibility (1/GPa) = 0.02263229
#
# Stress axis : x y z
#
# Youngs Moduli (GPa) = 32.08552 80.88720 43.37578
#
# Poissons Ratio (x) = 0.94769 0.26154
# Poissons Ratio (y) = 0.37592 0.18348
# Poissons Ratio (z) = 0.19347 0.34215
#
# Static dielectric constant tensor:
#      x y z
#    x 1.554990 0.000000 0.000000 
#    y 0.000000 1.543720 0.000000 
#    z 0.000000 0.000000 1.529480 
# 
# From -- ./inp_files/15588.got.cif
#   From: 2010.05.17/outbox.cif.g08.bks.cpg/sg47_8_cif.got.tgz:15588.got - 2010.06.03 20:15:42.
