data_PCOD9381350
_publ_section_title
;
Structure prediction by ZEFSAII (Michael W. Deem and Ramdas Pophale) SiO2 
 PCOD9381350
Probable space group: P M M M
;
_chemical_formula_sum "Si O2"
_cell_formula_units_Z 52
_cell_length_a 15.417268
_cell_length_b 23.644545
_cell_length_c 7.904937
_cell_angle_alpha 90.000000
_cell_angle_beta 90.000000
_cell_angle_gamma 90.000000
_cell_volume 2881.620573
_symmetry_space_group_name_H-M "P M M M"
_symmetry_group_IT_number 47
_symmetry_cell_setting 'orthorhombic'
loop_
_space_group_symop_operation_xyz
x,y,z
-x,-y,z
x,-y,-z
-x,y,-z
-x,-y,-z
x,y,-z
-x,y,z
x,-y,z
loop_
_atom_site_type_symbol
_atom_site_label
_atom_site_fract_x
_atom_site_fract_y
_atom_site_fract_z
Si Si1 0.099574 0.291196 0.199807
Si Si2 0.591834 0.931449 0.198866
Si Si3 0.899538 0.500000 0.292496
Si Si4 0.097876 0.166119 0.701840
Si Si5 0.779182 0.935598 0.204186
Si Si6 0.596780 0.566754 0.705729
Si Si7 0.782802 0.394872 0.701502
O O1 0.129256 0.226970 0.233597
O O2 0.167638 0.336356 0.268641
O O3 0.000000 0.297574 0.268699
O O4 0.094625 0.299860 0.000000
O O5 0.500000 0.912323 0.274654
O O6 0.684880 0.915906 0.271749
O O7 0.592142 0.000000 0.202746
O O8 0.590960 0.915453 0.000000
O O9 0.901076 0.500000 0.500000
O O10 0.845783 0.554966 0.235335
O O11 0.000000 0.500000 0.237606
O O12 0.095897 0.169397 0.500000
O O13 0.151948 0.111517 0.751476
O O14 0.000000 0.159680 0.767721
O O15 0.797969 0.000000 0.262786
O O16 0.772755 0.938571 0.000000
O O17 0.594821 0.570760 0.500000
O O18 0.500000 0.584662 0.764959
O O19 0.607072 0.500000 0.745695
O O20 0.683781 0.598644 0.766486
O O21 0.776391 0.403245 0.500000
#
# Coordination Sequence:
#
# PCOD9381350 Si02
#       7
#     8   8   4   8   8   8   8
#     4  10  21  36  52  69  91 122 159 199 244 293
#     4   7  10  19  38  65  95 124 153 183 216 262
#     4   9  16  24  38  66 100 127 153 189 230 273
#     4  10  21  36  52  69  91 123 163 203 241 284
#     4   9  17  29  48  75 103 129 157 192 237 286
#     4   8  13  23  42  70 101 129 161 200 237 276
#     4  10  17  28  48  73  98 127 161 196 236 279
#
# _framework density 18.045401999999999
#
# number of rings (size 3 to 8) (size 9 to 14) (size 15 to 20)
#    0.000    3.000    0.769    3.231    0.000    3.077 
#    0.000    1.923    0.000    3.231    0.000    3.231 
#    0.000    0.000    0.000    0.000    0.000    0.000 
#
# Total GULP energy -289487.192048 kJ/mol
# GULP energy per Si atom -5567.061386 kJ/mol
# Density = 1.800433 g / cm^3
# Si number density = 18.045402 Si / 1000 Ang^3
#
#
#
# Elastic Constant Matrix: (Units=GPa)
#
#
# Indices 1 2 3 4 5 6 
#
# 1 156.0309 89.3510 7.6336 0.0000 0.0000 0.0000
# 2 89.3510 95.4149 -3.7629 0.0000 0.0000 0.0000
# 3 7.6336 -3.7629 15.3432 0.0000 0.0000 0.0000
# 4 0.0000 0.0000 0.0000 22.5552 0.0000 0.0000
# 5 0.0000 0.0000 0.0000 0.0000 1.7874 0.0000
# 6 0.0000 0.0000 0.0000 0.0000 0.0000 13.5870
#
#
#
# Elastic Compliance Matrix: (Units=1/GPa)
#
#
# Indices 1 2 3 4 5 6 
#
# 1 0.015585 -0.015046 -0.011444 0.000000 0.000000 0.000000
# 2 -0.015046 0.025108 0.013643 0.000000 0.000000 0.000000
# 3 -0.011444 0.013643 0.074215 0.000000 0.000000 0.000000
# 4 0.000000 0.000000 0.000000 0.044336 0.000000 0.000000
# 5 0.000000 0.000000 0.000000 0.000000 0.559487 0.000000
# 6 0.000000 0.000000 0.000000 0.000000 0.000000 0.073600
#
#
# Mechanical properties :
#
#
# Convention : Reuss Voigt Hill
#
# Bulk Modulus (GPa) = 11.20876 50.35914 30.78395
# Shear Modulus (GPa) = 5.89789 19.15708 12.52749
#
# Velocity S-wave (km/s) = 1.80982 3.26176 2.63766
# Velocity P-wave (km/s) = 3.25456 6.49253 5.13542
#
# Compressibility (1/GPa) = 0.08921594
#
# Stress axis : x y z
#
# Youngs Moduli (GPa) = 64.16565 39.82804 13.47433
#
# Poissons Ratio (x) = 0.59923 0.15420
# Poissons Ratio (y) = 0.96541 -0.18383
# Poissons Ratio (z) = 0.73429 -0.54339
#
# Static dielectric constant tensor:
#      x y z
#    x 1.685350 0.000000 0.000000 
#    y 0.000000 1.579750 0.000000 
#    z 0.000000 0.000000 1.666540 
# 
# From -- ./inp_files/7660.got.cif
#   From: 2010.05.17/outbox.cif.g08.bks.cpg/sg47_4_cif.got.tgz:7660.got - 2010.06.03 20:15:42.
