data_PCOD9382787
_publ_section_title
;
Structure prediction by ZEFSAII (Michael W. Deem and Ramdas Pophale) SiO2 
 PCOD9382787
Probable space group: P M M M
;
_chemical_formula_sum "Si O2"
_cell_formula_units_Z 64
_cell_length_a 9.082379
_cell_length_b 18.918032
_cell_length_c 22.771871
_cell_angle_alpha 90.000000
_cell_angle_beta 90.000000
_cell_angle_gamma 90.000000
_cell_volume 3912.679648
_symmetry_space_group_name_H-M "P M M M"
_symmetry_group_IT_number 47
_symmetry_cell_setting 'orthorhombic'
loop_
_space_group_symop_operation_xyz
x,y,z
-x,-y,z
x,-y,-z
-x,y,-z
-x,-y,-z
x,y,-z
-x,y,z
x,-y,z
loop_
_atom_site_type_symbol
_atom_site_label
_atom_site_fract_x
_atom_site_fract_y
_atom_site_fract_z
Si Si1 0.165604 0.169158 0.836377
Si Si2 0.171854 0.705905 0.260929
Si Si3 0.336465 0.921267 0.756294
Si Si4 0.325371 0.420024 0.810385
Si Si5 0.175556 0.612440 0.066578
Si Si6 0.667022 0.239437 0.934243
Si Si7 0.330889 0.807784 0.652054
Si Si8 0.174520 0.919674 0.570386
O O1 0.176936 0.233681 0.789752
O O2 0.211070 0.099583 0.801584
O O3 0.281795 0.184117 0.886753
O O4 0.000000 0.167215 0.859078
O O5 0.251345 0.638226 0.231895
O O6 0.247880 0.740620 0.318590
O O7 0.000000 0.690771 0.272439
O O8 0.500000 0.915937 0.783682
O O9 0.333040 0.865315 0.704303
O O10 0.317700 0.000000 0.733497
O O11 0.500000 0.405775 0.814717
O O12 0.304440 0.500000 0.787821
O O13 0.255862 0.417859 0.876070
O O14 0.221919 0.694638 0.068593
O O15 0.000000 0.603448 0.072459
O O16 0.216907 0.587504 0.000000
O O17 0.500000 0.264824 0.922960
O O18 0.671716 0.210690 0.000000
O O19 0.500000 0.789703 0.637178
O O20 0.253111 0.852961 0.600738
O O21 0.191146 0.915402 0.500000
O O22 0.000000 0.916139 0.584106
O O23 0.225226 0.000000 0.587589
#
# Coordination Sequence:
#
# PCOD9382787 Si02
#       8
#     8   8   8   8   8   8   8   8
#     4  10  19  30  47  69  90 115 148 190 237 285
#     4  10  20  34  51  71  95 126 164 203 244 293
#     4   9  18  31  46  66  93 124 156 192 237 286
#     4  11  23  36  51  71  97 129 162 201 251 303
#     4  10  20  33  49  69  93 122 157 197 241 294
#     4  10  19  30  47  68  88 113 146 187 235 287
#     4  10  19  31  50  74 101 133 169 211 249 286
#     4   9  18  32  49  72 107 149 186 217 250 290
#
# _framework density 16.357077
#
# number of rings (size 3 to 8) (size 9 to 14) (size 15 to 20)
#    0.000    2.125    1.250    3.000    0.000    5.500 
#    0.000    1.875    0.000    0.375    0.000    2.625 
#    0.000    0.500    0.000    5.250    0.000    2.250 
#
# Total GULP energy -356548.703287 kJ/mol
# GULP energy per Si atom -5571.073489 kJ/mol
# Density = 1.631985 g / cm^3
# Si number density = 16.357077 Si / 1000 Ang^3
#
#
#
# Elastic Constant Matrix: (Units=GPa)
#
#
# Indices 1 2 3 4 5 6 
#
# 1 92.2571 43.7672 40.0375 0.0000 0.0000 0.0000
# 2 43.7672 67.5453 30.8623 0.0000 0.0000 0.0000
# 3 40.0375 30.8623 53.9115 0.0000 0.0000 0.0000
# 4 0.0000 0.0000 0.0000 17.4032 0.0000 0.0000
# 5 0.0000 0.0000 0.0000 0.0000 24.9356 0.0000
# 6 0.0000 0.0000 0.0000 0.0000 0.0000 15.2559
#
#
#
# Elastic Compliance Matrix: (Units=1/GPa)
#
#
# Indices 1 2 3 4 5 6 
#
# 1 0.018584 -0.007768 -0.009355 0.000000 0.000000 0.000000
# 2 -0.007768 0.023296 -0.007567 0.000000 0.000000 0.000000
# 3 -0.009355 -0.007567 0.029828 0.000000 0.000000 0.000000
# 4 0.000000 0.000000 0.000000 0.057461 0.000000 0.000000
# 5 0.000000 0.000000 0.000000 0.000000 0.040103 0.000000
# 6 0.000000 0.000000 0.000000 0.000000 0.000000 0.065548
#
#
# Mechanical properties :
#
#
# Convention : Reuss Voigt Hill
#
# Bulk Modulus (GPa) = 44.78563 49.22755 47.00659
# Shear Modulus (GPa) = 17.14428 18.12206 17.63317
#
# Velocity S-wave (km/s) = 3.24099 3.33213 3.28688
# Velocity P-wave (km/s) = 6.43776 6.70560 6.57304
#
# Compressibility (1/GPa) = 0.02232859
#
# Stress axis : x y z
#
# Youngs Moduli (GPa) = 53.80970 42.92662 33.52524
#
# Poissons Ratio (x) = 0.33343 0.31362
# Poissons Ratio (y) = 0.41797 0.25370
# Poissons Ratio (z) = 0.50338 0.32484
#
# Static dielectric constant tensor:
#      x y z
#    x 1.573970 0.000000 0.000000 
#    y 0.000000 1.547390 0.000000 
#    z 0.000000 0.000000 1.548250 
# 
# From -- ./inp_files/9979.got.cif
#   From: 2010.05.17/outbox.cif.g08.bks.cpg/sg47_5_cif.got.tgz:9979.got - 2010.06.03 20:15:42.
