data_PCOD9382726
_publ_section_title
;
Structure prediction by ZEFSAII (Michael W. Deem and Ramdas Pophale) SiO2 
 PCOD9382726
Probable space group: P M M M
;
_chemical_formula_sum "Si O2"
_cell_formula_units_Z 64
_cell_length_a 9.097762
_cell_length_b 23.128100
_cell_length_c 18.897720
_cell_angle_alpha 90.000000
_cell_angle_beta 90.000000
_cell_angle_gamma 90.000000
_cell_volume 3976.343898
_symmetry_space_group_name_H-M "P M M M"
_symmetry_group_IT_number 47
_symmetry_cell_setting 'orthorhombic'
loop_
_space_group_symop_operation_xyz
x,y,z
-x,-y,z
x,-y,-z
-x,y,-z
-x,-y,-z
x,y,-z
-x,y,z
x,-y,z
loop_
_atom_site_type_symbol
_atom_site_label
_atom_site_fract_x
_atom_site_fract_y
_atom_site_fract_z
Si Si1 0.674217 0.185853 0.580054
Si Si2 0.824510 0.065526 0.614773
Si Si3 0.332685 0.935037 0.236341
Si Si4 0.833804 0.162273 0.167128
Si Si5 0.663104 0.243210 0.921263
Si Si6 0.330469 0.656612 0.195582
Si Si7 0.171603 0.256003 0.705516
Si Si8 0.678182 0.431754 0.920303
O O1 0.695252 0.207958 0.500000
O O2 0.500000 0.181105 0.594061
O O3 0.744956 0.121500 0.582955
O O4 0.746850 0.227756 0.638323
O O5 0.776093 0.067877 0.696797
O O6 0.000000 0.071400 0.606978
O O7 0.784119 0.000000 0.589645
O O8 0.500000 0.923535 0.260539
O O9 0.279511 0.888533 0.180945
O O10 0.327590 0.000000 0.208147
O O11 0.787239 0.197925 0.098640
O O12 0.820720 0.206915 0.233045
O O13 0.000000 0.141030 0.164484
O O14 0.500000 0.216180 0.915648
O O15 0.666808 0.293963 0.864599
O O16 0.679569 0.266374 0.000000
O O17 0.500000 0.644944 0.217150
O O18 0.243349 0.686128 0.260525
O O19 0.269052 0.602828 0.149357
O O20 0.000000 0.265580 0.689608
O O21 0.500000 0.424379 0.920365
O O22 0.708702 0.500000 0.914026
O O23 0.728194 0.413408 0.000000
#
# Coordination Sequence:
#
# PCOD9382726 Si02
#       8
#     8   8   8   8   8   8   8   8
#     4  11  23  36  51  70  93 122 155 194 240 288
#     4  10  20  33  49  69  93 121 152 186 227 280
#     4  10  19  30  47  68  87 110 143 184 227 273
#     4  10  19  30  46  66  87 113 144 183 231 279
#     4   9  17  28  43  64  89 118 152 189 230 275
#     4   9  16  27  46  69  95 128 164 203 237 269
#     4  10  20  33  48  67  91 121 157 195 236 283
#     4   8  13  22  40  70 106 140 174 209 241 274
#
# _framework density 16.095188
#
# number of rings (size 3 to 8) (size 9 to 14) (size 15 to 20)
#    0.000    2.375    1.250    2.625    0.000    5.500 
#    0.000    1.250    0.000    1.875    0.000    3.500 
#    0.000    0.500    0.000    5.750    0.000    1.625 
#
# Total GULP energy -356385.011625 kJ/mol
# GULP energy per Si atom -5568.515807 kJ/mol
# Density = 1.605855 g / cm^3
# Si number density = 16.095188 Si / 1000 Ang^3
#
#
#
# Elastic Constant Matrix: (Units=GPa)
#
#
# Indices 1 2 3 4 5 6 
#
# 1 66.3826 31.5867 37.0918 0.0000 0.0000 0.0000
# 2 31.5867 64.6522 35.2008 0.0000 0.0000 0.0000
# 3 37.0918 35.2008 66.3638 0.0000 0.0000 0.0000
# 4 0.0000 0.0000 0.0000 17.5009 0.0000 0.0000
# 5 0.0000 0.0000 0.0000 0.0000 7.6681 0.0000
# 6 0.0000 0.0000 0.0000 0.0000 0.0000 11.7497
#
#
#
# Elastic Compliance Matrix: (Units=1/GPa)
#
#
# Indices 1 2 3 4 5 6 
#
# 1 0.023493 -0.006086 -0.009902 0.000000 0.000000 0.000000
# 2 -0.006086 0.023325 -0.008970 0.000000 0.000000 0.000000
# 3 -0.009902 -0.008970 0.025361 0.000000 0.000000 0.000000
# 4 0.000000 0.000000 0.000000 0.057140 0.000000 0.000000
# 5 0.000000 0.000000 0.000000 0.000000 0.130410 0.000000
# 6 0.000000 0.000000 0.000000 0.000000 0.000000 0.085109
#
#
# Mechanical properties :
#
#
# Convention : Reuss Voigt Hill
#
# Bulk Modulus (GPa) = 44.92131 45.01746 44.96939
# Shear Modulus (GPa) = 12.43236 13.61838 13.02537
#
# Velocity S-wave (km/s) = 2.78227 2.91196 2.84786
# Velocity P-wave (km/s) = 6.18803 6.27186 6.23009
#
# Compressibility (1/GPa) = 0.02226115
#
# Stress axis : x y z
#
# Youngs Moduli (GPa) = 42.56529 42.87255 39.43050
#
# Poissons Ratio (x) = 0.26094 0.39046
# Poissons Ratio (y) = 0.25907 0.35370
# Poissons Ratio (z) = 0.42150 0.38458
#
# Static dielectric constant tensor:
#      x y z
#    x 1.553260 0.000000 0.000000 
#    y 0.000000 1.548820 0.000000 
#    z 0.000000 0.000000 1.542070 
# 
# From -- ./inp_files/27092.got.cif
#   From: 2010.05.17/outbox.cif.g08.bks.cpg/sg47_14_cif.got.tgz:27092.got - 2010.06.03 20:15:42.
