data_PCOD9382290
_publ_section_title
;
Structure prediction by ZEFSAII (Michael W. Deem and Ramdas Pophale) SiO2 
 PCOD9382290
Probable space group: P M M M
;
_chemical_formula_sum "Si O2"
_cell_formula_units_Z 44
_cell_length_a 7.479154
_cell_length_b 18.745005
_cell_length_c 14.755965
_cell_angle_alpha 90.000000
_cell_angle_beta 90.000000
_cell_angle_gamma 90.000000
_cell_volume 2068.738766
_symmetry_space_group_name_H-M "P M M M"
_symmetry_group_IT_number 47
_symmetry_cell_setting 'orthorhombic'
loop_
_space_group_symop_operation_xyz
x,y,z
-x,-y,z
x,-y,-z
-x,y,-z
-x,-y,-z
x,y,-z
-x,y,z
x,-y,z
loop_
_atom_site_type_symbol
_atom_site_label
_atom_site_fract_x
_atom_site_fract_y
_atom_site_fract_z
Si Si1 0.713223 0.302147 0.399115
Si Si2 0.212240 0.641243 0.791739
Si Si3 0.219236 0.500000 0.105497
Si Si4 0.209127 0.863546 0.399851
Si Si5 0.218970 0.920966 0.210663
Si Si6 0.218606 0.218670 0.895932
O O1 0.776148 0.323621 0.500000
O O2 0.500000 0.297424 0.401612
O O3 0.761071 0.352875 0.315895
O O4 0.780941 0.221549 0.381913
O O5 0.280605 0.570599 0.841260
O O6 0.281702 0.713972 0.837271
O O7 0.000000 0.641310 0.807340
O O8 0.000000 0.500000 0.106174
O O9 0.272492 0.500000 0.000000
O O10 0.287411 0.876457 0.500000
O O11 0.281755 0.904452 0.313013
O O12 0.000000 0.882504 0.404827
O O13 0.276682 0.856004 0.147336
O O14 0.000000 0.919520 0.211574
O O15 0.273173 0.000000 0.181742
O O16 0.000000 0.218699 0.893686
O O17 0.272472 0.225919 0.000000
#
# Coordination Sequence:
#
# PCOD9382290 Si02
#       6
#     8   8   4   8   8   8
#     4  10  20  33  51  75 101 131 167 206 248 295
#     4  10  18  32  54  78 103 131 164 202 245 295
#     4   9  18  32  54  85 112 132 161 207 254 291
#     4   9  16  28  47  70  96 127 164 207 252 297
#     4   9  16  25  39  66 101 130 160 200 246 295
#     4   9  16  26  43  68  97 129 163 200 243 289
#
# _framework density 21.268998
#
# number of rings (size 3 to 8) (size 9 to 14) (size 15 to 20)
#    0.000    2.636    1.818    1.091    0.000    4.000 
#    0.000    4.545    0.000    6.000    0.000    2.545 
#    0.000    1.455    0.000    0.000    0.000    0.000 
#
# Total GULP energy -245618.165864 kJ/mol
# GULP energy per Si atom -5582.231042 kJ/mol
# Density = 2.122059 g / cm^3
# Si number density = 21.268998 Si / 1000 Ang^3
#
#
#
# Elastic Constant Matrix: (Units=GPa)
#
#
# Indices 1 2 3 4 5 6 
#
# 1 59.0666 4.5647 -3.2636 0.0000 0.0000 0.0000
# 2 4.5647 152.8776 95.9833 0.0000 0.0000 0.0000
# 3 -3.2636 95.9833 151.8054 0.0000 0.0000 0.0000
# 4 0.0000 0.0000 0.0000 19.9176 0.0000 0.0000
# 5 0.0000 0.0000 0.0000 0.0000 -28.3062 0.0000
# 6 0.0000 0.0000 0.0000 0.0000 0.0000 -43.6646
#
#
#
# Elastic Compliance Matrix: (Units=1/GPa)
#
#
# Indices 1 2 3 4 5 6 
#
# 1 0.017088 -0.001229 0.001144 0.000000 0.000000 0.000000
# 2 -0.001229 0.010936 -0.006941 0.000000 0.000000 0.000000
# 3 0.001144 -0.006941 0.011000 0.000000 0.000000 0.000000
# 4 0.000000 0.000000 0.000000 0.050207 0.000000 0.000000
# 5 0.000000 0.000000 0.000000 0.000000 -0.035328 0.000000
# 6 0.000000 0.000000 0.000000 0.000000 0.000000 -0.022902
#
#
# Mechanical properties :
#
#
# Convention : Reuss Voigt Hill
#
# Bulk Modulus (GPa) = 40.04174 62.03538 51.03856
# Shear Modulus (GPa) = 93.67491 7.35372 50.51432
#
# Velocity S-wave (km/s) = 6.64368 1.86145 4.87871
# Velocity P-wave (km/s) = 8.81582 5.81811 7.46890
#
# Compressibility (1/GPa) = 0.02497394
#
# Stress axis : x y z
#
# Youngs Moduli (GPa) = 58.51986 91.44480 90.90537
#
# Poissons Ratio (x) = 0.11235 -0.10401
# Poissons Ratio (y) = 0.07190 0.63095
# Poissons Ratio (z) = -0.06696 0.63469
#
# Static dielectric constant tensor:
#      x y z
#    x 1.809980 0.000000 0.000000 
#    y 0.000000 1.730900 0.000000 
#    z 0.000000 0.000000 1.840800 
# 
# From -- ./inp_files/8970.got.cif
#   From: 2010.05.17/outbox.cif.g08.bks.cpg/sg47_5_cif.got.tgz:8970.got - 2010.06.03 20:15:42.
