data_PCOD9382260
_publ_section_title
;
Structure prediction by ZEFSAII (Michael W. Deem and Ramdas Pophale) SiO2 
 PCOD9382260
Probable space group: P M M M
;
_chemical_formula_sum "Si O2"
_cell_formula_units_Z 52
_cell_length_a 12.392775
_cell_length_b 7.365453
_cell_length_c 26.050352
_cell_angle_alpha 90.000000
_cell_angle_beta 90.000000
_cell_angle_gamma 90.000000
_cell_volume 2377.834497
_symmetry_space_group_name_H-M "P M M M"
_symmetry_group_IT_number 47
_symmetry_cell_setting 'orthorhombic'
loop_
_space_group_symop_operation_xyz
x,y,z
-x,-y,z
x,-y,-z
-x,y,-z
-x,-y,-z
x,y,-z
-x,y,z
x,-y,z
loop_
_atom_site_type_symbol
_atom_site_label
_atom_site_fract_x
_atom_site_fract_y
_atom_site_fract_z
Si Si1 0.761996 0.277776 0.251072
Si Si2 0.235823 0.277712 0.058809
Si Si3 0.000000 0.705089 0.731248
Si Si4 0.624391 0.721792 0.649530
Si Si5 0.000000 0.211164 0.613934
Si Si6 0.000000 0.707971 0.062500
Si Si7 0.377193 0.278596 0.153282
Si Si8 0.225443 0.716668 0.442145
O O1 0.764961 0.500000 0.252256
O O2 0.695512 0.222097 0.301541
O O3 0.697966 0.222435 0.200416
O O4 0.885462 0.213172 0.252751
O O5 0.231899 0.500000 0.058326
O O6 0.325244 0.222244 0.099391
O O7 0.116444 0.214260 0.076241
O O8 0.255260 0.221815 0.000000
O O9 0.000000 0.500000 0.752420
O O10 0.000000 0.695158 0.669250
O O11 0.500000 0.779144 0.652811
O O12 0.624181 0.500000 0.649547
O O13 0.685026 0.783341 0.597973
O O14 0.107153 0.253042 0.581728
O O15 0.000000 0.000000 0.625984
O O16 0.000000 0.500000 0.081322
O O17 0.000000 0.703920 0.000000
O O18 0.500000 0.218601 0.159558
O O19 0.378031 0.500000 0.153620
O O20 0.232800 0.788743 0.500000
O O21 0.239799 0.500000 0.445021
#
# Coordination Sequence:
#
# PCOD9382260 Si02
#       8
#     8   8   4   8   4   4   8   8
#     4   9  16  26  42  62  85 111 144 191 243 285
#     4   8  13  20  29  41  63 101 144 184 226 272
#     4  10  18  32  53  73  94 121 156 198 244 293
#     4   9  16  27  46  70  94 120 152 195 242 282
#     4  12  23  35  53  76 102 129 161 201 244 290
#     4   7  10  17  27  36  47  72 120 174 214 253
#     4   9  16  23  31  49  77 105 140 189 237 280
#     4  10  20  34  53  76 102 132 164 198 237 283
#
# _framework density 21.868638000000001
#
# number of rings (size 3 to 8) (size 9 to 14) (size 15 to 20)
#    0.000    2.846    1.538    2.308    0.000    4.308 
#    0.000    6.154    0.000    0.462    0.000    1.077 
#    0.000    0.000    0.000    0.000    0.000    1.538 
#
# Total GULP energy -290374.397377 kJ/mol
# GULP energy per Si atom -5584.123026 kJ/mol
# Density = 2.181886 g / cm^3
# Si number density = 21.868638 Si / 1000 Ang^3
#
#
#
# Elastic Constant Matrix: (Units=GPa)
#
#
# Indices 1 2 3 4 5 6 
#
# 1 245.6551 3.6429 124.7358 0.0000 0.0000 0.0000
# 2 3.6429 81.3734 4.2923 0.0000 0.0000 0.0000
# 3 124.7358 4.2923 146.6473 0.0000 0.0000 0.0000
# 4 0.0000 0.0000 0.0000 -25.3323 0.0000 0.0000
# 5 0.0000 0.0000 0.0000 0.0000 27.8035 0.0000
# 6 0.0000 0.0000 0.0000 0.0000 0.0000 -48.3153
#
#
#
# Elastic Compliance Matrix: (Units=1/GPa)
#
#
# Indices 1 2 3 4 5 6 
#
# 1 0.007166 0.000001 -0.006095 0.000000 0.000000 0.000000
# 2 0.000001 0.012308 -0.000361 0.000000 0.000000 0.000000
# 3 -0.006095 -0.000361 0.012014 0.000000 0.000000 0.000000
# 4 0.000000 0.000000 0.000000 -0.039475 0.000000 0.000000
# 5 0.000000 0.000000 0.000000 0.000000 0.035967 0.000000
# 6 0.000000 0.000000 0.000000 0.000000 0.000000 -0.020697
#
#
# Mechanical properties :
#
#
# Convention : Reuss Voigt Hill
#
# Bulk Modulus (GPa) = 53.82903 82.11308 67.97106
# Shear Modulus (GPa) = 189.50834 13.56482 101.53658
#
# Velocity S-wave (km/s) = 9.31910 2.49326 6.82137
# Velocity P-wave (km/s) = 11.85169 6.77630 9.65352
#
# Compressibility (1/GPa) = 0.01857734
#
# Stress axis : x y z
#
# Youngs Moduli (GPa) = 139.55685 81.24775 83.23711
#
# Poissons Ratio (x) = -0.00006 0.50732
# Poissons Ratio (y) = -0.00010 0.03004
# Poissons Ratio (z) = 0.85059 0.02932
#
# Static dielectric constant tensor:
#      x y z
#    x 1.771270 0.000000 0.000000 
#    y 0.000000 1.822070 0.000000 
#    z 0.000000 0.000000 1.757970 
# 
# From -- ./inp_files/33679.got.cif
#   From: 2010.05.17/outbox.cif.g08.bks.cpg/sg47_17_cif.got.tgz:33679.got - 2010.06.03 20:15:42.
