data_PCOD9382355
_publ_section_title
;
Structure prediction by ZEFSAII (Michael W. Deem and Ramdas Pophale) SiO2 
 PCOD9382355
Probable space group: P M M M
;
_chemical_formula_sum "Si O2"
_cell_formula_units_Z 56
_cell_length_a 20.971419
_cell_length_b 7.503449
_cell_length_c 15.926507
_cell_angle_alpha 90.000000
_cell_angle_beta 90.000000
_cell_angle_gamma 90.000000
_cell_volume 2506.162857
_symmetry_space_group_name_H-M "P M M M"
_symmetry_group_IT_number 47
_symmetry_cell_setting 'orthorhombic'
loop_
_space_group_symop_operation_xyz
x,y,z
-x,-y,z
x,-y,-z
-x,y,-z
-x,-y,-z
x,y,-z
-x,y,z
x,-y,z
loop_
_atom_site_type_symbol
_atom_site_label
_atom_site_fract_x
_atom_site_fract_y
_atom_site_fract_z
Si Si1 0.569553 0.282153 0.357375
Si Si2 0.709590 0.284121 0.409643
Si Si3 0.249677 0.203682 0.227446
Si Si4 0.077005 0.710748 0.591848
Si Si5 0.000000 0.281548 0.902947
Si Si6 0.891830 0.708206 0.224361
Si Si7 0.424026 0.292958 0.000000
Si Si8 0.388457 0.703385 0.177371
O O1 0.500000 0.226059 0.389260
O O2 0.569965 0.500000 0.358671
O O3 0.635000 0.229708 0.402534
O O4 0.578882 0.221103 0.260879
O O5 0.735100 0.228911 0.500000
O O6 0.711623 0.500000 0.405206
O O7 0.745867 0.215825 0.328532
O O8 0.181823 0.276658 0.199734
O O9 0.313093 0.298852 0.194905
O O10 0.254868 0.000000 0.201259
O O11 0.097101 0.783288 0.500000
O O12 0.094919 0.500000 0.590559
O O13 0.099969 0.785859 0.681391
O O14 0.000000 0.720627 0.594296
O O15 0.939006 0.222779 0.847538
O O16 0.000000 0.500000 0.906324
O O17 0.000000 0.222024 0.000000
O O18 0.908893 0.500000 0.233178
O O19 0.401802 0.211430 0.912235
O O20 0.400347 0.500000 0.000000
O O21 0.500000 0.294484 0.000000
O O22 0.412914 0.500000 0.172589
#
# Coordination Sequence:
#
# PCOD9382355 Si02
#       8
#     8   8   8   8   4   8   4   8
#     4   8  13  23  44  74 104 131 162 208 265 317
#     4   9  18  33  53  77 105 138 179 224 267 316
#     4  11  23  37  52  72 104 147 186 219 259 309
#     4   8  13  23  44  76 106 128 155 197 251 308
#     4   9  18  34  58  88 112 131 165 218 272 321
#     4  10  18  33  57  81 106 136 172 218 268 318
#     4   9  16  28  55  91 113 126 161 224 287 331
#     4   9  17  32  52  76 105 136 172 216 267 323
#
# _framework density 22.344915
#
# number of rings (size 3 to 8) (size 9 to 14) (size 15 to 20)
#    0.000    2.857    0.714    3.000    0.000    2.857 
#    1.286    3.571    0.000   11.571    0.000    5.000 
#    0.000    0.000    0.000    0.000    0.000    0.000 
#
# Total GULP energy -312393.108510 kJ/mol
# GULP energy per Si atom -5578.448366 kJ/mol
# Density = 2.229406 g / cm^3
# Si number density = 22.344915 Si / 1000 Ang^3
#
#
#
# Elastic Constant Matrix: (Units=GPa)
#
#
# Indices 1 2 3 4 5 6 
#
# 1 109.2642 -9.2207 34.7941 0.0000 0.0000 0.0000
# 2 -9.2207 60.2178 7.6309 0.0000 0.0000 0.0000
# 3 34.7941 7.6309 124.4704 0.0000 0.0000 0.0000
# 4 0.0000 0.0000 0.0000 -12.9454 0.0000 0.0000
# 5 0.0000 0.0000 0.0000 0.0000 -3.4875 0.0000
# 6 0.0000 0.0000 0.0000 0.0000 0.0000 -577.0344
#
#
#
# Elastic Compliance Matrix: (Units=1/GPa)
#
#
# Indices 1 2 3 4 5 6 
#
# 1 0.010269 0.001951 -0.002990 0.000000 0.000000 0.000000
# 2 0.001951 0.017107 -0.001594 0.000000 0.000000 0.000000
# 3 -0.002990 -0.001594 0.008968 0.000000 0.000000 0.000000
# 4 0.000000 0.000000 0.000000 -0.077248 0.000000 0.000000
# 5 0.000000 0.000000 0.000000 0.000000 -0.286742 0.000000
# 6 0.000000 0.000000 0.000000 0.000000 0.000000 -0.001733
#
#
# Mechanical properties :
#
#
# Convention : Reuss Voigt Hill
#
# Bulk Modulus (GPa) = 32.17752 40.04012 36.10882
# Shear Modulus (GPa) = -15.93608 -101.31024 -58.62316
#
# Velocity S-wave (km/s) = -2.67345 -6.74075 -5.12762
# Velocity P-wave (km/s) = 2.21401 6.52883 4.34303
#
# Compressibility (1/GPa) = 0.03107760
#
# Stress axis : x y z
#
# Youngs Moduli (GPa) = 97.38050 58.45493 111.51196
#
# Poissons Ratio (x) = -0.11407 0.33344
# Poissons Ratio (y) = -0.19002 0.17778
# Poissons Ratio (z) = 0.29119 0.09319
#
# Static dielectric constant tensor:
#      x y z
#    x 1.788220 0.000000 0.000000 
#    y 0.000000 1.885420 0.000000 
#    z 0.000000 0.000000 1.847440 
# 
# From -- ./inp_files/25254.got.cif
#   From: 2010.05.17/outbox.cif.g08.bks.cpg/sg47_13_cif.got.tgz:25254.got - 2010.06.03 20:15:42.
