data_PCOD9382374
_publ_section_title
;
Structure prediction by ZEFSAII (Michael W. Deem and Ramdas Pophale) SiO2 
 PCOD9382374
Probable space group: P M M M
;
_chemical_formula_sum "Si O2"
_cell_formula_units_Z 45
_cell_length_a 7.374686
_cell_length_b 23.606098
_cell_length_c 12.526058
_cell_angle_alpha 90.000000
_cell_angle_beta 90.000000
_cell_angle_gamma 90.000000
_cell_volume 2180.630879
_symmetry_space_group_name_H-M "P M M M"
_symmetry_group_IT_number 47
_symmetry_cell_setting 'orthorhombic'
loop_
_space_group_symop_operation_xyz
x,y,z
-x,-y,z
x,-y,-z
-x,y,-z
-x,-y,-z
x,y,-z
-x,y,z
x,-y,z
loop_
_atom_site_type_symbol
_atom_site_label
_atom_site_fract_x
_atom_site_fract_y
_atom_site_fract_z
Si Si1 0.279074 0.064019 0.622511
Si Si2 0.780219 0.377034 0.221889
Si Si3 0.717715 0.168117 0.764666
Si Si4 0.779819 0.323177 0.000000
Si Si5 0.219079 0.500000 0.696236
Si Si6 0.783514 0.720644 0.378595
Si Si7 0.500000 0.500000 0.500000
Si Si8 0.290123 0.809176 0.000000
O O1 0.224367 0.075258 0.500000
O O2 0.500000 0.064621 0.623397
O O3 0.215800 0.113207 0.700764
O O4 0.223519 0.000000 0.650989
O O5 0.719006 0.353743 0.107848
O O6 0.736536 0.442211 0.241456
O O7 0.715768 0.335096 0.316191
O O8 0.000000 0.373295 0.221874
O O9 0.500000 0.163850 0.771725
O O10 0.752227 0.224528 0.695333
O O11 0.788672 0.172155 0.885788
O O12 0.716691 0.258704 0.000000
O O13 0.000000 0.322249 0.000000
O O14 0.340625 0.500000 0.591936
O O15 0.000000 0.500000 0.674858
O O16 0.713460 0.726777 0.500000
O O17 0.000000 0.714691 0.386893
O O18 0.500000 0.827795 0.000000
#
# Coordination Sequence:
#
# PCOD9382374 Si02
#       8
#     8   8   8   4   4   8   1   4
#     4   8  14  26  46  70  97 132 177 224 267 321
#     4   9  19  36  60  84 108 145 186 228 285 334
#     4  10  19  32  49  73 104 138 178 218 274 328
#     4  10  18  35  62  84 104 141 194 227 266 346
#     4  10  23  44  63  86 124 159 192 251 298 339
#     4  10  20  33  51  78 107 136 175 220 270 329
#     4  12  26  44  64  96 116 160 218 228 284 390
#     4  10  20  32  46  75 109 143 170 220 283 328
#
# _framework density 20.636229
#
# number of rings (size 3 to 8) (size 9 to 14) (size 15 to 20)
#    0.000    2.489    1.778    1.200    1.244    1.422 
#    3.200    2.222    0.000    3.733    0.000    2.489 
#    0.000    2.133    0.000    0.000    0.000    0.000 
#
# Total GULP energy -250967.644967 kJ/mol
# GULP energy per Si atom -5577.058777 kJ/mol
# Density = 2.058926 g / cm^3
# Si number density = 20.636229 Si / 1000 Ang^3
#
#
#
# Elastic Constant Matrix: (Units=GPa)
#
#
# Indices 1 2 3 4 5 6 
#
# 1 78.5834 1.7922 9.5892 0.0000 0.0000 0.0000
# 2 1.7922 179.6692 116.6798 0.0000 0.0000 0.0000
# 3 9.5892 116.6798 200.6706 0.0000 0.0000 0.0000
# 4 0.0000 0.0000 0.0000 65.4818 0.0000 0.0000
# 5 0.0000 0.0000 0.0000 0.0000 7.3200 0.0000
# 6 0.0000 0.0000 0.0000 0.0000 0.0000 14.0326
#
#
#
# Elastic Compliance Matrix: (Units=1/GPa)
#
#
# Indices 1 2 3 4 5 6 
#
# 1 0.012821 0.000434 -0.000865 0.000000 0.000000 0.000000
# 2 0.000434 0.008957 -0.005229 0.000000 0.000000 0.000000
# 3 -0.000865 -0.005229 0.008065 0.000000 0.000000 0.000000
# 4 0.000000 0.000000 0.000000 0.015271 0.000000 0.000000
# 5 0.000000 0.000000 0.000000 0.000000 0.136612 0.000000
# 6 0.000000 0.000000 0.000000 0.000000 0.000000 0.071263
#
#
# Mechanical properties :
#
#
# Convention : Reuss Voigt Hill
#
# Bulk Modulus (GPa) = 53.98651 79.44949 66.71800
# Shear Modulus (GPa) = 18.48540 39.42434 28.95487
#
# Velocity S-wave (km/s) = 2.99620 4.37560 3.74987
# Velocity P-wave (km/s) = 6.17960 8.00696 7.15188
#
# Compressibility (1/GPa) = 0.01852315
#
# Stress axis : x y z
#
# Youngs Moduli (GPa) = 77.99716 111.64259 123.99355
#
# Poissons Ratio (x) = -0.04843 0.10724
# Poissons Ratio (y) = -0.03383 0.64834
# Poissons Ratio (z) = 0.06746 0.58376
#
# Static dielectric constant tensor:
#      x y z
#    x 1.824590 0.000000 0.000000 
#    y 0.000000 1.695100 0.000000 
#    z 0.000000 0.000000 1.723120 
# 
# From -- ./inp_files/15362.got.cif
#   From: 2010.05.17/outbox.cif.g08.bks.cpg/sg47_8_cif.got.tgz:15362.got - 2010.06.03 20:15:42.
