data_PCOD9382395
_publ_section_title
;
Structure prediction by ZEFSAII (Michael W. Deem and Ramdas Pophale) SiO2 
 PCOD9382395
Probable space group: P M M M
;
_chemical_formula_sum "Si O2"
_cell_formula_units_Z 52
_cell_length_a 9.021951
_cell_length_b 27.579792
_cell_length_c 14.007636
_cell_angle_alpha 90.000000
_cell_angle_beta 90.000000
_cell_angle_gamma 90.000000
_cell_volume 3485.429465
_symmetry_space_group_name_H-M "P M M M"
_symmetry_group_IT_number 47
_symmetry_cell_setting 'orthorhombic'
loop_
_space_group_symop_operation_xyz
x,y,z
-x,-y,z
x,-y,-z
-x,y,-z
-x,-y,-z
x,y,-z
-x,y,z
x,-y,z
loop_
_atom_site_type_symbol
_atom_site_label
_atom_site_fract_x
_atom_site_fract_y
_atom_site_fract_z
Si Si1 0.680842 0.500000 0.389477
Si Si2 0.822512 0.891267 0.607498
Si Si3 0.321769 0.852760 0.893006
Si Si4 0.677576 0.798860 0.298344
Si Si5 0.178238 0.945104 0.200061
Si Si6 0.672297 0.394564 0.616213
Si Si7 0.176301 0.294851 0.613115
O O1 0.500000 0.500000 0.390439
O O2 0.730245 0.500000 0.500000
O O3 0.724735 0.552370 0.348239
O O4 0.785508 0.906879 0.500000
O O5 0.740778 0.841448 0.634162
O O6 0.787060 0.929699 0.690560
O O7 0.000000 0.882757 0.611596
O O8 0.500000 0.857286 0.890091
O O9 0.279997 0.815373 0.809114
O O10 0.251828 0.904479 0.865724
O O11 0.277861 0.838272 0.000000
O O12 0.500000 0.797259 0.305305
O O13 0.745722 0.748037 0.329592
O O14 0.000000 0.942838 0.189257
O O15 0.226381 0.000000 0.180415
O O16 0.675829 0.397078 0.500000
O O17 0.500000 0.387675 0.643024
O O18 0.766371 0.347846 0.643904
O O19 0.212194 0.289284 0.500000
O O20 0.000000 0.291653 0.623166
#
# Coordination Sequence:
#
# PCOD9382395 Si02
#       7
#     4   8   8   8   8   8   8
#     4   7  10  18  33  51  71  99 138 181 214 235
#     4   9  17  29  44  61  83 111 138 163 194 231
#     4   9  19  35  51  65  81 102 129 162 203 249
#     4  10  19  30  45  62  79 102 133 168 204 243
#     4   9  18  31  46  66  89 109 132 162 193 230
#     4   8  13  22  36  53  74 104 143 180 209 237
#     4  10  19  28  38  56  84 114 141 170 204 239
#
# _framework density 14.919252
#
# number of rings (size 3 to 8) (size 9 to 14) (size 15 to 20)
#    0.000    3.000    0.000    2.308    0.000    4.923 
#    0.000    3.462    0.000    2.308    0.000    4.308 
#    0.000    0.000    0.000    0.692    0.000   15.923 
#
# Total GULP energy -289538.798465 kJ/mol
# GULP energy per Si atom -5568.053817 kJ/mol
# Density = 1.488529 g / cm^3
# Si number density = 14.919252 Si / 1000 Ang^3
#
#
#
# Elastic Constant Matrix: (Units=GPa)
#
#
# Indices 1 2 3 4 5 6 
#
# 1 18.9021 30.9105 17.7952 0.0000 0.0000 0.0000
# 2 30.9105 114.5820 22.4766 0.0000 0.0000 0.0000
# 3 17.7952 22.4766 54.1864 0.0000 0.0000 0.0000
# 4 0.0000 0.0000 0.0000 9.5319 0.0000 0.0000
# 5 0.0000 0.0000 0.0000 0.0000 15.1966 0.0000
# 6 0.0000 0.0000 0.0000 0.0000 0.0000 16.3070
#
#
#
# Elastic Compliance Matrix: (Units=1/GPa)
#
#
# Indices 1 2 3 4 5 6 
#
# 1 0.128230 -0.028664 -0.030222 0.000000 0.000000 0.000000
# 2 -0.028664 0.015908 0.002815 0.000000 0.000000 0.000000
# 3 -0.030222 0.002815 0.027212 0.000000 0.000000 0.000000
# 4 0.000000 0.000000 0.000000 0.104911 0.000000 0.000000
# 5 0.000000 0.000000 0.000000 0.000000 0.065804 0.000000
# 6 0.000000 0.000000 0.000000 0.000000 0.000000 0.061323
#
#
# Mechanical properties :
#
#
# Convention : Reuss Voigt Hill
#
# Bulk Modulus (GPa) = 16.88949 36.67057 26.78003
# Shear Modulus (GPa) = 9.34115 15.97299 12.65707
#
# Velocity S-wave (km/s) = 2.50494 3.27560 2.91584
# Velocity P-wave (km/s) = 4.43976 6.24009 5.41527
#
# Compressibility (1/GPa) = 0.05920840
#
# Stress axis : x y z
#
# Youngs Moduli (GPa) = 7.79849 62.86216 36.74822
#
# Poissons Ratio (x) = 1.80188 1.11059
# Poissons Ratio (y) = 0.22354 -0.10344
# Poissons Ratio (z) = 0.23568 -0.17695
#
# Static dielectric constant tensor:
#      x y z
#    x 1.497000 0.000000 0.000000 
#    y 0.000000 1.499160 0.000000 
#    z 0.000000 0.000000 1.489610 
# 
# From -- ./inp_files/22024.got.cif
#   From: 2010.05.17/outbox.cif.g08.bks.cpg/sg47_12_cif.got.tgz:22024.got - 2010.06.03 20:15:42.
