data_PCOD9382549
_publ_section_title
;
Structure prediction by ZEFSAII (Michael W. Deem and Ramdas Pophale) SiO2 
 PCOD9382549
Probable space group: P M M M
;
_chemical_formula_sum "Si O2"
_cell_formula_units_Z 48
_cell_length_a 24.815509
_cell_length_b 14.039934
_cell_length_c 8.768777
_cell_angle_alpha 90.000000
_cell_angle_beta 90.000000
_cell_angle_gamma 90.000000
_cell_volume 3055.113009
_symmetry_space_group_name_H-M "P M M M"
_symmetry_group_IT_number 47
_symmetry_cell_setting 'orthorhombic'
loop_
_space_group_symop_operation_xyz
x,y,z
-x,-y,z
x,-y,-z
-x,y,-z
-x,-y,-z
x,y,-z
-x,y,z
x,-y,z
loop_
_atom_site_type_symbol
_atom_site_label
_atom_site_fract_x
_atom_site_fract_y
_atom_site_fract_z
Si Si1 0.559252 0.115316 0.679197
Si Si2 0.829292 0.391640 0.184509
Si Si3 0.059735 0.296969 0.185238
Si Si4 0.119484 0.107417 0.815775
Si Si5 0.223515 0.792647 0.681424
Si Si6 0.671845 0.887538 0.181380
O O1 0.564672 0.138688 0.500000
O O2 0.500000 0.148872 0.732375
O O3 0.612323 0.146063 0.768673
O O4 0.558257 0.000000 0.689844
O O5 0.816875 0.500000 0.227007
O O6 0.890611 0.364150 0.231006
O O7 0.790887 0.312135 0.255904
O O8 0.826660 0.383580 0.000000
O O9 0.077011 0.189355 0.228179
O O10 0.000000 0.321400 0.241134
O O11 0.058159 0.300272 0.000000
O O12 0.176887 0.138685 0.748334
O O13 0.105168 0.000000 0.770447
O O14 0.123815 0.110069 0.000000
O O15 0.220894 0.793490 0.500000
O O16 0.281022 0.829537 0.737953
O O17 0.676831 0.000000 0.222560
O O18 0.677658 0.880004 0.000000
#
# Coordination Sequence:
#
# PCOD9382549 Si02
#       6
#     8   8   8   8   8   8
#     4   8  14  25  40  59  87 123 159 191 221 254
#     4   9  18  33  51  68  87 111 138 174 223 273
#     4   8  14  25  43  69  94 111 135 174 217 262
#     4   9  17  29  44  62  87 118 149 181 217 257
#     4  11  21  31  45  64  87 114 147 186 224 267
#     4  10  19  29  43  64  91 123 157 191 224 259
#
# _framework density 15.711366
#
# number of rings (size 3 to 8) (size 9 to 14) (size 15 to 20)
#    0.000    2.833    0.000    4.000    0.000    4.667 
#    0.000    5.000    0.000    8.000    0.000    9.333 
#    0.000    0.667    0.000    7.000    0.000    3.333 
#
# Total GULP energy -267415.327600 kJ/mol
# GULP energy per Si atom -5571.152658 kJ/mol
# Density = 1.567561 g / cm^3
# Si number density = 15.711366 Si / 1000 Ang^3
#
#
#
# Elastic Constant Matrix: (Units=GPa)
#
#
# Indices 1 2 3 4 5 6 
#
# 1 92.5633 20.8668 21.4018 0.0000 0.0000 0.0000
# 2 20.8668 61.1218 17.9152 0.0000 0.0000 0.0000
# 3 21.4018 17.9152 21.0404 0.0000 0.0000 0.0000
# 4 0.0000 0.0000 0.0000 9.8714 0.0000 0.0000
# 5 0.0000 0.0000 0.0000 0.0000 158.6816 0.0000
# 6 0.0000 0.0000 0.0000 0.0000 0.0000 10.7975
#
#
#
# Elastic Compliance Matrix: (Units=1/GPa)
#
#
# Indices 1 2 3 4 5 6 
#
# 1 0.014156 -0.000816 -0.013704 0.000000 0.000000 0.000000
# 2 -0.000816 0.021849 -0.017774 0.000000 0.000000 0.000000
# 3 -0.013704 -0.017774 0.076601 0.000000 0.000000 0.000000
# 4 0.000000 0.000000 0.000000 0.101303 0.000000 0.000000
# 5 0.000000 0.000000 0.000000 0.000000 0.006302 0.000000
# 6 0.000000 0.000000 0.000000 0.000000 0.000000 0.092614
#
#
# Mechanical properties :
#
#
# Convention : Reuss Voigt Hill
#
# Bulk Modulus (GPa) = 20.82554 32.78811 26.80682
# Shear Modulus (GPa) = 12.70913 43.50622 28.10767
#
# Velocity S-wave (km/s) = 2.84723 5.26793 4.23425
# Velocity P-wave (km/s) = 4.90844 7.61024 6.40346
#
# Compressibility (1/GPa) = 0.04801796
#
# Stress axis : x y z
#
# Youngs Moduli (GPa) = 70.64151 45.76892 13.05469
#
# Poissons Ratio (x) = 0.03735 0.17891
# Poissons Ratio (y) = 0.05764 0.23203
# Poissons Ratio (z) = 0.96810 0.81348
#
# Static dielectric constant tensor:
#      x y z
#    x 1.530210 0.000000 0.000000 
#    y 0.000000 1.512810 0.000000 
#    z 0.000000 0.000000 1.527760 
# 
# From -- ./inp_files/7475.got.cif
#   From: 2010.05.17/outbox.cif.g08.bks.cpg/sg47_4_cif.got.tgz:7475.got - 2010.06.03 20:15:42.
