data_PCOD9382073
_publ_section_title
;
Structure prediction by ZEFSAII (Michael W. Deem and Ramdas Pophale) SiO2 
 PCOD9382073
Probable space group: P M M M
;
_chemical_formula_sum "Si O2"
_cell_formula_units_Z 64
_cell_length_a 20.663418
_cell_length_b 7.612783
_cell_length_c 20.727483
_cell_angle_alpha 90.000000
_cell_angle_beta 90.000000
_cell_angle_gamma 90.000000
_cell_volume 3260.559872
_symmetry_space_group_name_H-M "P M M M"
_symmetry_group_IT_number 47
_symmetry_cell_setting 'orthorhombic'
loop_
_space_group_symop_operation_xyz
x,y,z
-x,-y,z
x,-y,-z
-x,y,-z
-x,-y,-z
x,y,-z
-x,y,z
x,-y,z
loop_
_atom_site_type_symbol
_atom_site_label
_atom_site_fract_x
_atom_site_fract_y
_atom_site_fract_z
Si Si1 0.571662 0.295953 0.787677
Si Si2 0.244347 0.294939 0.099363
Si Si3 0.670429 0.202545 0.319410
Si Si4 0.427151 0.214750 0.425605
Si Si5 0.389056 0.796804 0.070243
Si Si6 0.929757 0.214791 0.788377
Si Si7 0.100351 0.795546 0.068767
Si Si8 0.210788 0.213924 0.245469
O O1 0.500000 0.224317 0.773962
O O2 0.573418 0.500000 0.769235
O O3 0.626524 0.205465 0.745208
O O4 0.584411 0.286075 0.864228
O O5 0.245207 0.500000 0.082779
O O6 0.311100 0.213770 0.075504
O O7 0.178328 0.213828 0.072579
O O8 0.238600 0.273599 0.176456
O O9 0.626902 0.280615 0.376278
O O10 0.739969 0.278710 0.300002
O O11 0.682151 0.000000 0.337434
O O12 0.415723 0.264168 0.500000
O O13 0.500000 0.270542 0.407212
O O14 0.427314 0.000000 0.423233
O O15 0.408810 0.000000 0.071789
O O16 0.408189 0.722932 0.000000
O O17 0.923663 0.276929 0.862940
O O18 0.864209 0.269844 0.752371
O O19 0.000000 0.268012 0.762715
O O20 0.928270 0.000000 0.789766
O O21 0.081110 0.000000 0.068288
O O22 0.079943 0.717307 0.000000
O O23 0.212142 0.000000 0.244926
#
# Coordination Sequence:
#
# PCOD9382073 Si02
#       8
#     8   8   8   8   8   8   8   8
#     4  11  24  38  51  70  95 121 152 193 239 288
#     4  11  20  30  46  66  88 114 145 185 237 290
#     4  10  18  30  52  75  96 125 160 197 234 275
#     4   8  14  25  43  71 104 132 159 192 231 276
#     4  11  23  37  52  67  85 113 152 198 245 291
#     4   8  14  25  41  61  86 114 145 188 239 282
#     4   9  17  28  42  60  82 108 142 185 232 286
#     4   9  17  29  46  68  91 115 151 194 231 273
#
# _framework density 19.628532
#
# number of rings (size 3 to 8) (size 9 to 14) (size 15 to 20)
#    0.000    2.375    1.250    3.750    0.000    4.750 
#    0.000    2.500    0.000    6.375    0.000    5.250 
#    0.000    0.500    0.000    7.000    0.000    0.000 
#
# Total GULP energy -357172.636304 kJ/mol
# GULP energy per Si atom -5580.822442 kJ/mol
# Density = 1.958386 g / cm^3
# Si number density = 19.628532 Si / 1000 Ang^3
#
#
#
# Elastic Constant Matrix: (Units=GPa)
#
#
# Indices 1 2 3 4 5 6 
#
# 1 142.8121 -1.1718 58.6543 0.0000 0.0000 0.0000
# 2 -1.1718 51.3478 -1.2796 0.0000 0.0000 0.0000
# 3 58.6543 -1.2796 86.5559 0.0000 0.0000 0.0000
# 4 0.0000 0.0000 0.0000 544.2848 0.0000 0.0000
# 5 0.0000 0.0000 0.0000 0.0000 31.5821 0.0000
# 6 0.0000 0.0000 0.0000 0.0000 0.0000 20.4754
#
#
#
# Elastic Compliance Matrix: (Units=1/GPa)
#
#
# Indices 1 2 3 4 5 6 
#
# 1 0.009703 0.000058 -0.006574 0.000000 0.000000 0.000000
# 2 0.000058 0.019483 0.000249 0.000000 0.000000 0.000000
# 3 -0.006574 0.000249 0.016012 0.000000 0.000000 0.000000
# 4 0.000000 0.000000 0.000000 0.001837 0.000000 0.000000
# 5 0.000000 0.000000 0.000000 0.000000 0.031664 0.000000
# 6 0.000000 0.000000 0.000000 0.000000 0.000000 0.048839
#
#
# Mechanical properties :
#
#
# Convention : Reuss Voigt Hill
#
# Bulk Modulus (GPa) = 30.61662 43.68016 37.14839
# Shear Modulus (GPa) = 33.12146 134.23600 83.67873
#
# Velocity S-wave (km/s) = 4.11227 8.27869 6.53634
# Velocity P-wave (km/s) = 6.17896 10.66227 8.71388
#
# Compressibility (1/GPa) = 0.03266200
#
# Stress axis : x y z
#
# Youngs Moduli (GPa) = 103.06343 51.32801 62.45361
#
# Poissons Ratio (x) = -0.00296 0.41058
# Poissons Ratio (y) = -0.00594 -0.01555
# Poissons Ratio (z) = 0.67756 -0.01278
#
# Static dielectric constant tensor:
#      x y z
#    x 1.721200 0.000000 0.000000 
#    y 0.000000 1.704680 0.000000 
#    z 0.000000 0.000000 1.680780 
# 
# From -- ./inp_files/11848.got.cif
#   From: 2010.05.17/outbox.cif.g08.bks.cpg/sg47_6_cif.got.tgz:11848.got - 2010.06.03 20:15:42.
