data_PCOD9382236
_publ_section_title
;
Structure prediction by ZEFSAII (Michael W. Deem and Ramdas Pophale) SiO2 
 PCOD9382236
Probable space group: P M M M
;
_chemical_formula_sum "Si O2"
_cell_formula_units_Z 64
_cell_length_a 20.879552
_cell_length_b 20.586045
_cell_length_c 7.804070
_cell_angle_alpha 90.000000
_cell_angle_beta 90.000000
_cell_angle_gamma 90.000000
_cell_volume 3354.403095
_symmetry_space_group_name_H-M "P M M M"
_symmetry_group_IT_number 47
_symmetry_cell_setting 'orthorhombic'
loop_
_space_group_symop_operation_xyz
x,y,z
-x,-y,z
x,-y,-z
-x,y,-z
-x,-y,-z
x,y,-z
-x,y,z
x,-y,z
loop_
_atom_site_type_symbol
_atom_site_label
_atom_site_fract_x
_atom_site_fract_y
_atom_site_fract_z
Si Si1 0.897538 0.429655 0.700672
Si Si2 0.756068 0.604281 0.794738
Si Si3 0.930793 0.285223 0.797751
Si Si4 0.330431 0.185210 0.794441
Si Si5 0.569541 0.710709 0.202297
Si Si6 0.206482 0.752049 0.207319
Si Si7 0.386249 0.570452 0.700489
Si Si8 0.571259 0.925210 0.293494
O O1 0.913802 0.426735 0.500000
O O2 0.919302 0.500000 0.768669
O O3 0.820638 0.426448 0.721618
O O4 0.922555 0.363330 0.783023
O O5 0.762081 0.681367 0.760517
O O6 0.690362 0.577074 0.721728
O O7 0.755710 0.595104 0.000000
O O8 0.866207 0.252533 0.724773
O O9 0.000000 0.267215 0.722896
O O10 0.932267 0.270286 0.000000
O O11 0.374384 0.244296 0.725585
O O12 0.257703 0.194878 0.730131
O O13 0.370615 0.120550 0.760063
O O14 0.325697 0.191987 0.000000
O O15 0.500000 0.725573 0.278267
O O16 0.584103 0.634675 0.218947
O O17 0.567086 0.725159 0.000000
O O18 0.200831 0.757525 0.000000
O O19 0.402254 0.571943 0.500000
O O20 0.406123 0.500000 0.770920
O O21 0.569862 0.925217 0.500000
O O22 0.500000 0.902768 0.234326
O O23 0.579299 0.000000 0.237159
#
# Coordination Sequence:
#
# PCOD9382236 Si02
#       8
#     8   8   8   8   8   8   8   8
#     4  10  20  31  43  63  91 119 151 195 250 309
#     4  10  18  32  51  68  88 117 154 198 249 303
#     4   9  18  32  49  68  91 123 163 202 243 299
#     4  10  18  32  54  78 102 128 164 208 248 288
#     4  10  21  36  52  70  92 121 160 205 252 301
#     4   8  15  29  49  71  95 120 151 198 249 288
#     4  11  23  35  47  65  90 119 155 204 260 311
#     4   9  19  35  52  74 109 147 175 199 234 285
#
# _framework density 19.079402000000002
#
# number of rings (size 3 to 8) (size 9 to 14) (size 15 to 20)
#    0.000    2.375    1.250    3.000    0.000    6.000 
#    0.000    3.750    0.000    0.000    0.000    0.000 
#    0.000    0.500    0.000    6.250    0.000    1.000 
#
# Total GULP energy -357005.071221 kJ/mol
# GULP energy per Si atom -5578.204238 kJ/mol
# Density = 1.903598 g / cm^3
# Si number density = 19.079402 Si / 1000 Ang^3
#
#
#
# Elastic Constant Matrix: (Units=GPa)
#
#
# Indices 1 2 3 4 5 6 
#
# 1 149.5596 58.0166 2.0205 0.0000 0.0000 0.0000
# 2 58.0166 68.5461 -0.5278 0.0000 0.0000 0.0000
# 3 2.0205 -0.5278 25.0550 0.0000 0.0000 0.0000
# 4 0.0000 0.0000 0.0000 20.3017 0.0000 0.0000
# 5 0.0000 0.0000 0.0000 0.0000 -1.3687 0.0000
# 6 0.0000 0.0000 0.0000 0.0000 0.0000 35.6889
#
#
#
# Elastic Compliance Matrix: (Units=1/GPa)
#
#
# Indices 1 2 3 4 5 6 
#
# 1 0.009979 -0.008454 -0.000983 0.000000 0.000000 0.000000
# 2 -0.008454 0.021752 0.001140 0.000000 0.000000 0.000000
# 3 -0.000983 0.001140 0.040015 0.000000 0.000000 0.000000
# 4 0.000000 0.000000 0.000000 0.049257 0.000000 0.000000
# 5 0.000000 0.000000 0.000000 0.000000 -0.730635 0.000000
# 6 0.000000 0.000000 0.000000 0.000000 0.000000 0.028020
#
#
# Mechanical properties :
#
#
# Convention : Reuss Voigt Hill
#
# Bulk Modulus (GPa) = 18.13108 40.24214 29.18661
# Shear Modulus (GPa) = -9.14689 23.16781 7.01046
#
# Velocity S-wave (km/s) = -2.19192 3.48844 1.91894
# Velocity P-wave (km/s) = 1.76566 6.11255 4.49894
#
# Compressibility (1/GPa) = 0.05515390
#
# Stress axis : x y z
#
# Youngs Moduli (GPa) = 100.21211 45.97180 24.99038
#
# Poissons Ratio (x) = 0.38862 0.02456
# Poissons Ratio (y) = 0.84715 -0.02849
# Poissons Ratio (z) = 0.09849 -0.05240
#
# Static dielectric constant tensor:
#      x y z
#    x 1.724060 0.000000 0.000000 
#    y 0.000000 1.652880 0.000000 
#    z 0.000000 0.000000 1.688360 
# 
# From -- ./inp_files/11886.got.cif
#   From: 2010.05.17/outbox.cif.g08.bks.cpg/sg47_6_cif.got.tgz:11886.got - 2010.06.03 20:15:42.
