data_PCOD9382486
_publ_section_title
;
Structure prediction by ZEFSAII (Michael W. Deem and Ramdas Pophale) SiO2 
 PCOD9382486
Probable space group: P M M M
;
_chemical_formula_sum "Si O2"
_cell_formula_units_Z 40
_cell_length_a 15.829013
_cell_length_b 8.918623
_cell_length_c 20.109865
_cell_angle_alpha 90.000000
_cell_angle_beta 90.000000
_cell_angle_gamma 90.000000
_cell_volume 2838.969960
_symmetry_space_group_name_H-M "P M M M"
_symmetry_group_IT_number 47
_symmetry_cell_setting 'orthorhombic'
loop_
_space_group_symop_operation_xyz
x,y,z
-x,-y,z
x,-y,-z
-x,y,-z
-x,-y,-z
x,y,-z
-x,y,z
x,-y,z
loop_
_atom_site_type_symbol
_atom_site_label
_atom_site_fract_x
_atom_site_fract_y
_atom_site_fract_z
Si Si1 0.822891 0.179409 0.421398
Si Si2 0.666977 0.319711 0.343056
Si Si3 0.602378 0.324622 0.073457
Si Si4 0.000000 0.672331 0.419393
Si Si5 0.399776 0.178474 0.789030
Si Si6 0.500000 0.682197 0.575947
O O1 0.810364 0.216394 0.500000
O O2 0.748992 0.251926 0.378139
O O3 0.914049 0.243693 0.400230
O O4 0.822187 0.000000 0.415306
O O5 0.671482 0.500000 0.343268
O O6 0.651420 0.260059 0.268911
O O7 0.584277 0.271913 0.385376
O O8 0.500000 0.317396 0.072172
O O9 0.624657 0.500000 0.081530
O O10 0.628624 0.231392 0.137760
O O11 0.631608 0.274079 0.000000
O O12 0.000000 0.500000 0.396655
O O13 0.000000 0.671351 0.500000
O O14 0.500000 0.217524 0.781827
O O15 0.392265 0.000000 0.782778
O O16 0.500000 0.500000 0.574828
O O17 0.500000 0.735357 0.500000
#
# Coordination Sequence:
#
# PCOD9382486 Si02
#       6
#     8   8   8   4   8   4
#     4  10  20  33  48  67  90 113 139 178 228 274
#     4  11  20  31  46  62  84 115 151 188 221 260
#     4   8  14  25  41  59  78 103 139 179 215 254
#     4   9  17  31  51  71  87 107 138 175 216 267
#     4  10  19  29  41  58  84 114 145 181 221 264
#     4   9  18  30  43  59  78 105 146 191 225 252
#
# _framework density 14.089617000000001
#
# number of rings (size 3 to 8) (size 9 to 14) (size 15 to 20)
#    0.000    2.400    1.000    3.300    0.000    4.400 
#    0.000    2.000    0.000    2.400    0.000    0.000 
#    0.000    0.000    0.000    0.900    0.000   16.600 
#
# Total GULP energy -222963.950820 kJ/mol
# GULP energy per Si atom -5574.098771 kJ/mol
# Density = 1.405755 g / cm^3
# Si number density = 14.089617 Si / 1000 Ang^3
#
#
#
# Elastic Constant Matrix: (Units=GPa)
#
#
# Indices 1 2 3 4 5 6 
#
# 1 96.8787 43.2330 54.1610 0.0000 0.0000 0.0000
# 2 43.2330 60.5323 48.3466 0.0000 0.0000 0.0000
# 3 54.1610 48.3466 110.1774 0.0000 0.0000 0.0000
# 4 0.0000 0.0000 0.0000 21.0882 0.0000 0.0000
# 5 0.0000 0.0000 0.0000 0.0000 4.3384 0.0000
# 6 0.0000 0.0000 0.0000 0.0000 0.0000 20.0910
#
#
#
# Elastic Compliance Matrix: (Units=1/GPa)
#
#
# Indices 1 2 3 4 5 6 
#
# 1 0.016497 -0.008168 -0.004526 0.000000 0.000000 0.000000
# 2 -0.008168 0.029478 -0.008920 0.000000 0.000000 0.000000
# 3 -0.004526 -0.008920 0.015215 0.000000 0.000000 0.000000
# 4 0.000000 0.000000 0.000000 0.047420 0.000000 0.000000
# 5 0.000000 0.000000 0.000000 0.000000 0.230498 0.000000
# 6 0.000000 0.000000 0.000000 0.000000 0.000000 0.049774
#
#
# Mechanical properties :
#
#
# Convention : Reuss Voigt Hill
#
# Bulk Modulus (GPa) = 55.66879 62.11884 58.89381
# Shear Modulus (GPa) = 11.41299 17.22671 14.31985
#
# Velocity S-wave (km/s) = 2.84919 3.50044 3.19147
# Velocity P-wave (km/s) = 7.10071 7.77956 7.44787
#
# Compressibility (1/GPa) = 0.01796339
#
# Stress axis : x y z
#
# Youngs Moduli (GPa) = 60.61591 33.92338 65.72431
#
# Poissons Ratio (x) = 0.27709 0.29744
# Poissons Ratio (y) = 0.49512 0.58626
# Poissons Ratio (z) = 0.27432 0.30260
#
# Static dielectric constant tensor:
#      x y z
#    x 1.437050 0.000000 0.000000 
#    y 0.000000 1.466480 0.000000 
#    z 0.000000 0.000000 1.466970 
# 
# From -- ./inp_files/9333.got.cif
#   From: 2010.05.17/outbox.cif.g08.bks.cpg/sg47_5_cif.got.tgz:9333.got - 2010.06.03 20:15:42.
