data_PCOD9382132
_publ_section_title
;
Structure prediction by ZEFSAII (Michael W. Deem and Ramdas Pophale) SiO2 
 PCOD9382132
Probable space group: P M M M
;
_chemical_formula_sum "Si O2"
_cell_formula_units_Z 64
_cell_length_a 8.612053
_cell_length_b 25.447786
_cell_length_c 15.474962
_cell_angle_alpha 90.000000
_cell_angle_beta 90.000000
_cell_angle_gamma 90.000000
_cell_volume 3391.456797
_symmetry_space_group_name_H-M "P M M M"
_symmetry_group_IT_number 47
_symmetry_cell_setting 'orthorhombic'
loop_
_space_group_symop_operation_xyz
x,y,z
-x,-y,z
x,-y,-z
-x,y,-z
-x,-y,-z
x,y,-z
-x,y,z
x,-y,z
loop_
_atom_site_type_symbol
_atom_site_label
_atom_site_fract_x
_atom_site_fract_y
_atom_site_fract_z
Si Si1 0.186618 0.562016 0.098014
Si Si2 0.686254 0.268287 0.906981
Si Si3 0.314058 0.353890 0.770446
Si Si4 0.687659 0.058205 0.215797
Si Si5 0.185671 0.687916 0.597047
Si Si6 0.818077 0.833887 0.836346
Si Si7 0.315810 0.914743 0.592326
Si Si8 0.682338 0.798820 0.345018
O O1 0.219004 0.500000 0.108678
O O2 0.264355 0.596399 0.172373
O O3 0.000000 0.568773 0.102259
O O4 0.236836 0.576804 0.000000
O O5 0.500000 0.270859 0.905408
O O6 0.741821 0.303647 0.827249
O O7 0.736609 0.208265 0.897341
O O8 0.741141 0.289019 0.000000
O O9 0.500000 0.351934 0.763422
O O10 0.243859 0.348636 0.675077
O O11 0.500000 0.063186 0.217214
O O12 0.753693 0.107007 0.162809
O O13 0.743261 0.063866 0.315990
O O14 0.727866 0.000000 0.184256
O O15 0.226794 0.669832 0.500000
O O16 0.259603 0.745552 0.612024
O O17 0.000000 0.692637 0.602277
O O18 0.778208 0.811813 0.740862
O O19 0.000000 0.833885 0.851730
O O20 0.249715 0.932643 0.500000
O O21 0.500000 0.927523 0.591527
O O22 0.303534 0.851450 0.598208
O O23 0.500000 0.793147 0.321565
#
# Coordination Sequence:
#
# PCOD9382132 Si02
#       8
#     8   8   8   8   8   8   8   8
#     4   9  19  37  61  89 123 163 201 237 284 342
#     4  10  21  37  57  83 115 148 180 220 276 341
#     4  11  22  36  58  87 120 157 195 238 284 332
#     4   9  18  32  50  70  94 130 175 222 275 334
#     4  11  23  36  52  78 113 153 196 240 287 338
#     4  11  21  33  52  76 105 140 177 220 274 332
#     4   8  14  24  41  67  95 122 160 213 266 317
#     4  10  18  31  50  72 101 140 185 226 271 326
#
# _framework density 18.870947999999999
#
# number of rings (size 3 to 8) (size 9 to 14) (size 15 to 20)
#    0.000    2.125    1.250    4.125    0.000    3.750 
#    0.000    1.875    0.000    4.125    0.000    8.750 
#    0.000    0.000    0.000    0.000    0.000    0.000 
#
# Total GULP energy -357080.522406 kJ/mol
# GULP energy per Si atom -5579.383163 kJ/mol
# Density = 1.882800 g / cm^3
# Si number density = 18.870948 Si / 1000 Ang^3
#
#
#
# Elastic Constant Matrix: (Units=GPa)
#
#
# Indices 1 2 3 4 5 6 
#
# 1 9.2294 8.2248 8.5576 0.0000 0.0000 0.0000
# 2 8.2248 80.8556 35.1651 0.0000 0.0000 0.0000
# 3 8.5576 35.1651 86.2371 0.0000 0.0000 0.0000
# 4 0.0000 0.0000 0.0000 -12.0371 0.0000 0.0000
# 5 0.0000 0.0000 0.0000 0.0000 15.8378 0.0000
# 6 0.0000 0.0000 0.0000 0.0000 0.0000 15.7295
#
#
#
# Elastic Compliance Matrix: (Units=1/GPa)
#
#
# Indices 1 2 3 4 5 6 
#
# 1 0.124330 -0.008851 -0.008729 0.000000 0.000000 0.000000
# 2 -0.008851 0.015664 -0.005509 0.000000 0.000000 0.000000
# 3 -0.008729 -0.005509 0.014709 0.000000 0.000000 0.000000
# 4 0.000000 0.000000 0.000000 -0.083077 0.000000 0.000000
# 5 0.000000 0.000000 0.000000 0.000000 0.063140 0.000000
# 6 0.000000 0.000000 0.000000 0.000000 0.000000 0.063575
#
#
# Mechanical properties :
#
#
# Convention : Reuss Voigt Hill
#
# Bulk Modulus (GPa) = 9.21443 31.13525 20.17484
# Shear Modulus (GPa) = 17.81306 12.19769 15.00537
#
# Velocity S-wave (km/s) = 3.07570 2.54515 2.82291
# Velocity P-wave (km/s) = 4.18410 5.01716 4.61945
#
# Compressibility (1/GPa) = 0.10852541
#
# Stress axis : x y z
#
# Youngs Moduli (GPa) = 8.04311 63.84062 67.98782
#
# Poissons Ratio (x) = 0.56506 0.59343
# Poissons Ratio (y) = 0.07119 0.37455
# Poissons Ratio (z) = 0.07020 0.35170
#
# Static dielectric constant tensor:
#      x y z
#    x 1.640470 0.000000 0.000000 
#    y 0.000000 1.652800 0.000000 
#    z 0.000000 0.000000 1.691340 
# 
# From -- ./inp_files/21952.got.cif
#   From: 2010.05.17/outbox.cif.g08.bks.cpg/sg47_11_cif.got.tgz:21952.got - 2010.06.03 20:15:42.
