data_PCOD9382933
_publ_section_title
;
Structure prediction by ZEFSAII (Michael W. Deem and Ramdas Pophale) SiO2 
 PCOD9382933
Probable space group: P M M M
;
_chemical_formula_sum "Si O2"
_cell_formula_units_Z 48
_cell_length_a 22.843953
_cell_length_b 20.502868
_cell_length_c 8.035706
_cell_angle_alpha 90.000000
_cell_angle_beta 90.000000
_cell_angle_gamma 90.000000
_cell_volume 3763.655920
_symmetry_space_group_name_H-M "P M M M"
_symmetry_group_IT_number 47
_symmetry_cell_setting 'orthorhombic'
loop_
_space_group_symop_operation_xyz
x,y,z
-x,-y,z
x,-y,-z
-x,y,-z
-x,-y,-z
x,y,-z
-x,y,z
x,-y,z
loop_
_atom_site_type_symbol
_atom_site_label
_atom_site_fract_x
_atom_site_fract_y
_atom_site_fract_z
Si Si1 0.769907 0.925051 0.803915
Si Si2 0.931824 0.712581 0.201723
Si Si3 0.567633 0.079607 0.000000
Si Si4 0.643057 0.079284 0.683654
Si Si5 0.070676 0.429889 0.198684
Si Si6 0.000000 0.075303 0.296724
Si Si7 0.116155 0.151023 0.698042
O O1 0.710758 0.902672 0.713421
O O2 0.825463 0.879934 0.772334
O O3 0.783347 0.000000 0.751536
O O4 0.756451 0.926519 0.000000
O O5 0.910395 0.641186 0.261851
O O6 0.894279 0.773381 0.261593
O O7 0.000000 0.721699 0.254145
O O8 0.931774 0.711708 0.000000
O O9 0.602168 0.101257 0.834879
O O10 0.500000 0.099733 0.000000
O O11 0.568422 0.000000 0.000000
O O12 0.623518 0.100019 0.500000
O O13 0.642364 0.000000 0.687713
O O14 0.091508 0.500000 0.267549
O O15 0.000000 0.429247 0.215791
O O16 0.082444 0.430699 0.000000
O O17 0.058488 0.112275 0.240290
O O18 0.000000 0.076808 0.500000
O O19 0.000000 0.000000 0.245147
O O20 0.119229 0.142573 0.500000
#
# Coordination Sequence:
#
# PCOD9382933 Si02
#       7
#     8   8   4   8   8   4   8
#     4  10  19  31  44  56  70  90 121 160 196 231
#     4   9  16  26  39  53  71  90 109 141 184 228
#     4   9  16  26  40  60  84 103 121 147 180 222
#     4   9  16  27  42  58  77 100 124 151 185 224
#     4   7  10  18  34  54  70  85 107 133 165 212
#     4   9  18  30  39  47  62  83 112 152 193 236
#     4  11  20  29  40  53  69  91 118 149 190 238
#
# _framework density 12.753557000000001
#
# number of rings (size 3 to 8) (size 9 to 14) (size 15 to 20)
#    0.000    2.833    1.667    3.000    0.000    2.000 
#    0.000    1.667    0.000    2.500    0.000    2.333 
#    0.000    0.000    0.000    0.000    0.000    0.000 
#
# Total GULP energy -267262.496421 kJ/mol
# GULP energy per Si atom -5567.968675 kJ/mol
# Density = 1.272453 g / cm^3
# Si number density = 12.753557 Si / 1000 Ang^3
#
#
#
# Elastic Constant Matrix: (Units=GPa)
#
#
# Indices 1 2 3 4 5 6 
#
# 1 66.7894 24.1175 28.1477 0.0000 0.0000 0.0000
# 2 24.1175 73.1320 8.1114 0.0000 0.0000 0.0000
# 3 28.1477 8.1114 49.0199 0.0000 0.0000 0.0000
# 4 0.0000 0.0000 0.0000 6.1688 0.0000 0.0000
# 5 0.0000 0.0000 0.0000 0.0000 7.6380 0.0000
# 6 0.0000 0.0000 0.0000 0.0000 0.0000 1.5886
#
#
#
# Elastic Compliance Matrix: (Units=1/GPa)
#
#
# Indices 1 2 3 4 5 6 
#
# 1 0.022050 -0.005977 -0.011672 0.000000 0.000000 0.000000
# 2 -0.005977 0.015550 0.000859 0.000000 0.000000 0.000000
# 3 -0.011672 0.000859 0.026960 0.000000 0.000000 0.000000
# 4 0.000000 0.000000 0.000000 0.162105 0.000000 0.000000
# 5 0.000000 0.000000 0.000000 0.000000 0.130924 0.000000
# 6 0.000000 0.000000 0.000000 0.000000 0.000000 0.629477
#
#
# Mechanical properties :
#
#
# Convention : Reuss Voigt Hill
#
# Bulk Modulus (GPa) = 32.27974 34.41053 33.34513
# Shear Modulus (GPa) = 4.84979 11.65007 8.24993
#
# Velocity S-wave (km/s) = 1.95217 3.02566 2.54613
# Velocity P-wave (km/s) = 5.51784 6.26465 5.90307
#
# Compressibility (1/GPa) = 0.03097918
#
# Stress axis : x y z
#
# Youngs Moduli (GPa) = 45.35183 64.30984 37.09197
#
# Poissons Ratio (x) = 0.38438 0.43294
# Poissons Ratio (y) = 0.27107 -0.03186
# Poissons Ratio (z) = 0.52936 -0.05524
#
# Static dielectric constant tensor:
#      x y z
#    x 1.391370 0.000000 0.000000 
#    y 0.000000 1.423370 0.000000 
#    z 0.000000 0.000000 1.457530 
# 
# From -- ./inp_files/11692.got.cif
#   From: 2010.05.17/outbox.cif.g08.bks.cpg/sg47_6_cif.got.tgz:11692.got - 2010.06.03 20:15:42.
