data_PCOD9382545
_publ_section_title
;
Structure prediction by ZEFSAII (Michael W. Deem and Ramdas Pophale) SiO2 
 PCOD9382545
Probable space group: P M M M
;
_chemical_formula_sum "Si O2"
_cell_formula_units_Z 64
_cell_length_a 7.795299
_cell_length_b 22.430307
_cell_length_c 19.524647
_cell_angle_alpha 90.000000
_cell_angle_beta 90.000000
_cell_angle_gamma 90.000000
_cell_volume 3413.903071
_symmetry_space_group_name_H-M "P M M M"
_symmetry_group_IT_number 47
_symmetry_cell_setting 'orthorhombic'
loop_
_space_group_symop_operation_xyz
x,y,z
-x,-y,z
x,-y,-z
-x,y,-z
-x,-y,-z
x,y,-z
-x,y,z
x,-y,z
loop_
_atom_site_type_symbol
_atom_site_label
_atom_site_fract_x
_atom_site_fract_y
_atom_site_fract_z
Si Si1 0.294955 0.104760 0.222588
Si Si2 0.706813 0.809181 0.574274
Si Si3 0.709858 0.064711 0.628503
Si Si4 0.206417 0.327316 0.824903
Si Si5 0.302504 0.089425 0.924728
Si Si6 0.203797 0.234782 0.278106
Si Si7 0.705527 0.567919 0.923690
Si Si8 0.199234 0.223156 0.923043
O O1 0.500000 0.096326 0.218851
O O2 0.234522 0.073907 0.292509
O O3 0.225280 0.077894 0.150875
O O4 0.267135 0.175799 0.236492
O O5 0.768020 0.787696 0.500000
O O6 0.500000 0.810321 0.572832
O O7 0.766080 0.877330 0.586977
O O8 0.754405 0.773510 0.642327
O O9 0.500000 0.065643 0.628377
O O10 0.764287 0.000000 0.602973
O O11 0.264476 0.298157 0.752952
O O12 0.255637 0.389021 0.860201
O O13 0.266062 0.275039 0.875881
O O14 0.000000 0.209214 0.904743
O O15 0.500000 0.068972 0.925558
O O16 0.299187 0.161457 0.922837
O O17 0.226695 0.072795 0.000000
O O18 0.000000 0.232623 0.270660
O O19 0.500000 0.565691 0.927774
O O20 0.767970 0.500000 0.913477
O O21 0.767382 0.588246 0.000000
O O22 0.000000 0.328160 0.824292
O O23 0.199336 0.246348 0.000000
#
# Coordination Sequence:
#
# PCOD9382545 Si02
#       8
#     8   8   8   8   8   8   8   8
#     4   9  16  27  42  59  83 113 145 184 228 272
#     4   9  18  32  49  69  93 119 145 175 215 267
#     4   8  14  25  43  66  87 111 147 185 218 257
#     4  10  19  29  43  64  89 118 153 192 229 267
#     4   9  16  24  35  53  77 105 138 176 219 266
#     4  10  19  30  45  66  91 117 146 180 221 270
#     4   9  19  34  48  64  90 126 167 205 237 268
#     4   9  16  25  36  53  80 109 138 175 216 257
#
# _framework density 18.746870000000001
#
# number of rings (size 3 to 8) (size 9 to 14) (size 15 to 20)
#    0.000    2.875    1.250    1.875    0.000    3.000 
#    0.000    3.125    0.000    6.375    0.000    6.125 
#    0.000    0.500    0.000   13.125    0.000   12.250 
#
# Total GULP energy -356327.268592 kJ/mol
# GULP energy per Si atom -5567.613572 kJ/mol
# Density = 1.870420 g / cm^3
# Si number density = 18.746870 Si / 1000 Ang^3
#
#
#
# Elastic Constant Matrix: (Units=GPa)
#
#
# Indices 1 2 3 4 5 6 
#
# 1 25.9971 3.6001 9.1978 0.0000 0.0000 0.0000
# 2 3.6001 90.4390 39.3882 0.0000 0.0000 0.0000
# 3 9.1978 39.3882 132.2490 0.0000 0.0000 0.0000
# 4 0.0000 0.0000 0.0000 1.7190 0.0000 0.0000
# 5 0.0000 0.0000 0.0000 0.0000 11.5570 0.0000
# 6 0.0000 0.0000 0.0000 0.0000 0.0000 -18.8438
#
#
#
# Elastic Compliance Matrix: (Units=1/GPa)
#
#
# Indices 1 2 3 4 5 6 
#
# 1 0.039451 -0.000431 -0.002615 0.000000 0.000000 0.000000
# 2 -0.000431 0.012710 -0.003755 0.000000 0.000000 0.000000
# 3 -0.002615 -0.003755 0.008862 0.000000 0.000000 0.000000
# 4 0.000000 0.000000 0.000000 0.581731 0.000000 0.000000
# 5 0.000000 0.000000 0.000000 0.000000 0.086528 0.000000
# 6 0.000000 0.000000 0.000000 0.000000 0.000000 -0.053068
#
#
# Mechanical properties :
#
#
# Convention : Reuss Voigt Hill
#
# Bulk Modulus (GPa) = 21.08887 39.22859 30.15873
# Shear Modulus (GPa) = 7.08592 11.98636 9.53614
#
# Velocity S-wave (km/s) = 1.94628 2.53134 2.25784
# Velocity P-wave (km/s) = 4.04034 5.43272 4.78742
#
# Compressibility (1/GPa) = 0.04741837
#
# Stress axis : x y z
#
# Youngs Moduli (GPa) = 25.34801 78.67872 112.84284
#
# Poissons Ratio (x) = 0.03394 0.29512
# Poissons Ratio (y) = 0.01094 0.42377
# Poissons Ratio (z) = 0.06629 0.29547
#
# Static dielectric constant tensor:
#      x y z
#    x 1.697650 0.000000 0.000000 
#    y 0.000000 1.650500 0.000000 
#    z 0.000000 0.000000 1.725970 
# 
# From -- ./inp_files/11902.got.cif
#   From: 2010.05.17/outbox.cif.g08.bks.cpg/sg47_6_cif.got.tgz:11902.got - 2010.06.03 20:15:42.
