data_PCOD9382274
_publ_section_title
;
Structure prediction by ZEFSAII (Michael W. Deem and Ramdas Pophale) SiO2 
 PCOD9382274
Probable space group: P M M M
;
_chemical_formula_sum "Si O2"
_cell_formula_units_Z 40
_cell_length_a 21.202281
_cell_length_b 12.177182
_cell_length_c 8.260783
_cell_angle_alpha 90.000000
_cell_angle_beta 90.000000
_cell_angle_gamma 90.000000
_cell_volume 2132.802283
_symmetry_space_group_name_H-M "P M M M"
_symmetry_group_IT_number 47
_symmetry_cell_setting 'orthorhombic'
loop_
_space_group_symop_operation_xyz
x,y,z
-x,-y,z
x,-y,-z
-x,y,-z
-x,-y,-z
x,y,-z
-x,y,z
x,-y,z
loop_
_atom_site_type_symbol
_atom_site_label
_atom_site_fract_x
_atom_site_fract_y
_atom_site_fract_z
Si Si1 0.572092 0.874459 0.805001
Si Si2 0.904321 0.000000 0.306415
Si Si3 0.068487 0.242562 0.192805
Si Si4 0.756671 0.000000 0.695810
Si Si5 0.304829 0.225245 0.304564
Si Si6 0.808941 0.624510 0.695221
O O1 0.500000 0.852029 0.754186
O O2 0.622701 0.785514 0.746965
O O3 0.587749 0.000000 0.748585
O O4 0.573300 0.876656 0.000000
O O5 0.929627 0.886145 0.237219
O O6 0.913330 0.000000 0.500000
O O7 0.830123 0.000000 0.268606
O O8 0.130046 0.302877 0.261530
O O9 0.000000 0.286495 0.250365
O O10 0.070805 0.253664 0.000000
O O11 0.725210 0.889145 0.756374
O O12 0.750594 0.000000 0.500000
O O13 0.303386 0.226494 0.500000
O O14 0.256744 0.319769 0.248510
O O15 0.806156 0.621721 0.500000
O O16 0.815534 0.500000 0.755587
#
# Coordination Sequence:
#
# PCOD9382274 Si02
#       6
#     8   4   8   4   8   8
#     4   9  18  31  47  74 112 146 174 207 253 315
#     4  11  20  36  59  83 113 145 179 219 268 328
#     4  11  24  39  55  80 114 146 178 222 276 331
#     4   9  16  28  49  78 106 132 167 217 268 315
#     4  10  18  32  53  78 107 135 171 221 271 318
#     4  10  22  40  60  80 103 138 187 236 278 324
#
# _framework density 18.754667999999999
#
# number of rings (size 3 to 8) (size 9 to 14) (size 15 to 20)
#    0.000    2.000    3.000    1.800    0.000    4.800 
#    0.000    3.000    0.000    0.600    0.000    4.200 
#    0.000    0.000    0.000    0.000    0.000    0.000 
#
# Total GULP energy -223083.519057 kJ/mol
# GULP energy per Si atom -5577.087976 kJ/mol
# Density = 1.871198 g / cm^3
# Si number density = 18.754668 Si / 1000 Ang^3
#
#
#
# Elastic Constant Matrix: (Units=GPa)
#
#
# Indices 1 2 3 4 5 6 
#
# 1 149.9035 69.6964 14.1357 0.0000 0.0000 0.0000
# 2 69.6964 108.5219 9.2095 0.0000 0.0000 0.0000
# 3 14.1357 9.2095 10.3591 0.0000 0.0000 0.0000
# 4 0.0000 0.0000 0.0000 9.8570 0.0000 0.0000
# 5 0.0000 0.0000 0.0000 0.0000 27.5743 0.0000
# 6 0.0000 0.0000 0.0000 0.0000 0.0000 -5.0967
#
#
#
# Elastic Compliance Matrix: (Units=1/GPa)
#
#
# Indices 1 2 3 4 5 6 
#
# 1 0.010195 -0.005805 -0.008751 0.000000 0.000000 0.000000
# 2 -0.005805 0.013272 -0.003878 0.000000 0.000000 0.000000
# 3 -0.008751 -0.003878 0.111923 0.000000 0.000000 0.000000
# 4 0.000000 0.000000 0.000000 0.101451 0.000000 0.000000
# 5 0.000000 0.000000 0.000000 0.000000 0.036266 0.000000
# 6 0.000000 0.000000 0.000000 0.000000 0.000000 -0.196205
#
#
# Mechanical properties :
#
#
# Convention : Reuss Voigt Hill
#
# Bulk Modulus (GPa) = 10.15004 50.54087 30.34546
# Shear Modulus (GPa) = 34.10399 18.18310 26.14354
#
# Velocity S-wave (km/s) = 4.26893 3.11710 3.73765
# Velocity P-wave (km/s) = 5.45180 6.32155 5.90271
#
# Compressibility (1/GPa) = 0.09852174
#
# Stress axis : x y z
#
# Youngs Moduli (GPa) = 98.08544 75.34665 8.93474
#
# Poissons Ratio (x) = 0.43739 0.07819
# Poissons Ratio (y) = 0.56939 0.03465
# Poissons Ratio (z) = 0.85837 0.29218
#
# Static dielectric constant tensor:
#      x y z
#    x 1.684630 0.000000 0.000000 
#    y 0.000000 1.641700 0.000000 
#    z 0.000000 0.000000 1.652370 
# 
# From -- ./inp_files/4107.got.cif
#   From: 2010.05.17/outbox.cif.g08.bks.cpg/sg47_3_cif.got.tgz:4107.got - 2010.06.03 20:15:42.
