data_PCOD9382475
_publ_section_title
;
Structure prediction by ZEFSAII (Michael W. Deem and Ramdas Pophale) SiO2 
 PCOD9382475
Probable space group: P M M M
;
_chemical_formula_sum "Si O2"
_cell_formula_units_Z 60
_cell_length_a 29.216386
_cell_length_b 9.328115
_cell_length_c 19.727014
_cell_angle_alpha 90.000000
_cell_angle_beta 90.000000
_cell_angle_gamma 90.000000
_cell_volume 5376.278256
_symmetry_space_group_name_H-M "P M M M"
_symmetry_group_IT_number 47
_symmetry_cell_setting 'orthorhombic'
loop_
_space_group_symop_operation_xyz
x,y,z
-x,-y,z
x,-y,-z
-x,y,-z
-x,-y,-z
x,y,-z
-x,y,z
x,-y,z
loop_
_atom_site_type_symbol
_atom_site_label
_atom_site_fract_x
_atom_site_fract_y
_atom_site_fract_z
Si Si1 0.268663 0.835173 0.582512
Si Si2 0.359100 0.665072 0.582711
Si Si3 0.550982 0.833009 0.582370
Si Si4 0.055543 0.665865 0.076087
Si Si5 0.177269 0.669766 0.420443
Si Si6 0.944581 0.168301 0.789795
Si Si7 0.917615 0.328307 0.655637
Si Si8 0.000000 0.832031 0.581244
O O1 0.269182 0.833206 0.500000
O O2 0.314104 0.751388 0.604755
O O3 0.221692 0.757499 0.602430
O O4 0.269729 0.000000 0.604208
O O5 0.359307 0.668001 0.500000
O O6 0.356791 0.500000 0.603457
O O7 0.406206 0.739310 0.605530
O O8 0.551046 0.828120 0.500000
O O9 0.500000 0.786098 0.604168
O O10 0.557074 0.000000 0.600834
O O11 0.068845 0.500000 0.088641
O O12 0.069508 0.768760 0.137147
O O13 0.000000 0.668099 0.075224
O O14 0.070691 0.706731 0.000000
O O15 0.168231 0.703004 0.500000
O O16 0.187472 0.500000 0.416623
O O17 0.132014 0.698327 0.377091
O O18 0.922462 0.261171 0.730117
O O19 0.000000 0.183174 0.783680
O O20 0.933923 0.000000 0.783570
O O21 0.925631 0.500000 0.656637
O O22 0.955887 0.248879 0.610731
O O23 0.000000 0.826287 0.500000
O O24 0.000000 0.000000 0.602322
#
# Coordination Sequence:
#
# PCOD9382475 Si02
#       8
#     8   8   8   8   8   8   8   4
#     4   9  16  25  37  50  61  75  95 120 154 193
#     4   9  15  21  30  43  58  75  94 118 146 177
#     4   8  13  20  28  38  54  75  96 117 141 172
#     4   8  14  25  41  59  77  96 117 136 152 175
#     4   9  18  31  43  54  66  79 101 134 168 200
#     4  10  19  29  41  57  78  97 113 134 158 185
#     4  11  21  32  46  58  70  90 112 134 161 197
#     4  11  23  35  45  57  72  87 106 135 167 199
#
# _framework density 11.160136
#
# number of rings (size 3 to 8) (size 9 to 14) (size 15 to 20)
#    0.000    2.733    0.667    3.000    0.000    6.400 
#    0.000    4.000    0.000    0.000    0.000    0.000 
#    0.000    0.000    0.000    0.000    0.000    0.000 
#
# Total GULP energy -334123.778841 kJ/mol
# GULP energy per Si atom -5568.729647 kJ/mol
# Density = 1.113474 g / cm^3
# Si number density = 11.160136 Si / 1000 Ang^3
#
#
#
# Elastic Constant Matrix: (Units=GPa)
#
#
# Indices 1 2 3 4 5 6 
#
# 1 90.3532 66.2557 25.3731 0.0000 0.0000 0.0000
# 2 66.2557 88.4613 34.2489 0.0000 0.0000 0.0000
# 3 25.3731 34.2489 43.9603 0.0000 0.0000 0.0000
# 4 0.0000 0.0000 0.0000 11.8300 0.0000 0.0000
# 5 0.0000 0.0000 0.0000 0.0000 0.3928 0.0000
# 6 0.0000 0.0000 0.0000 0.0000 0.0000 18.0708
#
#
#
# Elastic Compliance Matrix: (Units=1/GPa)
#
#
# Indices 1 2 3 4 5 6 
#
# 1 0.024554 -0.018477 0.000223 0.000000 0.000000 0.000000
# 2 -0.018477 0.030090 -0.012779 0.000000 0.000000 0.000000
# 3 0.000223 -0.012779 0.032575 0.000000 0.000000 0.000000
# 4 0.000000 0.000000 0.000000 0.084531 0.000000 0.000000
# 5 0.000000 0.000000 0.000000 0.000000 2.545830 0.000000
# 6 0.000000 0.000000 0.000000 0.000000 0.000000 0.055338
#
#
# Mechanical properties :
#
#
# Convention : Reuss Voigt Hill
#
# Bulk Modulus (GPa) = 39.75472 52.72557 46.24015
# Shear Modulus (GPa) = 1.75848 12.51853 7.13850
#
# Velocity S-wave (km/s) = 1.25662 3.35284 2.53186
# Velocity P-wave (km/s) = 6.14857 7.89530 7.07604
#
# Compressibility (1/GPa) = 0.02515425
#
# Stress axis : x y z
#
# Youngs Moduli (GPa) = 40.72653 33.23311 30.69855
#
# Poissons Ratio (x) = 0.61404 -0.00684
# Poissons Ratio (y) = 0.75249 0.39229
# Poissons Ratio (z) = -0.00908 0.42467
#
# Static dielectric constant tensor:
#      x y z
#    x 1.351950 0.000000 0.000000 
#    y 0.000000 1.373100 0.000000 
#    z 0.000000 0.000000 1.336830 
# 
# From -- ./inp_files/31591.got.cif
#   From: 2010.05.17/outbox.cif.g08.bks.cpg/sg47_16_cif.got.tgz:31591.got - 2010.06.03 20:15:42.
