data_PCOD9382912
_publ_section_title
;
Structure prediction by ZEFSAII (Michael W. Deem and Ramdas Pophale) SiO2 
 PCOD9382912
Probable space group: P M M M
;
_chemical_formula_sum "Si O2"
_cell_formula_units_Z 64
_cell_length_a 23.976238
_cell_length_b 7.440696
_cell_length_c 16.380960
_cell_angle_alpha 90.000000
_cell_angle_beta 90.000000
_cell_angle_gamma 90.000000
_cell_volume 2922.361596
_symmetry_space_group_name_H-M "P M M M"
_symmetry_group_IT_number 47
_symmetry_cell_setting 'orthorhombic'
loop_
_space_group_symop_operation_xyz
x,y,z
-x,-y,z
x,-y,-z
-x,y,-z
-x,-y,-z
x,y,-z
-x,y,z
x,-y,z
loop_
_atom_site_type_symbol
_atom_site_label
_atom_site_fract_x
_atom_site_fract_y
_atom_site_fract_z
Si Si1 0.680396 0.709544 0.088203
Si Si2 0.319604 0.709544 0.411797
Si Si3 0.935210 0.218888 0.908646
Si Si4 0.736953 0.712029 0.250000
Si Si5 0.935210 0.218888 0.408646
Si Si6 0.438026 0.217077 0.345050
Si Si7 0.561974 0.217077 0.154950
Si Si8 0.867478 0.217327 0.750000
O O1 0.696536 0.500000 0.084933
O O2 0.710312 0.789661 0.167459
O O3 0.614178 0.718270 0.103566
O O4 0.694004 0.789799 0.000000
O O5 0.305996 0.789800 0.500000
O O6 0.303464 0.500000 0.415067
O O7 0.289688 0.789661 0.332541
O O8 0.385822 0.718269 0.396434
O O9 0.898268 0.280094 0.832538
O O10 0.000000 0.270657 0.897555
O O11 0.934024 0.000000 0.908399
O O12 0.917310 0.275736 0.000000
O O13 0.722348 0.500000 0.250000
O O14 0.803046 0.731129 0.250000
O O15 0.917310 0.275736 0.500000
O O16 0.898268 0.280094 0.332538
O O17 0.000000 0.270657 0.397555
O O18 0.934024 0.000000 0.408399
O O19 0.500000 0.274996 0.371389
O O20 0.430571 0.270942 0.250000
O O21 0.437299 0.000000 0.347109
O O22 0.500000 0.274996 0.128611
O O23 0.562700 0.000000 0.152891
O O24 0.870616 0.000000 0.750000
#
# Coordination Sequence:
#
# PCOD9382912 Si02
#       8
#     8   8   8   8   8   8   8   8
#     4  10  21  37  56  75  96 130 176 216 251 299
#     4  10  21  37  56  75  96 130 176 216 251 299
#     4   8  14  26  46  74 106 133 158 197 248 294
#     4  10  22  39  52  68 100 137 169 210 259 298
#     4   8  14  26  46  74 106 133 158 197 248 294
#     4   9  18  33  54  80 108 134 160 198 254 314
#     4   9  18  33  54  80 108 134 160 198 254 314
#     4  10  19  30  50  77  99 126 169 211 241 288
#
# _framework density 21.900096999999999
#
# number of rings (size 3 to 8) (size 9 to 14) (size 15 to 20)
#    0.000    2.750    1.250    1.875    0.000    5.000 
#    0.000    3.750    0.000    1.500    0.000    1.750 
#    0.000    0.000    0.000    0.000    0.000    0.000 
#
# Total GULP energy -357331.189236 kJ/mol
# GULP energy per Si atom -5583.299832 kJ/mol
# Density = 2.185025 g / cm^3
# Si number density = 21.900097 Si / 1000 Ang^3
#
#
#
# Elastic Constant Matrix: (Units=GPa)
#
#
# Indices 1 2 3 4 5 6 
#
# 1 108.3279 -10.9498 107.5716 0.0000 0.0000 0.0000
# 2 -10.9498 67.5549 9.7187 0.0000 0.0000 0.0000
# 3 107.5716 9.7187 231.1810 0.0000 0.0000 0.0000
# 4 0.0000 0.0000 0.0000 -7.7993 0.0000 0.0000
# 5 0.0000 0.0000 0.0000 0.0000 -11.5976 0.0000
# 6 0.0000 0.0000 0.0000 0.0000 0.0000 24.1147
#
#
#
# Elastic Compliance Matrix: (Units=1/GPa)
#
#
# Indices 1 2 3 4 5 6 
#
# 1 0.018279 0.004212 -0.008682 0.000000 0.000000 0.000000
# 2 0.004212 0.015863 -0.002627 0.000000 0.000000 0.000000
# 3 -0.008682 -0.002627 0.008476 0.000000 0.000000 0.000000
# 4 0.000000 0.000000 0.000000 -0.128217 0.000000 0.000000
# 5 0.000000 0.000000 0.000000 0.000000 -0.086225 0.000000
# 6 0.000000 0.000000 0.000000 0.000000 0.000000 0.041468
#
#
# Mechanical properties :
#
#
# Convention : Reuss Voigt Hill
#
# Bulk Modulus (GPa) = 35.18197 68.86052 52.02124
# Shear Modulus (GPa) = -46.86649 20.99179 -12.93735
#
# Velocity S-wave (km/s) = -4.63105 3.09936 -2.43316
# Velocity P-wave (km/s) = 3.53494 6.65728 3.98896
#
# Compressibility (1/GPa) = 0.02842365
#
# Stress axis : x y z
#
# Youngs Moduli (GPa) = 54.70827 63.03833 117.97895
#
# Poissons Ratio (x) = -0.26551 1.02434
# Poissons Ratio (y) = -0.23042 0.30990
# Poissons Ratio (z) = 0.47500 0.16558
#
# Static dielectric constant tensor:
#      x y z
#    x 1.734410 0.000000 0.000000 
#    y 0.000000 1.826460 0.000000 
#    z 0.000000 0.000000 1.823580 
# 
# From -- ./inp_files/25605.got.cif
#   From: 2010.05.17/outbox.cif.g08.bks.cpg/sg47_13_cif.got.tgz:25605.got - 2010.06.03 20:15:42.
