data_PCOD9382591
_publ_section_title
;
Structure prediction by ZEFSAII (Michael W. Deem and Ramdas Pophale) SiO2 
 PCOD9382591
Probable space group: P M M M
;
_chemical_formula_sum "Si O2"
_cell_formula_units_Z 64
_cell_length_a 19.593157
_cell_length_b 23.984837
_cell_length_c 9.067240
_cell_angle_alpha 90.000000
_cell_angle_beta 90.000000
_cell_angle_gamma 90.000000
_cell_volume 4261.046769
_symmetry_space_group_name_H-M "P M M M"
_symmetry_group_IT_number 47
_symmetry_cell_setting 'orthorhombic'
loop_
_space_group_symop_operation_xyz
x,y,z
-x,-y,z
x,-y,-z
-x,y,-z
-x,-y,-z
x,y,-z
-x,y,z
x,-y,z
loop_
_atom_site_type_symbol
_atom_site_label
_atom_site_fract_x
_atom_site_fract_y
_atom_site_fract_z
Si Si1 0.079629 0.435744 0.322823
Si Si2 0.575244 0.238880 0.679078
Si Si3 0.200862 0.160153 0.325679
Si Si4 0.157652 0.664825 0.175922
Si Si5 0.280678 0.276572 0.324547
Si Si6 0.920910 0.221172 0.822815
Si Si7 0.287552 0.936175 0.175659
Si Si8 0.577742 0.107352 0.322972
O O1 0.085447 0.430565 0.500000
O O2 0.095546 0.500000 0.284097
O O3 0.127003 0.390885 0.245015
O O4 0.000000 0.425657 0.284421
O O5 0.575446 0.241271 0.500000
O O6 0.500000 0.257037 0.730043
O O7 0.641196 0.273086 0.728715
O O8 0.583396 0.173256 0.714456
O O9 0.194594 0.150794 0.500000
O O10 0.249075 0.214585 0.304565
O O11 0.128629 0.177170 0.255360
O O12 0.236556 0.107846 0.249429
O O13 0.231239 0.681293 0.240738
O O14 0.108057 0.717200 0.213711
O O15 0.160638 0.660564 0.000000
O O16 0.279059 0.288348 0.500000
O O17 0.000000 0.216230 0.780624
O O18 0.915604 0.214778 0.000000
O O19 0.362964 0.924902 0.240099
O O20 0.267952 0.000000 0.207199
O O21 0.288298 0.927999 0.000000
O O22 0.587129 0.102342 0.500000
O O23 0.500000 0.089653 0.288828
#
# Coordination Sequence:
#
# PCOD9382591 Si02
#       8
#     8   8   8   8   8   8   8   8
#     4   9  18  32  48  66  92 128 166 200 232 265
#     4   8  13  24  44  67  90 116 148 186 226 269
#     4  10  19  32  50  70  89 113 149 189 229 273
#     4  10  19  29  44  69  99 128 158 191 224 262
#     4   9  16  28  46  67  91 120 153 188 230 273
#     4   9  18  32  49  70  97 125 148 178 226 278
#     4  11  23  35  47  64  89 120 151 185 227 278
#     4   9  17  31  50  69  89 115 150 190 227 266
#
# _framework density 15.019784
#
# number of rings (size 3 to 8) (size 9 to 14) (size 15 to 20)
#    0.000    2.625    1.250    2.625    0.000    3.750 
#    0.000    1.875    0.000    0.750    0.000    2.625 
#    0.000    0.500    0.000    5.750    0.000    1.625 
#
# Total GULP energy -356769.775297 kJ/mol
# GULP energy per Si atom -5574.527739 kJ/mol
# Density = 1.498560 g / cm^3
# Si number density = 15.019784 Si / 1000 Ang^3
#
#
#
# Elastic Constant Matrix: (Units=GPa)
#
#
# Indices 1 2 3 4 5 6 
#
# 1 124.3950 62.1812 46.6724 0.0000 0.0000 0.0000
# 2 62.1812 91.8713 47.6124 0.0000 0.0000 0.0000
# 3 46.6724 47.6124 37.7959 0.0000 0.0000 0.0000
# 4 0.0000 0.0000 0.0000 21.9193 0.0000 0.0000
# 5 0.0000 0.0000 0.0000 0.0000 19.0478 0.0000
# 6 0.0000 0.0000 0.0000 0.0000 0.0000 24.1860
#
#
#
# Elastic Compliance Matrix: (Units=1/GPa)
#
#
# Indices 1 2 3 4 5 6 
#
# 1 0.015060 -0.001599 -0.016582 0.000000 0.000000 0.000000
# 2 -0.001599 0.031525 -0.037738 0.000000 0.000000 0.000000
# 3 -0.016582 -0.037738 0.094473 0.000000 0.000000 0.000000
# 4 0.000000 0.000000 0.000000 0.045622 0.000000 0.000000
# 5 0.000000 0.000000 0.000000 0.000000 0.052500 0.000000
# 6 0.000000 0.000000 0.000000 0.000000 0.000000 0.041346
#
#
# Mechanical properties :
#
#
# Convention : Reuss Voigt Hill
#
# Bulk Modulus (GPa) = 34.22314 62.99934 48.61124
# Shear Modulus (GPa) = 12.43459 19.53701 15.98580
#
# Velocity S-wave (km/s) = 2.88041 3.61051 3.26593
# Velocity P-wave (km/s) = 5.82213 7.70820 6.83058
#
# Compressibility (1/GPa) = 0.02921999
#
# Stress axis : x y z
#
# Youngs Moduli (GPa) = 66.40178 31.72101 10.58499
#
# Poissons Ratio (x) = 0.05073 0.17552
# Poissons Ratio (y) = 0.10619 0.39945
# Poissons Ratio (z) = 1.10108 1.19708
#
# Static dielectric constant tensor:
#      x y z
#    x 1.504220 0.000000 0.000000 
#    y 0.000000 1.473330 0.000000 
#    z 0.000000 0.000000 1.494200 
# 
# From -- ./inp_files/11887.got.cif
#   From: 2010.05.17/outbox.cif.g08.bks.cpg/sg47_6_cif.got.tgz:11887.got - 2010.06.03 20:15:42.
