data_PCOD9382363
_publ_section_title
;
Structure prediction by ZEFSAII (Michael W. Deem and Ramdas Pophale) SiO2 
 PCOD9382363
Probable space group: P M M M
;
_chemical_formula_sum "Si O2"
_cell_formula_units_Z 44
_cell_length_a 14.205043
_cell_length_b 19.230905
_cell_length_c 7.645270
_cell_angle_alpha 90.000000
_cell_angle_beta 90.000000
_cell_angle_gamma 90.000000
_cell_volume 2088.502997
_symmetry_space_group_name_H-M "P M M M"
_symmetry_group_IT_number 47
_symmetry_cell_setting 'orthorhombic'
loop_
_space_group_symop_operation_xyz
x,y,z
-x,-y,z
x,-y,-z
-x,y,-z
-x,-y,-z
x,y,-z
-x,y,z
x,-y,z
loop_
_atom_site_type_symbol
_atom_site_label
_atom_site_fract_x
_atom_site_fract_y
_atom_site_fract_z
Si Si1 0.806439 0.841897 0.209495
Si Si2 0.000000 0.921565 0.291318
Si Si3 0.229117 0.421992 0.208671
Si Si4 0.893571 0.299344 0.785842
Si Si5 0.605021 0.683237 0.707991
Si Si6 0.395587 0.843488 0.202455
O O1 0.902426 0.884262 0.239913
O O2 0.828114 0.763842 0.275199
O O3 0.705131 0.868943 0.277977
O O4 0.795238 0.837796 0.000000
O O5 0.000000 0.923591 0.500000
O O6 0.000000 0.000000 0.221208
O O7 0.235134 0.500000 0.280500
O O8 0.143988 0.373760 0.274284
O O9 0.320202 0.374356 0.238946
O O10 0.217312 0.427818 0.000000
O O11 0.000000 0.285915 0.731366
O O12 0.891784 0.298580 0.000000
O O13 0.611425 0.694125 0.500000
O O14 0.500000 0.658129 0.750956
O O15 0.614975 0.759377 0.792574
O O16 0.500000 0.858971 0.279973
O O17 0.399956 0.866074 0.000000
#
# Coordination Sequence:
#
# PCOD9382363 Si02
#       6
#     8   4   8   8   8   8
#     4  10  18  33  59  86 111 143 183 224 266 318
#     4  11  25  41  57  85 122 151 178 216 262 314
#     4  10  20  33  49  69  95 132 178 226 276 326
#     4   9  16  29  50  76 102 128 167 217 264 314
#     4  10  20  32  47  69  99 135 175 221 272 325
#     4   9  17  31  54  83 113 142 176 224 275 320
#
# _framework density 21.067720999999999
#
# number of rings (size 3 to 8) (size 9 to 14) (size 15 to 20)
#    0.000    2.273    2.727    0.818    0.000    3.636 
#    0.000    3.636    0.000    0.545    0.000    5.091 
#    0.000    0.000    0.000    0.000    0.000    0.000 
#
# Total GULP energy -245305.397521 kJ/mol
# GULP energy per Si atom -5575.122671 kJ/mol
# Density = 2.101977 g / cm^3
# Si number density = 21.067721 Si / 1000 Ang^3
#
#
#
# Elastic Constant Matrix: (Units=GPa)
#
#
# Indices 1 2 3 4 5 6 
#
# 1 188.5522 22.1831 1.8248 0.0000 0.0000 0.0000
# 2 22.1831 40.5483 -2.5663 0.0000 0.0000 0.0000
# 3 1.8248 -2.5663 43.2121 0.0000 0.0000 0.0000
# 4 0.0000 0.0000 0.0000 15.3150 0.0000 0.0000
# 5 0.0000 0.0000 0.0000 0.0000 -38.6288 0.0000
# 6 0.0000 0.0000 0.0000 0.0000 0.0000 24.3879
#
#
#
# Elastic Compliance Matrix: (Units=1/GPa)
#
#
# Indices 1 2 3 4 5 6 
#
# 1 0.005676 -0.003132 -0.000426 0.000000 0.000000 0.000000
# 2 -0.003132 0.026483 0.001705 0.000000 0.000000 0.000000
# 3 -0.000426 0.001705 0.023261 0.000000 0.000000 0.000000
# 4 0.000000 0.000000 0.000000 0.065296 0.000000 0.000000
# 5 0.000000 0.000000 0.000000 0.000000 -0.025887 0.000000
# 6 0.000000 0.000000 0.000000 0.000000 0.000000 0.041004
#
#
# Mechanical properties :
#
#
# Convention : Reuss Voigt Hill
#
# Bulk Modulus (GPa) = 19.33683 35.02175 27.17929
# Shear Modulus (GPa) = 31.89247 16.93953 24.41600
#
# Velocity S-wave (km/s) = 3.89499 2.83866 3.40800
# Velocity P-wave (km/s) = 5.42460 5.23483 5.33056
#
# Compressibility (1/GPa) = 0.05171479
#
# Stress axis : x y z
#
# Youngs Moduli (GPa) = 176.17405 37.75940 42.99055
#
# Poissons Ratio (x) = 0.11827 0.01830
# Poissons Ratio (y) = 0.55183 -0.07330
# Poissons Ratio (z) = 0.07500 -0.06438
#
# Static dielectric constant tensor:
#      x y z
#    x 1.822570 0.000000 0.000000 
#    y 0.000000 1.736710 0.000000 
#    z 0.000000 0.000000 1.796110 
# 
# From -- ./inp_files/6145.got.cif
#   From: 2010.05.17/outbox.cif.g08.bks.cpg/sg47_4_cif.got.tgz:6145.got - 2010.06.03 20:15:42.
