data_PCOD9382641
_publ_section_title
;
Structure prediction by ZEFSAII (Michael W. Deem and Ramdas Pophale) SiO2 
 PCOD9382641
Probable space group: P M M M
;
_chemical_formula_sum "Si O2"
_cell_formula_units_Z 56
_cell_length_a 24.057157
_cell_length_b 22.420031
_cell_length_c 9.192621
_cell_angle_alpha 90.000000
_cell_angle_beta 90.000000
_cell_angle_gamma 90.000000
_cell_volume 4958.152339
_symmetry_space_group_name_H-M "P M M M"
_symmetry_group_IT_number 47
_symmetry_cell_setting 'orthorhombic'
loop_
_space_group_symop_operation_xyz
x,y,z
-x,-y,z
x,-y,-z
-x,y,-z
-x,-y,-z
x,y,-z
-x,y,z
x,-y,z
loop_
_atom_site_type_symbol
_atom_site_label
_atom_site_fract_x
_atom_site_fract_y
_atom_site_fract_z
Si Si1 0.567102 0.257428 0.171911
Si Si2 0.567780 0.500000 0.831475
Si Si3 0.500000 0.928511 0.829166
Si Si4 0.601693 0.137659 0.675000
Si Si5 0.938590 0.072443 0.670181
Si Si6 0.827988 0.927367 0.167436
Si Si7 0.567577 0.379713 0.667921
Si Si8 0.284655 0.930479 0.326255
O O1 0.500000 0.250713 0.187667
O O2 0.595124 0.203197 0.257476
O O3 0.583123 0.320630 0.242898
O O4 0.579395 0.255934 0.000000
O O5 0.500000 0.500000 0.830799
O O6 0.585734 0.440218 0.747973
O O7 0.585021 0.500000 0.000000
O O8 0.446226 0.902014 0.749087
O O9 0.500000 0.000000 0.821075
O O10 0.500000 0.910768 0.000000
O O11 0.594334 0.138875 0.500000
O O12 0.661362 0.108474 0.708246
O O13 0.933240 0.087808 0.500000
O O14 0.884953 0.093649 0.757709
O O15 0.000000 0.091897 0.721950
O O16 0.938488 0.000000 0.677725
O O17 0.771743 0.909539 0.249446
O O18 0.828927 0.000000 0.173309
O O19 0.826173 0.909475 0.000000
O O20 0.585856 0.377357 0.500000
O O21 0.500000 0.380928 0.666471
O O22 0.276271 0.928950 0.500000
O O23 0.294846 0.000000 0.285700
#
# Coordination Sequence:
#
# PCOD9382641 Si02
#       8
#     8   4   4   8   8   8   8   8
#     4  10  19  30  42  55  72  90 108 131 166 206
#     4   9  15  23  35  53  75  95 113 131 155 183
#     4  11  23  35  45  57  71  84  99 128 173 219
#     4  11  21  32  46  58  68  83 108 138 170 209
#     4   8  13  21  33  48  66  88 109 126 147 179
#     4   9  16  24  35  51  68  85 104 128 158 191
#     4   9  16  25  38  54  72  92 114 134 154 183
#     4   9  18  31  43  53  65  83 107 135 168 207
#
# _framework density 11.29453
#
# number of rings (size 3 to 8) (size 9 to 14) (size 15 to 20)
#    0.000    2.571    0.714    3.000    0.000    7.429 
#    0.000    2.857    0.000    0.000    0.000    0.000 
#    0.000    0.000    0.000    0.000    0.000    0.000 
#
# Total GULP energy -311971.288951 kJ/mol
# GULP energy per Si atom -5570.915874 kJ/mol
# Density = 1.126882 g / cm^3
# Si number density = 11.294530 Si / 1000 Ang^3
#
#
#
# Elastic Constant Matrix: (Units=GPa)
#
#
# Indices 1 2 3 4 5 6 
#
# 1 85.4018 33.7032 52.2319 0.0000 0.0000 0.0000
# 2 33.7032 66.5427 42.2186 0.0000 0.0000 0.0000
# 3 52.2319 42.2186 79.5437 0.0000 0.0000 0.0000
# 4 0.0000 0.0000 0.0000 16.3886 0.0000 0.0000
# 5 0.0000 0.0000 0.0000 0.0000 3.6528 0.0000
# 6 0.0000 0.0000 0.0000 0.0000 0.0000 0.7531
#
#
#
# Elastic Compliance Matrix: (Units=1/GPa)
#
#
# Indices 1 2 3 4 5 6 
#
# 1 0.019883 -0.002694 -0.011626 0.000000 0.000000 0.000000
# 2 -0.002694 0.023023 -0.010450 0.000000 0.000000 0.000000
# 3 -0.011626 -0.010450 0.025753 0.000000 0.000000 0.000000
# 4 0.000000 0.000000 0.000000 0.061018 0.000000 0.000000
# 5 0.000000 0.000000 0.000000 0.000000 0.273764 0.000000
# 6 0.000000 0.000000 0.000000 0.000000 0.000000 1.327821
#
#
# Mechanical properties :
#
#
# Convention : Reuss Voigt Hill
#
# Bulk Modulus (GPa) = 52.30961 54.19952 53.25456
# Shear Modulus (GPa) = 2.79771 11.04787 6.92279
#
# Velocity S-wave (km/s) = 1.57557 3.13095 2.47843
# Velocity P-wave (km/s) = 7.05156 7.82062 7.44603
#
# Compressibility (1/GPa) = 0.01911695
#
# Stress axis : x y z
#
# Youngs Moduli (GPa) = 50.29360 43.43486 38.83094
#
# Poissons Ratio (x) = 0.11703 0.45146
# Poissons Ratio (y) = 0.13551 0.40580
# Poissons Ratio (z) = 0.58472 0.45391
#
# Static dielectric constant tensor:
#      x y z
#    x 1.349830 0.000000 0.000000 
#    y 0.000000 1.346630 0.000000 
#    z 0.000000 0.000000 1.377160 
# 
# From -- ./inp_files/11771.got.cif
#   From: 2010.05.17/outbox.cif.g08.bks.cpg/sg47_6_cif.got.tgz:11771.got - 2010.06.03 20:15:42.
