data_PCOD9382950
_publ_section_title
;
Structure prediction by ZEFSAII (Michael W. Deem and Ramdas Pophale) SiO2 
 PCOD9382950
Probable space group: P M M M
;
_chemical_formula_sum "Si O2"
_cell_formula_units_Z 40
_cell_length_a 12.790742
_cell_length_b 9.057324
_cell_length_c 22.599459
_cell_angle_alpha 90.000000
_cell_angle_beta 90.000000
_cell_angle_gamma 90.000000
_cell_volume 2618.144941
_symmetry_space_group_name_H-M "P M M M"
_symmetry_group_IT_number 47
_symmetry_cell_setting 'orthorhombic'
loop_
_space_group_symop_operation_xyz
x,y,z
-x,-y,z
x,-y,-z
-x,y,-z
-x,-y,-z
x,y,-z
-x,y,z
x,-y,z
loop_
_atom_site_type_symbol
_atom_site_label
_atom_site_fract_x
_atom_site_fract_y
_atom_site_fract_z
Si Si1 0.376801 0.825665 0.930358
Si Si2 0.872517 0.829209 0.500000
Si Si3 0.193291 0.324122 0.137771
Si Si4 0.872841 0.329859 0.620572
Si Si5 0.873942 0.825926 0.257238
Si Si6 0.000000 0.825765 0.929132
O O1 0.500000 0.800882 0.919890
O O2 0.302231 0.727893 0.890320
O O3 0.355304 0.000000 0.920115
O O4 0.356430 0.797110 0.000000
O O5 0.838342 0.747081 0.440243
O O6 0.000000 0.826991 0.500000
O O7 0.840644 0.000000 0.500000
O O8 0.182887 0.500000 0.137414
O O9 0.178814 0.260957 0.203666
O O10 0.101597 0.250600 0.098615
O O11 0.839102 0.500000 0.623631
O O12 0.842842 0.240174 0.679196
O O13 0.000000 0.329694 0.619465
O O14 0.000000 0.808147 0.251192
O O15 0.851332 0.000000 0.254027
O O16 0.000000 0.000000 0.913874
O O17 0.000000 0.812155 0.000000
#
# Coordination Sequence:
#
# PCOD9382950 Si02
#       6
#     8   4   8   8   8   4
#     4   9  19  37  58  75  92 119 155 192 233 285
#     4   9  15  23  35  53  77 109 152 191 226 269
#     4  12  23  33  49  72  98 123 152 193 240 284
#     4   9  16  25  38  56  81 111 148 193 236 270
#     4  10  19  31  46  62  86 122 160 192 228 279
#     4  11  23  37  51  67  91 124 159 192 229 279
#
# _framework density 15.277991999999999
#
# number of rings (size 3 to 8) (size 9 to 14) (size 15 to 20)
#    0.000    2.000    1.000    4.800    0.000    8.400 
#    0.000    1.000    0.000    0.000    0.000    0.000 
#    0.000    0.000    0.000    0.900    0.000   16.700 
#
# Total GULP energy -223232.563448 kJ/mol
# GULP energy per Si atom -5580.814086 kJ/mol
# Density = 1.524322 g / cm^3
# Si number density = 15.277992 Si / 1000 Ang^3
#
#
#
# Elastic Constant Matrix: (Units=GPa)
#
#
# Indices 1 2 3 4 5 6 
#
# 1 32.4834 44.0237 41.8962 0.0000 0.0000 0.0000
# 2 44.0237 151.1761 95.1193 0.0000 0.0000 0.0000
# 3 41.8962 95.1193 134.7589 0.0000 0.0000 0.0000
# 4 0.0000 0.0000 0.0000 103.5452 0.0000 0.0000
# 5 0.0000 0.0000 0.0000 0.0000 2.2909 0.0000
# 6 0.0000 0.0000 0.0000 0.0000 0.0000 13.1711
#
#
#
# Elastic Compliance Matrix: (Units=1/GPa)
#
#
# Indices 1 2 3 4 5 6 
#
# 1 0.058917 -0.010132 -0.011166 0.000000 0.000000 0.000000
# 2 -0.010132 0.013642 -0.006479 0.000000 0.000000 0.000000
# 3 -0.011166 -0.006479 0.015465 0.000000 0.000000 0.000000
# 4 0.000000 0.000000 0.000000 0.009658 0.000000 0.000000
# 5 0.000000 0.000000 0.000000 0.000000 0.436518 0.000000
# 6 0.000000 0.000000 0.000000 0.000000 0.000000 0.075924
#
#
# Mechanical properties :
#
#
# Convention : Reuss Voigt Hill
#
# Bulk Modulus (GPa) = 30.79644 75.61074 53.20359
# Shear Modulus (GPa) = 7.39096 32.96003 20.17550
#
# Velocity S-wave (km/s) = 2.20185 4.64977 3.63789
# Velocity P-wave (km/s) = 5.16385 8.85576 7.24879
#
# Compressibility (1/GPa) = 0.03247129
#
# Stress axis : x y z
#
# Youngs Moduli (GPa) = 16.97290 73.30332 64.66051
#
# Poissons Ratio (x) = 0.74270 0.72198
# Poissons Ratio (y) = 0.17197 0.41895
# Poissons Ratio (z) = 0.18952 0.47495
#
# Static dielectric constant tensor:
#      x y z
#    x 1.478570 0.000000 0.000000 
#    y 0.000000 1.507270 0.000000 
#    z 0.000000 0.000000 1.503300 
# 
# From -- ./inp_files/4067.got.cif
#   From: 2010.05.17/outbox.cif.g08.bks.cpg/sg47_3_cif.got.tgz:4067.got - 2010.06.03 20:15:42.
