data_PCOD9382172
_publ_section_title
;
Structure prediction by ZEFSAII (Michael W. Deem and Ramdas Pophale) SiO2 
 PCOD9382172
Probable space group: P M M M
;
_chemical_formula_sum "Si O2"
_cell_formula_units_Z 48
_cell_length_a 21.233539
_cell_length_b 14.641805
_cell_length_c 8.008500
_cell_angle_alpha 90.000000
_cell_angle_beta 90.000000
_cell_angle_gamma 90.000000
_cell_volume 2489.821327
_symmetry_space_group_name_H-M "P M M M"
_symmetry_group_IT_number 47
_symmetry_cell_setting 'orthorhombic'
loop_
_space_group_symop_operation_xyz
x,y,z
-x,-y,z
x,-y,-z
-x,y,-z
-x,-y,-z
x,y,-z
-x,y,z
x,-y,z
loop_
_atom_site_type_symbol
_atom_site_label
_atom_site_fract_x
_atom_site_fract_y
_atom_site_fract_z
Si Si1 0.826077 0.897923 0.298926
Si Si2 0.500000 0.605909 0.704963
Si Si3 0.680608 0.897324 0.296006
Si Si4 0.750154 0.394560 0.202366
Si Si5 0.874747 0.708810 0.801951
Si Si6 0.000000 0.396816 0.302016
Si Si7 0.624278 0.711314 0.299886
O O1 0.825469 0.898874 0.500000
O O2 0.753448 0.881054 0.244568
O O3 0.869597 0.815131 0.243569
O O4 0.844031 0.000000 0.241811
O O5 0.500000 0.500000 0.757326
O O6 0.500000 0.605388 0.500000
O O7 0.437601 0.659302 0.762394
O O8 0.680304 0.896662 0.500000
O O9 0.637336 0.814163 0.236967
O O10 0.662712 0.000000 0.243747
O O11 0.752203 0.500000 0.255038
O O12 0.811954 0.341306 0.265331
O O13 0.686715 0.346484 0.262299
O O14 0.750198 0.392298 0.000000
O O15 0.937635 0.658440 0.745968
O O16 0.872312 0.701397 0.000000
O O17 0.000000 0.500000 0.229736
O O18 0.000000 0.404672 0.500000
O O19 0.617577 0.717563 0.500000
#
# Coordination Sequence:
#
# PCOD9382172 Si02
#       7
#     8   4   8   8   8   4   8
#     4   9  17  32  55  82 112 143 177 223 274 322
#     4   9  18  30  44  70 106 139 175 225 280 319
#     4   8  14  26  47  75 104 133 169 217 269 315
#     4  10  21  35  51  75 106 136 172 220 269 316
#     4  11  22  37  58  83 113 145 178 222 276 327
#     4  11  25  43  62  83 110 147 189 226 264 323
#     4  10  18  31  52  74 100 137 180 221 265 321
#
# _framework density 19.278492
#
# number of rings (size 3 to 8) (size 9 to 14) (size 15 to 20)
#    0.000    2.333    1.667    2.750    0.000    3.333 
#    0.000    1.250    0.000    7.000    0.000    0.000 
#    0.000    1.333    0.000    0.000    0.000    0.000 
#
# Total GULP energy -267869.611712 kJ/mol
# GULP energy per Si atom -5580.616911 kJ/mol
# Density = 1.923461 g / cm^3
# Si number density = 19.278492 Si / 1000 Ang^3
#
#
#
# Elastic Constant Matrix: (Units=GPa)
#
#
# Indices 1 2 3 4 5 6 
#
# 1 158.7759 111.1353 9.6584 0.0000 0.0000 0.0000
# 2 111.1353 208.0907 13.1749 0.0000 0.0000 0.0000
# 3 9.6584 13.1749 15.3002 0.0000 0.0000 0.0000
# 4 0.0000 0.0000 0.0000 7.5297 0.0000 0.0000
# 5 0.0000 0.0000 0.0000 0.0000 15.1238 0.0000
# 6 0.0000 0.0000 0.0000 0.0000 0.0000 38.8104
#
#
#
# Elastic Compliance Matrix: (Units=1/GPa)
#
#
# Indices 1 2 3 4 5 6 
#
# 1 0.010106 -0.005282 -0.001832 0.000000 0.000000 0.000000
# 2 -0.005282 0.007843 -0.003419 0.000000 0.000000 0.000000
# 3 -0.001832 -0.003419 0.069459 0.000000 0.000000 0.000000
# 4 0.000000 0.000000 0.000000 0.132807 0.000000 0.000000
# 5 0.000000 0.000000 0.000000 0.000000 0.066121 0.000000
# 6 0.000000 0.000000 0.000000 0.000000 0.000000 0.025766
#
#
# Mechanical properties :
#
#
# Convention : Reuss Voigt Hill
#
# Bulk Modulus (GPa) = 15.07320 72.23379 43.65349
# Shear Modulus (GPa) = 14.07330 28.83932 21.45631
#
# Velocity S-wave (km/s) = 2.70478 3.87192 3.33973
# Velocity P-wave (km/s) = 4.19406 7.58545 6.12899
#
# Compressibility (1/GPa) = 0.06634290
#
# Stress axis : x y z
#
# Youngs Moduli (GPa) = 98.94633 127.50479 14.39694
#
# Poissons Ratio (x) = 0.67343 0.02637
# Poissons Ratio (y) = 0.52260 0.04923
# Poissons Ratio (z) = 0.18126 0.43598
#
# Static dielectric constant tensor:
#      x y z
#    x 1.676570 0.000000 0.000000 
#    y 0.000000 1.695850 0.000000 
#    z 0.000000 0.000000 1.683100 
# 
# From -- ./inp_files/9208.got.cif
#   From: 2010.05.17/outbox.cif.g08.bks.cpg/sg47_5_cif.got.tgz:9208.got - 2010.06.03 20:15:42.
