data_PCOD9382058
_publ_section_title
;
Structure prediction by ZEFSAII (Michael W. Deem and Ramdas Pophale) SiO2 
 PCOD9382058
Probable space group: P M M M
;
_chemical_formula_sum "Si O2"
_cell_formula_units_Z 40
_cell_length_a 22.406198
_cell_length_b 9.381574
_cell_length_c 10.849074
_cell_angle_alpha 90.000000
_cell_angle_beta 90.000000
_cell_angle_gamma 90.000000
_cell_volume 2280.533990
_symmetry_space_group_name_H-M "P M M M"
_symmetry_group_IT_number 47
_symmetry_cell_setting 'orthorhombic'
loop_
_space_group_symop_operation_xyz
x,y,z
-x,-y,z
x,-y,-z
-x,y,-z
-x,-y,-z
x,y,-z
-x,y,z
x,-y,z
loop_
_atom_site_type_symbol
_atom_site_label
_atom_site_fract_x
_atom_site_fract_y
_atom_site_fract_z
Si Si1 0.221421 0.338169 0.227979
Si Si2 0.363334 0.671012 0.249219
Si Si3 0.431331 0.673291 0.000000
Si Si4 0.886449 0.841359 0.854130
Si Si5 0.760005 0.339903 0.500000
Si Si6 0.359565 0.170538 0.500000
Si Si7 0.000000 0.337069 0.150953
O O1 0.212845 0.500000 0.182111
O O2 0.292330 0.307432 0.224511
O O3 0.177776 0.230403 0.162511
O O4 0.205204 0.332834 0.373083
O O5 0.371569 0.500000 0.268249
O O6 0.398446 0.716181 0.126300
O O7 0.381936 0.756156 0.372736
O O8 0.430071 0.500000 0.000000
O O9 0.500000 0.719407 0.000000
O O10 0.940344 0.743708 0.806780
O O11 0.887806 0.000000 0.800477
O O12 0.896873 0.852725 0.000000
O O13 0.730273 0.500000 0.500000
O O14 0.710102 0.218139 0.500000
O O15 0.367061 0.000000 0.500000
O O16 0.000000 0.500000 0.191469
O O17 0.000000 0.338437 0.000000
#
# Coordination Sequence:
#
# PCOD9382058 Si02
#       7
#     8   8   4   8   4   4   4
#     4   9  17  29  49  73  97 126 162 202 248 299
#     4   9  18  33  54  78 106 137 172 219 268 312
#     4   9  18  34  57  83 107 136 177 222 267 311
#     4  10  20  31  44  67 100 131 160 198 246 295
#     4   8  16  32  50  70  98 130 164 208 257 297
#     4  10  18  30  51  77 103 136 176 215 256 311
#     4   9  17  31  49  66  87 124 169 207 243 291
#
# _framework density 17.539750999999999
#
# number of rings (size 3 to 8) (size 9 to 14) (size 15 to 20)
#    0.000    2.800    0.000    3.000    1.400    5.600 
#    0.000    1.000    0.000    4.800    0.000    4.200 
#    0.000    0.000    0.000    0.000    0.000    0.000 
#
# Total GULP energy -222670.687900 kJ/mol
# GULP energy per Si atom -5566.767198 kJ/mol
# Density = 1.749983 g / cm^3
# Si number density = 17.539751 Si / 1000 Ang^3
#
#
#
# Elastic Constant Matrix: (Units=GPa)
#
#
# Indices 1 2 3 4 5 6 
#
# 1 72.8901 55.5250 38.9607 0.0000 0.0000 0.0000
# 2 55.5250 107.5729 51.4139 0.0000 0.0000 0.0000
# 3 38.9607 51.4139 78.9075 0.0000 0.0000 0.0000
# 4 0.0000 0.0000 0.0000 16.5852 0.0000 0.0000
# 5 0.0000 0.0000 0.0000 0.0000 -7.3943 0.0000
# 6 0.0000 0.0000 0.0000 0.0000 0.0000 6.0536
#
#
#
# Elastic Compliance Matrix: (Units=1/GPa)
#
#
# Indices 1 2 3 4 5 6 
#
# 1 0.024160 -0.009831 -0.005524 0.000000 0.000000 0.000000
# 2 -0.009831 0.017500 -0.006549 0.000000 0.000000 0.000000
# 3 -0.005524 -0.006549 0.019667 0.000000 0.000000 0.000000
# 4 0.000000 0.000000 0.000000 0.060295 0.000000 0.000000
# 5 0.000000 0.000000 0.000000 0.000000 -0.135239 0.000000
# 6 0.000000 0.000000 0.000000 0.000000 0.000000 0.165192
#
#
# Mechanical properties :
#
#
# Convention : Reuss Voigt Hill
#
# Bulk Modulus (GPa) = 57.07245 61.24108 59.15677
# Shear Modulus (GPa) = 24.84819 10.61363 17.73091
#
# Velocity S-wave (km/s) = 3.76796 2.46258 3.18291
# Velocity P-wave (km/s) = 7.17911 6.56332 6.87811
#
# Compressibility (1/GPa) = 0.01752159
#
# Stress axis : x y z
#
# Youngs Moduli (GPa) = 41.38994 57.14253 50.84535
#
# Poissons Ratio (x) = 0.56174 0.28087
# Poissons Ratio (y) = 0.40689 0.33297
# Poissons Ratio (z) = 0.22864 0.37421
#
# Static dielectric constant tensor:
#      x y z
#    x 1.579000 0.000000 0.000000 
#    y 0.000000 1.609230 0.000000 
#    z 0.000000 0.000000 1.626540 
# 
# From -- ./inp_files/19001.got.cif
#   From: 2010.05.17/outbox.cif.g08.bks.cpg/sg47_10_cif.got.tgz:19001.got - 2010.06.03 20:15:42.
