data_PCOD9382962
_publ_section_title
;
Structure prediction by ZEFSAII (Michael W. Deem and Ramdas Pophale) SiO2 
 PCOD9382962
Probable space group: P M M M
;
_chemical_formula_sum "Si O2"
_cell_formula_units_Z 40
_cell_length_a 9.014708
_cell_length_b 17.148554
_cell_length_c 18.790120
_cell_angle_alpha 90.000000
_cell_angle_beta 90.000000
_cell_angle_gamma 90.000000
_cell_volume 2904.749749
_symmetry_space_group_name_H-M "P M M M"
_symmetry_group_IT_number 47
_symmetry_cell_setting 'orthorhombic'
loop_
_space_group_symop_operation_xyz
x,y,z
-x,-y,z
x,-y,-z
-x,y,-z
-x,-y,-z
x,y,-z
-x,y,z
x,-y,z
loop_
_atom_site_type_symbol
_atom_site_label
_atom_site_fract_x
_atom_site_fract_y
_atom_site_fract_z
Si Si1 0.178625 0.319907 0.632883
Si Si2 0.674510 0.406643 0.500000
Si Si3 0.828969 0.000000 0.586399
Si Si4 0.676071 0.838063 0.414459
Si Si5 0.178113 0.590625 0.776415
Si Si6 0.674872 0.594326 0.077927
O O1 0.247493 0.370989 0.569294
O O2 0.242659 0.233378 0.623476
O O3 0.220773 0.358574 0.708159
O O4 0.000000 0.319345 0.626972
O O5 0.686756 0.500000 0.500000
O O6 0.500000 0.385148 0.500000
O O7 0.744701 0.921107 0.607491
O O8 0.829389 0.000000 0.500000
O O9 0.000000 0.000000 0.610003
O O10 0.699090 0.829009 0.500000
O O11 0.500000 0.836358 0.401891
O O12 0.225356 0.500000 0.766141
O O13 0.243111 0.620791 0.850997
O O14 0.000000 0.590768 0.781107
O O15 0.500000 0.611582 0.083043
O O16 0.689685 0.500000 0.077280
O O17 0.728720 0.621995 0.000000
#
# Coordination Sequence:
#
# PCOD9382962 Si02
#       6
#     8   4   4   8   8   8
#     4  11  21  32  46  61  82 111 145 182 218 255
#     4  11  23  35  45  58  77 106 147 189 225 257
#     4   9  17  29  47  67  85 105 134 167 209 260
#     4  10  19  31  46  64  86 108 137 175 215 257
#     4   9  18  30  42  59  82 109 143 180 217 254
#     4   8  14  25  41  60  80 103 133 169 210 256
#
# _framework density 13.77055
#
# number of rings (size 3 to 8) (size 9 to 14) (size 15 to 20)
#    0.000    2.400    1.000    3.000    0.000    5.600 
#    0.000    4.000    0.000    0.000    0.000    0.000 
#    0.000    0.000    0.000    0.900    0.000   16.800 
#
# Total GULP energy -222944.890830 kJ/mol
# GULP energy per Si atom -5573.622271 kJ/mol
# Density = 1.373921 g / cm^3
# Si number density = 13.770550 Si / 1000 Ang^3
#
#
#
# Elastic Constant Matrix: (Units=GPa)
#
#
# Indices 1 2 3 4 5 6 
#
# 1 60.0199 43.2201 50.8808 0.0000 0.0000 0.0000
# 2 43.2201 85.2194 54.0094 0.0000 0.0000 0.0000
# 3 50.8808 54.0094 122.9404 0.0000 0.0000 0.0000
# 4 0.0000 0.0000 0.0000 2.3402 0.0000 0.0000
# 5 0.0000 0.0000 0.0000 0.0000 17.5782 0.0000
# 6 0.0000 0.0000 0.0000 0.0000 0.0000 21.8822
#
#
#
# Elastic Compliance Matrix: (Units=1/GPa)
#
#
# Indices 1 2 3 4 5 6 
#
# 1 0.031367 -0.010644 -0.008305 0.000000 0.000000 0.000000
# 2 -0.010644 0.019874 -0.004326 0.000000 0.000000 0.000000
# 3 -0.008305 -0.004326 0.013472 0.000000 0.000000 0.000000
# 4 0.000000 0.000000 0.000000 0.427310 0.000000 0.000000
# 5 0.000000 0.000000 0.000000 0.000000 0.056889 0.000000
# 6 0.000000 0.000000 0.000000 0.000000 0.000000 0.045699
#
#
# Mechanical properties :
#
#
# Convention : Reuss Voigt Hill
#
# Bulk Modulus (GPa) = 55.06051 62.71116 58.88584
# Shear Modulus (GPa) = 7.72540 16.36476 12.04508
#
# Velocity S-wave (km/s) = 2.37113 3.45104 2.96074
# Velocity P-wave (km/s) = 6.89691 7.84337 7.38532
#
# Compressibility (1/GPa) = 0.01816184
#
# Stress axis : x y z
#
# Youngs Moduli (GPa) = 31.88074 50.31610 74.22956
#
# Poissons Ratio (x) = 0.53558 0.61651
# Poissons Ratio (y) = 0.33935 0.32110
# Poissons Ratio (z) = 0.26478 0.21765
#
# Static dielectric constant tensor:
#      x y z
#    x 1.460080 0.000000 0.000000 
#    y 0.000000 1.436340 0.000000 
#    z 0.000000 0.000000 1.447110 
# 
# From -- ./inp_files/26637.got.cif
#   From: 2010.05.17/outbox.cif.g08.bks.cpg/sg47_14_cif.got.tgz:26637.got - 2010.06.03 20:15:42.
