data_PCOD9382717
_publ_section_title
;
Structure prediction by ZEFSAII (Michael W. Deem and Ramdas Pophale) SiO2 
 PCOD9382717
Probable space group: P M M M
;
_chemical_formula_sum "Si O2"
_cell_formula_units_Z 52
_cell_length_a 7.643098
_cell_length_b 14.009890
_cell_length_c 23.403427
_cell_angle_alpha 90.000000
_cell_angle_beta 90.000000
_cell_angle_gamma 90.000000
_cell_volume 2506.014676
_symmetry_space_group_name_H-M "P M M M"
_symmetry_group_IT_number 47
_symmetry_cell_setting 'orthorhombic'
loop_
_space_group_symop_operation_xyz
x,y,z
-x,-y,z
x,-y,-z
-x,y,-z
-x,-y,-z
x,y,-z
-x,y,z
x,-y,z
loop_
_atom_site_type_symbol
_atom_site_label
_atom_site_fract_x
_atom_site_fract_y
_atom_site_fract_z
Si Si1 0.209465 0.893098 0.248831
Si Si2 0.699292 0.394982 0.895461
Si Si3 0.706069 0.194921 0.128057
Si Si4 0.213880 0.255602 0.665375
Si Si5 0.213586 0.608027 0.434055
Si Si6 0.791275 0.000000 0.063801
Si Si7 0.203996 0.606869 0.766184
O O1 0.240534 0.825829 0.193667
O O2 0.270670 0.846057 0.308516
O O3 0.000000 0.900033 0.252591
O O4 0.279529 0.000000 0.238815
O O5 0.500000 0.396011 0.917776
O O6 0.777377 0.500000 0.911066
O O7 0.781307 0.289416 0.904119
O O8 0.698134 0.393383 0.826159
O O9 0.500000 0.211344 0.129091
O O10 0.740491 0.096570 0.095729
O O11 0.273294 0.306627 0.607366
O O12 0.267356 0.325466 0.716727
O O13 0.000000 0.254061 0.662938
O O14 0.265825 0.621723 0.500000
O O15 0.266877 0.500000 0.416382
O O16 0.000000 0.608093 0.432664
O O17 0.000000 0.000000 0.061637
O O18 0.718420 0.000000 0.000000
O O19 0.208218 0.500000 0.742927
O O20 0.000000 0.629632 0.779178
#
# Coordination Sequence:
#
# PCOD9382717 Si02
#       7
#     8   8   8   8   8   4   8
#     4  10  19  30  45  67  98 135 167 206 263 321
#     4   9  18  31  46  70 107 143 169 198 244 302
#     4  11  21  34  56  82 109 141 176 216 257 304
#     4   9  15  23  36  56  85 122 163 205 254 310
#     4   8  13  21  34  54  83 121 165 215 268 316
#     4  11  25  43  63  85 109 139 174 215 262 305
#     4   9  15  22  36  60  88 119 158 199 238 289
#
# _framework density 20.750077999999998
#
# number of rings (size 3 to 8) (size 9 to 14) (size 15 to 20)
#    0.000    2.538    2.308    1.615    0.000    3.077 
#    0.000    0.000    0.000    0.923    0.000    6.462 
#    0.000    2.462    0.000   12.308    0.000   11.692 
#
# Total GULP energy -289582.186221 kJ/mol
# GULP energy per Si atom -5568.888197 kJ/mol
# Density = 2.070285 g / cm^3
# Si number density = 20.750078 Si / 1000 Ang^3
#
#
#
# Elastic Constant Matrix: (Units=GPa)
#
#
# Indices 1 2 3 4 5 6 
#
# 1 43.4573 7.7315 -1.4874 0.0000 0.0000 0.0000
# 2 7.7315 167.8979 37.1140 0.0000 0.0000 0.0000
# 3 -1.4874 37.1140 66.6057 0.0000 0.0000 0.0000
# 4 0.0000 0.0000 0.0000 -9.9553 0.0000 0.0000
# 5 0.0000 0.0000 0.0000 0.0000 73.5889 0.0000
# 6 0.0000 0.0000 0.0000 0.0000 0.0000 6.2972
#
#
#
# Elastic Compliance Matrix: (Units=1/GPa)
#
#
# Indices 1 2 3 4 5 6 
#
# 1 0.023296 -0.001355 0.001275 0.000000 0.000000 0.000000
# 2 -0.001355 0.006871 -0.003859 0.000000 0.000000 0.000000
# 3 0.001275 -0.003859 0.017193 0.000000 0.000000 0.000000
# 4 0.000000 0.000000 0.000000 -0.100449 0.000000 0.000000
# 5 0.000000 0.000000 0.000000 0.000000 0.013589 0.000000
# 6 0.000000 0.000000 0.000000 0.000000 0.000000 0.158802
#
#
# Mechanical properties :
#
#
# Convention : Reuss Voigt Hill
#
# Bulk Modulus (GPa) = 25.32776 40.51968 32.92372
# Shear Modulus (GPa) = 35.62782 29.62634 32.62708
#
# Velocity S-wave (km/s) = 4.14816 3.78268 3.96963
# Velocity P-wave (km/s) = 5.93090 6.21676 6.07551
#
# Compressibility (1/GPa) = 0.03948236
#
# Stress axis : x y z
#
# Youngs Moduli (GPa) = 42.92630 145.52969 58.16456
#
# Poissons Ratio (x) = 0.19713 -0.07416
# Poissons Ratio (y) = 0.05815 0.22447
# Poissons Ratio (z) = -0.05473 0.56162
#
# Static dielectric constant tensor:
#      x y z
#    x 1.798320 0.000000 0.000000 
#    y 0.000000 1.828630 0.000000 
#    z 0.000000 0.000000 1.719000 
# 
# From -- ./inp_files/31966.got.cif
#   From: 2010.05.17/outbox.cif.g08.bks.cpg/sg47_16_cif.got.tgz:31966.got - 2010.06.03 20:15:42.
