data_PCOD9383019
_publ_section_title
;
Structure prediction by ZEFSAII (Michael W. Deem and Ramdas Pophale) SiO2 
 PCOD9383019
Probable space group: P M M M
;
_chemical_formula_sum "Si O2"
_cell_formula_units_Z 64
_cell_length_a 18.438519
_cell_length_b 21.013426
_cell_length_c 7.493629
_cell_angle_alpha 90.000000
_cell_angle_beta 90.000000
_cell_angle_gamma 90.000000
_cell_volume 2903.454924
_symmetry_space_group_name_H-M "P M M M"
_symmetry_group_IT_number 47
_symmetry_cell_setting 'orthorhombic'
loop_
_space_group_symop_operation_xyz
x,y,z
-x,-y,z
x,-y,-z
-x,y,-z
-x,-y,-z
x,y,-z
-x,y,z
x,-y,z
loop_
_atom_site_type_symbol
_atom_site_label
_atom_site_fract_x
_atom_site_fract_y
_atom_site_fract_z
Si Si1 0.724996 0.424953 0.796785
Si Si2 0.380099 0.239313 0.714843
Si Si3 0.742701 0.068492 0.707489
Si Si4 0.218110 0.208044 0.282114
Si Si5 0.423003 0.376345 0.206293
Si Si6 0.579185 0.097021 0.207347
Si Si7 0.888158 0.571226 0.295996
Si Si8 0.079393 0.289714 0.281834
O O1 0.712295 0.500000 0.806602
O O2 0.653136 0.396596 0.710483
O O3 0.801582 0.417181 0.702778
O O4 0.733789 0.400152 0.000000
O O5 0.384445 0.240507 0.500000
O O6 0.294933 0.239998 0.766999
O O7 0.419704 0.300392 0.789580
O O8 0.414036 0.173268 0.777512
O O9 0.763942 0.067491 0.500000
O O10 0.775050 0.134555 0.780958
O O11 0.654838 0.073325 0.712125
O O12 0.763255 0.000000 0.787392
O O13 0.216849 0.206760 0.500000
O O14 0.147918 0.247567 0.222690
O O15 0.500000 0.397888 0.283590
O O16 0.420883 0.398691 0.000000
O O17 0.500000 0.077945 0.280674
O O18 0.580703 0.078756 0.000000
O O19 0.913938 0.567815 0.500000
O O20 0.900719 0.500000 0.217065
O O21 0.917441 0.636906 0.217158
O O22 0.083757 0.292329 0.500000
O O23 0.000000 0.263154 0.235641
#
# Coordination Sequence:
#
# PCOD9383019 Si02
#       8
#     8   8   8   8   8   8   8   8
#     4   9  18  32  48  64  84 116 157 195 234 285
#     4  10  19  31  48  67  89 121 159 194 231 280
#     4   9  18  32  49  68  91 123 162 200 237 279
#     4   8  15  28  45  65  89 118 152 189 227 270
#     4  10  20  31  43  62  88 116 150 198 249 287
#     4  10  20  32  46  67  97 127 154 192 239 280
#     4   9  17  29  46  69  96 123 152 190 233 276
#     4   9  16  26  44  71  99 124 150 183 227 280
#
# _framework density 22.042702999999999
#
# number of rings (size 3 to 8) (size 9 to 14) (size 15 to 20)
#    0.000    2.750    0.000    2.625    0.000    5.250 
#    0.000    3.750    0.000    0.750    0.000    7.000 
#    0.000    0.000    0.000    4.500    0.000    5.000 
#
# Total GULP energy -357026.895000 kJ/mol
# GULP energy per Si atom -5578.545234 kJ/mol
# Density = 2.199253 g / cm^3
# Si number density = 22.042703 Si / 1000 Ang^3
#
#
#
# Elastic Constant Matrix: (Units=GPa)
#
#
# Indices 1 2 3 4 5 6 
#
# 1 145.2670 69.8316 4.4658 0.0000 0.0000 0.0000
# 2 69.8316 76.8262 -0.9261 0.0000 0.0000 0.0000
# 3 4.4658 -0.9261 68.5961 0.0000 0.0000 0.0000
# 4 0.0000 0.0000 0.0000 17.9532 0.0000 0.0000
# 5 0.0000 0.0000 0.0000 0.0000 18.3587 0.0000
# 6 0.0000 0.0000 0.0000 0.0000 0.0000 -5.3345
#
#
#
# Elastic Compliance Matrix: (Units=1/GPa)
#
#
# Indices 1 2 3 4 5 6 
#
# 1 0.012288 -0.011180 -0.000951 0.000000 0.000000 0.000000
# 2 -0.011180 0.023191 0.001041 0.000000 0.000000 0.000000
# 3 -0.000951 0.001041 0.014654 0.000000 0.000000 0.000000
# 4 0.000000 0.000000 0.000000 0.055700 0.000000 0.000000
# 5 0.000000 0.000000 0.000000 0.000000 0.054470 0.000000
# 6 0.000000 0.000000 0.000000 0.000000 0.000000 -0.187459
#
#
# Mechanical properties :
#
#
# Convention : Reuss Voigt Hill
#
# Bulk Modulus (GPa) = 35.77502 48.60354 42.18928
# Shear Modulus (GPa) = 1151.42726 20.68334 586.05530
#
# Velocity S-wave (km/s) = 22.88004 3.06654 16.32329
# Velocity P-wave (km/s) = 26.72564 5.88522 19.35066
#
# Compressibility (1/GPa) = 0.02795247
#
# Stress axis : x y z
#
# Youngs Moduli (GPa) = 81.38244 43.11937 68.24056
#
# Poissons Ratio (x) = 0.48209 0.06489
# Poissons Ratio (y) = 0.90989 -0.07104
# Poissons Ratio (z) = 0.07739 -0.04489
#
# Static dielectric constant tensor:
#      x y z
#    x 1.818000 0.000000 0.000000 
#    y 0.000000 1.822380 0.000000 
#    z 0.000000 0.000000 1.867100 
# 
# From -- ./inp_files/10027.got.cif
#   From: 2010.05.17/outbox.cif.g08.bks.cpg/sg47_6_cif.got.tgz:10027.got - 2010.06.03 20:15:42.
