data_PCOD9383782
_publ_section_title
;
Structure prediction by ZEFSAII (Michael W. Deem and Ramdas Pophale) SiO2 
 PCOD9383782
Probable space group: P M M M
;
_chemical_formula_sum "Si O2"
_cell_formula_units_Z 52
_cell_length_a 7.533512
_cell_length_b 21.382976
_cell_length_c 15.108890
_cell_angle_alpha 90.000000
_cell_angle_beta 90.000000
_cell_angle_gamma 90.000000
_cell_volume 2433.874565
_symmetry_space_group_name_H-M "P M M M"
_symmetry_group_IT_number 47
_symmetry_cell_setting 'orthorhombic'
loop_
_space_group_symop_operation_xyz
x,y,z
-x,-y,z
x,-y,-z
-x,y,-z
-x,-y,-z
x,y,-z
-x,y,z
x,-y,z
loop_
_atom_site_type_symbol
_atom_site_label
_atom_site_fract_x
_atom_site_fract_y
_atom_site_fract_z
Si Si1 0.717459 0.000000 0.603873
Si Si2 0.715012 0.338726 0.650835
Si Si3 0.717232 0.429959 0.500000
Si Si4 0.790156 0.572134 0.000000
Si Si5 0.207149 0.798906 0.403843
Si Si6 0.698709 0.108485 0.264163
Si Si7 0.282598 0.815215 0.100537
Si Si8 0.287711 0.325785 0.149877
O O1 0.774820 0.058739 0.665213
O O2 0.500000 0.000000 0.599298
O O3 0.776213 0.000000 0.500000
O O4 0.500000 0.338649 0.652401
O O5 0.774287 0.394400 0.588176
O O6 0.774284 0.274830 0.605250
O O7 0.778660 0.340267 0.751629
O O8 0.778906 0.500000 0.500000
O O9 0.500000 0.429368 0.500000
O O10 0.745467 0.616674 0.916388
O O11 0.717139 0.500000 0.000000
O O12 0.000000 0.565526 0.000000
O O13 0.273726 0.820080 0.500000
O O14 0.308400 0.829230 0.323091
O O15 0.000000 0.815422 0.396814
O O16 0.500000 0.085358 0.243132
O O17 0.780832 0.133773 0.172725
O O18 0.500000 0.815245 0.106055
O O19 0.223655 0.743507 0.120345
O O20 0.233767 0.830737 0.000000
O O21 0.500000 0.319529 0.153770
#
# Coordination Sequence:
#
# PCOD9383782 Si02
#       8
#     4   8   4   4   8   8   8   8
#     4   9  18  32  52  82 114 145 183 227 272 323
#     4  10  19  33  56  81 105 138 179 223 276 327
#     4   9  18  32  51  77 107 136 173 222 269 323
#     4  11  25  41  55  77 111 150 187 226 280 340
#     4  11  22  33  49  78 112 142 178 225 273 321
#     4  10  19  34  56  80 108 144 184 224 270 325
#     4   9  16  29  52  81 108 133 170 223 275 318
#     4  10  19  34  57  83 106 136 181 231 280 327
#
# _framework density 21.365110999999999
#
# number of rings (size 3 to 8) (size 9 to 14) (size 15 to 20)
#    0.000    2.077    3.077    1.154    0.000    3.385 
#    0.000    2.308    0.000    4.615    0.000    0.000 
#    0.000    1.231    0.000    0.000    0.000    0.000 
#
# Total GULP energy -290065.335927 kJ/mol
# GULP energy per Si atom -5578.179537 kJ/mol
# Density = 2.131648 g / cm^3
# Si number density = 21.365111 Si / 1000 Ang^3
#
#
#
# Elastic Constant Matrix: (Units=GPa)
#
#
# Indices 1 2 3 4 5 6 
#
# 1 55.1332 1.4877 11.5934 0.0000 0.0000 0.0000
# 2 1.4877 129.2619 75.5146 0.0000 0.0000 0.0000
# 3 11.5934 75.5146 213.7352 0.0000 0.0000 0.0000
# 4 0.0000 0.0000 0.0000 -8.8588 0.0000 0.0000
# 5 0.0000 0.0000 0.0000 0.0000 3.0734 0.0000
# 6 0.0000 0.0000 0.0000 0.0000 0.0000 -99.8404
#
#
#
# Elastic Compliance Matrix: (Units=1/GPa)
#
#
# Indices 1 2 3 4 5 6 
#
# 1 0.018370 0.000467 -0.001161 0.000000 0.000000 0.000000
# 2 0.000467 0.009760 -0.003474 0.000000 0.000000 0.000000
# 3 -0.001161 -0.003474 0.005969 0.000000 0.000000 0.000000
# 4 0.000000 0.000000 0.000000 -0.112882 0.000000 0.000000
# 5 0.000000 0.000000 0.000000 0.000000 0.325367 0.000000
# 6 0.000000 0.000000 0.000000 0.000000 0.000000 -0.010016
#
#
# Mechanical properties :
#
#
# Convention : Reuss Voigt Hill
#
# Bulk Modulus (GPa) = 38.81597 63.92464 51.37031
# Shear Modulus (GPa) = 19.72452 -0.48950 9.61751
#
# Velocity S-wave (km/s) = 3.04174 -0.47917 2.12398
# Velocity P-wave (km/s) = 5.52662 5.44784 5.48737
#
# Compressibility (1/GPa) = 0.02576259
#
# Stress axis : x y z
#
# Youngs Moduli (GPa) = 54.43805 102.45709 167.53297
#
# Poissons Ratio (x) = -0.04786 0.19458
# Poissons Ratio (y) = -0.02543 0.58196
# Poissons Ratio (z) = 0.06323 0.35591
#
# Static dielectric constant tensor:
#      x y z
#    x 1.815330 0.000000 0.000000 
#    y 0.000000 1.777250 0.000000 
#    z 0.000000 0.000000 1.785510 
# 
# From -- ./inp_files/21532.got.cif
#   From: 2010.05.17/outbox.cif.g08.bks.cpg/sg47_11_cif.got.tgz:21532.got - 2010.06.03 20:15:42.
