data_PCOD9383811
_publ_section_title
;
Structure prediction by ZEFSAII (Michael W. Deem and Ramdas Pophale) SiO2 
 PCOD9383811
Probable space group: P M M M
;
_chemical_formula_sum "Si O2"
_cell_formula_units_Z 52
_cell_length_a 15.522866
_cell_length_b 7.925543
_cell_length_c 20.779412
_cell_angle_alpha 90.000000
_cell_angle_beta 90.000000
_cell_angle_gamma 90.000000
_cell_volume 2556.431670
_symmetry_space_group_name_H-M "P M M M"
_symmetry_group_IT_number 47
_symmetry_cell_setting 'orthorhombic'
loop_
_space_group_symop_operation_xyz
x,y,z
-x,-y,z
x,-y,-z
-x,y,-z
-x,-y,-z
x,y,-z
-x,y,z
x,-y,z
loop_
_atom_site_type_symbol
_atom_site_label
_atom_site_fract_x
_atom_site_fract_y
_atom_site_fract_z
Si Si1 0.402340 0.293847 0.573739
Si Si2 0.901758 0.700293 0.270693
Si Si3 0.653682 0.697197 0.073031
Si Si4 0.000000 0.309916 0.925115
Si Si5 0.829376 0.806401 0.133461
Si Si6 0.406412 0.198055 0.789889
Si Si7 0.726032 0.701448 0.682885
O O1 0.384138 0.244521 0.500000
O O2 0.500000 0.240836 0.589991
O O3 0.401907 0.500000 0.575319
O O4 0.333325 0.231642 0.625279
O O5 0.908680 0.500000 0.282094
O O6 0.860149 0.726514 0.200420
O O7 0.823790 0.769742 0.314729
O O8 0.000000 0.769281 0.274029
O O9 0.631125 0.500000 0.071923
O O10 0.753182 0.716794 0.094750
O O11 0.604669 0.777701 0.133498
O O12 0.641030 0.764001 0.000000
O O13 0.084257 0.208136 0.907023
O O14 0.000000 0.500000 0.894403
O O15 0.000000 0.333311 0.000000
O O16 0.802797 0.000000 0.144568
O O17 0.500000 0.270004 0.770444
O O18 0.327509 0.272116 0.749061
O O19 0.406189 0.000000 0.776393
O O20 0.733296 0.500000 0.674566
#
# Coordination Sequence:
#
# PCOD9383811 Si02
#       7
#     8   8   8   4   8   8   8
#     4   8  14  26  48  82 119 149 183 230 277 322
#     4  10  20  34  53  76 107 144 183 228 278 330
#     4  11  24  41  59  77 101 138 183 229 279 337
#     4  11  23  37  53  73 101 137 176 223 282 345
#     4  12  23  35  54  78 104 135 176 228 285 341
#     4  11  24  39  56  81 112 143 178 229 288 338
#     4  10  19  33  57  83 109 147 190 230 274 330
#
# _framework density 20.340854
#
# number of rings (size 3 to 8) (size 9 to 14) (size 15 to 20)
#    0.000    1.615    2.308    3.923    0.000    5.846 
#    0.000    1.538    0.000    0.923    0.000    5.385 
#    0.000    0.000    0.000    2.769    0.000    3.231 
#
# Total GULP energy -290129.339627 kJ/mol
# GULP energy per Si atom -5579.410377 kJ/mol
# Density = 2.029456 g / cm^3
# Si number density = 20.340854 Si / 1000 Ang^3
#
#
#
# Elastic Constant Matrix: (Units=GPa)
#
#
# Indices 1 2 3 4 5 6 
#
# 1 132.2383 -0.3823 58.6305 0.0000 0.0000 0.0000
# 2 -0.3823 30.4992 -5.9944 0.0000 0.0000 0.0000
# 3 58.6305 -5.9944 100.3962 0.0000 0.0000 0.0000
# 4 0.0000 0.0000 0.0000 -34.6159 0.0000 0.0000
# 5 0.0000 0.0000 0.0000 0.0000 29.7136 0.0000
# 6 0.0000 0.0000 0.0000 0.0000 0.0000 13.6677
#
#
#
# Elastic Compliance Matrix: (Units=1/GPa)
#
#
# Indices 1 2 3 4 5 6 
#
# 1 0.010238 -0.001059 -0.006042 0.000000 0.000000 0.000000
# 2 -0.001059 0.033287 0.002606 0.000000 0.000000 0.000000
# 3 -0.006042 0.002606 0.013645 0.000000 0.000000 0.000000
# 4 0.000000 0.000000 0.000000 -0.028888 0.000000 0.000000
# 5 0.000000 0.000000 0.000000 0.000000 0.033655 0.000000
# 6 0.000000 0.000000 0.000000 0.000000 0.000000 0.073165
#
#
# Mechanical properties :
#
#
# Convention : Reuss Voigt Hill
#
# Bulk Modulus (GPa) = 20.75609 40.84905 30.80257
# Shear Modulus (GPa) = 31.22064 15.81175 23.51619
#
# Velocity S-wave (km/s) = 3.92200 2.79111 3.40385
# Velocity P-wave (km/s) = 5.54398 5.52385 5.53392
#
# Compressibility (1/GPa) = 0.04817864
#
# Stress axis : x y z
#
# Youngs Moduli (GPa) = 97.67599 30.04210 73.28865
#
# Poissons Ratio (x) = 0.03182 0.44282
# Poissons Ratio (y) = 0.10346 -0.19099
# Poissons Ratio (z) = 0.59017 -0.07829
#
# Static dielectric constant tensor:
#      x y z
#    x 1.765960 0.000000 0.000000 
#    y 0.000000 1.763310 0.000000 
#    z 0.000000 0.000000 1.726550 
# 
# From -- ./inp_files/30853.got.cif
#   From: 2010.05.17/outbox.cif.g08.bks.cpg/sg47_16_cif.got.tgz:30853.got - 2010.06.03 20:15:42.
