data_PCOD9383338
_publ_section_title
;
Structure prediction by ZEFSAII (Michael W. Deem and Ramdas Pophale) SiO2 
 PCOD9383338
Probable space group: P M M M
;
_chemical_formula_sum "Si O2"
_cell_formula_units_Z 52
_cell_length_a 16.946097
_cell_length_b 21.527036
_cell_length_c 8.366652
_cell_angle_alpha 90.000000
_cell_angle_beta 90.000000
_cell_angle_gamma 90.000000
_cell_volume 3052.148292
_symmetry_space_group_name_H-M "P M M M"
_symmetry_group_IT_number 47
_symmetry_cell_setting 'orthorhombic'
loop_
_space_group_symop_operation_xyz
x,y,z
-x,-y,z
x,-y,-z
-x,y,-z
-x,-y,-z
x,y,-z
-x,y,z
x,-y,z
loop_
_atom_site_type_symbol
_atom_site_label
_atom_site_fract_x
_atom_site_fract_y
_atom_site_fract_z
Si Si1 0.658885 0.929325 0.193407
Si Si2 0.500000 0.719636 0.309108
Si Si3 0.179902 0.374731 0.693057
Si Si4 0.670127 0.692410 0.808961
Si Si5 0.910818 0.749678 0.307226
Si Si6 0.500000 0.136523 0.308195
Si Si7 0.091901 0.500000 0.695508
Si Si8 0.762457 0.816435 0.807396
O O1 0.576711 0.899351 0.247047
O O2 0.726458 0.881523 0.247658
O O3 0.667290 0.000000 0.250615
O O4 0.659750 0.930440 0.000000
O O5 0.500000 0.720616 0.500000
O O6 0.419116 0.688168 0.251584
O O7 0.500000 0.791719 0.250995
O O8 0.181263 0.375138 0.500000
O O9 0.268173 0.359766 0.751568
O O10 0.125959 0.316372 0.745391
O O11 0.139221 0.438492 0.746581
O O12 0.707008 0.758791 0.752450
O O13 0.669429 0.692910 0.000000
O O14 0.911818 0.749083 0.500000
O O15 0.849965 0.801680 0.250699
O O16 0.000000 0.757371 0.249661
O O17 0.500000 0.136990 0.500000
O O18 0.090727 0.500000 0.500000
O O19 0.000000 0.500000 0.746170
O O20 0.761649 0.815539 0.000000
#
# Coordination Sequence:
#
# PCOD9383338 Si02
#       8
#     8   4   8   8   8   4   4   8
#     4  10  20  34  50  67  93 130 166 198 238 290
#     4  11  21  32  50  74  99 128 163 204 246 287
#     4   9  17  30  49  74 104 133 164 200 237 283
#     4  10  19  32  50  71  97 130 165 203 246 289
#     4   9  17  29  47  71  97 124 156 197 243 287
#     4  11  22  32  47  72 101 127 157 198 243 290
#     4   9  16  28  51  80 107 138 171 199 234 285
#     4   9  18  31  47  68  92 121 159 200 241 287
#
# _framework density 17.037179999999999
#
# number of rings (size 3 to 8) (size 9 to 14) (size 15 to 20)
#    0.000    2.385    1.538    1.615    0.000    5.231 
#    0.000    0.385    0.000    2.769    0.000    6.462 
#    0.000    0.000    0.000    0.000    0.000    0.000 
#
# Total GULP energy -290023.512329 kJ/mol
# GULP energy per Si atom -5577.375237 kJ/mol
# Density = 1.699840 g / cm^3
# Si number density = 17.037180 Si / 1000 Ang^3
#
#
#
# Elastic Constant Matrix: (Units=GPa)
#
#
# Indices 1 2 3 4 5 6 
#
# 1 186.0578 90.3489 19.1909 0.0000 0.0000 0.0000
# 2 90.3489 123.4247 16.8209 0.0000 0.0000 0.0000
# 3 19.1909 16.8209 8.4144 0.0000 0.0000 0.0000
# 4 0.0000 0.0000 0.0000 16.9547 0.0000 0.0000
# 5 0.0000 0.0000 0.0000 0.0000 -28.0287 0.0000
# 6 0.0000 0.0000 0.0000 0.0000 0.0000 20.8109
#
#
#
# Elastic Compliance Matrix: (Units=1/GPa)
#
#
# Indices 1 2 3 4 5 6 
#
# 1 0.008913 -0.005160 -0.010013 0.000000 0.000000 0.000000
# 2 -0.005160 0.014123 -0.016465 0.000000 0.000000 0.000000
# 3 -0.010013 -0.016465 0.174596 0.000000 0.000000 0.000000
# 4 0.000000 0.000000 0.000000 0.058981 0.000000 0.000000
# 5 0.000000 0.000000 0.000000 0.000000 -0.035678 0.000000
# 6 0.000000 0.000000 0.000000 0.000000 0.000000 0.048052
#
#
# Mechanical properties :
#
#
# Convention : Reuss Voigt Hill
#
# Bulk Modulus (GPa) = 7.44291 63.40204 35.42248
# Shear Modulus (GPa) = 13.26090 14.71647 13.98869
#
# Velocity S-wave (km/s) = 2.79292 2.94221 2.86854
# Velocity P-wave (km/s) = 3.84430 6.98834 5.63984
#
# Compressibility (1/GPa) = 0.13435604
#
# Stress axis : x y z
#
# Youngs Moduli (GPa) = 112.19412 70.80599 5.72751
#
# Poissons Ratio (x) = 0.36535 0.05735
# Poissons Ratio (y) = 0.57891 0.09430
# Poissons Ratio (z) = 1.12345 1.16580
#
# Static dielectric constant tensor:
#      x y z
#    x 1.564120 0.000000 0.000000 
#    y 0.000000 1.576070 0.000000 
#    z 0.000000 0.000000 1.590860 
# 
# From -- ./inp_files/7167.got.cif
#   From: 2010.05.17/outbox.cif.g08.bks.cpg/sg47_4_cif.got.tgz:7167.got - 2010.06.03 20:15:42.
