data_PCOD9383897
_publ_section_title
;
Structure prediction by ZEFSAII (Michael W. Deem and Ramdas Pophale) SiO2 
 PCOD9383897
Probable space group: P M M M
;
_chemical_formula_sum "Si O2"
_cell_formula_units_Z 40
_cell_length_a 21.182598
_cell_length_b 8.555818
_cell_length_c 12.124995
_cell_angle_alpha 90.000000
_cell_angle_beta 90.000000
_cell_angle_gamma 90.000000
_cell_volume 2197.466840
_symmetry_space_group_name_H-M "P M M M"
_symmetry_group_IT_number 47
_symmetry_cell_setting 'orthorhombic'
loop_
_space_group_symop_operation_xyz
x,y,z
-x,-y,z
x,-y,-z
-x,y,-z
-x,-y,-z
x,y,-z
-x,y,z
x,-y,z
loop_
_atom_site_type_symbol
_atom_site_label
_atom_site_fract_x
_atom_site_fract_y
_atom_site_fract_z
Si Si1 0.244765 0.683004 0.000000
Si Si2 0.809206 0.686793 0.373821
Si Si3 0.428592 0.190434 0.127444
Si Si4 0.891303 0.814809 0.000000
Si Si5 0.300976 0.186473 0.225211
Si Si6 0.931205 0.186879 0.246164
O O1 0.270615 0.766816 0.891600
O O2 0.261072 0.500000 0.000000
O O3 0.170057 0.707642 0.000000
O O4 0.813526 0.742775 0.500000
O O5 0.809457 0.500000 0.372941
O O6 0.744275 0.742608 0.317580
O O7 0.870024 0.743352 0.305121
O O8 0.500000 0.240174 0.154408
O O9 0.373646 0.240854 0.210846
O O10 0.428032 0.000000 0.126765
O O11 0.415008 0.238250 0.000000
O O12 0.926819 0.786692 0.885485
O O13 0.872857 0.000000 0.000000
O O14 0.300448 0.000000 0.237800
O O15 0.000000 0.244153 0.286034
O O16 0.928924 0.000000 0.262676
#
# Coordination Sequence:
#
# PCOD9383897 Si02
#       6
#     4   8   8   4   8   8
#     4  12  22  31  50  82 117 149 180 217 270 329
#     4  11  25  42  57  76 106 145 187 232 282 330
#     4   8  14  26  48  81 117 146 173 211 264 322
#     4  10  19  34  56  83 114 144 174 212 265 330
#     4  11  20  34  58  84 110 143 185 229 272 317
#     4  10  21  37  59  85 112 142 178 223 273 327
#
# _framework density 18.202777000000001
#
# number of rings (size 3 to 8) (size 9 to 14) (size 15 to 20)
#    0.000    1.800    3.000    3.000    0.000    3.600 
#    0.000    2.000    0.000    5.400    0.000    4.200 
#    0.000    0.000    0.000    0.000    0.000    0.000 
#
# Total GULP energy -223142.906866 kJ/mol
# GULP energy per Si atom -5578.572672 kJ/mol
# Density = 1.816135 g / cm^3
# Si number density = 18.202777 Si / 1000 Ang^3
#
#
#
# Elastic Constant Matrix: (Units=GPa)
#
#
# Indices 1 2 3 4 5 6 
#
# 1 163.7446 30.1570 62.9208 0.0000 0.0000 0.0000
# 2 30.1570 19.6830 24.0110 0.0000 0.0000 0.0000
# 3 62.9208 24.0110 107.4146 0.0000 0.0000 0.0000
# 4 0.0000 0.0000 0.0000 21.1421 0.0000 0.0000
# 5 0.0000 0.0000 0.0000 0.0000 3.5140 0.0000
# 6 0.0000 0.0000 0.0000 0.0000 0.0000 -18.3162
#
#
#
# Elastic Compliance Matrix: (Units=1/GPa)
#
#
# Indices 1 2 3 4 5 6 
#
# 1 0.009191 -0.010332 -0.003075 0.000000 0.000000 0.000000
# 2 -0.010332 0.081467 -0.012159 0.000000 0.000000 0.000000
# 3 -0.003075 -0.012159 0.013829 0.000000 0.000000 0.000000
# 4 0.000000 0.000000 0.000000 0.047299 0.000000 0.000000
# 5 0.000000 0.000000 0.000000 0.000000 0.284574 0.000000
# 6 0.000000 0.000000 0.000000 0.000000 0.000000 -0.054596
#
#
# Mechanical properties :
#
#
# Convention : Reuss Voigt Hill
#
# Bulk Modulus (GPa) = 18.74168 58.33553 38.53860
# Shear Modulus (GPa) = 11.09436 12.85154 11.97295
#
# Velocity S-wave (km/s) = 2.47146 2.65999 2.56745
# Velocity P-wave (km/s) = 4.29681 6.44602 5.47785
#
# Compressibility (1/GPa) = 0.05335702
#
# Stress axis : x y z
#
# Youngs Moduli (GPa) = 108.79856 12.27490 72.31389
#
# Poissons Ratio (x) = 0.12682 0.22233
# Poissons Ratio (y) = 1.12408 0.87924
# Poissons Ratio (z) = 0.33450 0.14925
#
# Static dielectric constant tensor:
#      x y z
#    x 1.659790 0.000000 0.000000 
#    y 0.000000 1.614530 0.000000 
#    z 0.000000 0.000000 1.607900 
# 
# From -- ./inp_files/18953.got.cif
#   From: 2010.05.17/outbox.cif.g08.bks.cpg/sg47_10_cif.got.tgz:18953.got - 2010.06.03 20:15:42.
