data_PCOD9383855
_publ_section_title
;
Structure prediction by ZEFSAII (Michael W. Deem and Ramdas Pophale) SiO2 
 PCOD9383855
Probable space group: P M M M
;
_chemical_formula_sum "Si O2"
_cell_formula_units_Z 40
_cell_length_a 7.737062
_cell_length_b 12.995941
_cell_length_c 19.940678
_cell_angle_alpha 90.000000
_cell_angle_beta 90.000000
_cell_angle_gamma 90.000000
_cell_volume 2005.043174
_symmetry_space_group_name_H-M "P M M M"
_symmetry_group_IT_number 47
_symmetry_cell_setting 'orthorhombic'
loop_
_space_group_symop_operation_xyz
x,y,z
-x,-y,z
x,-y,-z
-x,y,-z
-x,-y,-z
x,y,-z
-x,y,z
x,-y,z
loop_
_atom_site_type_symbol
_atom_site_label
_atom_site_fract_x
_atom_site_fract_y
_atom_site_fract_z
Si Si1 0.699411 0.000000 0.081638
Si Si2 0.292081 0.116855 0.424714
Si Si3 0.708307 0.223455 0.923713
Si Si4 0.793118 0.692354 0.334889
Si Si5 0.788194 0.500000 0.576731
Si Si6 0.208071 0.382296 0.808569
O O1 0.776037 0.111028 0.100144
O O2 0.500000 0.000000 0.105268
O O3 0.696822 0.000000 0.000000
O O4 0.231621 0.147424 0.500000
O O5 0.500000 0.113921 0.427003
O O6 0.243840 0.198618 0.368592
O O7 0.231515 0.000000 0.411790
O O8 0.500000 0.214085 0.926922
O O9 0.749535 0.313862 0.872823
O O10 0.769290 0.242659 0.000000
O O11 0.730069 0.601286 0.383598
O O12 0.727479 0.671853 0.259751
O O13 0.000000 0.682149 0.331982
O O14 0.731036 0.500000 0.500000
O O15 0.000000 0.500000 0.576474
O O16 0.271800 0.500000 0.812639
O O17 0.000000 0.387402 0.804488
#
# Coordination Sequence:
#
# PCOD9383855 Si02
#       6
#     4   8   8   8   4   8
#     4   7  12  28  53  77 101 127 158 205 258 299
#     4   9  19  36  55  76 106 140 171 210 262 314
#     4   9  18  34  57  82 105 133 174 218 256 304
#     4  10  19  34  54  76 103 137 177 217 255 305
#     4   9  16  28  51  79 100 125 168 218 261 297
#     4  10  21  37  53  72 106 145 175 211 262 312
#
# _framework density 19.949697
#
# number of rings (size 3 to 8) (size 9 to 14) (size 15 to 20)
#    0.000    2.800    1.000    2.400    0.000    3.600 
#    1.800    4.000    0.000    3.600    0.000    0.000 
#    0.000    0.000    0.000    0.000    0.000    0.000 
#
# Total GULP energy -223055.336442 kJ/mol
# GULP energy per Si atom -5576.383411 kJ/mol
# Density = 1.990429 g / cm^3
# Si number density = 19.949697 Si / 1000 Ang^3
#
#
#
# Elastic Constant Matrix: (Units=GPa)
#
#
# Indices 1 2 3 4 5 6 
#
# 1 28.4531 5.9237 7.9374 0.0000 0.0000 0.0000
# 2 5.9237 177.7236 117.1698 0.0000 0.0000 0.0000
# 3 7.9374 117.1698 157.8013 0.0000 0.0000 0.0000
# 4 0.0000 0.0000 0.0000 20.5757 0.0000 0.0000
# 5 0.0000 0.0000 0.0000 0.0000 18.3028 0.0000
# 6 0.0000 0.0000 0.0000 0.0000 0.0000 20.5780
#
#
#
# Elastic Compliance Matrix: (Units=1/GPa)
#
#
# Indices 1 2 3 4 5 6 
#
# 1 0.035646 -0.000012 -0.001784 0.000000 0.000000 0.000000
# 2 -0.000012 0.011023 -0.008184 0.000000 0.000000 0.000000
# 3 -0.001784 -0.008184 0.012503 0.000000 0.000000 0.000000
# 4 0.000000 0.000000 0.000000 0.048601 0.000000 0.000000
# 5 0.000000 0.000000 0.000000 0.000000 0.054637 0.000000
# 6 0.000000 0.000000 0.000000 0.000000 0.000000 0.048596
#
#
# Mechanical properties :
#
#
# Convention : Reuss Voigt Hill
#
# Bulk Modulus (GPa) = 25.50236 69.55997 47.53117
# Shear Modulus (GPa) = 20.48886 27.42111 23.95498
#
# Velocity S-wave (km/s) = 3.20820 3.71146 3.46897
# Velocity P-wave (km/s) = 5.15116 7.30137 6.31841
#
# Compressibility (1/GPa) = 0.03921205
#
# Stress axis : x y z
#
# Youngs Moduli (GPa) = 28.05385 90.72326 79.97814
#
# Poissons Ratio (x) = 0.00107 0.14270
# Poissons Ratio (y) = 0.00033 0.65452
# Poissons Ratio (z) = 0.05005 0.74246
#
# Static dielectric constant tensor:
#      x y z
#    x 1.753600 0.000000 0.000000 
#    y 0.000000 1.708690 0.000000 
#    z 0.000000 0.000000 1.683680 
# 
# From -- ./inp_files/29334.got.cif
#   From: 2010.05.17/outbox.cif.g08.bks.cpg/sg47_15_cif.got.tgz:29334.got - 2010.06.03 20:15:42.
