data_PCOD9383135
_publ_section_title
;
Structure prediction by ZEFSAII (Michael W. Deem and Ramdas Pophale) SiO2 
 PCOD9383135
Probable space group: P M M M
;
_chemical_formula_sum "Si O2"
_cell_formula_units_Z 58
_cell_length_a 15.764296
_cell_length_b 25.594821
_cell_length_c 7.590947
_cell_angle_alpha 90.000000
_cell_angle_beta 90.000000
_cell_angle_gamma 90.000000
_cell_volume 3062.828197
_symmetry_space_group_name_H-M "P M M M"
_symmetry_group_IT_number 47
_symmetry_cell_setting 'orthorhombic'
loop_
_space_group_symop_operation_xyz
x,y,z
-x,-y,z
x,-y,-z
-x,y,-z
-x,-y,-z
x,y,-z
-x,y,z
x,-y,z
loop_
_atom_site_type_symbol
_atom_site_label
_atom_site_fract_x
_atom_site_fract_y
_atom_site_fract_z
Si Si1 0.593111 0.683350 0.791610
Si Si2 0.825447 0.165636 0.211216
Si Si3 0.900994 0.057703 0.785312
Si Si4 0.367906 0.196823 0.786194
Si Si5 0.500000 0.160144 0.500000
Si Si6 0.907358 0.727861 0.707385
Si Si7 0.094583 0.560466 0.787234
Si Si8 0.772046 0.648102 0.704011
O O1 0.500000 0.668003 0.719250
O O2 0.614903 0.742542 0.734100
O O3 0.675147 0.647234 0.765262
O O4 0.584663 0.686913 0.000000
O O5 0.849584 0.108063 0.276812
O O6 0.729392 0.182196 0.248573
O O7 0.886722 0.211202 0.277761
O O8 0.834859 0.165162 0.000000
O O9 0.000000 0.063574 0.737674
O O10 0.872076 0.000000 0.726759
O O11 0.897577 0.057420 0.000000
O O12 0.427019 0.163792 0.657500
O O13 0.383539 0.191370 0.000000
O O14 0.911274 0.714751 0.500000
O O15 0.829872 0.694318 0.786353
O O16 0.000000 0.715861 0.784275
O O17 0.104495 0.500000 0.733327
O O18 0.171034 0.596666 0.725649
O O19 0.000000 0.578251 0.728711
O O20 0.094627 0.561692 0.000000
O O21 0.762903 0.660387 0.500000
#
# Coordination Sequence:
#
# PCOD9383135 Si02
#       8
#     8   8   8   8   2   8   8   8
#     4  10  20  35  52  73 107 140 175 226 270 313
#     4  10  19  31  49  74 105 136 175 225 270 322
#     4   8  14  26  46  73 103 136 178 225 271 320
#     4  10  21  34  51  80 108 138 184 227 268 337
#     4  12  22  32  60  74 107 148 171 224 290 332
#     4  10  21  33  45  68 107 147 178 209 256 325
#     4   9  19  37  59  80 104 139 182 223 266 318
#     4  11  22  33  52  78 108 139 177 218 265 326
#
# _framework density 18.936745999999999
#
# number of rings (size 3 to 8) (size 9 to 14) (size 15 to 20)
#    0.000    2.207    2.069    2.276    1.931    2.759 
#    0.000    0.690    0.000    0.828    0.000    5.793 
#    0.000    3.310    0.000    0.000    0.000    0.000 
#
# Total GULP energy -322878.865096 kJ/mol
# GULP energy per Si atom -5566.876984 kJ/mol
# Density = 1.889364 g / cm^3
# Si number density = 18.936746 Si / 1000 Ang^3
#
#
#
# Elastic Constant Matrix: (Units=GPa)
#
#
# Indices 1 2 3 4 5 6 
#
# 1 154.4674 54.7260 16.1488 0.0000 0.0000 0.0000
# 2 54.7260 74.4410 -5.7664 0.0000 0.0000 0.0000
# 3 16.1488 -5.7664 47.1093 0.0000 0.0000 0.0000
# 4 0.0000 0.0000 0.0000 35.2316 0.0000 0.0000
# 5 0.0000 0.0000 0.0000 0.0000 25.8949 0.0000
# 6 0.0000 0.0000 0.0000 0.0000 0.0000 -6.6433
#
#
#
# Elastic Compliance Matrix: (Units=1/GPa)
#
#
# Indices 1 2 3 4 5 6 
#
# 1 0.009494 -0.007301 -0.004148 0.000000 0.000000 0.000000
# 2 -0.007301 0.019177 0.004850 0.000000 0.000000 0.000000
# 3 -0.004148 0.004850 0.023243 0.000000 0.000000 0.000000
# 4 0.000000 0.000000 0.000000 0.028384 0.000000 0.000000
# 5 0.000000 0.000000 0.000000 0.000000 0.038618 0.000000
# 6 0.000000 0.000000 0.000000 0.000000 0.000000 -0.150528
#
#
# Mechanical properties :
#
#
# Convention : Reuss Voigt Hill
#
# Bulk Modulus (GPa) = 25.82966 45.13717 35.48342
# Shear Modulus (GPa) = -907.46646 24.95728 -441.25459
#
# Velocity S-wave (km/s) = -21.91460 3.63427 -15.28139
# Velocity P-wave (km/s) = 25.03324 6.44190 17.10505
#
# Compressibility (1/GPa) = 0.03871519
#
# Stress axis : x y z
#
# Youngs Moduli (GPa) = 105.32710 52.14677 43.02391
#
# Poissons Ratio (x) = 0.38073 0.17847
# Poissons Ratio (y) = 0.76900 -0.20867
# Poissons Ratio (z) = 0.43692 -0.25292
#
# Static dielectric constant tensor:
#      x y z
#    x 1.712020 0.000000 0.000000 
#    y 0.000000 1.652080 0.000000 
#    z 0.000000 0.000000 1.701000 
# 
# From -- ./inp_files/8100.got.cif
#   From: 2010.05.17/outbox.cif.g08.bks.cpg/sg47_5_cif.got.tgz:8100.got - 2010.06.03 20:15:42.
