data_PCOD9383039
_publ_section_title
;
Structure prediction by ZEFSAII (Michael W. Deem and Ramdas Pophale) SiO2 
 PCOD9383039
Probable space group: P M M M
;
_chemical_formula_sum "Si O2"
_cell_formula_units_Z 64
_cell_length_a 7.404628
_cell_length_b 21.365791
_cell_length_c 18.883727
_cell_angle_alpha 90.000000
_cell_angle_beta 90.000000
_cell_angle_gamma 90.000000
_cell_volume 2987.513896
_symmetry_space_group_name_H-M "P M M M"
_symmetry_group_IT_number 47
_symmetry_cell_setting 'orthorhombic'
loop_
_space_group_symop_operation_xyz
x,y,z
-x,-y,z
x,-y,-z
-x,y,-z
-x,-y,-z
x,y,-z
-x,y,z
x,-y,z
loop_
_atom_site_type_symbol
_atom_site_label
_atom_site_fract_x
_atom_site_fract_y
_atom_site_fract_z
Si Si1 0.782050 0.305597 0.919798
Si Si2 0.209253 0.809047 0.339649
Si Si3 0.720155 0.928935 0.918472
Si Si4 0.779938 0.570472 0.839958
Si Si5 0.780055 0.069645 0.582161
Si Si6 0.711318 0.814566 0.823189
Si Si7 0.780116 0.429853 0.676541
Si Si8 0.221217 0.685577 0.418249
O O1 0.719045 0.371906 0.887964
O O2 0.733652 0.247554 0.870005
O O3 0.000000 0.308057 0.921306
O O4 0.718042 0.295999 0.000000
O O5 0.286003 0.874169 0.368820
O O6 0.213625 0.805501 0.255183
O O7 0.284959 0.747278 0.376816
O O8 0.000000 0.809847 0.361734
O O9 0.500000 0.927846 0.918232
O O10 0.784369 0.874639 0.866074
O O11 0.774364 0.000000 0.899548
O O12 0.774942 0.916808 0.000000
O O13 0.723114 0.500000 0.860694
O O14 0.726615 0.581362 0.758170
O O15 0.000000 0.570354 0.841527
O O16 0.731964 0.080929 0.500000
O O17 0.000000 0.067974 0.584907
O O18 0.718332 0.000000 0.602553
O O19 0.500000 0.825831 0.813052
O O20 0.723496 0.500000 0.656448
O O21 0.719114 0.375965 0.623966
O O22 0.000000 0.429360 0.676339
O O23 0.275790 0.686216 0.500000
O O24 0.000000 0.684772 0.417084
#
# Coordination Sequence:
#
# PCOD9383039 Si02
#       8
#     8   8   8   8   8   8   8   8
#     4  10  20  33  51  75 101 129 162 201 242 283
#     4  10  19  31  48  69  94 124 159 200 241 281
#     4   8  15  30  51  71  90 116 153 194 233 277
#     4   8  14  26  45  70 100 131 160 191 232 283
#     4   8  14  26  46  72  99 126 158 197 243 296
#     4  11  22  34  50  72  98 129 163 199 242 292
#     4   8  13  21  34  55  87 123 151 180 225 276
#     4   9  16  25  40  63  89 119 156 194 231 274
#
# _framework density 21.422495999999999
#
# number of rings (size 3 to 8) (size 9 to 14) (size 15 to 20)
#    0.000    3.000    0.000    3.375    0.000    5.250 
#    0.000    2.500    0.000    3.000    0.000    6.125 
#    0.000    0.000    0.000    4.500    0.000    4.000 
#
# Total GULP energy -357315.482633 kJ/mol
# GULP energy per Si atom -5583.054416 kJ/mol
# Density = 2.137374 g / cm^3
# Si number density = 21.422496 Si / 1000 Ang^3
#
#
#
# Elastic Constant Matrix: (Units=GPa)
#
#
# Indices 1 2 3 4 5 6 
#
# 1 68.4751 -6.1895 -11.7712 0.0000 0.0000 0.0000
# 2 -6.1895 170.2842 94.8355 0.0000 0.0000 0.0000
# 3 -11.7712 94.8355 106.5938 0.0000 0.0000 0.0000
# 4 0.0000 0.0000 0.0000 48.3089 0.0000 0.0000
# 5 0.0000 0.0000 0.0000 0.0000 906.4806 0.0000
# 6 0.0000 0.0000 0.0000 0.0000 0.0000 -5.7528
#
#
#
# Elastic Compliance Matrix: (Units=1/GPa)
#
#
# Indices 1 2 3 4 5 6 
#
# 1 0.014934 -0.000745 0.002312 0.000000 0.000000 0.000000
# 2 -0.000745 0.011677 -0.010471 0.000000 0.000000 0.000000
# 3 0.002312 -0.010471 0.018953 0.000000 0.000000 0.000000
# 4 0.000000 0.000000 0.000000 0.020700 0.000000 0.000000
# 5 0.000000 0.000000 0.000000 0.000000 0.001103 0.000000
# 6 0.000000 0.000000 0.000000 0.000000 0.000000 -0.173827
#
#
# Mechanical properties :
#
#
# Convention : Reuss Voigt Hill
#
# Bulk Modulus (GPa) = 36.02895 55.45584 45.74239
# Shear Modulus (GPa) = -62.97296 207.70587 72.36646
#
# Velocity S-wave (km/s) = -5.42766 9.85735 5.81841
# Velocity P-wave (km/s) = 4.73546 12.46994 8.15705
#
# Compressibility (1/GPa) = 0.02775546
#
# Stress axis : x y z
#
# Youngs Moduli (GPa) = 66.96166 85.63688 52.76231
#
# Poissons Ratio (x) = 0.06376 -0.12197
# Poissons Ratio (y) = 0.04986 0.55249
# Poissons Ratio (z) = -0.15479 0.89673
#
# Static dielectric constant tensor:
#      x y z
#    x 1.841010 0.000000 0.000000 
#    y 0.000000 1.761360 0.000000 
#    z 0.000000 0.000000 1.719460 
# 
# From -- ./inp_files/27034.got.cif
#   From: 2010.05.17/outbox.cif.g08.bks.cpg/sg47_14_cif.got.tgz:27034.got - 2010.06.03 20:15:42.
