data_PCOD9383781
_publ_section_title
;
Structure prediction by ZEFSAII (Michael W. Deem and Ramdas Pophale) SiO2 
 PCOD9383781
Probable space group: P M M M
;
_chemical_formula_sum "Si O2"
_cell_formula_units_Z 52
_cell_length_a 15.140860
_cell_length_b 7.621503
_cell_length_c 20.746154
_cell_angle_alpha 90.000000
_cell_angle_beta 90.000000
_cell_angle_gamma 90.000000
_cell_volume 2394.025467
_symmetry_space_group_name_H-M "P M M M"
_symmetry_group_IT_number 47
_symmetry_cell_setting 'orthorhombic'
loop_
_space_group_symop_operation_xyz
x,y,z
-x,-y,z
x,-y,-z
-x,y,-z
-x,-y,-z
x,y,-z
-x,y,z
x,-y,z
loop_
_atom_site_type_symbol
_atom_site_label
_atom_site_fract_x
_atom_site_fract_y
_atom_site_fract_z
Si Si1 0.211496 0.704247 0.430592
Si Si2 0.101460 0.287065 0.310914
Si Si3 0.599771 0.207992 0.000000
Si Si4 0.401903 0.203494 0.608218
Si Si5 0.098911 0.714539 0.163018
Si Si6 0.600164 0.288325 0.757271
Si Si7 0.715954 0.289943 0.875482
O O1 0.186801 0.782860 0.500000
O O2 0.184821 0.500000 0.432166
O O3 0.166228 0.780124 0.366483
O O4 0.316941 0.710557 0.423087
O O5 0.109422 0.500000 0.308504
O O6 0.117116 0.230806 0.237269
O O7 0.000000 0.245264 0.327286
O O8 0.655481 0.256009 0.936897
O O9 0.500000 0.283084 0.000000
O O10 0.591800 0.000000 0.000000
O O11 0.500000 0.276064 0.593897
O O12 0.389408 0.215952 0.685515
O O13 0.401529 0.000000 0.589287
O O14 0.096239 0.500000 0.162088
O O15 0.182820 0.772717 0.121337
O O16 0.000000 0.773393 0.145065
O O17 0.500000 0.249546 0.779018
O O18 0.608454 0.500000 0.751561
O O19 0.668330 0.223573 0.810602
O O20 0.720201 0.500000 0.868403
#
# Coordination Sequence:
#
# PCOD9383781 Si02
#       7
#     8   8   4   8   8   8   8
#     4  10  20  32  48  72 100 131 169 212 257 304
#     4   8  14  27  49  77 107 133 158 198 253 307
#     4  11  25  41  54  73 106 144 177 211 252 297
#     4  10  21  35  50  69  95 130 171 213 258 309
#     4   8  14  26  48  79 108 131 161 205 254 298
#     4   9  17  30  51  78 102 124 159 211 263 306
#     4  10  19  33  56  81 105 137 174 209 246 293
#
# _framework density 21.720738000000001
#
# number of rings (size 3 to 8) (size 9 to 14) (size 15 to 20)
#    0.000    2.692    0.000    3.000    0.000    6.154 
#    0.000    5.000    0.000    3.231    0.000    3.231 
#    0.000    0.000    0.000    0.000    0.000    0.000 
#
# Total GULP energy -290193.411422 kJ/mol
# GULP energy per Si atom -5580.642527 kJ/mol
# Density = 2.167130 g / cm^3
# Si number density = 21.720738 Si / 1000 Ang^3
#
#
#
# Elastic Constant Matrix: (Units=GPa)
#
#
# Indices 1 2 3 4 5 6 
#
# 1 146.4074 5.6099 62.6796 0.0000 0.0000 0.0000
# 2 5.6099 39.7937 -4.5820 0.0000 0.0000 0.0000
# 3 62.6796 -4.5820 54.9718 0.0000 0.0000 0.0000
# 4 0.0000 0.0000 0.0000 21.0871 0.0000 0.0000
# 5 0.0000 0.0000 0.0000 0.0000 4.8628 0.0000
# 6 0.0000 0.0000 0.0000 0.0000 0.0000 -42.8099
#
#
#
# Elastic Compliance Matrix: (Units=1/GPa)
#
#
# Indices 1 2 3 4 5 6 
#
# 1 0.013896 -0.003820 -0.016163 0.000000 0.000000 0.000000
# 2 -0.003820 0.026423 0.006558 0.000000 0.000000 0.000000
# 3 -0.016163 0.006558 0.037167 0.000000 0.000000 0.000000
# 4 0.000000 0.000000 0.000000 0.047422 0.000000 0.000000
# 5 0.000000 0.000000 0.000000 0.000000 0.205641 0.000000
# 6 0.000000 0.000000 0.000000 0.000000 0.000000 -0.023359
#
#
# Mechanical properties :
#
#
# Convention : Reuss Voigt Hill
#
# Bulk Modulus (GPa) = 19.74856 40.95422 30.35139
# Shear Modulus (GPa) = 14.24822 8.45905 11.35363
#
# Velocity S-wave (km/s) = 2.56398 1.97558 2.28876
# Velocity P-wave (km/s) = 4.22813 4.90915 4.58131
#
# Compressibility (1/GPa) = 0.05063661
#
# Stress axis : x y z
#
# Youngs Moduli (GPa) = 71.96093 37.84539 26.90531
#
# Poissons Ratio (x) = 0.14457 0.43488
# Poissons Ratio (y) = 0.27490 -0.17645
# Poissons Ratio (z) = 1.16313 -0.24820
#
# Static dielectric constant tensor:
#      x y z
#    x 1.805900 0.000000 0.000000 
#    y 0.000000 1.834710 0.000000 
#    z 0.000000 0.000000 1.782890 
# 
# From -- ./inp_files/7103.got.cif
#   From: 2010.05.17/outbox.cif.g08.bks.cpg/sg47_4_cif.got.tgz:7103.got - 2010.06.03 20:15:42.
