data_PCOD9383298
_publ_section_title
;
Structure prediction by ZEFSAII (Michael W. Deem and Ramdas Pophale) SiO2 
 PCOD9383298
Probable space group: P M M M
;
_chemical_formula_sum "Si O2"
_cell_formula_units_Z 52
_cell_length_a 19.007920
_cell_length_b 8.903649
_cell_length_c 19.183406
_cell_angle_alpha 90.000000
_cell_angle_beta 90.000000
_cell_angle_gamma 90.000000
_cell_volume 3246.596714
_symmetry_space_group_name_H-M "P M M M"
_symmetry_group_IT_number 47
_symmetry_cell_setting 'orthorhombic'
loop_
_space_group_symop_operation_xyz
x,y,z
-x,-y,z
x,-y,-z
-x,y,-z
-x,-y,-z
x,y,-z
-x,y,z
x,-y,z
loop_
_atom_site_type_symbol
_atom_site_label
_atom_site_fract_x
_atom_site_fract_y
_atom_site_fract_z
Si Si1 0.656440 0.819511 0.919751
Si Si2 0.285190 0.319957 0.291797
Si Si3 0.082296 0.680502 0.080231
Si Si4 0.422268 0.680546 0.796578
Si Si5 0.204459 0.820580 0.831055
Si Si6 0.648545 0.178879 0.582032
Si Si7 0.500000 0.330124 0.415593
O O1 0.596901 0.745135 0.872243
O O2 0.731221 0.781709 0.883832
O O3 0.649057 0.000000 0.917148
O O4 0.654684 0.771631 0.000000
O O5 0.281270 0.500000 0.293893
O O6 0.358324 0.273662 0.253412
O O7 0.224336 0.254028 0.242725
O O8 0.293075 0.252555 0.368622
O O9 0.090066 0.500000 0.085326
O O10 0.133725 0.759679 0.134187
O O11 0.000000 0.715739 0.091782
O O12 0.099610 0.723347 0.000000
O O13 0.500000 0.729613 0.773793
O O14 0.421493 0.500000 0.799346
O O15 0.202409 0.000000 0.823805
O O16 0.659576 0.211750 0.500000
O O17 0.572145 0.246546 0.602117
O O18 0.647288 0.000000 0.590971
O O19 0.500000 0.500000 0.386755
O O20 0.500000 0.339013 0.500000
#
# Coordination Sequence:
#
# PCOD9383298 Si02
#       7
#     8   8   8   8   8   8   4
#     4   9  18  31  45  62  84 112 148 189 233 279
#     4  10  20  33  50  68  90 123 160 197 240 291
#     4   9  18  32  50  74 104 135 165 198 237 282
#     4   9  19  33  45  60  82 109 146 193 239 280
#     4  10  19  32  49  69  96 126 159 197 237 284
#     4  10  20  33  48  69  96 122 153 197 247 296
#     4   9  17  29  45  65  89 119 154 191 236 291
#
# _framework density 16.016772
#
# number of rings (size 3 to 8) (size 9 to 14) (size 15 to 20)
#    0.000    2.538    0.000    2.538    1.077    5.231 
#    0.000    2.308    0.000    0.000    0.000    0.000 
#    0.000    0.615    0.000    6.462    0.000    2.769 
#
# Total GULP energy -290068.803194 kJ/mol
# GULP energy per Si atom -5578.246215 kJ/mol
# Density = 1.598032 g / cm^3
# Si number density = 16.016772 Si / 1000 Ang^3
#
#
#
# Elastic Constant Matrix: (Units=GPa)
#
#
# Indices 1 2 3 4 5 6 
#
# 1 71.0365 33.7143 42.2791 0.0000 0.0000 0.0000
# 2 33.7143 43.4616 44.2232 0.0000 0.0000 0.0000
# 3 42.2791 44.2232 98.3560 0.0000 0.0000 0.0000
# 4 0.0000 0.0000 0.0000 25.7896 0.0000 0.0000
# 5 0.0000 0.0000 0.0000 0.0000 26.9800 0.0000
# 6 0.0000 0.0000 0.0000 0.0000 0.0000 23.5551
#
#
#
# Elastic Compliance Matrix: (Units=1/GPa)
#
#
# Indices 1 2 3 4 5 6 
#
# 1 0.022888 -0.014274 -0.003420 0.000000 0.000000 0.000000
# 2 -0.014274 0.051315 -0.016937 0.000000 0.000000 0.000000
# 3 -0.003420 -0.016937 0.019253 0.000000 0.000000 0.000000
# 4 0.000000 0.000000 0.000000 0.038775 0.000000 0.000000
# 5 0.000000 0.000000 0.000000 0.000000 0.037065 0.000000
# 6 0.000000 0.000000 0.000000 0.000000 0.000000 0.042454
#
#
# Mechanical properties :
#
#
# Convention : Reuss Voigt Hill
#
# Bulk Modulus (GPa) = 41.33458 50.36528 45.84993
# Shear Modulus (GPa) = 17.29652 21.44076 19.36864
#
# Velocity S-wave (km/s) = 3.28975 3.66272 3.48123
# Velocity P-wave (km/s) = 6.34768 7.02858 6.69679
#
# Compressibility (1/GPa) = 0.02419282
#
# Stress axis : x y z
#
# Youngs Moduli (GPa) = 43.69172 19.48744 51.94116
#
# Poissons Ratio (x) = 0.27817 0.17766
# Poissons Ratio (y) = 0.62366 0.87971
# Poissons Ratio (z) = 0.14944 0.33005
#
# Static dielectric constant tensor:
#      x y z
#    x 1.519270 0.000000 0.000000 
#    y 0.000000 1.533720 0.000000 
#    z 0.000000 0.000000 1.552970 
# 
# From -- ./inp_files/9518.got.cif
#   From: 2010.05.17/outbox.cif.g08.bks.cpg/sg47_5_cif.got.tgz:9518.got - 2010.06.03 20:15:42.
