data_PCOD9383796
_publ_section_title
;
Structure prediction by ZEFSAII (Michael W. Deem and Ramdas Pophale) SiO2 
 PCOD9383796
Probable space group: P M M M
;
_chemical_formula_sum "Si O2"
_cell_formula_units_Z 64
_cell_length_a 24.453017
_cell_length_b 8.259053
_cell_length_c 15.728260
_cell_angle_alpha 90.000000
_cell_angle_beta 90.000000
_cell_angle_gamma 90.000000
_cell_volume 3176.459940
_symmetry_space_group_name_H-M "P M M M"
_symmetry_group_IT_number 47
_symmetry_cell_setting 'orthorhombic'
loop_
_space_group_symop_operation_xyz
x,y,z
-x,-y,z
x,-y,-z
-x,y,-z
-x,-y,-z
x,y,-z
-x,y,z
x,-y,z
loop_
_atom_site_type_symbol
_atom_site_label
_atom_site_fract_x
_atom_site_fract_y
_atom_site_fract_z
Si Si1 0.559535 0.311906 0.397563
Si Si2 0.320038 0.183073 0.643837
Si Si3 0.848542 0.308050 0.231998
Si Si4 0.668588 0.686220 0.823497
Si Si5 0.796264 0.306903 0.406541
Si Si6 0.437656 0.807281 0.100614
Si Si7 0.936247 0.697311 0.096287
Si Si8 0.766979 0.806581 0.907676
O O1 0.557912 0.307139 0.500000
O O2 0.500000 0.244027 0.367947
O O3 0.561541 0.500000 0.371171
O O4 0.617575 0.235613 0.373849
O O5 0.314893 0.203053 0.744703
O O6 0.268901 0.279599 0.605500
O O7 0.313387 0.000000 0.615384
O O8 0.857878 0.500000 0.242929
O O9 0.830098 0.242108 0.324583
O O10 0.899153 0.242837 0.174908
O O11 0.798217 0.280074 0.168252
O O12 0.680407 0.500000 0.803137
O O13 0.605583 0.709660 0.845318
O O14 0.704688 0.748561 0.901278
O O15 0.812115 0.242498 0.500000
O O16 0.804723 0.500000 0.407128
O O17 0.500000 0.770621 0.123851
O O18 0.428620 0.000000 0.112898
O O19 0.431223 0.774508 0.000000
O O20 0.932319 0.500000 0.095617
O O21 0.000000 0.738384 0.108364
O O22 0.920506 0.751414 0.000000
O O23 0.770479 0.000000 0.898647
O O24 0.789534 0.760553 0.000000
#
# Coordination Sequence:
#
# PCOD9383796 Si02
#       8
#     8   8   8   8   8   8   8   8
#     4   9  19  37  59  80 103 133 170 217 278 346
#     4  12  24  37  55  78 106 139 179 230 286 343
#     4  10  19  33  56  83 111 150 197 238 277 332
#     4  12  24  37  54  76 104 138 178 224 273 330
#     4  10  21  37  56  79 110 148 190 240 294 342
#     4   9  19  37  58  77 100 133 173 219 273 330
#     4   8  14  26  48  82 121 156 194 242 287 325
#     4  11  23  37  54  79 113 148 179 224 284 335
#
# _framework density 20.148215
#
# number of rings (size 3 to 8) (size 9 to 14) (size 15 to 20)
#    0.000    1.875    1.250    4.875    0.000    6.250 
#    0.000    1.250    0.000    0.750    0.000    4.375 
#    0.000    0.000    0.000    2.250    0.000    2.625 
#
# Total GULP energy -357021.842497 kJ/mol
# GULP energy per Si atom -5578.466289 kJ/mol
# Density = 2.010236 g / cm^3
# Si number density = 20.148215 Si / 1000 Ang^3
#
#
#
# Elastic Constant Matrix: (Units=GPa)
#
#
# Indices 1 2 3 4 5 6 
#
# 1 99.5274 5.2184 56.5834 0.0000 0.0000 0.0000
# 2 5.2184 11.4135 8.2063 0.0000 0.0000 0.0000
# 3 56.5834 8.2063 129.7756 0.0000 0.0000 0.0000
# 4 0.0000 0.0000 0.0000 16.6978 0.0000 0.0000
# 5 0.0000 0.0000 0.0000 0.0000 31.3949 0.0000
# 6 0.0000 0.0000 0.0000 0.0000 0.0000 -19.9015
#
#
#
# Elastic Compliance Matrix: (Units=1/GPa)
#
#
# Indices 1 2 3 4 5 6 
#
# 1 0.013403 -0.002018 -0.005716 0.000000 0.000000 0.000000
# 2 -0.002018 0.092092 -0.004943 0.000000 0.000000 0.000000
# 3 -0.005716 -0.004943 0.010511 0.000000 0.000000 0.000000
# 4 0.000000 0.000000 0.000000 0.059888 0.000000 0.000000
# 5 0.000000 0.000000 0.000000 0.000000 0.031852 0.000000
# 6 0.000000 0.000000 0.000000 0.000000 0.000000 -0.050247
#
#
# Mechanical properties :
#
#
# Convention : Reuss Voigt Hill
#
# Bulk Modulus (GPa) = 11.03141 42.30363 26.66752
# Shear Modulus (GPa) = 23.46631 17.01880 20.24255
#
# Velocity S-wave (km/s) = 3.41645 2.90949 3.17311
# Velocity P-wave (km/s) = 4.58801 5.68583 5.16616
#
# Compressibility (1/GPa) = 0.09065024
#
# Stress axis : x y z
#
# Youngs Moduli (GPa) = 74.60942 10.85867 95.14240
#
# Poissons Ratio (x) = 0.02191 0.54386
# Poissons Ratio (y) = 0.15057 0.47033
# Poissons Ratio (z) = 0.42649 0.05368
#
# Static dielectric constant tensor:
#      x y z
#    x 1.758050 0.000000 0.000000 
#    y 0.000000 1.704330 0.000000 
#    z 0.000000 0.000000 1.750130 
# 
# From -- ./inp_files/12730.got.cif
#   From: 2010.05.17/outbox.cif.g08.bks.cpg/sg47_7_cif.got.tgz:12730.got - 2010.06.03 20:15:42.
