data_PCOD9383701
_publ_section_title
;
Structure prediction by ZEFSAII (Michael W. Deem and Ramdas Pophale) SiO2 
 PCOD9383701
Probable space group: P M M M
;
_chemical_formula_sum "Si O2"
_cell_formula_units_Z 36
_cell_length_a 25.265216
_cell_length_b 9.511099
_cell_length_c 8.173612
_cell_angle_alpha 90.000000
_cell_angle_beta 90.000000
_cell_angle_gamma 90.000000
_cell_volume 1964.118724
_symmetry_space_group_name_H-M "P M M M"
_symmetry_group_IT_number 47
_symmetry_cell_setting 'orthorhombic'
loop_
_space_group_symop_operation_xyz
x,y,z
-x,-y,z
x,-y,-z
-x,y,-z
-x,-y,-z
x,y,-z
-x,y,z
x,-y,z
loop_
_atom_site_type_symbol
_atom_site_label
_atom_site_fract_x
_atom_site_fract_y
_atom_site_fract_z
Si Si1 0.759814 0.662703 0.692663
Si Si2 0.339868 0.838898 0.194574
Si Si3 0.440009 0.662797 0.697777
Si Si4 0.938738 0.671660 0.500000
Si Si5 0.873310 0.328761 0.181647
O O1 0.772788 0.664570 0.500000
O O2 0.748670 0.500000 0.738288
O O3 0.708586 0.755163 0.725914
O O4 0.812209 0.711238 0.787552
O O5 0.394831 0.762036 0.233783
O O6 0.341266 0.000000 0.251774
O O7 0.331818 0.837479 0.000000
O O8 0.438004 0.667950 0.500000
O O9 0.500000 0.700807 0.747685
O O10 0.430647 0.500000 0.745562
O O11 0.937234 0.500000 0.500000
O O12 0.908813 0.718228 0.665269
O O13 0.000000 0.713800 0.500000
O O14 0.874181 0.500000 0.184602
O O15 0.890706 0.284188 0.000000
#
# Coordination Sequence:
#
# PCOD9383701 Si02
#       5
#     8   8   8   4   8
#     4  10  19  33  54  76  99 131 175 223 266 315
#     4  11  24  37  49  73 108 139 170 212 262 317
#     4   9  19  37  59  80 101 129 170 216 259 310
#     4   9  16  26  40  64 101 139 176 217 260 313
#     4   9  16  27  44  67  97 134 175 218 265 315
#
# _framework density 18.328831999999998
#
# number of rings (size 3 to 8) (size 9 to 14) (size 15 to 20)
#    0.000    2.333    1.111    2.667    0.000    7.556 
#    0.000    5.556    0.000    0.000    0.000    0.000 
#    0.000    1.778    0.000    4.667    0.000    4.444 
#
# Total GULP energy -200866.642010 kJ/mol
# GULP energy per Si atom -5579.628945 kJ/mol
# Density = 1.828711 g / cm^3
# Si number density = 18.328832 Si / 1000 Ang^3
#
#
#
# Elastic Constant Matrix: (Units=GPa)
#
#
# Indices 1 2 3 4 5 6 
#
# 1 122.3560 46.8157 51.8026 0.0000 0.0000 0.0000
# 2 46.8157 47.6406 23.1395 0.0000 0.0000 0.0000
# 3 51.8026 23.1395 90.1511 0.0000 0.0000 0.0000
# 4 0.0000 0.0000 0.0000 67.9241 0.0000 0.0000
# 5 0.0000 0.0000 0.0000 0.0000 5.2586 0.0000
# 6 0.0000 0.0000 0.0000 0.0000 0.0000 -6.3733
#
#
#
# Elastic Compliance Matrix: (Units=1/GPa)
#
#
# Indices 1 2 3 4 5 6 
#
# 1 0.015233 -0.012244 -0.005610 0.000000 0.000000 0.000000
# 2 -0.012244 0.033822 -0.001645 0.000000 0.000000 0.000000
# 3 -0.005610 -0.001645 0.014739 0.000000 0.000000 0.000000
# 4 0.000000 0.000000 0.000000 0.014722 0.000000 0.000000
# 5 0.000000 0.000000 0.000000 0.000000 0.190163 0.000000
# 6 0.000000 0.000000 0.000000 0.000000 0.000000 -0.156904
#
#
# Mechanical properties :
#
#
# Convention : Reuss Voigt Hill
#
# Bulk Modulus (GPa) = 40.33327 55.96261 48.14794
# Shear Modulus (GPa) = 31.43867 22.58787 27.01327
#
# Velocity S-wave (km/s) = 4.14606 3.51432 3.84319
# Velocity P-wave (km/s) = 6.70618 6.86047 6.78377
#
# Compressibility (1/GPa) = 0.02479343
#
# Stress axis : x y z
#
# Youngs Moduli (GPa) = 65.64656 29.56661 67.84859
#
# Poissons Ratio (x) = 0.36202 0.38066
# Poissons Ratio (y) = 0.80379 0.11164
# Poissons Ratio (z) = 0.36831 0.04865
#
# Static dielectric constant tensor:
#      x y z
#    x 1.606230 0.000000 0.000000 
#    y 0.000000 1.601750 0.000000 
#    z 0.000000 0.000000 1.656360 
# 
# From -- ./inp_files/12064.got.cif
#   From: 2010.05.17/outbox.cif.g08.bks.cpg/sg47_7_cif.got.tgz:12064.got - 2010.06.03 20:15:42.
