data_PCOD9383203
_publ_section_title
;
Structure prediction by ZEFSAII (Michael W. Deem and Ramdas Pophale) SiO2 
 PCOD9383203
Probable space group: P M M M
;
_chemical_formula_sum "Si O2"
_cell_formula_units_Z 48
_cell_length_a 15.739928
_cell_length_b 23.013835
_cell_length_c 7.681939
_cell_angle_alpha 90.000000
_cell_angle_beta 90.000000
_cell_angle_gamma 90.000000
_cell_volume 2782.675669
_symmetry_space_group_name_H-M "P M M M"
_symmetry_group_IT_number 47
_symmetry_cell_setting 'orthorhombic'
loop_
_space_group_symop_operation_xyz
x,y,z
-x,-y,z
x,-y,-z
-x,y,-z
-x,-y,-z
x,y,-z
-x,y,z
x,-y,z
loop_
_atom_site_type_symbol
_atom_site_label
_atom_site_fract_x
_atom_site_fract_y
_atom_site_fract_z
Si Si1 0.900385 0.360228 0.000000
Si Si2 0.500000 0.066416 0.792643
Si Si3 0.000000 0.933468 0.791483
Si Si4 0.899713 0.734790 0.297366
Si Si5 0.403289 0.429393 0.700785
Si Si6 0.164064 0.857357 0.292739
Si Si7 0.683578 0.933664 0.706909
Si Si8 0.272786 0.429777 0.000000
O O1 0.889186 0.319430 0.169846
O O2 0.822934 0.405618 0.000000
O O3 0.000000 0.380994 0.000000
O O4 0.410461 0.091443 0.734487
O O5 0.500000 0.000000 0.722347
O O6 0.500000 0.064371 0.000000
O O7 0.917523 0.897909 0.734384
O O8 0.000000 0.000000 0.725975
O O9 0.000000 0.935482 0.000000
O O10 0.877393 0.722473 0.500000
O O11 0.851899 0.792104 0.228875
O O12 0.000000 0.750064 0.295642
O O13 0.388622 0.411795 0.500000
O O14 0.500000 0.411655 0.751014
O O15 0.403545 0.500000 0.704045
O O16 0.329413 0.410944 0.832767
O O17 0.175259 0.850503 0.500000
O O18 0.244551 0.891824 0.219522
O O19 0.697541 0.938234 0.500000
O O20 0.687485 0.000000 0.777824
O O21 0.269261 0.500000 0.000000
#
# Coordination Sequence:
#
# PCOD9383203 Si02
#       8
#     4   4   4   8   8   8   8   4
#     4  10  22  36  53  74 100 139 174 220 267 291
#     4   9  17  29  43  61  89 121 151 189 235 282
#     4  11  23  31  41  69 107 137 153 182 243 312
#     4   9  18  34  54  74  93 123 175 223 255 294
#     4   8  14  26  47  78 114 146 173 204 245 297
#     4  10  19  32  51  71  91 122 161 202 245 293
#     4   9  17  29  46  68  92 118 151 191 237 289
#     4  10  19  31  50  79 111 142 177 210 254 314
#
# _framework density 17.249583999999999
#
# number of rings (size 3 to 8) (size 9 to 14) (size 15 to 20)
#    0.000    2.667    0.833    1.750    1.167    4.833 
#    0.000    1.667    0.000    0.000    4.333    4.667 
#    0.000    0.000    0.000    0.000    0.000    0.000 
#
# Total GULP energy -267363.829511 kJ/mol
# GULP energy per Si atom -5570.079781 kJ/mol
# Density = 1.721032 g / cm^3
# Si number density = 17.249584 Si / 1000 Ang^3
#
#
#
# Elastic Constant Matrix: (Units=GPa)
#
#
# Indices 1 2 3 4 5 6 
#
# 1 143.2090 42.2564 31.7507 0.0000 0.0000 0.0000
# 2 42.2564 38.1590 22.0881 0.0000 0.0000 0.0000
# 3 31.7507 22.0881 65.7376 0.0000 0.0000 0.0000
# 4 0.0000 0.0000 0.0000 13.2370 0.0000 0.0000
# 5 0.0000 0.0000 0.0000 0.0000 2.1354 0.0000
# 6 0.0000 0.0000 0.0000 0.0000 0.0000 22.5370
#
#
#
# Elastic Compliance Matrix: (Units=1/GPa)
#
#
# Indices 1 2 3 4 5 6 
#
# 1 0.010481 -0.010771 -0.001443 0.000000 0.000000 0.000000
# 2 -0.010771 0.043603 -0.009448 0.000000 0.000000 0.000000
# 3 -0.001443 -0.009448 0.019084 0.000000 0.000000 0.000000
# 4 0.000000 0.000000 0.000000 0.075546 0.000000 0.000000
# 5 0.000000 0.000000 0.000000 0.000000 0.468290 0.000000
# 6 0.000000 0.000000 0.000000 0.000000 0.000000 0.044372
#
#
# Mechanical properties :
#
#
# Convention : Reuss Voigt Hill
#
# Bulk Modulus (GPa) = 33.50938 48.81066 41.16002
# Shear Modulus (GPa) = 6.99646 17.64924 12.32285
#
# Velocity S-wave (km/s) = 2.01614 3.20217 2.67570
# Velocity P-wave (km/s) = 4.98880 6.48306 5.78438
#
# Compressibility (1/GPa) = 0.02984239
#
# Stress axis : x y z
#
# Youngs Moduli (GPa) = 95.41157 22.93432 52.40071
#
# Poissons Ratio (x) = 0.24702 0.07562
# Poissons Ratio (y) = 1.02767 0.49510
# Poissons Ratio (z) = 0.13769 0.21669
#
# Static dielectric constant tensor:
#      x y z
#    x 1.599130 0.000000 0.000000 
#    y 0.000000 1.572830 0.000000 
#    z 0.000000 0.000000 1.618260 
# 
# From -- ./inp_files/6568.got.cif
#   From: 2010.05.17/outbox.cif.g08.bks.cpg/sg47_4_cif.got.tgz:6568.got - 2010.06.03 20:15:42.
