data_PCOD9383007
_publ_section_title
;
Structure prediction by ZEFSAII (Michael W. Deem and Ramdas Pophale) SiO2 
 PCOD9383007
Probable space group: P M M M
;
_chemical_formula_sum "Si O2"
_cell_formula_units_Z 64
_cell_length_a 7.547011
_cell_length_b 19.810814
_cell_length_c 24.551174
_cell_angle_alpha 90.000000
_cell_angle_beta 90.000000
_cell_angle_gamma 90.000000
_cell_volume 3670.705713
_symmetry_space_group_name_H-M "P M M M"
_symmetry_group_IT_number 47
_symmetry_cell_setting 'orthorhombic'
loop_
_space_group_symop_operation_xyz
x,y,z
-x,-y,z
x,-y,-z
-x,y,-z
-x,-y,-z
x,y,-z
-x,y,z
x,-y,z
loop_
_atom_site_type_symbol
_atom_site_label
_atom_site_fract_x
_atom_site_fract_y
_atom_site_fract_z
Si Si1 0.713752 0.716050 0.440143
Si Si2 0.201787 0.788374 0.670942
Si Si3 0.286359 0.924107 0.724361
Si Si4 0.701289 0.287676 0.776854
Si Si5 0.715898 0.425307 0.393897
Si Si6 0.716587 0.424867 0.733060
Si Si7 0.282697 0.155150 0.167718
Si Si8 0.283946 0.922154 0.061315
O O1 0.775673 0.737483 0.500000
O O2 0.500000 0.714108 0.441104
O O3 0.762609 0.763347 0.389716
O O4 0.775890 0.639797 0.427034
O O5 0.234211 0.867508 0.680652
O O6 0.307150 0.746910 0.716855
O O7 0.000000 0.773295 0.684555
O O8 0.500000 0.926065 0.725112
O O9 0.229734 0.894984 0.783224
O O10 0.221651 0.000000 0.714985
O O11 0.500000 0.298438 0.796089
O O12 0.782222 0.361375 0.767731
O O13 0.780091 0.229938 0.815585
O O14 0.500000 0.425461 0.395445
O O15 0.773402 0.500000 0.412262
O O16 0.767097 0.416795 0.330470
O O17 0.500000 0.422883 0.733550
O O18 0.770225 0.500000 0.750755
O O19 0.500000 0.156523 0.168172
O O20 0.224777 0.126310 0.109812
O O21 0.500000 0.921405 0.061654
O O22 0.231775 0.000000 0.071692
O O23 0.227719 0.903805 0.000000
#
# Coordination Sequence:
#
# PCOD9383007 Si02
#       8
#     8   8   8   8   8   8   8   8
#     4  10  19  31  48  65  81 105 138 171 199 236
#     4  11  21  31  44  62  87 112 132 160 201 249
#     4   9  17  30  49  68  84 104 132 169 207 243
#     4   9  15  26  43  59  79 105 137 174 207 242
#     4   8  13  22  39  63  85 102 127 167 206 235
#     4   8  12  19  36  59  79 100 128 167 210 244
#     4   8  13  20  34  57  81 106 136 169 202 236
#     4   8  12  17  26  44  76 114 142 164 196 239
#
# _framework density 17.435338999999999
#
# number of rings (size 3 to 8) (size 9 to 14) (size 15 to 20)
#    0.000    3.125    1.250    3.375    0.000    2.250 
#    0.000    1.250    0.000    1.875    0.000    3.500 
#    0.000    8.500    0.000   34.500    0.000   25.000 
#
# Total GULP energy -356653.769962 kJ/mol
# GULP energy per Si atom -5572.715156 kJ/mol
# Density = 1.739566 g / cm^3
# Si number density = 17.435339 Si / 1000 Ang^3
#
#
#
# Elastic Constant Matrix: (Units=GPa)
#
#
# Indices 1 2 3 4 5 6 
#
# 1 46.9259 1.7774 1.7434 0.0000 0.0000 0.0000
# 2 1.7774 136.9156 74.1467 0.0000 0.0000 0.0000
# 3 1.7434 74.1467 112.9552 0.0000 0.0000 0.0000
# 4 0.0000 0.0000 0.0000 28.2779 0.0000 0.0000
# 5 0.0000 0.0000 0.0000 0.0000 -19.3261 0.0000
# 6 0.0000 0.0000 0.0000 0.0000 0.0000 -24.3984
#
#
#
# Elastic Compliance Matrix: (Units=1/GPa)
#
#
# Indices 1 2 3 4 5 6 
#
# 1 0.021324 -0.000153 -0.000229 0.000000 0.000000 0.000000
# 2 -0.000153 0.011333 -0.007437 0.000000 0.000000 0.000000
# 3 -0.000229 -0.007437 0.013739 0.000000 0.000000 0.000000
# 4 0.000000 0.000000 0.000000 0.035363 0.000000 0.000000
# 5 0.000000 0.000000 0.000000 0.000000 -0.051744 0.000000
# 6 0.000000 0.000000 0.000000 0.000000 0.000000 -0.040986
#
#
# Mechanical properties :
#
#
# Convention : Reuss Voigt Hill
#
# Bulk Modulus (GPa) = 32.51112 50.23687 41.37399
# Shear Modulus (GPa) = 335.11411 11.51931 173.31671
#
# Velocity S-wave (km/s) = 13.87880 2.57317 9.98104
# Velocity P-wave (km/s) = 16.59866 6.14036 12.51438
#
# Compressibility (1/GPa) = 0.03075871
#
# Stress axis : x y z
#
# Youngs Moduli (GPa) = 46.89444 88.23524 72.78800
#
# Poissons Ratio (x) = 0.01350 0.01665
# Poissons Ratio (y) = 0.00717 0.54133
# Poissons Ratio (z) = 0.01073 0.65622
#
# Static dielectric constant tensor:
#      x y z
#    x 1.661660 0.000000 0.000000 
#    y 0.000000 1.613020 0.000000 
#    z 0.000000 0.000000 1.569450 
# 
# From -- ./inp_files/32260.got.cif
#   From: 2010.05.17/outbox.cif.g08.bks.cpg/sg47_17_cif.got.tgz:32260.got - 2010.06.03 20:15:42.
