data_PCOD9383174
_publ_section_title
;
Structure prediction by ZEFSAII (Michael W. Deem and Ramdas Pophale) SiO2 
 PCOD9383174
Probable space group: P M M M
;
_chemical_formula_sum "Si O2"
_cell_formula_units_Z 64
_cell_length_a 8.440886
_cell_length_b 25.595541
_cell_length_c 15.204494
_cell_angle_alpha 90.000000
_cell_angle_beta 90.000000
_cell_angle_gamma 90.000000
_cell_volume 3284.916388
_symmetry_space_group_name_H-M "P M M M"
_symmetry_group_IT_number 47
_symmetry_cell_setting 'orthorhombic'
loop_
_space_group_symop_operation_xyz
x,y,z
-x,-y,z
x,-y,-z
-x,y,-z
-x,-y,-z
x,y,-z
-x,y,z
x,-y,z
loop_
_atom_site_type_symbol
_atom_site_label
_atom_site_fract_x
_atom_site_fract_y
_atom_site_fract_z
Si Si1 0.308299 0.362517 0.250199
Si Si2 0.190089 0.832467 0.899392
Si Si3 0.693124 0.558658 0.600806
Si Si4 0.311699 0.831694 0.601911
Si Si5 0.186557 0.056815 0.606731
Si Si6 0.693093 0.558744 0.100923
Si Si7 0.189028 0.244761 0.250644
Si Si8 0.313004 0.056450 0.893381
O O1 0.500000 0.362435 0.250212
O O2 0.253648 0.396018 0.334393
O O3 0.253774 0.395637 0.165444
O O4 0.252504 0.303331 0.251667
O O5 0.250026 0.788049 0.833687
O O6 0.232682 0.890151 0.864194
O O7 0.000000 0.829164 0.902759
O O8 0.250082 0.827012 0.000000
O O9 0.742537 0.566660 0.500000
O O10 0.500000 0.558859 0.601858
O O11 0.741110 0.500000 0.628636
O O12 0.257059 0.827450 0.500000
O O13 0.500000 0.825554 0.602902
O O14 0.270053 0.890076 0.635288
O O15 0.236521 0.788095 0.663521
O O16 0.199605 0.056071 0.500000
O O17 0.000000 0.060139 0.627809
O O18 0.247539 0.000000 0.637713
O O19 0.500000 0.558878 0.102149
O O20 0.741087 0.500000 0.128772
O O21 0.742382 0.566620 0.000000
O O22 0.000000 0.246616 0.245364
O O23 0.500000 0.058944 0.874053
O O24 0.250685 0.000000 0.861786
O O25 0.296712 0.055976 0.000000
#
# Coordination Sequence:
#
# PCOD9383174 Si02
#       8
#     8   8   8   8   8   8   8   8
#     4  10  19  31  50  75 101 131 170 214 253 294
#     4   9  19  36  55  73  96 131 175 218 256 298
#     4   8  14  26  47  76 105 129 156 195 244 294
#     4  10  21  37  57  79 103 133 172 221 269 309
#     4   8  14  27  50  79 108 137 168 204 254 317
#     4   8  14  26  47  77 109 136 165 207 259 310
#     4  11  24  39  53  72 102 141 181 218 260 313
#     4   8  14  26  47  76 105 129 156 198 258 320
#
# _framework density 19.482990999999998
#
# number of rings (size 3 to 8) (size 9 to 14) (size 15 to 20)
#    0.000    3.000    0.000    2.625    0.000    4.750 
#    0.000    4.375    0.000    2.250    0.000    1.750 
#    0.000    0.000    0.000    0.000    0.000    0.000 
#
# Total GULP energy -356852.249768 kJ/mol
# GULP energy per Si atom -5575.816403 kJ/mol
# Density = 1.943865 g / cm^3
# Si number density = 19.482991 Si / 1000 Ang^3
#
#
#
# Elastic Constant Matrix: (Units=GPa)
#
#
# Indices 1 2 3 4 5 6 
#
# 1 7.2926 23.8215 15.2841 0.0000 0.0000 0.0000
# 2 23.8215 215.4894 93.9380 0.0000 0.0000 0.0000
# 3 15.2841 93.9380 93.9886 0.0000 0.0000 0.0000
# 4 0.0000 0.0000 0.0000 -18.5411 0.0000 0.0000
# 5 0.0000 0.0000 0.0000 0.0000 9.0054 0.0000
# 6 0.0000 0.0000 0.0000 0.0000 0.0000 62.2153
#
#
#
# Elastic Compliance Matrix: (Units=1/GPa)
#
#
# Indices 1 2 3 4 5 6 
#
# 1 0.237723 -0.016706 -0.021961 0.000000 0.000000 0.000000
# 2 -0.016706 0.009398 -0.006676 0.000000 0.000000 0.000000
# 3 -0.021961 -0.006676 0.020883 0.000000 0.000000 0.000000
# 4 0.000000 0.000000 0.000000 -0.053934 0.000000 0.000000
# 5 0.000000 0.000000 0.000000 0.000000 0.111045 0.000000
# 6 0.000000 0.000000 0.000000 0.000000 0.000000 0.016073
#
#
# Mechanical properties :
#
#
# Convention : Reuss Voigt Hill
#
# Bulk Modulus (GPa) = 5.63955 64.76197 35.20076
# Shear Modulus (GPa) = 10.18373 22.78439 16.48406
#
# Velocity S-wave (km/s) = 2.28874 3.42343 2.91189
# Velocity P-wave (km/s) = 3.14409 6.99564 5.42330
#
# Compressibility (1/GPa) = 0.17731898
#
# Stress axis : x y z
#
# Youngs Moduli (GPa) = 4.20657 106.41035 47.88593
#
# Poissons Ratio (x) = 1.77771 1.05160
# Poissons Ratio (y) = 0.07028 0.31968
# Poissons Ratio (z) = 0.09238 0.71038
#
# Static dielectric constant tensor:
#      x y z
#    x 1.675290 0.000000 0.000000 
#    y 0.000000 1.671320 0.000000 
#    z 0.000000 0.000000 1.716070 
# 
# From -- ./inp_files/21945.got.cif
#   From: 2010.05.17/outbox.cif.g08.bks.cpg/sg47_11_cif.got.tgz:21945.got - 2010.06.03 20:15:42.
