data_PCOD9383013
_publ_section_title
;
Structure prediction by ZEFSAII (Michael W. Deem and Ramdas Pophale) SiO2 
 PCOD9383013
Probable space group: P M M M
;
_chemical_formula_sum "Si O2"
_cell_formula_units_Z 52
_cell_length_a 27.768480
_cell_length_b 7.472772
_cell_length_c 14.137644
_cell_angle_alpha 90.000000
_cell_angle_beta 90.000000
_cell_angle_gamma 90.000000
_cell_volume 2933.667443
_symmetry_space_group_name_H-M "P M M M"
_symmetry_group_IT_number 47
_symmetry_cell_setting 'orthorhombic'
loop_
_space_group_symop_operation_xyz
x,y,z
-x,-y,z
x,-y,-z
-x,y,-z
-x,-y,-z
x,y,-z
-x,y,z
x,-y,z
loop_
_atom_site_type_symbol
_atom_site_label
_atom_site_fract_x
_atom_site_fract_y
_atom_site_fract_z
Si Si1 0.843370 0.218537 0.610267
Si Si2 0.744727 0.219330 0.295800
Si Si3 0.599853 0.289936 0.197987
Si Si4 0.353799 0.784263 0.394298
Si Si5 0.948178 0.215917 0.613060
Si Si6 0.500000 0.718775 0.110141
Si Si7 0.299871 0.792103 0.895412
O O1 0.838830 0.269731 0.500000
O O2 0.796407 0.277917 0.666649
O O3 0.895859 0.278714 0.647605
O O4 0.843650 0.000000 0.611890
O O5 0.699951 0.273134 0.362533
O O6 0.731632 0.283563 0.190526
O O7 0.744561 0.000000 0.295706
O O8 0.601000 0.500000 0.177237
O O9 0.610457 0.266355 0.309327
O O10 0.548581 0.220375 0.162411
O O11 0.645099 0.211875 0.141070
O O12 0.365437 0.720450 0.500000
O O13 0.353272 0.000000 0.396445
O O14 0.947844 0.250070 0.500000
O O15 0.000000 0.282581 0.650043
O O16 0.948627 0.000000 0.623937
O O17 0.500000 0.500000 0.112820
O O18 0.500000 0.770840 0.000000
O O19 0.286105 0.000000 0.902298
O O20 0.295779 0.712419 0.000000
#
# Coordination Sequence:
#
# PCOD9383013 Si02
#       7
#     8   8   8   8   8   4   8
#     4   8  11  14  23  40  61  86 118 154 187 220
#     4   8  13  21  34  52  71  93 125 160 190 223
#     4  10  19  31  48  67  84 103 130 162 193 229
#     4   9  17  30  46  62  84 112 136 160 192 228
#     4   7   9  12  17  28  51  83 115 147 184 221
#     4   9  18  32  48  65  84 104 127 159 198 235
#     4   9  17  29  43  59  81 105 127 156 196 238
#
# _framework density 17.725252999999999
#
# number of rings (size 3 to 8) (size 9 to 14) (size 15 to 20)
#    0.000    3.462    0.000    3.692    0.000    3.077 
#    0.000    1.923    0.000    5.077    0.000    0.000 
#    0.000    0.615    0.000    8.615    0.000   12.615 
#
# Total GULP energy -289584.228156 kJ/mol
# GULP energy per Si atom -5568.927465 kJ/mol
# Density = 1.768491 g / cm^3
# Si number density = 17.725253 Si / 1000 Ang^3
#
#
#
# Elastic Constant Matrix: (Units=GPa)
#
#
# Indices 1 2 3 4 5 6 
#
# 1 176.3162 -1.5234 75.3389 0.0000 0.0000 0.0000
# 2 -1.5234 48.3541 -2.0572 0.0000 0.0000 0.0000
# 3 75.3389 -2.0572 111.3894 0.0000 0.0000 0.0000
# 4 0.0000 0.0000 0.0000 -2.1140 0.0000 0.0000
# 5 0.0000 0.0000 0.0000 0.0000 15.4462 0.0000
# 6 0.0000 0.0000 0.0000 0.0000 0.0000 20.9473
#
#
#
# Elastic Compliance Matrix: (Units=1/GPa)
#
#
# Indices 1 2 3 4 5 6 
#
# 1 0.007977 0.000022 -0.005395 0.000000 0.000000 0.000000
# 2 0.000022 0.020697 0.000368 0.000000 0.000000 0.000000
# 3 -0.005395 0.000368 0.012633 0.000000 0.000000 0.000000
# 4 0.000000 0.000000 0.000000 -0.473034 0.000000 0.000000
# 5 0.000000 0.000000 0.000000 0.000000 0.064741 0.000000
# 6 0.000000 0.000000 0.000000 0.000000 0.000000 0.047739
#
#
# Mechanical properties :
#
#
# Convention : Reuss Voigt Hill
#
# Bulk Modulus (GPa) = 31.95290 53.28625 42.61958
# Shear Modulus (GPa) = -16.73342 24.47598 3.87128
#
# Velocity S-wave (km/s) = -3.07586 3.72001 1.47946
# Velocity P-wave (km/s) = 2.33481 6.96986 5.19761
#
# Compressibility (1/GPa) = 0.03129606
#
# Stress axis : x y z
#
# Youngs Moduli (GPa) = 125.35992 48.31601 79.15663
#
# Poissons Ratio (x) = -0.00105 0.42704
# Poissons Ratio (y) = -0.00273 -0.02909
# Poissons Ratio (z) = 0.67631 -0.01776
#
# Static dielectric constant tensor:
#      x y z
#    x 1.624230 0.000000 0.000000 
#    y 0.000000 1.706330 0.000000 
#    z 0.000000 0.000000 1.595050 
# 
# From -- ./inp_files/25717.got.cif
#   From: 2010.05.17/outbox.cif.g08.bks.cpg/sg47_13_cif.got.tgz:25717.got - 2010.06.03 20:15:42.
