data_PCOD9383530
_publ_section_title
;
Structure prediction by ZEFSAII (Michael W. Deem and Ramdas Pophale) SiO2 
 PCOD9383530
Probable space group: P M M M
;
_chemical_formula_sum "Si O2"
_cell_formula_units_Z 56
_cell_length_a 14.282590
_cell_length_b 7.633948
_cell_length_c 22.593040
_cell_angle_alpha 90.000000
_cell_angle_beta 90.000000
_cell_angle_gamma 90.000000
_cell_volume 2463.376749
_symmetry_space_group_name_H-M "P M M M"
_symmetry_group_IT_number 47
_symmetry_cell_setting 'orthorhombic'
loop_
_space_group_symop_operation_xyz
x,y,z
-x,-y,z
x,-y,-z
-x,y,-z
-x,-y,-z
x,y,-z
-x,y,z
x,-y,z
loop_
_atom_site_type_symbol
_atom_site_label
_atom_site_fract_x
_atom_site_fract_y
_atom_site_fract_z
Si Si1 0.815659 0.206710 0.630845
Si Si2 0.398106 0.201623 0.631406
Si Si3 0.102832 0.294247 0.752416
Si Si4 0.892964 0.789943 0.931466
Si Si5 0.375757 0.702068 0.500000
Si Si6 0.254337 0.303755 0.161621
Si Si7 0.848152 0.304610 0.500000
Si Si8 0.390416 0.286498 0.934629
O O1 0.707739 0.278604 0.639664
O O2 0.879271 0.280494 0.682788
O O3 0.863041 0.230366 0.566013
O O4 0.806904 0.000000 0.638821
O O5 0.500000 0.277384 0.652246
O O6 0.403838 0.206274 0.560159
O O7 0.396131 0.000000 0.651977
O O8 0.101212 0.500000 0.768694
O O9 0.194551 0.218135 0.785491
O O10 0.000000 0.219840 0.767507
O O11 0.823279 0.689966 0.889775
O O12 0.000000 0.750418 0.916140
O O13 0.879482 0.000000 0.924789
O O14 0.878935 0.746508 0.000000
O O15 0.405484 0.500000 0.500000
O O16 0.264267 0.697258 0.500000
O O17 0.283980 0.500000 0.180654
O O18 0.338870 0.219861 0.124333
O O19 0.886009 0.500000 0.500000
O O20 0.500000 0.245138 0.932408
O O21 0.381487 0.500000 0.933928
O O22 0.354720 0.228148 0.000000
#
# Coordination Sequence:
#
# PCOD9383530 Si02
#       8
#     8   8   8   8   4   8   4   8
#     4  10  20  35  56  80 104 134 177 222 260 314
#     4   9  17  29  45  67  98 133 163 194 239 292
#     4  10  22  39  55  73 102 136 169 215 278 335
#     4   9  18  31  46  69 104 140 170 207 260 313
#     4   9  16  24  39  69 104 134 164 195 229 281
#     4  10  19  32  53  78 102 134 179 223 259 304
#     4   9  17  32  55  80 109 140 167 208 271 329
#     4   8  14  26  47  78 114 147 179 218 263 307
#
# _framework density 22.733022999999999
#
# number of rings (size 3 to 8) (size 9 to 14) (size 15 to 20)
#    0.000    2.714    0.000    2.786    0.000    6.000 
#    0.000    1.786    0.000    3.429    0.000    2.000 
#    0.000    0.000    0.000    0.000    0.000    0.000 
#
# Total GULP energy -311827.462113 kJ/mol
# GULP energy per Si atom -5568.347538 kJ/mol
# Density = 2.268128 g / cm^3
# Si number density = 22.733023 Si / 1000 Ang^3
#
#
#
# Elastic Constant Matrix: (Units=GPa)
#
#
# Indices 1 2 3 4 5 6 
#
# 1 75.7117 0.5416 44.0428 0.0000 0.0000 0.0000
# 2 0.5416 47.9344 -3.5446 0.0000 0.0000 0.0000
# 3 44.0428 -3.5446 88.0712 0.0000 0.0000 0.0000
# 4 0.0000 0.0000 0.0000 26.7793 0.0000 0.0000
# 5 0.0000 0.0000 0.0000 0.0000 46.5406 0.0000
# 6 0.0000 0.0000 0.0000 0.0000 0.0000 0.7192
#
#
#
# Elastic Compliance Matrix: (Units=1/GPa)
#
#
# Indices 1 2 3 4 5 6 
#
# 1 0.018666 -0.000904 -0.009371 0.000000 0.000000 0.000000
# 2 -0.000904 0.020968 0.001296 0.000000 0.000000 0.000000
# 3 -0.009371 0.001296 0.016093 0.000000 0.000000 0.000000
# 4 0.000000 0.000000 0.000000 0.037342 0.000000 0.000000
# 5 0.000000 0.000000 0.000000 0.000000 0.021487 0.000000
# 6 0.000000 0.000000 0.000000 0.000000 0.000000 1.390357
#
#
# Mechanical properties :
#
#
# Convention : Reuss Voigt Hill
#
# Bulk Modulus (GPa) = 26.47681 32.64409 29.56045
# Shear Modulus (GPa) = 3.25636 26.18634 14.72135
#
# Velocity S-wave (km/s) = 1.19814 3.39766 2.54751
# Velocity P-wave (km/s) = 3.68595 5.45738 4.65667
#
# Compressibility (1/GPa) = 0.03776890
#
# Stress axis : x y z
#
# Youngs Moduli (GPa) = 53.57461 47.69202 62.13989
#
# Poissons Ratio (x) = 0.04310 0.58229
# Poissons Ratio (y) = 0.04842 -0.08053
# Poissons Ratio (z) = 0.50203 -0.06180
#
# Static dielectric constant tensor:
#      x y z
#    x 1.928190 0.000000 0.000000 
#    y 0.000000 1.854280 0.000000 
#    z 0.000000 0.000000 1.862730 
# 
# From -- ./inp_files/31025.got.cif
#   From: 2010.05.17/outbox.cif.g08.bks.cpg/sg47_16_cif.got.tgz:31025.got - 2010.06.03 20:15:42.
