data_PCOD9383920
_publ_section_title
;
Structure prediction by ZEFSAII (Michael W. Deem and Ramdas Pophale) SiO2 
 PCOD9383920
Probable space group: P M M M
;
_chemical_formula_sum "Si O2"
_cell_formula_units_Z 40
_cell_length_a 21.053539
_cell_length_b 8.346339
_cell_length_c 12.220574
_cell_angle_alpha 90.000000
_cell_angle_beta 90.000000
_cell_angle_gamma 90.000000
_cell_volume 2147.398941
_symmetry_space_group_name_H-M "P M M M"
_symmetry_group_IT_number 47
_symmetry_cell_setting 'orthorhombic'
loop_
_space_group_symop_operation_xyz
x,y,z
-x,-y,z
x,-y,-z
-x,y,-z
-x,-y,-z
x,y,-z
-x,y,z
x,-y,z
loop_
_atom_site_type_symbol
_atom_site_label
_atom_site_fract_x
_atom_site_fract_y
_atom_site_fract_z
Si Si1 0.690528 0.305324 0.230387
Si Si2 0.736494 0.189157 0.000000
Si Si3 0.427978 0.695280 0.374598
Si Si4 0.188759 0.692960 0.624732
Si Si5 0.071479 0.191452 0.766728
Si Si6 0.880141 0.310737 0.000000
O O1 0.690888 0.500000 0.225319
O O2 0.626154 0.252825 0.290862
O O3 0.750983 0.253519 0.303396
O O4 0.699478 0.238971 0.109167
O O5 0.804884 0.275798 0.000000
O O6 0.748306 0.000000 0.000000
O O7 0.413655 0.743608 0.500000
O O8 0.500000 0.746103 0.348011
O O9 0.427634 0.500000 0.374119
O O10 0.191490 0.752510 0.500000
O O11 0.191878 0.500000 0.621376
O O12 0.124266 0.740687 0.685278
O O13 0.000000 0.248887 0.742604
O O14 0.072439 0.000000 0.758423
O O15 0.090025 0.238624 0.890228
O O16 0.890587 0.500000 0.000000
#
# Coordination Sequence:
#
# PCOD9383920 Si02
#       6
#     8   4   8   8   8   4
#     4  10  19  34  57  84 113 146 187 232 278 328
#     4  12  24  37  56  81 112 147 184 229 282 336
#     4   8  14  27  52  87 121 149 181 226 276 322
#     4  10  21  36  56  82 111 146 189 235 280 328
#     4  11  24  40  58  82 113 148 185 228 279 335
#     4  12  23  39  62  86 109 139 182 234 285 336
#
# _framework density 18.627186999999999
#
# number of rings (size 3 to 8) (size 9 to 14) (size 15 to 20)
#    0.000    1.800    2.000    3.900    0.000    6.000 
#    0.000    2.500    0.000    5.400    0.000    1.400 
#    0.000    0.000    0.000    0.000    0.000    0.000 
#
# Total GULP energy -223433.669980 kJ/mol
# GULP energy per Si atom -5585.841749 kJ/mol
# Density = 1.858479 g / cm^3
# Si number density = 18.627187 Si / 1000 Ang^3
#
#
#
# Elastic Constant Matrix: (Units=GPa)
#
#
# Indices 1 2 3 4 5 6 
#
# 1 148.2595 2.7287 92.5187 0.0000 0.0000 0.0000
# 2 2.7287 8.9099 9.3674 0.0000 0.0000 0.0000
# 3 92.5187 9.3674 168.5937 0.0000 0.0000 0.0000
# 4 0.0000 0.0000 0.0000 -48.2614 0.0000 0.0000
# 5 0.0000 0.0000 0.0000 0.0000 38.4217 0.0000
# 6 0.0000 0.0000 0.0000 0.0000 0.0000 -64.9617
#
#
#
# Elastic Compliance Matrix: (Units=1/GPa)
#
#
# Indices 1 2 3 4 5 6 
#
# 1 0.010331 0.002970 -0.005834 0.000000 0.000000 0.000000
# 2 0.002970 0.120051 -0.008300 0.000000 0.000000 0.000000
# 3 -0.005834 -0.008300 0.009594 0.000000 0.000000 0.000000
# 4 0.000000 0.000000 0.000000 -0.020720 0.000000 0.000000
# 5 0.000000 0.000000 0.000000 0.000000 0.026027 0.000000
# 6 0.000000 0.000000 0.000000 0.000000 0.000000 -0.015394
#
#
# Mechanical properties :
#
#
# Convention : Reuss Voigt Hill
#
# Bulk Modulus (GPa) = 8.49995 59.44364 33.97179
# Shear Modulus (GPa) = 26.11857 -0.21707 12.95075
#
# Velocity S-wave (km/s) = 3.74862 -0.34174 2.63964
# Velocity P-wave (km/s) = 4.82798 5.64144 5.25049
#
# Compressibility (1/GPa) = 0.11764775
#
# Stress axis : x y z
#
# Youngs Moduli (GPa) = 96.79490 8.32977 104.22825
#
# Poissons Ratio (x) = -0.02474 0.60811
# Poissons Ratio (y) = -0.28749 0.86511
# Poissons Ratio (z) = 0.56474 0.06914
#
# Static dielectric constant tensor:
#      x y z
#    x 1.635940 0.000000 0.000000 
#    y 0.000000 1.637320 0.000000 
#    z 0.000000 0.000000 1.573740 
# 
# From -- ./inp_files/18943.got.cif
#   From: 2010.05.17/outbox.cif.g08.bks.cpg/sg47_10_cif.got.tgz:18943.got - 2010.06.03 20:15:42.
