data_PCOD9383793
_publ_section_title
;
Structure prediction by ZEFSAII (Michael W. Deem and Ramdas Pophale) SiO2 
 PCOD9383793
Probable space group: P M M M
;
_chemical_formula_sum "Si O2"
_cell_formula_units_Z 64
_cell_length_a 20.127662
_cell_length_b 21.151133
_cell_length_c 8.798596
_cell_angle_alpha 90.000000
_cell_angle_beta 90.000000
_cell_angle_gamma 90.000000
_cell_volume 3745.763417
_symmetry_space_group_name_H-M "P M M M"
_symmetry_group_IT_number 47
_symmetry_cell_setting 'orthorhombic'
loop_
_space_group_symop_operation_xyz
x,y,z
-x,-y,z
x,-y,-z
-x,y,-z
-x,-y,-z
x,y,-z
-x,y,z
x,-y,z
loop_
_atom_site_type_symbol
_atom_site_label
_atom_site_fract_x
_atom_site_fract_y
_atom_site_fract_z
Si Si1 0.424840 0.613660 0.182656
Si Si2 0.426906 0.763213 0.815722
Si Si3 0.075759 0.736178 0.681115
Si Si4 0.713216 0.812414 0.183658
Si Si5 0.289197 0.570894 0.318811
Si Si6 0.075547 0.876624 0.818180
Si Si7 0.205346 0.314703 0.181957
Si Si8 0.792964 0.070733 0.681639
O O1 0.500000 0.593545 0.222310
O O2 0.418977 0.688642 0.218281
O O3 0.365290 0.578886 0.265359
O O4 0.417481 0.606922 0.000000
O O5 0.500000 0.783675 0.761193
O O6 0.362536 0.801298 0.763472
O O7 0.427456 0.767038 0.000000
O O8 0.083642 0.743393 0.500000
O O9 0.083773 0.804831 0.758916
O O10 0.132462 0.691176 0.746360
O O11 0.000000 0.715004 0.711390
O O12 0.754895 0.749506 0.224686
O O13 0.747243 0.874278 0.250581
O O14 0.713966 0.816663 0.000000
O O15 0.285545 0.578450 0.500000
O O16 0.266602 0.500000 0.278834
O O17 0.245861 0.625109 0.240295
O O18 0.132662 0.917799 0.742744
O O19 0.000000 0.896584 0.781373
O O20 0.083336 0.877164 0.000000
O O21 0.201155 0.316370 0.000000
O O22 0.793326 0.075806 0.500000
O O23 0.770930 0.000000 0.724548
#
# Coordination Sequence:
#
# PCOD9383793 Si02
#       8
#     8   8   8   8   8   8   8   8
#     4   9  17  32  54  78 107 144 184 225 270 323
#     4   8  14  28  52  80 107 132 166 217 270 317
#     4  10  20  34  55  83 113 144 177 216 266 322
#     4  10  19  33  56  83 106 135 177 224 273 321
#     4  11  24  38  52  75 111 152 188 226 274 325
#     4  10  20  34  53  78 108 142 180 221 265 314
#     4  11  21  35  58  85 109 139 182 228 273 320
#     4  11  24  38  52  74 107 147 185 222 270 325
#
# _framework density 17.085971000000001
#
# number of rings (size 3 to 8) (size 9 to 14) (size 15 to 20)
#    0.000    2.000    2.500    2.625    0.000    4.750 
#    0.000    2.500    0.000    1.125    0.000    5.250 
#    0.000    0.000    0.000    0.000    0.000    0.000 
#
# Total GULP energy -357205.133965 kJ/mol
# GULP energy per Si atom -5581.330218 kJ/mol
# Density = 1.704708 g / cm^3
# Si number density = 17.085971 Si / 1000 Ang^3
#
#
#
# Elastic Constant Matrix: (Units=GPa)
#
#
# Indices 1 2 3 4 5 6 
#
# 1 113.6587 61.8096 33.3890 0.0000 0.0000 0.0000
# 2 61.8096 102.4378 35.0126 0.0000 0.0000 0.0000
# 3 33.3890 35.0126 30.7609 0.0000 0.0000 0.0000
# 4 0.0000 0.0000 0.0000 27.6920 0.0000 0.0000
# 5 0.0000 0.0000 0.0000 0.0000 20.3889 0.0000
# 6 0.0000 0.0000 0.0000 0.0000 0.0000 17.6368
#
#
#
# Elastic Compliance Matrix: (Units=1/GPa)
#
#
# Indices 1 2 3 4 5 6 
#
# 1 0.014628 -0.005564 -0.009545 0.000000 0.000000 0.000000
# 2 -0.005564 0.018094 -0.014556 0.000000 0.000000 0.000000
# 3 -0.009545 -0.014556 0.059437 0.000000 0.000000 0.000000
# 4 0.000000 0.000000 0.000000 0.036112 0.000000 0.000000
# 5 0.000000 0.000000 0.000000 0.000000 0.049046 0.000000
# 6 0.000000 0.000000 0.000000 0.000000 0.000000 0.056700
#
#
# Mechanical properties :
#
#
# Convention : Reuss Voigt Hill
#
# Bulk Modulus (GPa) = 30.46009 56.36442 43.41225
# Shear Modulus (GPa) = 16.43172 20.91995 18.67583
#
# Velocity S-wave (km/s) = 3.10451 3.50293 3.30972
# Velocity P-wave (km/s) = 5.54228 7.03001 6.33000
#
# Compressibility (1/GPa) = 0.03282985
#
# Stress axis : x y z
#
# Youngs Moduli (GPa) = 68.36210 55.26554 16.82456
#
# Poissons Ratio (x) = 0.30750 0.16059
# Poissons Ratio (y) = 0.38037 0.24490
# Poissons Ratio (z) = 0.65249 0.80445
#
# Static dielectric constant tensor:
#      x y z
#    x 1.593070 0.000000 0.000000 
#    y 0.000000 1.560660 0.000000 
#    z 0.000000 0.000000 1.568970 
# 
# From -- ./inp_files/10044.got.cif
#   From: 2010.05.17/outbox.cif.g08.bks.cpg/sg47_6_cif.got.tgz:10044.got - 2010.06.03 20:15:42.
