data_PCOD9383852
_publ_section_title
;
Structure prediction by ZEFSAII (Michael W. Deem and Ramdas Pophale) SiO2 
 PCOD9383852
Probable space group: P M M M
;
_chemical_formula_sum "Si O2"
_cell_formula_units_Z 52
_cell_length_a 18.849900
_cell_length_b 8.204216
_cell_length_c 18.976396
_cell_angle_alpha 90.000000
_cell_angle_beta 90.000000
_cell_angle_gamma 90.000000
_cell_volume 2934.674046
_symmetry_space_group_name_H-M "P M M M"
_symmetry_group_IT_number 47
_symmetry_cell_setting 'orthorhombic'
loop_
_space_group_symop_operation_xyz
x,y,z
-x,-y,z
x,-y,-z
-x,y,-z
-x,-y,-z
x,y,-z
-x,y,z
x,-y,z
loop_
_atom_site_type_symbol
_atom_site_label
_atom_site_fract_x
_atom_site_fract_y
_atom_site_fract_z
Si Si1 0.279089 0.184400 0.882646
Si Si2 0.871399 0.801657 0.923489
Si Si3 0.634466 0.311556 0.329423
Si Si4 0.421667 0.694113 0.171662
Si Si5 0.225109 0.816041 0.279508
Si Si6 0.078351 0.305624 0.228546
Si Si7 0.414901 0.000000 0.418276
O O1 0.210651 0.258657 0.920731
O O2 0.357416 0.256619 0.879387
O O3 0.252755 0.183389 0.801337
O O4 0.285947 0.000000 0.908256
O O5 0.909459 0.737947 0.853814
O O6 0.870108 0.000000 0.918061
O O7 0.902184 0.759202 0.000000
O O8 0.615152 0.500000 0.347069
O O9 0.600119 0.269540 0.252806
O O10 0.719630 0.298332 0.319668
O O11 0.611267 0.166719 0.381086
O O12 0.500000 0.762940 0.156445
O O13 0.425659 0.500000 0.168115
O O14 0.143402 0.766171 0.273151
O O15 0.232001 0.000000 0.306836
O O16 0.081145 0.500000 0.234932
O O17 0.000000 0.247202 0.249436
O O18 0.500000 0.000000 0.414231
O O19 0.393237 0.000000 0.500000
#
# Coordination Sequence:
#
# PCOD9383852 Si02
#       7
#     8   8   8   8   8   8   4
#     4   8  15  26  41  62  83 106 144 197 250 297
#     4   9  18  32  47  60  80 118 166 207 244 298
#     4  10  19  34  54  75 102 138 179 219 256 298
#     4   9  17  27  42  66  91 115 147 194 253 307
#     4   9  16  30  51  73  96 126 166 209 254 303
#     4  10  20  31  44  69 104 133 158 199 255 310
#     4  11  24  38  52  76 111 149 186 219 251 291
#
# _framework density 17.719175
#
# number of rings (size 3 to 8) (size 9 to 14) (size 15 to 20)
#    0.000    2.692    0.769    2.308    1.077    7.077 
#    0.000    2.308    0.000    0.462    0.000    3.231 
#    0.000    1.231    0.000    3.231    0.000    0.000 
#
# Total GULP energy -289534.946192 kJ/mol
# GULP energy per Si atom -5567.979734 kJ/mol
# Density = 1.767885 g / cm^3
# Si number density = 17.719175 Si / 1000 Ang^3
#
#
#
# Elastic Constant Matrix: (Units=GPa)
#
#
# Indices 1 2 3 4 5 6 
#
# 1 108.0986 8.2379 -4.5964 0.0000 0.0000 0.0000
# 2 8.2379 47.2890 13.5041 0.0000 0.0000 0.0000
# 3 -4.5964 13.5041 21.1102 0.0000 0.0000 0.0000
# 4 0.0000 0.0000 0.0000 10.1750 0.0000 0.0000
# 5 0.0000 0.0000 0.0000 0.0000 8.0222 0.0000
# 6 0.0000 0.0000 0.0000 0.0000 0.0000 25.2693
#
#
#
# Elastic Compliance Matrix: (Units=1/GPa)
#
#
# Indices 1 2 3 4 5 6 
#
# 1 0.009628 -0.002784 0.003878 0.000000 0.000000 0.000000
# 2 -0.002784 0.026678 -0.017672 0.000000 0.000000 0.000000
# 3 0.003878 -0.017672 0.059519 0.000000 0.000000 0.000000
# 4 0.000000 0.000000 0.000000 0.098280 0.000000 0.000000
# 5 0.000000 0.000000 0.000000 0.000000 0.124654 0.000000
# 6 0.000000 0.000000 0.000000 0.000000 0.000000 0.039574
#
#
# Mechanical properties :
#
#
# Convention : Reuss Voigt Hill
#
# Bulk Modulus (GPa) = 15.95729 23.42100 19.68915
# Shear Modulus (GPa) = 12.12473 19.31678 15.72075
#
# Velocity S-wave (km/s) = 2.61870 3.30534 2.98185
# Velocity P-wave (km/s) = 4.26247 5.27386 4.79491
#
# Compressibility (1/GPa) = 0.06266726
#
# Stress axis : x y z
#
# Youngs Moduli (GPa) = 103.86495 37.48380 16.80123
#
# Poissons Ratio (x) = 0.10437 -0.06515
# Poissons Ratio (y) = 0.28921 0.29691
# Poissons Ratio (z) = -0.40274 0.66242
#
# Static dielectric constant tensor:
#      x y z
#    x 1.662520 0.000000 0.000000 
#    y 0.000000 1.627050 0.000000 
#    z 0.000000 0.000000 1.585010 
# 
# From -- ./inp_files/28493.got.cif
#   From: 2010.05.17/outbox.cif.g08.bks.cpg/sg47_15_cif.got.tgz:28493.got - 2010.06.03 20:15:42.
