data_PCOD9383244
_publ_section_title
;
Structure prediction by ZEFSAII (Michael W. Deem and Ramdas Pophale) SiO2 
 PCOD9383244
Probable space group: P M M M
;
_chemical_formula_sum "Si O2"
_cell_formula_units_Z 64
_cell_length_a 15.181744
_cell_length_b 7.817711
_cell_length_c 24.672398
_cell_angle_alpha 90.000000
_cell_angle_beta 90.000000
_cell_angle_gamma 90.000000
_cell_volume 2928.280246
_symmetry_space_group_name_H-M "P M M M"
_symmetry_group_IT_number 47
_symmetry_cell_setting 'orthorhombic'
loop_
_space_group_symop_operation_xyz
x,y,z
-x,-y,z
x,-y,-z
-x,y,-z
-x,-y,-z
x,y,-z
-x,y,z
x,-y,z
loop_
_atom_site_type_symbol
_atom_site_label
_atom_site_fract_x
_atom_site_fract_y
_atom_site_fract_z
Si Si1 0.901680 0.700751 0.160624
Si Si2 0.756830 0.809182 0.752158
Si Si3 0.348578 0.294429 0.559803
Si Si4 0.212583 0.206999 0.062265
Si Si5 0.141157 0.707488 0.442482
Si Si6 0.595107 0.796601 0.934317
Si Si7 0.095512 0.293211 0.325257
Si Si8 0.597495 0.794204 0.682010
O O1 0.911096 0.500000 0.167676
O O2 0.819683 0.746798 0.199556
O O3 0.866606 0.739920 0.100637
O O4 0.000000 0.777341 0.170078
O O5 0.826187 0.803224 0.703087
O O6 0.671052 0.724745 0.724046
O O7 0.730610 0.000000 0.768400
O O8 0.382326 0.233613 0.500000
O O9 0.356556 0.500000 0.558863
O O10 0.244735 0.251172 0.561254
O O11 0.386342 0.239106 0.617833
O O12 0.309061 0.269949 0.083334
O O13 0.216807 0.000000 0.062074
O O14 0.201601 0.263107 0.000000
O O15 0.107260 0.771847 0.500000
O O16 0.134765 0.500000 0.443538
O O17 0.095439 0.759751 0.387705
O O18 0.500000 0.725430 0.915614
O O19 0.593711 0.000000 0.922204
O O20 0.596238 0.781757 0.000000
O O21 0.110680 0.500000 0.321750
O O22 0.000000 0.259849 0.300399
O O23 0.500000 0.731492 0.695678
O O24 0.599876 0.000000 0.687084
#
# Coordination Sequence:
#
# PCOD9383244 Si02
#       8
#     8   8   8   8   8   8   8   8
#     4  11  25  43  62  84 112 149 190 231 279 337
#     4  11  23  40  61  81 104 138 180 231 282 330
#     4   9  17  31  53  80 110 146 188 232 277 330
#     4   9  18  34  59  92 126 158 193 233 276 323
#     4   8  14  26  45  71 104 139 175 217 263 315
#     4   7  10  20  43  77 115 152 188 222 255 297
#     4  10  19  31  52  80 107 138 177 222 273 328
#     4  10  22  39  58  82 111 144 184 231 287 346
#
# _framework density 21.855830999999998
#
# number of rings (size 3 to 8) (size 9 to 14) (size 15 to 20)
#    0.000    2.625    1.250    3.000    0.000    4.750 
#    0.000    4.375    0.000    4.500    0.000    2.625 
#    0.000    0.000    0.000    0.000    0.000    0.000 
#
# Total GULP energy -356476.845028 kJ/mol
# GULP energy per Si atom -5569.950704 kJ/mol
# Density = 2.180609 g / cm^3
# Si number density = 21.855831 Si / 1000 Ang^3
#
#
#
# Elastic Constant Matrix: (Units=GPa)
#
#
# Indices 1 2 3 4 5 6 
#
# 1 142.6954 16.0219 65.6187 0.0000 0.0000 0.0000
# 2 16.0219 26.2356 4.5315 0.0000 0.0000 0.0000
# 3 65.6187 4.5315 99.0490 0.0000 0.0000 0.0000
# 4 0.0000 0.0000 0.0000 21.7002 0.0000 0.0000
# 5 0.0000 0.0000 0.0000 0.0000-1520.7404 0.0000
# 6 0.0000 0.0000 0.0000 0.0000 0.0000 1.2458
#
#
#
# Elastic Compliance Matrix: (Units=1/GPa)
#
#
# Indices 1 2 3 4 5 6 
#
# 1 0.010786 -0.005395 -0.006899 0.000000 0.000000 0.000000
# 2 -0.005395 0.041119 0.001693 0.000000 0.000000 0.000000
# 3 -0.006899 0.001693 0.014589 0.000000 0.000000 0.000000
# 4 0.000000 0.000000 0.000000 0.046083 0.000000 0.000000
# 5 0.000000 0.000000 0.000000 0.000000 -0.000658 0.000000
# 6 0.000000 0.000000 0.000000 0.000000 0.000000 0.802676
#
#
# Mechanical properties :
#
#
# Convention : Reuss Voigt Hill
#
# Bulk Modulus (GPa) = 22.07918 48.92492 35.50205
# Shear Modulus (GPa) = 5.25821 -287.43835 -141.09007
#
# Velocity S-wave (km/s) = 1.55277 -11.48047 -8.04332
# Velocity P-wave (km/s) = 3.65225 12.38148 8.36547
#
# Compressibility (1/GPa) = 0.04529153
#
# Stress axis : x y z
#
# Youngs Moduli (GPa) = 92.71109 24.31992 68.54496
#
# Poissons Ratio (x) = 0.13122 0.47288
# Poissons Ratio (y) = 0.50022 -0.11606
# Poissons Ratio (z) = 0.63960 -0.04118
#
# Static dielectric constant tensor:
#      x y z
#    x 1.834360 0.000000 0.000000 
#    y 0.000000 1.848410 0.000000 
#    z 0.000000 0.000000 1.826360 
# 
# From -- ./inp_files/32757.got.cif
#   From: 2010.05.17/outbox.cif.g08.bks.cpg/sg47_17_cif.got.tgz:32757.got - 2010.06.03 20:15:42.
