data_PCOD9383716
_publ_section_title
;
Structure prediction by ZEFSAII (Michael W. Deem and Ramdas Pophale) SiO2 
 PCOD9383716
Probable space group: P M M M
;
_chemical_formula_sum "Si O2"
_cell_formula_units_Z 40
_cell_length_a 7.763211
_cell_length_b 25.560012
_cell_length_c 10.283987
_cell_angle_alpha 90.000000
_cell_angle_beta 90.000000
_cell_angle_gamma 90.000000
_cell_volume 2040.628569
_symmetry_space_group_name_H-M "P M M M"
_symmetry_group_IT_number 47
_symmetry_cell_setting 'orthorhombic'
loop_
_space_group_symop_operation_xyz
x,y,z
-x,-y,z
x,-y,-z
-x,y,-z
-x,-y,-z
x,y,-z
-x,y,z
x,-y,z
loop_
_atom_site_type_symbol
_atom_site_label
_atom_site_fract_x
_atom_site_fract_y
_atom_site_fract_z
Si Si1 0.795698 0.238489 0.649368
Si Si2 0.288625 0.938967 0.000000
Si Si3 0.707053 0.670375 0.850721
Si Si4 0.288905 0.940420 0.500000
Si Si5 0.707407 0.124095 0.747423
Si Si6 0.296816 0.556216 0.842500
O O1 0.724602 0.239773 0.500000
O O2 0.742688 0.285609 0.744278
O O3 0.751426 0.184140 0.720881
O O4 0.000000 0.240861 0.637939
O O5 0.231295 0.905491 0.875802
O O6 0.500000 0.940216 0.000000
O O7 0.234516 0.000000 0.000000
O O8 0.500000 0.665688 0.859938
O O9 0.774865 0.613118 0.806066
O O10 0.767593 0.681810 0.000000
O O11 0.500000 0.940430 0.500000
O O12 0.230227 0.909359 0.625549
O O13 0.232847 0.000000 0.500000
O O14 0.500000 0.121497 0.750646
O O15 0.500000 0.555573 0.807337
O O16 0.222676 0.500000 0.798585
O O17 0.289058 0.556341 0.000000
#
# Coordination Sequence:
#
# PCOD9383716 Si02
#       6
#     8   4   8   4   8   8
#     4  11  24  39  52  69 101 143 183 220 258 301
#     4   9  18  32  53  83 111 129 152 197 256 311
#     4   9  18  32  54  83 108 132 169 215 260 308
#     4   9  16  28  51  79 101 125 162 207 252 297
#     4  10  19  33  54  78 103 131 165 207 252 302
#     4   7  10  20  42  74 108 134 157 196 253 309
#
# _framework density 19.601804000000001
#
# number of rings (size 3 to 8) (size 9 to 14) (size 15 to 20)
#    0.000    2.800    1.000    3.000    1.400    4.000 
#    0.000    0.000    0.000    4.800    0.000    7.000 
#    0.000    0.000    0.000    0.000    0.000    0.000 
#
# Total GULP energy -222826.266961 kJ/mol
# GULP energy per Si atom -5570.656674 kJ/mol
# Density = 1.955719 g / cm^3
# Si number density = 19.601804 Si / 1000 Ang^3
#
#
#
# Elastic Constant Matrix: (Units=GPa)
#
#
# Indices 1 2 3 4 5 6 
#
# 1 29.2149 5.9848 11.8381 0.0000 0.0000 0.0000
# 2 5.9848 245.4287 115.0254 0.0000 0.0000 0.0000
# 3 11.8381 115.0254 152.2372 0.0000 0.0000 0.0000
# 4 0.0000 0.0000 0.0000 31.5861 0.0000 0.0000
# 5 0.0000 0.0000 0.0000 0.0000 -47.5259 0.0000
# 6 0.0000 0.0000 0.0000 0.0000 0.0000 -55.4573
#
#
#
# Elastic Compliance Matrix: (Units=1/GPa)
#
#
# Indices 1 2 3 4 5 6 
#
# 1 0.035412 0.000661 -0.003253 0.000000 0.000000 0.000000
# 2 0.000661 0.006321 -0.004827 0.000000 0.000000 0.000000
# 3 -0.003253 -0.004827 0.010469 0.000000 0.000000 0.000000
# 4 0.000000 0.000000 0.000000 0.031659 0.000000 0.000000
# 5 0.000000 0.000000 0.000000 0.000000 -0.021041 0.000000
# 6 0.000000 0.000000 0.000000 0.000000 0.000000 -0.018032
#
#
# Mechanical properties :
#
#
# Convention : Reuss Voigt Hill
#
# Bulk Modulus (GPa) = 26.76436 76.95302 51.85869
# Shear Modulus (GPa) = 69.36670 5.32274 37.34472
#
# Velocity S-wave (km/s) = 5.95523 1.64965 4.36956
# Velocity P-wave (km/s) = 7.80833 6.55529 7.20908
#
# Compressibility (1/GPa) = 0.03736312
#
# Stress axis : x y z
#
# Youngs Moduli (GPa) = 28.23911 158.20972 95.52101
#
# Poissons Ratio (x) = -0.10460 0.31075
# Poissons Ratio (y) = -0.01867 0.46109
# Poissons Ratio (z) = 0.09187 0.76370
#
# Static dielectric constant tensor:
#      x y z
#    x 1.712770 0.000000 0.000000 
#    y 0.000000 1.719920 0.000000 
#    z 0.000000 0.000000 1.605630 
# 
# From -- ./inp_files/1830.got.cif
#   From: 2010.05.17/outbox.cif.g08.bks.cpg/sg47_1_cif.got.tgz:1830.got - 2010.06.03 20:15:42.
