data_PCOD9383025
_publ_section_title
;
Structure prediction by ZEFSAII (Michael W. Deem and Ramdas Pophale) SiO2 
 PCOD9383025
Probable space group: P M M M
;
_chemical_formula_sum "Si O2"
_cell_formula_units_Z 56
_cell_length_a 7.455102
_cell_length_b 19.167239
_cell_length_c 19.563400
_cell_angle_alpha 90.000000
_cell_angle_beta 90.000000
_cell_angle_gamma 90.000000
_cell_volume 2795.487037
_symmetry_space_group_name_H-M "P M M M"
_symmetry_group_IT_number 47
_symmetry_cell_setting 'orthorhombic'
loop_
_space_group_symop_operation_xyz
x,y,z
-x,-y,z
x,-y,-z
-x,y,-z
-x,-y,-z
x,y,-z
-x,y,z
x,-y,z
loop_
_atom_site_type_symbol
_atom_site_label
_atom_site_fract_x
_atom_site_fract_y
_atom_site_fract_z
Si Si1 0.719296 0.195389 0.576915
Si Si2 0.296186 0.137936 0.285470
Si Si3 0.280538 0.076960 0.146264
Si Si4 0.716923 0.780523 0.076382
Si Si5 0.209569 0.717483 0.217692
Si Si6 0.283301 0.642858 0.576535
Si Si7 0.790699 0.423533 0.717915
O O1 0.772788 0.175383 0.500000
O O2 0.500000 0.194872 0.578871
O O3 0.784186 0.147689 0.639314
O O4 0.772286 0.276385 0.588026
O O5 0.500000 0.112713 0.294840
O O6 0.217288 0.092502 0.223867
O O7 0.299862 0.216267 0.253953
O O8 0.500000 0.078653 0.147561
O O9 0.224652 0.141675 0.099335
O O10 0.226211 0.000000 0.123673
O O11 0.500000 0.780502 0.076337
O O12 0.775037 0.729121 0.136725
O O13 0.778336 0.764035 0.000000
O O14 0.285123 0.643881 0.243152
O O15 0.000000 0.721462 0.237034
O O16 0.226180 0.622547 0.500000
O O17 0.500000 0.641971 0.577696
O O18 0.219454 0.594680 0.637683
O O19 0.712134 0.500000 0.731010
O O20 0.000000 0.426548 0.737378
#
# Coordination Sequence:
#
# PCOD9383025 Si02
#       7
#     8   8   8   8   8   8   8
#     4   8  13  22  39  62  85 112 149 192 232 264
#     4   9  15  26  46  65  86 119 156 191 225 263
#     4   8  14  24  41  69  99 123 148 177 210 254
#     4   9  18  32  51  73  94 119 148 177 213 260
#     4  10  19  31  48  68  90 115 147 187 224 263
#     4   9  17  29  45  65  89 118 154 194 233 274
#     4  10  21  34  46  63  90 123 154 186 229 277
#
# _framework density 20.032287
#
# number of rings (size 3 to 8) (size 9 to 14) (size 15 to 20)
#    0.000    3.000    1.429    2.143    0.000    2.000 
#    0.000    2.857    0.000    8.143    0.000   10.000 
#    0.000    0.000    0.000    5.143    0.000    5.714 
#
# Total GULP energy -312237.105041 kJ/mol
# GULP energy per Si atom -5575.662590 kJ/mol
# Density = 1.998669 g / cm^3
# Si number density = 20.032287 Si / 1000 Ang^3
#
#
#
# Elastic Constant Matrix: (Units=GPa)
#
#
# Indices 1 2 3 4 5 6 
#
# 1 62.6237 -3.7643 -10.1328 0.0000 0.0000 0.0000
# 2 -3.7643 62.0843 19.7910 0.0000 0.0000 0.0000
# 3 -10.1328 19.7910 99.9969 0.0000 0.0000 0.0000
# 4 0.0000 0.0000 0.0000 15.5045 0.0000 0.0000
# 5 0.0000 0.0000 0.0000 0.0000 73.1359 0.0000
# 6 0.0000 0.0000 0.0000 0.0000 0.0000 7.0035
#
#
#
# Elastic Compliance Matrix: (Units=1/GPa)
#
#
# Indices 1 2 3 4 5 6 
#
# 1 0.016249 0.000491 0.001549 0.000000 0.000000 0.000000
# 2 0.000491 0.017207 -0.003356 0.000000 0.000000 0.000000
# 3 0.001549 -0.003356 0.010821 0.000000 0.000000 0.000000
# 4 0.000000 0.000000 0.000000 0.064497 0.000000 0.000000
# 5 0.000000 0.000000 0.000000 0.000000 0.013673 0.000000
# 6 0.000000 0.000000 0.000000 0.000000 0.000000 0.142785
#
#
# Mechanical properties :
#
#
# Convention : Reuss Voigt Hill
#
# Bulk Modulus (GPa) = 24.01164 26.27696 25.14430
# Shear Modulus (GPa) = 17.74657 33.71618 25.73138
#
# Velocity S-wave (km/s) = 2.97963 4.10700 3.58787
# Velocity P-wave (km/s) = 4.88366 5.96957 5.45371
#
# Compressibility (1/GPa) = 0.04164646
#
# Stress axis : x y z
#
# Youngs Moduli (GPa) = 61.54376 58.11710 92.40915
#
# Poissons Ratio (x) = -0.02855 -0.14317
# Poissons Ratio (y) = -0.03024 0.31010
# Poissons Ratio (z) = -0.09535 0.19502
#
# Static dielectric constant tensor:
#      x y z
#    x 1.806400 0.000000 0.000000 
#    y 0.000000 1.696120 0.000000 
#    z 0.000000 0.000000 1.715140 
# 
# From -- ./inp_files/11522.got.cif
#   From: 2010.05.17/outbox.cif.g08.bks.cpg/sg47_6_cif.got.tgz:11522.got - 2010.06.03 20:15:42.
