data_PCOD9383351
_publ_section_title
;
Structure prediction by ZEFSAII (Michael W. Deem and Ramdas Pophale) SiO2 
 PCOD9383351
Probable space group: P M M M
;
_chemical_formula_sum "Si O2"
_cell_formula_units_Z 52
_cell_length_a 28.495202
_cell_length_b 7.900086
_cell_length_c 13.159808
_cell_angle_alpha 90.000000
_cell_angle_beta 90.000000
_cell_angle_gamma 90.000000
_cell_volume 2962.464208
_symmetry_space_group_name_H-M "P M M M"
_symmetry_group_IT_number 47
_symmetry_cell_setting 'orthorhombic'
loop_
_space_group_symop_operation_xyz
x,y,z
-x,-y,z
x,-y,-z
-x,y,-z
-x,-y,-z
x,y,-z
-x,y,z
x,-y,z
loop_
_atom_site_type_symbol
_atom_site_label
_atom_site_fract_x
_atom_site_fract_y
_atom_site_fract_z
Si Si1 0.381579 0.811956 0.621131
Si Si2 0.946071 0.792733 0.697802
Si Si3 0.224256 0.204854 0.883748
Si Si4 0.716503 0.304616 0.309391
Si Si5 0.112089 0.792975 0.500000
Si Si6 0.219868 0.796833 0.500000
Si Si7 0.446315 0.500000 0.376398
Si Si8 0.883565 0.793437 0.885296
O O1 0.372445 0.789062 0.500000
O O2 0.331502 0.796905 0.675472
O O3 0.417281 0.666258 0.654097
O O4 0.401243 0.000000 0.635479
O O5 0.916070 0.739687 0.600109
O O6 0.919621 0.736548 0.799767
O O7 0.000000 0.737666 0.692642
O O8 0.946343 0.000000 0.698023
O O9 0.258503 0.272987 0.797860
O O10 0.170220 0.256556 0.862775
O O11 0.225551 0.000000 0.879559
O O12 0.235461 0.255070 0.000000
O O13 0.703564 0.500000 0.320358
O O14 0.752539 0.259853 0.399622
O O15 0.166042 0.736184 0.500000
O O16 0.112828 0.000000 0.500000
O O17 0.219237 0.000000 0.500000
O O18 0.500000 0.500000 0.340674
O O19 0.447644 0.500000 0.500000
O O20 0.883946 0.000000 0.885022
O O21 0.895265 0.739320 0.000000
#
# Coordination Sequence:
#
# PCOD9383351 Si02
#       8
#     8   8   8   8   4   4   4   8
#     4  10  19  32  50  73 106 145 184 225 270 318
#     4   9  15  22  34  54  83 117 147 184 242 305
#     4   9  18  33  51  69  94 132 172 207 252 315
#     4  12  22  32  48  73 105 135 170 217 267 315
#     4   9  17  27  38  55  82 114 155 197 235 297
#     4  11  21  32  49  70  92 131 175 207 252 317
#     4   9  18  32  50  74 107 147 189 231 270 310
#     4   8  14  25  40  58  82 113 150 193 240 298
#
# _framework density 17.552955000000001
#
# number of rings (size 3 to 8) (size 9 to 14) (size 15 to 20)
#    0.000    2.385    1.538    3.692    0.000    4.308 
#    0.000    3.077    0.000    0.000    0.000    0.000 
#    0.000   26.462    0.000   16.769    0.000   13.692 
#
# Total GULP energy -290202.710587 kJ/mol
# GULP energy per Si atom -5580.821357 kJ/mol
# Density = 1.751300 g / cm^3
# Si number density = 17.552955 Si / 1000 Ang^3
#
#
#
# Elastic Constant Matrix: (Units=GPa)
#
#
# Indices 1 2 3 4 5 6 
#
# 1 132.2383 30.1294 61.7900 0.0000 0.0000 0.0000
# 2 30.1294 55.2183 17.5862 0.0000 0.0000 0.0000
# 3 61.7900 17.5862 85.6810 0.0000 0.0000 0.0000
# 4 0.0000 0.0000 0.0000 4.2695 0.0000 0.0000
# 5 0.0000 0.0000 0.0000 0.0000 11.1263 0.0000
# 6 0.0000 0.0000 0.0000 0.0000 0.0000 20.0484
#
#
#
# Elastic Compliance Matrix: (Units=1/GPa)
#
#
# Indices 1 2 3 4 5 6 
#
# 1 0.012228 -0.004134 -0.007970 0.000000 0.000000 0.000000
# 2 -0.004134 0.020774 -0.001283 0.000000 0.000000 0.000000
# 3 -0.007970 -0.001283 0.017682 0.000000 0.000000 0.000000
# 4 0.000000 0.000000 0.000000 0.234222 0.000000 0.000000
# 5 0.000000 0.000000 0.000000 0.000000 0.089877 0.000000
# 6 0.000000 0.000000 0.000000 0.000000 0.000000 0.049879
#
#
# Mechanical properties :
#
#
# Convention : Reuss Voigt Hill
#
# Bulk Modulus (GPa) = 41.82141 54.68321 48.25231
# Shear Modulus (GPa) = 10.88362 17.99761 14.44062
#
# Velocity S-wave (km/s) = 2.49277 3.20556 2.87137
# Velocity P-wave (km/s) = 5.67122 6.70236 6.20824
#
# Compressibility (1/GPa) = 0.02391120
#
# Stress axis : x y z
#
# Youngs Moduli (GPa) = 81.77946 48.13692 56.55430
#
# Poissons Ratio (x) = 0.19899 0.45073
# Poissons Ratio (y) = 0.33806 0.07255
# Poissons Ratio (z) = 0.65178 0.06175
#
# Static dielectric constant tensor:
#      x y z
#    x 1.570110 0.000000 0.000000 
#    y 0.000000 1.643990 0.000000 
#    z 0.000000 0.000000 1.570470 
# 
# From -- ./inp_files/19849.got.cif
#   From: 2010.05.17/outbox.cif.g08.bks.cpg/sg47_10_cif.got.tgz:19849.got - 2010.06.03 20:15:42.
