data_PCOD9383075
_publ_section_title
;
Structure prediction by ZEFSAII (Michael W. Deem and Ramdas Pophale) SiO2 
 PCOD9383075
Probable space group: P M M M
;
_chemical_formula_sum "Si O2"
_cell_formula_units_Z 64
_cell_length_a 20.821060
_cell_length_b 7.620569
_cell_length_c 20.517585
_cell_angle_alpha 90.000000
_cell_angle_beta 90.000000
_cell_angle_gamma 90.000000
_cell_volume 3255.490832
_symmetry_space_group_name_H-M "P M M M"
_symmetry_group_IT_number 47
_symmetry_cell_setting 'orthorhombic'
loop_
_space_group_symop_operation_xyz
x,y,z
-x,-y,z
x,-y,-z
-x,y,-z
-x,-y,-z
x,y,-z
-x,y,z
x,-y,z
loop_
_atom_site_type_symbol
_atom_site_label
_atom_site_fract_x
_atom_site_fract_y
_atom_site_fract_z
Si Si1 0.430394 0.785463 0.788505
Si Si2 0.247553 0.202701 0.100978
Si Si3 0.672061 0.206689 0.314532
Si Si4 0.428390 0.288572 0.424900
Si Si5 0.388743 0.215023 0.070387
Si Si6 0.931030 0.293712 0.783773
Si Si7 0.105917 0.786505 0.071046
Si Si8 0.209417 0.294666 0.242289
O O1 0.500000 0.731382 0.763057
O O2 0.373177 0.720049 0.743273
O O3 0.422975 0.730213 0.863384
O O4 0.428250 0.000000 0.787363
O O5 0.314804 0.276178 0.076966
O O6 0.180138 0.275435 0.075817
O O7 0.243485 0.209410 0.179418
O O8 0.247889 0.000000 0.080276
O O9 0.630731 0.235301 0.379525
O O10 0.743943 0.276767 0.304075
O O11 0.678202 0.000000 0.305205
O O12 0.420035 0.231940 0.500000
O O13 0.500000 0.227183 0.403106
O O14 0.430006 0.500000 0.424501
O O15 0.389243 0.000000 0.071452
O O16 0.414853 0.268749 0.000000
O O17 0.932511 0.500000 0.767660
O O18 0.925987 0.276329 0.862345
O O19 0.863597 0.223373 0.755110
O O20 0.000000 0.216771 0.763440
O O21 0.104745 0.000000 0.073854
O O22 0.079878 0.735075 0.000000
O O23 0.204323 0.500000 0.226273
#
# Coordination Sequence:
#
# PCOD9383075 Si02
#       8
#     8   8   8   8   8   8   8   8
#     4   9  17  27  39  61  91 119 152 197 244 286
#     4   9  15  27  43  61  84 111 147 194 248 301
#     4  11  20  32  51  75 103 135 169 208 247 287
#     4   9  19  36  56  80 113 149 179 206 239 282
#     4   9  15  23  38  58  81 111 148 194 248 298
#     4   9  19  34  48  63  87 120 156 198 251 309
#     4   9  17  27  41  62  86 112 146 191 245 309
#     4  10  19  31  49  70  91 119 158 203 249 297
#
# _framework density 19.659094
#
# number of rings (size 3 to 8) (size 9 to 14) (size 15 to 20)
#    0.000    2.625    1.250    1.875    0.000    4.000 
#    0.000    3.125    0.000    1.125    0.000    0.000 
#    0.000    1.500    0.000    5.750    0.000    1.625 
#
# Total GULP energy -356906.645244 kJ/mol
# GULP energy per Si atom -5576.666332 kJ/mol
# Density = 1.961435 g / cm^3
# Si number density = 19.659094 Si / 1000 Ang^3
#
#
#
# Elastic Constant Matrix: (Units=GPa)
#
#
# Indices 1 2 3 4 5 6 
#
# 1 141.0411 2.7537 48.6855 0.0000 0.0000 0.0000
# 2 2.7537 43.6082 -2.0083 0.0000 0.0000 0.0000
# 3 48.6855 -2.0083 75.0120 0.0000 0.0000 0.0000
# 4 0.0000 0.0000 0.0000 20.3671 0.0000 0.0000
# 5 0.0000 0.0000 0.0000 0.0000 117.9426 0.0000
# 6 0.0000 0.0000 0.0000 0.0000 0.0000 3.2294
#
#
#
# Elastic Compliance Matrix: (Units=1/GPa)
#
#
# Indices 1 2 3 4 5 6 
#
# 1 0.009169 -0.000854 -0.005974 0.000000 0.000000 0.000000
# 2 -0.000854 0.023039 0.001171 0.000000 0.000000 0.000000
# 3 -0.005974 0.001171 0.017240 0.000000 0.000000 0.000000
# 4 0.000000 0.000000 0.000000 0.049099 0.000000 0.000000
# 5 0.000000 0.000000 0.000000 0.000000 0.008479 0.000000
# 6 0.000000 0.000000 0.000000 0.000000 0.000000 0.309655
#
#
# Mechanical properties :
#
#
# Convention : Reuss Voigt Hill
#
# Bulk Modulus (GPa) = 26.22294 39.83589 33.02942
# Shear Modulus (GPa) = 11.34544 42.32316 26.83430
#
# Velocity S-wave (km/s) = 2.40492 4.64492 3.69857
# Velocity P-wave (km/s) = 4.59122 7.00531 5.92257
#
# Compressibility (1/GPa) = 0.03813455
#
# Stress axis : x y z
#
# Youngs Moduli (GPa) = 109.06452 43.40400 58.00542
#
# Poissons Ratio (x) = 0.03707 0.34651
# Poissons Ratio (y) = 0.09315 -0.06793
# Poissons Ratio (z) = 0.65153 -0.05083
#
# Static dielectric constant tensor:
#      x y z
#    x 1.749090 0.000000 0.000000 
#    y 0.000000 1.749240 0.000000 
#    z 0.000000 0.000000 1.677670 
# 
# From -- ./inp_files/31528.got.cif
#   From: 2010.05.17/outbox.cif.g08.bks.cpg/sg47_16_cif.got.tgz:31528.got - 2010.06.03 20:15:42.
