data_PCOD9383957
_publ_section_title
;
Structure prediction by ZEFSAII (Michael W. Deem and Ramdas Pophale) SiO2 
 PCOD9383957
Probable space group: P M M M
;
_chemical_formula_sum "Si O2"
_cell_formula_units_Z 56
_cell_length_a 22.741719
_cell_length_b 14.827488
_cell_length_c 9.981622
_cell_angle_alpha 90.000000
_cell_angle_beta 90.000000
_cell_angle_gamma 90.000000
_cell_volume 3365.828547
_symmetry_space_group_name_H-M "P M M M"
_symmetry_group_IT_number 47
_symmetry_cell_setting 'orthorhombic'
loop_
_space_group_symop_operation_xyz
x,y,z
-x,-y,z
x,-y,-z
-x,y,-z
-x,-y,-z
x,y,-z
-x,y,z
x,-y,z
loop_
_atom_site_type_symbol
_atom_site_label
_atom_site_fract_x
_atom_site_fract_y
_atom_site_fract_z
Si Si1 0.108819 0.106877 0.343517
Si Si2 0.250285 0.393481 0.846051
Si Si3 0.673435 0.100199 0.657153
Si Si4 0.610856 0.645686 0.147655
Si Si5 0.431398 0.148187 0.154349
Si Si6 0.221427 0.765576 0.341400
Si Si7 0.000000 0.109230 0.845584
Si Si8 0.430498 0.500000 0.352271
O O1 0.090218 0.116697 0.500000
O O2 0.165827 0.168666 0.322553
O O3 0.057509 0.133842 0.240713
O O4 0.122031 0.000000 0.324478
O O5 0.247342 0.500000 0.810453
O O6 0.318694 0.362979 0.845802
O O7 0.218494 0.324918 0.745897
O O8 0.229416 0.384175 0.000000
O O9 0.659251 0.113083 0.500000
O O10 0.614955 0.104528 0.745431
O O11 0.720509 0.176323 0.695914
O O12 0.700185 0.000000 0.670868
O O13 0.585613 0.745991 0.157542
O O14 0.587424 0.586341 0.267597
O O15 0.593180 0.610639 0.000000
O O16 0.500000 0.135326 0.189239
O O17 0.423365 0.117774 0.000000
O O18 0.225589 0.744598 0.500000
O O19 0.000000 0.000000 0.850276
O O20 0.000000 0.141421 0.000000
O O21 0.500000 0.500000 0.363824
O O22 0.403393 0.500000 0.500000
#
# Coordination Sequence:
#
# PCOD9383957 Si02
#       8
#     8   8   8   8   8   8   4   4
#     4   9  17  31  52  78 111 150 185 213 247 295
#     4  10  20  35  54  75  99 129 166 209 259 314
#     4  10  21  36  53  74 101 132 166 208 260 312
#     4  10  19  35  54  69  90 124 162 201 253 317
#     4  10  21  36  53  71  91 121 165 213 258 308
#     4  10  20  34  54  79 105 136 174 215 255 301
#     4   9  17  29  47  77 116 151 184 219 251 286
#     4  11  23  33  45  71  99 119 149 198 255 316
#
# _framework density 16.637805
#
# number of rings (size 3 to 8) (size 9 to 14) (size 15 to 20)
#    0.000    2.143    2.143    1.286    0.000    6.571 
#    0.000    1.429    0.000    2.571    0.000    0.500 
#    0.000    4.000    0.000    0.000    0.000    0.000 
#
# Total GULP energy -312218.985648 kJ/mol
# GULP energy per Si atom -5575.339029 kJ/mol
# Density = 1.659994 g / cm^3
# Si number density = 16.637805 Si / 1000 Ang^3
#
#
#
# Elastic Constant Matrix: (Units=GPa)
#
#
# Indices 1 2 3 4 5 6 
#
# 1 77.8754 34.4222 54.6708 0.0000 0.0000 0.0000
# 2 34.4222 85.0742 55.0348 0.0000 0.0000 0.0000
# 3 54.6708 55.0348 102.1976 0.0000 0.0000 0.0000
# 4 0.0000 0.0000 0.0000 27.2748 0.0000 0.0000
# 5 0.0000 0.0000 0.0000 0.0000 22.3798 0.0000
# 6 0.0000 0.0000 0.0000 0.0000 0.0000 19.6342
#
#
#
# Elastic Compliance Matrix: (Units=1/GPa)
#
#
# Indices 1 2 3 4 5 6 
#
# 1 0.020755 -0.001865 -0.010099 0.000000 0.000000 0.000000
# 2 -0.001865 0.018206 -0.008807 0.000000 0.000000 0.000000
# 3 -0.010099 -0.008807 0.019930 0.000000 0.000000 0.000000
# 4 0.000000 0.000000 0.000000 0.036664 0.000000 0.000000
# 5 0.000000 0.000000 0.000000 0.000000 0.044683 0.000000
# 6 0.000000 0.000000 0.000000 0.000000 0.000000 0.050932
#
#
# Mechanical properties :
#
#
# Convention : Reuss Voigt Hill
#
# Bulk Modulus (GPa) = 57.63533 61.48920 59.56227
# Shear Modulus (GPa) = 20.96502 21.92572 21.44537
#
# Velocity S-wave (km/s) = 3.55362 3.63413 3.59410
# Velocity P-wave (km/s) = 7.18011 7.39235 7.28700
#
# Compressibility (1/GPa) = 0.01735047
#
# Stress axis : x y z
#
# Youngs Moduli (GPa) = 48.18153 54.92696 50.17641
#
# Poissons Ratio (x) = 0.10243 0.50671
# Poissons Ratio (y) = 0.08985 0.44188
# Poissons Ratio (z) = 0.48657 0.48372
#
# Static dielectric constant tensor:
#      x y z
#    x 1.539650 0.000000 0.000000 
#    y 0.000000 1.564360 0.000000 
#    z 0.000000 0.000000 1.574400 
# 
# From -- ./inp_files/7393.got.cif
#   From: 2010.05.17/outbox.cif.g08.bks.cpg/sg47_4_cif.got.tgz:7393.got - 2010.06.03 20:15:42.
