data_PCOD9383933
_publ_section_title
;
Structure prediction by ZEFSAII (Michael W. Deem and Ramdas Pophale) SiO2 
 PCOD9383933
Probable space group: P M M M
;
_chemical_formula_sum "Si O2"
_cell_formula_units_Z 56
_cell_length_a 20.891083
_cell_length_b 7.872590
_cell_length_c 16.125873
_cell_angle_alpha 90.000000
_cell_angle_beta 90.000000
_cell_angle_gamma 90.000000
_cell_volume 2652.172844
_symmetry_space_group_name_H-M "P M M M"
_symmetry_group_IT_number 47
_symmetry_cell_setting 'orthorhombic'
loop_
_space_group_symop_operation_xyz
x,y,z
-x,-y,z
x,-y,-z
-x,y,-z
-x,-y,-z
x,y,-z
-x,y,z
x,-y,z
loop_
_atom_site_type_symbol
_atom_site_label
_atom_site_fract_x
_atom_site_fract_y
_atom_site_fract_z
Si Si1 0.384524 0.799931 0.910370
Si Si2 0.930924 0.792442 0.272327
Si Si3 0.571221 0.795124 0.267965
Si Si4 0.242786 0.696804 0.872660
Si Si5 0.898994 0.199785 0.088776
Si Si6 0.208901 0.201352 0.691351
Si Si7 0.673034 0.702493 0.591507
O O1 0.412308 0.728543 0.824429
O O2 0.307878 0.781422 0.902727
O O3 0.400672 0.000000 0.911709
O O4 0.404673 0.727553 0.000000
O O5 0.924855 0.733219 0.176272
O O6 0.864948 0.741749 0.316863
O O7 0.000000 0.737340 0.305695
O O8 0.930986 0.000000 0.271693
O O9 0.500000 0.738290 0.291936
O O10 0.623619 0.751048 0.336471
O O11 0.571310 0.000000 0.262511
O O12 0.243242 0.500000 0.896798
O O13 0.177747 0.780789 0.905205
O O14 0.238230 0.711609 0.773035
O O15 0.915045 0.000000 0.088000
O O16 0.920018 0.273010 0.000000
O O17 0.256410 0.234524 0.616306
O O18 0.208450 0.000000 0.709167
O O19 0.654428 0.766267 0.500000
O O20 0.675131 0.500000 0.589273
#
# Coordination Sequence:
#
# PCOD9383933 Si02
#       7
#     8   8   8   8   8   8   8
#     4  10  20  34  54  80 113 153 195 237 280 329
#     4   8  15  28  48  76 107 140 181 231 286 339
#     4  10  22  40  62  88 119 156 195 235 281 334
#     4  11  20  30  48  74 106 145 189 236 286 334
#     4   9  17  28  43  66  99 140 187 237 286 335
#     4  10  19  34  58  84 111 144 184 231 283 336
#     4  11  24  41  63  91 119 149 186 230 285 345
#
# _framework density 21.114763
#
# number of rings (size 3 to 8) (size 9 to 14) (size 15 to 20)
#    0.000    2.143    1.429    3.429    0.000    4.571 
#    0.000    4.286    0.000   11.143    0.000    9.000 
#    0.000    0.000    0.000    0.000    0.000    0.000 
#
# Total GULP energy -312542.467053 kJ/mol
# GULP energy per Si atom -5581.115483 kJ/mol
# Density = 2.106670 g / cm^3
# Si number density = 21.114763 Si / 1000 Ang^3
#
#
#
# Elastic Constant Matrix: (Units=GPa)
#
#
# Indices 1 2 3 4 5 6 
#
# 1 130.9205 2.7165 59.9469 0.0000 0.0000 0.0000
# 2 2.7165 36.6272 9.2881 0.0000 0.0000 0.0000
# 3 59.9469 9.2881 117.4874 0.0000 0.0000 0.0000
# 4 0.0000 0.0000 0.0000 33.1623 0.0000 0.0000
# 5 0.0000 0.0000 0.0000 0.0000 -4.2740 0.0000
# 6 0.0000 0.0000 0.0000 0.0000 0.0000 -42.6918
#
#
#
# Elastic Compliance Matrix: (Units=1/GPa)
#
#
# Indices 1 2 3 4 5 6 
#
# 1 0.009978 0.000562 -0.005136 0.000000 0.000000 0.000000
# 2 0.000562 0.027892 -0.002492 0.000000 0.000000 0.000000
# 3 -0.005136 -0.002492 0.011329 0.000000 0.000000 0.000000
# 4 0.000000 0.000000 0.000000 0.030155 0.000000 0.000000
# 5 0.000000 0.000000 0.000000 0.000000 -0.233975 0.000000
# 6 0.000000 0.000000 0.000000 0.000000 0.000000 -0.023424
#
#
# Mechanical properties :
#
#
# Convention : Reuss Voigt Hill
#
# Bulk Modulus (GPa) = 28.51544 47.65980 38.08762
# Shear Modulus (GPa) = -32.84639 11.44488 -10.70075
#
# Velocity S-wave (km/s) = -3.94840 2.33068 -2.25364
# Velocity P-wave (km/s) = 2.69300 5.46476 3.36239
#
# Compressibility (1/GPa) = 0.03506873
#
# Stress axis : x y z
#
# Youngs Moduli (GPa) = 100.21917 35.85210 88.26903
#
# Poissons Ratio (x) = -0.02016 0.45332
# Poissons Ratio (y) = -0.05635 0.21996
# Poissons Ratio (z) = 0.51470 0.08934
#
# Static dielectric constant tensor:
#      x y z
#    x 1.765230 0.000000 0.000000 
#    y 0.000000 1.767090 0.000000 
#    z 0.000000 0.000000 1.782570 
# 
# From -- ./inp_files/7213.got.cif
#   From: 2010.05.17/outbox.cif.g08.bks.cpg/sg47_4_cif.got.tgz:7213.got - 2010.06.03 20:15:42.
