data_PCOD9383531
_publ_section_title
;
Structure prediction by ZEFSAII (Michael W. Deem and Ramdas Pophale) SiO2 
 PCOD9383531
Probable space group: P M M M
;
_chemical_formula_sum "Si O2"
_cell_formula_units_Z 44
_cell_length_a 31.432307
_cell_length_b 9.441682
_cell_length_c 7.986550
_cell_angle_alpha 90.000000
_cell_angle_beta 90.000000
_cell_angle_gamma 90.000000
_cell_volume 2370.199170
_symmetry_space_group_name_H-M "P M M M"
_symmetry_group_IT_number 47
_symmetry_cell_setting 'orthorhombic'
loop_
_space_group_symop_operation_xyz
x,y,z
-x,-y,z
x,-y,-z
-x,y,-z
-x,-y,-z
x,y,-z
-x,y,z
x,-y,z
loop_
_atom_site_type_symbol
_atom_site_label
_atom_site_fract_x
_atom_site_fract_y
_atom_site_fract_z
Si Si1 0.047003 0.664526 0.704351
Si Si2 0.606644 0.669513 0.812342
Si Si3 0.548685 0.327564 0.500000
Si Si4 0.780086 0.836469 0.800338
Si Si5 0.688297 0.165398 0.301728
Si Si6 0.871473 0.837486 0.298109
O O1 0.047382 0.668940 0.500000
O O2 0.050931 0.500000 0.752136
O O3 0.087446 0.752813 0.763602
O O4 0.000000 0.715873 0.757095
O O5 0.612754 0.500000 0.795639
O O6 0.574488 0.715599 0.665958
O O7 0.651524 0.746898 0.787074
O O8 0.590355 0.697259 0.000000
O O9 0.547723 0.500000 0.500000
O O10 0.500000 0.278093 0.500000
O O11 0.735814 0.776832 0.732223
O O12 0.825617 0.773640 0.750201
O O13 0.781483 0.000000 0.736824
O O14 0.777375 0.838173 0.000000
O O15 0.680451 0.169458 0.500000
O O16 0.687339 0.000000 0.246806
O O17 0.873122 0.840481 0.500000
O O18 0.873233 0.000000 0.236569
#
# Coordination Sequence:
#
# PCOD9383531 Si02
#       6
#     8   8   4   8   8   8
#     4   8  14  25  41  61  85 112 142 179 227 283
#     4  10  20  34  54  80 109 140 175 218 266 312
#     4   9  18  34  55  79 109 143 179 221 266 311
#     4   9  17  29  45  66  93 125 159 195 237 288
#     4  10  19  32  53  78 103 135 174 212 254 308
#     4   9  16  26  42  64  87 110 143 189 233 273
#
# _framework density 18.563839000000002
#
# number of rings (size 3 to 8) (size 9 to 14) (size 15 to 20)
#    0.000    2.818    0.909    1.636    0.000    4.000 
#    0.000    4.545    0.000    5.455    0.000    5.091 
#    0.000    0.000    0.000    0.000    0.000    0.000 
#
# Total GULP energy -245184.798760 kJ/mol
# GULP energy per Si atom -5572.381790 kJ/mol
# Density = 1.852159 g / cm^3
# Si number density = 18.563839 Si / 1000 Ang^3
#
#
#
# Elastic Constant Matrix: (Units=GPa)
#
#
# Indices 1 2 3 4 5 6 
#
# 1 175.6435 41.8872 51.5393 0.0000 0.0000 0.0000
# 2 41.8872 21.7442 21.1310 0.0000 0.0000 0.0000
# 3 51.5393 21.1310 68.4746 0.0000 0.0000 0.0000
# 4 0.0000 0.0000 0.0000 11.2002 0.0000 0.0000
# 5 0.0000 0.0000 0.0000 0.0000 -4.5044 0.0000
# 6 0.0000 0.0000 0.0000 0.0000 0.0000 28.3561
#
#
#
# Elastic Compliance Matrix: (Units=1/GPa)
#
#
# Indices 1 2 3 4 5 6 
#
# 1 0.010810 -0.018450 -0.002443 0.000000 0.000000 0.000000
# 2 -0.018450 0.097179 -0.016102 0.000000 0.000000 0.000000
# 3 -0.002443 -0.016102 0.021412 0.000000 0.000000 0.000000
# 4 0.000000 0.000000 0.000000 0.089284 0.000000 0.000000
# 5 0.000000 0.000000 0.000000 0.000000 -0.222004 0.000000
# 6 0.000000 0.000000 0.000000 0.000000 0.000000 0.035266
#
#
# Mechanical properties :
#
#
# Convention : Reuss Voigt Hill
#
# Bulk Modulus (GPa) = 18.04708 54.99748 36.52228
# Shear Modulus (GPa) = 40.19051 17.09736 28.64393
#
# Velocity S-wave (km/s) = 4.65799 3.03810 3.93236
# Velocity P-wave (km/s) = 6.21868 6.48052 6.35095
#
# Compressibility (1/GPa) = 0.05541061
#
# Stress axis : x y z
#
# Youngs Moduli (GPa) = 92.50542 10.29026 46.70343
#
# Poissons Ratio (x) = 0.18986 0.11409
# Poissons Ratio (y) = 1.70676 0.75202
# Poissons Ratio (z) = 0.22598 0.16569
#
# Static dielectric constant tensor:
#      x y z
#    x 1.649670 0.000000 0.000000 
#    y 0.000000 1.632580 0.000000 
#    z 0.000000 0.000000 1.661070 
# 
# From -- ./inp_files/2278.got.cif
#   From: 2010.05.17/outbox.cif.g08.bks.cpg/sg47_2_cif.got.tgz:2278.got - 2010.06.03 20:15:42.
