data_PCOD9383443
_publ_section_title
;
Structure prediction by ZEFSAII (Michael W. Deem and Ramdas Pophale) SiO2 
 PCOD9383443
Probable space group: P M M M
;
_chemical_formula_sum "Si O2"
_cell_formula_units_Z 64
_cell_length_a 32.118756
_cell_length_b 14.513308
_cell_length_c 9.176681
_cell_angle_alpha 90.000000
_cell_angle_beta 90.000000
_cell_angle_gamma 90.000000
_cell_volume 4277.704328
_symmetry_space_group_name_H-M "P M M M"
_symmetry_group_IT_number 47
_symmetry_cell_setting 'orthorhombic'
loop_
_space_group_symop_operation_xyz
x,y,z
-x,-y,z
x,-y,-z
-x,y,-z
-x,-y,-z
x,y,-z
-x,y,z
x,-y,z
loop_
_atom_site_type_symbol
_atom_site_label
_atom_site_fract_x
_atom_site_fract_y
_atom_site_fract_z
Si Si1 0.700741 0.796001 0.674394
Si Si2 0.663230 0.396576 0.671430
Si Si3 0.213684 0.108355 0.325383
Si Si4 0.453186 0.214607 0.672995
Si Si5 0.425340 0.394557 0.173518
Si Si6 0.871000 0.887787 0.832231
Si Si7 0.622118 0.889970 0.828016
Si Si8 0.045999 0.111912 0.329486
O O1 0.696535 0.812031 0.500000
O O2 0.694335 0.687190 0.700541
O O3 0.745609 0.834696 0.719231
O O4 0.663492 0.848050 0.755751
O O5 0.650758 0.389482 0.500000
O O6 0.680006 0.500000 0.693692
O O7 0.622237 0.386134 0.769984
O O8 0.209071 0.115047 0.500000
O O9 0.170930 0.139882 0.251131
O O10 0.220343 0.000000 0.290258
O O11 0.445292 0.218428 0.500000
O O12 0.500000 0.178494 0.696621
O O13 0.450095 0.316693 0.740743
O O14 0.417895 0.154422 0.750463
O O15 0.438719 0.500000 0.203264
O O16 0.427539 0.379447 0.000000
O O17 0.913820 0.855373 0.758209
O O18 0.871715 0.000000 0.826470
O O19 0.869315 0.860218 0.000000
O O20 0.621947 0.000000 0.810334
O O21 0.621215 0.868238 0.000000
O O22 0.050042 0.135598 0.500000
O O23 0.000000 0.142005 0.277750
O O24 0.046063 0.000000 0.321911
#
# Coordination Sequence:
#
# PCOD9383443 Si02
#       8
#     8   8   8   8   8   8   8   8
#     4  10  19  32  52  74  94 120 152 184 220 264
#     4   9  17  30  50  75 100 123 147 177 215 261
#     4   9  17  28  41  58  82 114 151 187 221 259
#     4  11  24  40  57  76  97 123 154 185 218 260
#     4  10  20  34  54  79 104 127 149 176 215 262
#     4   9  16  24  34  50  74 104 139 182 229 269
#     4  11  24  39  55  75  97 121 149 185 228 268
#     4   8  13  21  33  48  67  96 136 180 224 268
#
# _framework density 14.961296000000001
#
# number of rings (size 3 to 8) (size 9 to 14) (size 15 to 20)
#    0.000    2.375    1.250    2.250    0.000    6.000 
#    0.000    5.000    0.000    0.000    0.000    0.000 
#    0.000    0.000    0.000    0.000    0.000    0.625 
#
# Total GULP energy -356788.602452 kJ/mol
# GULP energy per Si atom -5574.821913 kJ/mol
# Density = 1.492724 g / cm^3
# Si number density = 14.961296 Si / 1000 Ang^3
#
#
#
# Elastic Constant Matrix: (Units=GPa)
#
#
# Indices 1 2 3 4 5 6 
#
# 1 143.4819 49.9695 64.0949 0.0000 0.0000 0.0000
# 2 49.9695 52.6691 35.5899 0.0000 0.0000 0.0000
# 3 64.0949 35.5899 61.2055 0.0000 0.0000 0.0000
# 4 0.0000 0.0000 0.0000 16.6959 0.0000 0.0000
# 5 0.0000 0.0000 0.0000 0.0000 -18.4552 0.0000
# 6 0.0000 0.0000 0.0000 0.0000 0.0000 2.7760
#
#
#
# Elastic Compliance Matrix: (Units=1/GPa)
#
#
# Indices 1 2 3 4 5 6 
#
# 1 0.014022 -0.005569 -0.011445 0.000000 0.000000 0.000000
# 2 -0.005569 0.033487 -0.013640 0.000000 0.000000 0.000000
# 3 -0.011445 -0.013640 0.036256 0.000000 0.000000 0.000000
# 4 0.000000 0.000000 0.000000 0.059895 0.000000 0.000000
# 5 0.000000 0.000000 0.000000 0.000000 -0.054185 0.000000
# 6 0.000000 0.000000 0.000000 0.000000 0.000000 0.360232
#
#
# Mechanical properties :
#
#
# Convention : Reuss Voigt Hill
#
# Bulk Modulus (GPa) = 44.53307 61.85170 53.19238
# Shear Modulus (GPa) = 9.64318 7.38348 8.51333
#
# Velocity S-wave (km/s) = 2.54154 2.22391 2.38801
# Velocity P-wave (km/s) = 6.20022 6.93002 6.57525
#
# Compressibility (1/GPa) = 0.02245522
#
# Stress axis : x y z
#
# Youngs Moduli (GPa) = 71.31722 29.86222 27.58194
#
# Poissons Ratio (x) = 0.16631 0.31569
# Poissons Ratio (y) = 0.39718 0.37622
# Poissons Ratio (z) = 0.81626 0.40732
#
# Static dielectric constant tensor:
#      x y z
#    x 1.490660 0.000000 0.000000 
#    y 0.000000 1.489150 0.000000 
#    z 0.000000 0.000000 1.498710 
# 
# From -- ./inp_files/14310.got.cif
#   From: 2010.05.17/outbox.cif.g08.bks.cpg/sg47_8_cif.got.tgz:14310.got - 2010.06.03 20:15:42.
