data_PCOD9384079
_publ_section_title
;
Structure prediction by ZEFSAII (Michael W. Deem and Ramdas Pophale) SiO2 
 PCOD9384079
Probable space group: P M M M
;
_chemical_formula_sum "Si O2"
_cell_formula_units_Z 40
_cell_length_a 18.822607
_cell_length_b 8.301264
_cell_length_c 18.863632
_cell_angle_alpha 90.000000
_cell_angle_beta 90.000000
_cell_angle_gamma 90.000000
_cell_volume 2947.469473
_symmetry_space_group_name_H-M "P M M M"
_symmetry_group_IT_number 47
_symmetry_cell_setting 'orthorhombic'
loop_
_space_group_symop_operation_xyz
x,y,z
-x,-y,z
x,-y,-z
-x,y,-z
-x,-y,-z
x,y,-z
-x,y,z
x,-y,z
loop_
_atom_site_type_symbol
_atom_site_label
_atom_site_fract_x
_atom_site_fract_y
_atom_site_fract_z
Si Si1 0.918634 0.500000 0.585919
Si Si2 0.175797 0.189438 0.585727
Si Si3 0.581854 0.691466 0.229047
Si Si4 0.579789 0.691509 0.500000
Si Si5 0.415445 0.806921 0.923247
Si Si6 0.333431 0.809004 0.364616
O O1 0.919689 0.500000 0.500000
O O2 0.878901 0.667550 0.605498
O O3 0.000000 0.500000 0.611092
O O4 0.185812 0.196228 0.500000
O O5 0.250712 0.229891 0.622823
O O6 0.156726 0.000000 0.601449
O O7 0.500000 0.754803 0.236588
O O8 0.577946 0.500000 0.233999
O O9 0.610319 0.736687 0.150952
O O10 0.632067 0.752506 0.291388
O O11 0.574911 0.500000 0.500000
O O12 0.500000 0.760125 0.500000
O O13 0.621753 0.741115 0.569966
O O14 0.500000 0.771406 0.924121
O O15 0.407702 0.000000 0.920827
O O16 0.386760 0.750467 0.000000
O O17 0.338660 0.000000 0.367931
#
# Coordination Sequence:
#
# PCOD9384079 Si02
#       6
#     4   8   8   4   8   8
#     4   9  18  30  48  70  86 108 133 164 215 257
#     4   9  18  31  46  65  85 109 142 175 211 259
#     4  10  20  30  40  58  82 107 140 184 225 257
#     4  11  23  33  43  59  77 104 143 188 230 260
#     4   8  14  26  43  59  75  99 132 171 217 264
#     4  11  21  32  45  59  78 110 146 179 218 257
#
# _framework density 13.570963000000001
#
# number of rings (size 3 to 8) (size 9 to 14) (size 15 to 20)
#    0.000    2.400    1.000    2.700    2.800    5.200 
#    0.000    4.000    0.000    0.000    0.000    0.000 
#    0.000    0.000    0.000    0.000    0.000    2.000 
#
# Total GULP energy -222734.230205 kJ/mol
# GULP energy per Si atom -5568.355755 kJ/mol
# Density = 1.354008 g / cm^3
# Si number density = 13.570963 Si / 1000 Ang^3
#
#
#
# Elastic Constant Matrix: (Units=GPa)
#
#
# Indices 1 2 3 4 5 6 
#
# 1 83.6220 54.6512 48.5478 0.0000 0.0000 0.0000
# 2 54.6512 54.6581 35.0277 0.0000 0.0000 0.0000
# 3 48.5478 35.0277 83.2247 0.0000 0.0000 0.0000
# 4 0.0000 0.0000 0.0000 30.5807 0.0000 0.0000
# 5 0.0000 0.0000 0.0000 0.0000 -1.7784 0.0000
# 6 0.0000 0.0000 0.0000 0.0000 0.0000 11.5340
#
#
#
# Elastic Compliance Matrix: (Units=1/GPa)
#
#
# Indices 1 2 3 4 5 6 
#
# 1 0.038509 -0.033012 -0.008569 0.000000 0.000000 0.000000
# 2 -0.033012 0.053353 -0.003198 0.000000 0.000000 0.000000
# 3 -0.008569 -0.003198 0.018360 0.000000 0.000000 0.000000
# 4 0.000000 0.000000 0.000000 0.032700 0.000000 0.000000
# 5 0.000000 0.000000 0.000000 0.000000 -0.562312 0.000000
# 6 0.000000 0.000000 0.000000 0.000000 0.000000 0.086700
#
#
# Mechanical properties :
#
#
# Convention : Reuss Voigt Hill
#
# Bulk Modulus (GPa) = 48.39555 55.32869 51.86212
# Shear Modulus (GPa) = -21.16473 13.61915 -3.77279
#
# Velocity S-wave (km/s) = -3.95341 3.17132 -1.66916
# Velocity P-wave (km/s) = 3.85995 7.36669 5.88079
#
# Compressibility (1/GPa) = 0.02066306
#
# Stress axis : x y z
#
# Youngs Moduli (GPa) = 25.96813 18.74301 54.46500
#
# Poissons Ratio (x) = 0.61875 0.46672
# Poissons Ratio (y) = 0.85727 0.17419
# Poissons Ratio (z) = 0.22253 0.05994
#
# Static dielectric constant tensor:
#      x y z
#    x 1.440210 0.000000 0.000000 
#    y 0.000000 1.467220 0.000000 
#    z 0.000000 0.000000 1.427490 
# 
# From -- ./inp_files/9372.got.cif
#   From: 2010.05.17/outbox.cif.g08.bks.cpg/sg47_5_cif.got.tgz:9372.got - 2010.06.03 20:15:42.
