data_PCOD9384949
_publ_section_title
;
Structure prediction by ZEFSAII (Michael W. Deem and Ramdas Pophale) SiO2 
 PCOD9384949
Probable space group: P M M M
;
_chemical_formula_sum "Si O2"
_cell_formula_units_Z 40
_cell_length_a 7.523339
_cell_length_b 29.513371
_cell_length_c 8.150021
_cell_angle_alpha 90.000000
_cell_angle_beta 90.000000
_cell_angle_gamma 90.000000
_cell_volume 1809.623288
_symmetry_space_group_name_H-M "P M M M"
_symmetry_group_IT_number 47
_symmetry_cell_setting 'orthorhombic'
loop_
_space_group_symop_operation_xyz
x,y,z
-x,-y,z
x,-y,-z
-x,y,-z
-x,-y,-z
x,y,-z
-x,y,z
x,-y,z
loop_
_atom_site_type_symbol
_atom_site_label
_atom_site_fract_x
_atom_site_fract_y
_atom_site_fract_z
Si Si1 0.795358 0.212502 0.700139
Si Si2 0.301344 0.406249 0.806607
Si Si3 0.788838 0.691543 0.315304
Si Si4 0.782996 0.052143 0.000000
Si Si5 0.217936 0.887867 0.689690
Si Si6 0.296037 0.500000 0.306418
O O1 0.796876 0.215351 0.500000
O O2 0.717392 0.260856 0.756644
O O3 0.718622 0.163046 0.735354
O O4 0.000000 0.210310 0.758434
O O5 0.500000 0.406192 0.733015
O O6 0.231753 0.356183 0.772503
O O7 0.211152 0.452112 0.742929
O O8 0.309599 0.411600 0.000000
O O9 0.718126 0.685882 0.500000
O O10 0.000000 0.699135 0.326449
O O11 0.727706 0.077799 0.167099
O O12 0.000000 0.052782 0.000000
O O13 0.726198 0.000000 0.000000
O O14 0.270750 0.898003 0.500000
O O15 0.000000 0.886905 0.687415
O O16 0.500000 0.500000 0.234740
O O17 0.308403 0.500000 0.500000
#
# Coordination Sequence:
#
# PCOD9384949 Si02
#       6
#     8   8   8   4   8   4
#     4   7  11  22  39  56  75 101 133 171 215 259
#     4  10  20  33  48  68  95 122 147 179 221 269
#     4   9  17  30  48  69  92 116 147 190 231 266
#     4   9  16  22  28  44  68  94 133 180 217 254
#     4   8  13  22  34  46  65  96 132 171 216 261
#     4   9  17  31  52  71  84 109 152 190 218 259
#
# _framework density 22.104047999999999
#
# number of rings (size 3 to 8) (size 9 to 14) (size 15 to 20)
#    0.000    3.400    0.000    3.300    0.000    3.200 
#    1.800    2.500    0.000    3.000    0.000    0.000 
#    0.000    0.000    0.000    0.000    0.000    2.000 
#
# Total GULP energy -222690.315663 kJ/mol
# GULP energy per Si atom -5567.257892 kJ/mol
# Density = 2.205374 g / cm^3
# Si number density = 22.104048 Si / 1000 Ang^3
#
#
#
# Elastic Constant Matrix: (Units=GPa)
#
#
# Indices 1 2 3 4 5 6 
#
# 1 52.3339 12.6215 1.9349 0.0000 0.0000 0.0000
# 2 12.6215 260.2012 97.9553 0.0000 0.0000 0.0000
# 3 1.9349 97.9553 93.2468 0.0000 0.0000 0.0000
# 4 0.0000 0.0000 0.0000 64.9459 0.0000 0.0000
# 5 0.0000 0.0000 0.0000 0.0000 10.4938 0.0000
# 6 0.0000 0.0000 0.0000 0.0000 0.0000 -1.3154
#
#
#
# Elastic Compliance Matrix: (Units=1/GPa)
#
#
# Indices 1 2 3 4 5 6 
#
# 1 0.019387 -0.001305 0.000969 0.000000 0.000000 0.000000
# 2 -0.001305 0.006445 -0.006744 0.000000 0.000000 0.000000
# 3 0.000969 -0.006744 0.017788 0.000000 0.000000 0.000000
# 4 0.000000 0.000000 0.000000 0.015397 0.000000 0.000000
# 5 0.000000 0.000000 0.000000 0.000000 0.095295 0.000000
# 6 0.000000 0.000000 0.000000 0.000000 0.000000 -0.760199
#
#
# Mechanical properties :
#
#
# Convention : Reuss Voigt Hill
#
# Bulk Modulus (GPa) = 33.94372 70.08947 52.01660
# Shear Modulus (GPa) = -8.59244 34.37618 12.89187
#
# Velocity S-wave (km/s) = -1.97376 3.94788 2.41765
# Velocity P-wave (km/s) = 3.19302 7.24974 5.60152
#
# Compressibility (1/GPa) = 0.02946053
#
# Stress axis : x y z
#
# Youngs Moduli (GPa) = 51.58090 155.15532 56.21710
#
# Poissons Ratio (x) = 0.20249 -0.05446
# Poissons Ratio (y) = 0.06732 0.37910
# Poissons Ratio (z) = -0.04997 1.04629
#
# Static dielectric constant tensor:
#      x y z
#    x 1.964960 0.000000 0.000000 
#    y 0.000000 1.876490 0.000000 
#    z 0.000000 0.000000 1.763960 
# 
# From -- ./inp_files/1890.got.cif
#   From: 2010.05.17/outbox.cif.g08.bks.cpg/sg47_1_cif.got.tgz:1890.got - 2010.06.03 20:15:42.
