data_PCOD9384850
_publ_section_title
;
Structure prediction by ZEFSAII (Michael W. Deem and Ramdas Pophale) SiO2 
 PCOD9384850
Probable space group: P M M M
;
_chemical_formula_sum "Si O2"
_cell_formula_units_Z 52
_cell_length_a 13.231916
_cell_length_b 7.742084
_cell_length_c 28.535131
_cell_angle_alpha 90.000000
_cell_angle_beta 90.000000
_cell_angle_gamma 90.000000
_cell_volume 2923.213158
_symmetry_space_group_name_H-M "P M M M"
_symmetry_group_IT_number 47
_symmetry_cell_setting 'orthorhombic'
loop_
_space_group_symop_operation_xyz
x,y,z
-x,-y,z
x,-y,-z
-x,y,-z
-x,-y,-z
x,y,-z
-x,y,z
x,-y,z
loop_
_atom_site_type_symbol
_atom_site_label
_atom_site_fract_x
_atom_site_fract_y
_atom_site_fract_z
Si Si1 0.115534 0.708067 0.052530
Si Si2 0.384949 0.289854 0.317568
Si Si3 0.000000 0.203601 0.800847
Si Si4 0.121659 0.000000 0.554979
Si Si5 0.200077 0.203368 0.850215
Si Si6 0.000000 0.293787 0.307032
Si Si7 0.387877 0.705992 0.211805
Si Si8 0.812574 0.290759 0.374943
O O1 0.113197 0.500000 0.051724
O O2 0.186800 0.761314 0.094862
O O3 0.000000 0.767825 0.062143
O O4 0.143256 0.766792 0.000000
O O5 0.500000 0.235037 0.329037
O O6 0.385220 0.500000 0.317350
O O7 0.361514 0.230513 0.264329
O O8 0.295709 0.242080 0.352736
O O9 0.101731 0.279768 0.823652
O O10 0.000000 0.219593 0.745008
O O11 0.000000 0.000000 0.812419
O O12 0.163861 0.171145 0.580645
O O13 0.145832 0.000000 0.500000
O O14 0.000000 0.000000 0.560169
O O15 0.302800 0.261889 0.826234
O O16 0.197922 0.000000 0.843162
O O17 0.900304 0.249836 0.336896
O O18 0.000000 0.500000 0.301398
O O19 0.500000 0.772314 0.199576
O O20 0.395172 0.500000 0.216216
O O21 0.815821 0.500000 0.383640
#
# Coordination Sequence:
#
# PCOD9384850 Si02
#       8
#     8   8   4   4   8   4   8   8
#     4   9  18  33  53  74  95 126 173 223 267 316
#     4   8  15  31  56  82 108 141 180 219 264 320
#     4  10  22  32  43  71 111 146 169 199 253 318
#     4  11  24  40  59  83 111 149 190 227 277 328
#     4  11  21  33  47  72 108 140 171 209 261 321
#     4  10  20  32  50  76 103 139 179 216 262 314
#     4   9  18  34  54  75 102 139 181 219 256 307
#     4  10  20  36  57  83 112 141 182 230 274 323
#
# _framework density 17.788646
#
# number of rings (size 3 to 8) (size 9 to 14) (size 15 to 20)
#    0.000    2.385    1.538    2.769    1.077    3.385 
#    1.385    1.923    0.000    1.385    0.000    5.385 
#    0.000    0.000    0.000    0.000    0.000    0.000 
#
# Total GULP energy -289974.950234 kJ/mol
# GULP energy per Si atom -5576.441351 kJ/mol
# Density = 1.774816 g / cm^3
# Si number density = 17.788646 Si / 1000 Ang^3
#
#
#
# Elastic Constant Matrix: (Units=GPa)
#
#
# Indices 1 2 3 4 5 6 
#
# 1 132.8231 24.5152 91.0154 0.0000 0.0000 0.0000
# 2 24.5152 36.9160 23.1870 0.0000 0.0000 0.0000
# 3 91.0154 23.1870 128.9861 0.0000 0.0000 0.0000
# 4 0.0000 0.0000 0.0000 19.5109 0.0000 0.0000
# 5 0.0000 0.0000 0.0000 0.0000 23.8299 0.0000
# 6 0.0000 0.0000 0.0000 0.0000 0.0000 5.7654
#
#
#
# Elastic Compliance Matrix: (Units=1/GPa)
#
#
# Indices 1 2 3 4 5 6 
#
# 1 0.015022 -0.003740 -0.009927 0.000000 0.000000 0.000000
# 2 -0.003740 0.031468 -0.003018 0.000000 0.000000 0.000000
# 3 -0.009927 -0.003018 0.015300 0.000000 0.000000 0.000000
# 4 0.000000 0.000000 0.000000 0.051253 0.000000 0.000000
# 5 0.000000 0.000000 0.000000 0.000000 0.041964 0.000000
# 6 0.000000 0.000000 0.000000 0.000000 0.000000 0.173447
#
#
# Mechanical properties :
#
#
# Convention : Reuss Voigt Hill
#
# Bulk Modulus (GPa) = 35.18727 64.01783 49.60255
# Shear Modulus (GPa) = 13.46628 20.48842 16.97735
#
# Velocity S-wave (km/s) = 2.75438 3.39745 3.09268
# Velocity P-wave (km/s) = 5.47167 7.17331 6.37948
#
# Compressibility (1/GPa) = 0.02841937
#
# Stress axis : x y z
#
# Youngs Moduli (GPa) = 66.57040 31.77859 65.35906
#
# Poissons Ratio (x) = 0.11886 0.64884
# Poissons Ratio (y) = 0.24899 0.19722
# Poissons Ratio (z) = 0.66086 0.09589
#
# Static dielectric constant tensor:
#      x y z
#    x 1.643860 0.000000 0.000000 
#    y 0.000000 1.643640 0.000000 
#    z 0.000000 0.000000 1.595700 
# 
# From -- ./inp_files/33645.got.cif
#   From: 2010.05.17/outbox.cif.g08.bks.cpg/sg47_17_cif.got.tgz:33645.got - 2010.06.03 20:15:42.
