data_PCOD9384565
_publ_section_title
;
Structure prediction by ZEFSAII (Michael W. Deem and Ramdas Pophale) SiO2 
 PCOD9384565
Probable space group: P M M M
;
_chemical_formula_sum "Si O2"
_cell_formula_units_Z 56
_cell_length_a 8.052510
_cell_length_b 15.187291
_cell_length_c 23.902028
_cell_angle_alpha 90.000000
_cell_angle_beta 90.000000
_cell_angle_gamma 90.000000
_cell_volume 2923.117938
_symmetry_space_group_name_H-M "P M M M"
_symmetry_group_IT_number 47
_symmetry_cell_setting 'orthorhombic'
loop_
_space_group_symop_operation_xyz
x,y,z
-x,-y,z
x,-y,-z
-x,y,-z
-x,-y,-z
x,y,-z
-x,y,z
x,-y,z
loop_
_atom_site_type_symbol
_atom_site_label
_atom_site_fract_x
_atom_site_fract_y
_atom_site_fract_z
Si Si1 0.303449 0.597627 0.107356
Si Si2 0.702679 0.600456 0.563818
Si Si3 0.700579 0.898768 0.164285
Si Si4 0.296302 0.779151 0.061631
Si Si5 0.802758 0.900123 0.710090
Si Si6 0.302547 0.720377 0.664794
Si Si7 0.196772 0.399918 0.232561
O O1 0.500000 0.592581 0.095956
O O2 0.231617 0.500000 0.097591
O O3 0.238372 0.679220 0.071947
O O4 0.281330 0.619165 0.173074
O O5 0.755637 0.618572 0.500000
O O6 0.500000 0.601691 0.563727
O O7 0.752006 0.500000 0.578394
O O8 0.761646 0.670476 0.609495
O O9 0.500000 0.895268 0.165337
O O10 0.759881 0.838204 0.113610
O O11 0.760811 0.873525 0.226001
O O12 0.751006 0.000000 0.154909
O O13 0.500000 0.779409 0.063039
O O14 0.246851 0.810510 0.000000
O O15 0.739077 0.823148 0.670147
O O16 0.000000 0.903692 0.704746
O O17 0.736373 0.000000 0.701339
O O18 0.500000 0.711611 0.665124
O O19 0.238081 0.668473 0.719127
O O20 0.246203 0.500000 0.249255
O O21 0.000000 0.399148 0.222897
#
# Coordination Sequence:
#
# PCOD9384565 Si02
#       7
#     8   8   8   8   8   8   8
#     4   9  17  29  45  64  87 118 157 199 240 283
#     4   8  15  29  49  75 107 139 169 201 238 281
#     4   9  17  30  49  71  93 118 151 193 241 292
#     4   9  17  28  43  65  90 115 148 192 240 288
#     4  10  21  36  53  73  99 131 165 203 249 299
#     4  11  20  30  51  79 104 131 165 206 248 290
#     4  10  20  32  47  70 101 133 163 199 245 296
#
# _framework density 19.157626
#
# number of rings (size 3 to 8) (size 9 to 14) (size 15 to 20)
#    0.000    2.571    0.000    3.000    0.000    4.000 
#    0.000    2.857    0.000    3.857    0.000   12.000 
#    0.000    0.000    0.000    0.000    0.000    0.000 
#
# Total GULP energy -312429.123248 kJ/mol
# GULP energy per Si atom -5579.091487 kJ/mol
# Density = 1.911402 g / cm^3
# Si number density = 19.157626 Si / 1000 Ang^3
#
#
#
# Elastic Constant Matrix: (Units=GPa)
#
#
# Indices 1 2 3 4 5 6 
#
# 1 11.7802 0.0207 -6.6173 0.0000 0.0000 0.0000
# 2 0.0207 82.2657 48.6865 0.0000 0.0000 0.0000
# 3 -6.6173 48.6865 51.7766 0.0000 0.0000 0.0000
# 4 0.0000 0.0000 0.0000 24.2669 0.0000 0.0000
# 5 0.0000 0.0000 0.0000 0.0000 -46.0185 0.0000
# 6 0.0000 0.0000 0.0000 0.0000 0.0000 16.8214
#
#
#
# Elastic Compliance Matrix: (Units=1/GPa)
#
#
# Indices 1 2 3 4 5 6 
#
# 1 0.101357 -0.017344 0.029262 0.000000 0.000000 0.000000
# 2 -0.017344 0.030376 -0.030780 0.000000 0.000000 0.000000
# 3 0.029262 -0.030780 0.051997 0.000000 0.000000 0.000000
# 4 0.000000 0.000000 0.000000 0.041208 0.000000 0.000000
# 5 0.000000 0.000000 0.000000 0.000000 -0.021730 0.000000
# 6 0.000000 0.000000 0.000000 0.000000 0.000000 0.059448
#
#
# Mechanical properties :
#
#
# Convention : Reuss Voigt Hill
#
# Bulk Modulus (GPa) = 6.84898 25.55580 16.20239
# Shear Modulus (GPa) = 14.32469 5.92945 10.12707
#
# Velocity S-wave (km/s) = 2.73743 1.76119 2.30166
# Velocity P-wave (km/s) = 3.68431 4.18383 3.94199
#
# Compressibility (1/GPa) = 0.14600725
#
# Stress axis : x y z
#
# Youngs Moduli (GPa) = 9.86616 32.92027 19.23194
#
# Poissons Ratio (x) = 0.57095 -0.56277
# Poissons Ratio (y) = 0.17111 0.59196
# Poissons Ratio (z) = -0.28871 1.01329
#
# Static dielectric constant tensor:
#      x y z
#    x 1.678540 0.000000 0.000000 
#    y 0.000000 1.715060 0.000000 
#    z 0.000000 0.000000 1.652800 
# 
# From -- ./inp_files/7304.got.cif
#   From: 2010.05.17/outbox.cif.g08.bks.cpg/sg47_4_cif.got.tgz:7304.got - 2010.06.03 20:15:42.
