data_PCOD9384258
_publ_section_title
;
Structure prediction by ZEFSAII (Michael W. Deem and Ramdas Pophale) SiO2 
 PCOD9384258
Probable space group: P M M M
;
_chemical_formula_sum "Si O2"
_cell_formula_units_Z 48
_cell_length_a 9.912988
_cell_length_b 32.148039
_cell_length_c 7.354129
_cell_angle_alpha 90.000000
_cell_angle_beta 90.000000
_cell_angle_gamma 90.000000
_cell_volume 2343.636810
_symmetry_space_group_name_H-M "P M M M"
_symmetry_group_IT_number 47
_symmetry_cell_setting 'orthorhombic'
loop_
_space_group_symop_operation_xyz
x,y,z
-x,-y,z
x,-y,-z
-x,y,-z
-x,-y,-z
x,y,-z
-x,y,z
x,-y,z
loop_
_atom_site_type_symbol
_atom_site_label
_atom_site_fract_x
_atom_site_fract_y
_atom_site_fract_z
Si Si1 0.651307 0.452692 0.281391
Si Si2 0.345257 0.304569 0.221836
Si Si3 0.161243 0.955274 0.219093
Si Si4 0.345152 0.210493 0.221348
Si Si5 0.848236 0.622748 0.785482
Si Si6 0.843268 0.135568 0.777839
O O1 0.647245 0.453769 0.500000
O O2 0.500000 0.440458 0.219009
O O3 0.677759 0.500000 0.219244
O O4 0.764485 0.419723 0.231997
O O5 0.500000 0.312966 0.277582
O O6 0.308459 0.257508 0.276578
O O7 0.242588 0.339524 0.288097
O O8 0.345604 0.305225 0.000000
O O9 0.209748 0.910005 0.281785
O O10 0.000000 0.955090 0.254124
O O11 0.214547 0.000000 0.286254
O O12 0.176959 0.955685 0.000000
O O13 0.500000 0.202898 0.275588
O O14 0.246237 0.174193 0.283269
O O15 0.342674 0.210199 0.000000
O O16 0.000000 0.620098 0.711320
O O17 0.860296 0.630787 0.000000
O O18 0.000000 0.139938 0.724578
O O19 0.841791 0.135338 0.000000
#
# Coordination Sequence:
#
# PCOD9384258 Si02
#       6
#     8   8   8   8   8   8
#     4   9  19  36  55  72  90 116 151 184 211 245
#     4   8  14  25  39  53  72 101 133 161 193 237
#     4   7   9  13  20  29  41  58  84 121 164 210
#     4   8  13  20  29  41  58  81 108 139 178 224
#     4  10  20  31  45  69  97 120 143 175 216 258
#     4   8  12  16  23  35  48  65  93 129 170 217
#
# _framework density 20.480991
#
# number of rings (size 3 to 8) (size 9 to 14) (size 15 to 20)
#    0.000    3.667    0.000    3.500    0.000    2.667 
#    0.000    5.833    0.000    0.500    0.000    3.500 
#    0.000    0.000    0.000    0.000    0.000    0.000 
#
# Total GULP energy -267502.970104 kJ/mol
# GULP energy per Si atom -5572.978544 kJ/mol
# Density = 2.043438 g / cm^3
# Si number density = 20.480991 Si / 1000 Ang^3
#
#
#
# Elastic Constant Matrix: (Units=GPa)
#
#
# Indices 1 2 3 4 5 6 
#
# 1 129.3606 134.6531 5.0419 0.0000 0.0000 0.0000
# 2 134.6531 206.7895 3.0326 0.0000 0.0000 0.0000
# 3 5.0419 3.0326 73.3338 0.0000 0.0000 0.0000
# 4 0.0000 0.0000 0.0000 115.0016 0.0000 0.0000
# 5 0.0000 0.0000 0.0000 0.0000 -16.9337 0.0000
# 6 0.0000 0.0000 0.0000 0.0000 0.0000 30.8988
#
#
#
# Elastic Compliance Matrix: (Units=1/GPa)
#
#
# Indices 1 2 3 4 5 6 
#
# 1 0.024067 -0.015656 -0.001007 0.000000 0.000000 0.000000
# 2 -0.015656 0.015024 0.000455 0.000000 0.000000 0.000000
# 3 -0.001007 0.000455 0.013687 0.000000 0.000000 0.000000
# 4 0.000000 0.000000 0.000000 0.008696 0.000000 0.000000
# 5 0.000000 0.000000 0.000000 0.000000 -0.059054 0.000000
# 6 0.000000 0.000000 0.000000 0.000000 0.000000 0.032364
#
#
# Mechanical properties :
#
#
# Convention : Reuss Voigt Hill
#
# Bulk Modulus (GPa) = 49.11524 77.21544 63.16534
# Shear Modulus (GPa) = 67.58033 43.57712 55.57873
#
# Velocity S-wave (km/s) = 5.75050 4.61769 5.21494
# Velocity P-wave (km/s) = 8.25372 8.13717 8.19566
#
# Compressibility (1/GPa) = 0.02036028
#
# Stress axis : x y z
#
# Youngs Moduli (GPa) = 41.55152 66.56030 73.06365
#
# Poissons Ratio (x) = 1.04209 0.07359
# Poissons Ratio (y) = 0.65055 -0.03325
# Poissons Ratio (z) = 0.04185 -0.03029
#
# Static dielectric constant tensor:
#      x y z
#    x 1.690670 0.000000 0.000000 
#    y 0.000000 1.740350 0.000000 
#    z 0.000000 0.000000 1.884200 
# 
# From -- ./inp_files/15604.got.cif
#   From: 2010.05.17/outbox.cif.g08.bks.cpg/sg47_8_cif.got.tgz:15604.got - 2010.06.03 20:15:42.
