data_PCOD9384136
_publ_section_title
;
Structure prediction by ZEFSAII (Michael W. Deem and Ramdas Pophale) SiO2 
 PCOD9384136
Probable space group: P M M M
;
_chemical_formula_sum "Si O2"
_cell_formula_units_Z 56
_cell_length_a 8.886790
_cell_length_b 19.225139
_cell_length_c 22.055420
_cell_angle_alpha 90.000000
_cell_angle_beta 90.000000
_cell_angle_gamma 90.000000
_cell_volume 3768.163501
_symmetry_space_group_name_H-M "P M M M"
_symmetry_group_IT_number 47
_symmetry_cell_setting 'orthorhombic'
loop_
_space_group_symop_operation_xyz
x,y,z
-x,-y,z
x,-y,-z
-x,y,-z
-x,-y,-z
x,y,-z
-x,y,z
x,-y,z
loop_
_atom_site_type_symbol
_atom_site_label
_atom_site_fract_x
_atom_site_fract_y
_atom_site_fract_z
Si Si1 0.820734 0.213681 0.431455
Si Si2 0.320915 0.707961 0.681692
Si Si3 0.328536 0.584365 0.500000
Si Si4 0.178702 0.920695 0.359795
Si Si5 0.319941 0.158614 0.753403
Si Si6 0.179509 0.419162 0.628065
Si Si7 0.182557 0.918549 0.133176
Si Si8 0.173492 0.084354 0.000000
O O1 0.775358 0.229570 0.500000
O O2 0.730751 0.254643 0.380420
O O3 0.799010 0.132300 0.415322
O O4 0.000000 0.228555 0.425148
O O5 0.500000 0.700134 0.682611
O O6 0.276339 0.762483 0.734313
O O7 0.244054 0.632887 0.678269
O O8 0.333362 0.500000 0.500000
O O9 0.500000 0.610368 0.500000
O O10 0.244060 0.602665 0.437927
O O11 0.265323 0.890013 0.302017
O O12 0.000000 0.919098 0.345448
O O13 0.221548 0.000000 0.372489
O O14 0.500000 0.155780 0.757614
O O15 0.246736 0.129628 0.814346
O O16 0.221546 0.500000 0.638097
O O17 0.000000 0.414474 0.625852
O O18 0.238085 0.896854 0.065749
O O19 0.000000 0.915928 0.133170
O O20 0.223300 0.000000 0.143591
O O21 0.000000 0.108484 0.000000
O O22 0.169613 0.000000 0.000000
#
# Coordination Sequence:
#
# PCOD9384136 Si02
#       8
#     8   8   4   8   8   8   8   4
#     4   9  18  31  45  60  78 101 130 170 220 264
#     4  10  21  34  46  60  82 112 142 172 208 256
#     4   9  17  29  45  65  87 109 132 157 194 251
#     4   9  17  29  44  60  77 100 135 176 216 261
#     4  10  20  31  42  60  85 113 145 178 213 251
#     4  10  20  33  49  68  87 106 132 170 213 255
#     4   9  16  27  45  66  88 117 151 184 217 253
#     4   7  12  24  41  63  89 115 146 181 214 251
#
# _framework density 14.861351000000001
#
# number of rings (size 3 to 8) (size 9 to 14) (size 15 to 20)
#    0.000    2.714    0.000    2.786    1.000    6.286 
#    0.000    1.786    0.000    1.286    0.000    4.000 
#    0.000    0.000    0.000    0.643    0.000   12.571 
#
# Total GULP energy -312074.985936 kJ/mol
# GULP energy per Si atom -5572.767606 kJ/mol
# Density = 1.482753 g / cm^3
# Si number density = 14.861351 Si / 1000 Ang^3
#
#
#
# Elastic Constant Matrix: (Units=GPa)
#
#
# Indices 1 2 3 4 5 6 
#
# 1 29.4226 26.8874 22.2057 0.0000 0.0000 0.0000
# 2 26.8874 88.8137 34.9412 0.0000 0.0000 0.0000
# 3 22.2057 34.9412 89.7761 0.0000 0.0000 0.0000
# 4 0.0000 0.0000 0.0000 18.1594 0.0000 0.0000
# 5 0.0000 0.0000 0.0000 0.0000 -3.6935 0.0000
# 6 0.0000 0.0000 0.0000 0.0000 0.0000 19.8383
#
#
#
# Elastic Compliance Matrix: (Units=1/GPa)
#
#
# Indices 1 2 3 4 5 6 
#
# 1 0.051270 -0.012437 -0.007841 0.000000 0.000000 0.000000
# 2 -0.012437 0.016312 -0.003273 0.000000 0.000000 0.000000
# 3 -0.007841 -0.003273 0.014352 0.000000 0.000000 0.000000
# 4 0.000000 0.000000 0.000000 0.055068 0.000000 0.000000
# 5 0.000000 0.000000 0.000000 0.000000 -0.270748 0.000000
# 6 0.000000 0.000000 0.000000 0.000000 0.000000 0.050408
#
#
# Mechanical properties :
#
#
# Convention : Reuss Voigt Hill
#
# Bulk Modulus (GPa) = 28.70779 41.78677 35.24728
# Shear Modulus (GPa) = -203.03863 15.12605 -93.95629
#
# Velocity S-wave (km/s) = -11.70122 3.19378 -7.95985
# Velocity P-wave (km/s) = 12.77494 6.46367 7.79166
#
# Compressibility (1/GPa) = 0.03483376
#
# Stress axis : x y z
#
# Youngs Moduli (GPa) = 19.50439 61.30407 69.67681
#
# Poissons Ratio (x) = 0.76243 0.54634
# Poissons Ratio (y) = 0.24257 0.22802
# Poissons Ratio (z) = 0.15294 0.20062
#
# Static dielectric constant tensor:
#      x y z
#    x 1.500930 0.000000 0.000000 
#    y 0.000000 1.520720 0.000000 
#    z 0.000000 0.000000 1.481510 
# 
# From -- ./inp_files/30083.got.cif
#   From: 2010.05.17/outbox.cif.g08.bks.cpg/sg47_16_cif.got.tgz:30083.got - 2010.06.03 20:15:42.
