data_PCOD9384182
_publ_section_title
;
Structure prediction by ZEFSAII (Michael W. Deem and Ramdas Pophale) SiO2 
 PCOD9384182
Probable space group: P M M M
;
_chemical_formula_sum "Si O2"
_cell_formula_units_Z 60
_cell_length_a 13.352744
_cell_length_b 16.906179
_cell_length_c 14.171329
_cell_angle_alpha 90.000000
_cell_angle_beta 90.000000
_cell_angle_gamma 90.000000
_cell_volume 3199.090796
_symmetry_space_group_name_H-M "P M M M"
_symmetry_group_IT_number 47
_symmetry_cell_setting 'orthorhombic'
loop_
_space_group_symop_operation_xyz
x,y,z
-x,-y,z
x,-y,-z
-x,y,-z
-x,-y,-z
x,y,-z
-x,y,z
x,-y,z
loop_
_atom_site_type_symbol
_atom_site_label
_atom_site_fract_x
_atom_site_fract_y
_atom_site_fract_z
Si Si1 0.620514 0.089791 0.100063
Si Si2 0.882601 0.742251 0.391522
Si Si3 0.384595 0.405001 0.109754
Si Si4 0.118411 0.000000 0.114018
Si Si5 0.195749 0.087059 0.387958
Si Si6 0.881274 0.177569 0.114207
Si Si7 0.748607 0.703242 0.238309
Si Si8 0.617321 0.838098 0.303751
O O1 0.500000 0.084554 0.093980
O O2 0.634840 0.133695 0.196627
O O3 0.658993 0.000000 0.105206
O O4 0.655177 0.125520 0.000000
O O5 0.846094 0.736924 0.500000
O O6 0.861665 0.833232 0.357073
O O7 0.827932 0.683560 0.320008
O O8 0.000000 0.729526 0.391098
O O9 0.500000 0.381017 0.130659
O O10 0.379261 0.500000 0.117002
O O11 0.307111 0.362985 0.178553
O O12 0.365356 0.383838 0.000000
O O13 0.153088 0.088100 0.142648
O O14 0.000000 0.000000 0.136931
O O15 0.125510 0.000000 0.000000
O O16 0.178926 0.082835 0.500000
O O17 0.311933 0.106683 0.367056
O O18 0.168792 0.000000 0.348192
O O19 0.811257 0.241068 0.165780
O O20 0.000000 0.186921 0.138354
O O21 0.875847 0.184047 0.000000
O O22 0.664125 0.751133 0.297922
O O23 0.500000 0.841550 0.326632
#
# Coordination Sequence:
#
# PCOD9384182 Si02
#       8
#     8   8   8   4   8   8   8   8
#     4   8  14  25  38  50  72 113 158 194 233 284
#     4   9  19  36  55  76 105 140 179 228 286 338
#     4   9  19  37  61  89 120 151 180 212 256 315
#     4   7  12  26  44  60  88 132 174 213 262 316
#     4   9  18  32  50  71  93 125 176 231 279 327
#     4   9  17  30  48  71 101 137 177 224 275 327
#     4  11  20  32  53  80 105 134 183 229 271 321
#     4  10  20  31  43  63  94 127 164 213 266 316
#
# _framework density 18.755329
#
# number of rings (size 3 to 8) (size 9 to 14) (size 15 to 20)
#    0.000    2.867    0.000    3.200    0.000    2.400 
#    6.000    3.333    0.000    3.200    0.000    6.533 
#    0.000    0.000    0.000    0.000    0.000    0.000 
#
# Total GULP energy -334489.448463 kJ/mol
# GULP energy per Si atom -5574.824141 kJ/mol
# Density = 1.871264 g / cm^3
# Si number density = 18.755329 Si / 1000 Ang^3
#
#
#
# Elastic Constant Matrix: (Units=GPa)
#
#
# Indices 1 2 3 4 5 6 
#
# 1 87.8517 27.7946 23.6589 0.0000 0.0000 0.0000
# 2 27.7946 36.4627 25.9165 0.0000 0.0000 0.0000
# 3 23.6589 25.9165 62.0956 0.0000 0.0000 0.0000
# 4 0.0000 0.0000 0.0000 24.3759 0.0000 0.0000
# 5 0.0000 0.0000 0.0000 0.0000 30.3242 0.0000
# 6 0.0000 0.0000 0.0000 0.0000 0.0000 27.5655
#
#
#
# Elastic Compliance Matrix: (Units=1/GPa)
#
#
# Indices 1 2 3 4 5 6 
#
# 1 0.015079 -0.010537 -0.001348 0.000000 0.000000 0.000000
# 2 -0.010537 0.046355 -0.015332 0.000000 0.000000 0.000000
# 3 -0.001348 -0.015332 0.023017 0.000000 0.000000 0.000000
# 4 0.000000 0.000000 0.000000 0.041024 0.000000 0.000000
# 5 0.000000 0.000000 0.000000 0.000000 0.032977 0.000000
# 6 0.000000 0.000000 0.000000 0.000000 0.000000 0.036277
#
#
# Mechanical properties :
#
#
# Convention : Reuss Voigt Hill
#
# Bulk Modulus (GPa) = 33.31375 37.90554 35.60965
# Shear Modulus (GPa) = 19.29241 23.72244 21.50743
#
# Velocity S-wave (km/s) = 3.21072 3.56031 3.39002
# Velocity P-wave (km/s) = 5.61656 6.09553 5.86094
#
# Compressibility (1/GPa) = 0.03001763
#
# Stress axis : x y z
#
# Youngs Moduli (GPa) = 66.31568 21.57263 43.44634
#
# Poissons Ratio (x) = 0.22731 0.05855
# Poissons Ratio (y) = 0.69875 0.66614
# Poissons Ratio (z) = 0.08937 0.33076
#
# Static dielectric constant tensor:
#      x y z
#    x 1.699730 0.000000 0.000000 
#    y 0.000000 1.649410 0.000000 
#    z 0.000000 0.000000 1.682250 
# 
# From -- ./inp_files/23926.got.cif
#   From: 2010.05.17/outbox.cif.g08.bks.cpg/sg47_12_cif.got.tgz:23926.got - 2010.06.03 20:15:42.
