data_PCOD9384088
_publ_section_title
;
Structure prediction by ZEFSAII (Michael W. Deem and Ramdas Pophale) SiO2 
 PCOD9384088
Probable space group: P M M M
;
_chemical_formula_sum "Si O2"
_cell_formula_units_Z 52
_cell_length_a 19.295486
_cell_length_b 15.648377
_cell_length_c 9.780484
_cell_angle_alpha 90.000000
_cell_angle_beta 90.000000
_cell_angle_gamma 90.000000
_cell_volume 2953.149065
_symmetry_space_group_name_H-M "P M M M"
_symmetry_group_IT_number 47
_symmetry_cell_setting 'orthorhombic'
loop_
_space_group_symop_operation_xyz
x,y,z
-x,-y,z
x,-y,-z
-x,y,-z
-x,-y,-z
x,y,-z
-x,y,z
x,-y,z
loop_
_atom_site_type_symbol
_atom_site_label
_atom_site_fract_x
_atom_site_fract_y
_atom_site_fract_z
Si Si1 0.500000 0.396681 0.344208
Si Si2 0.280762 0.746851 0.843745
Si Si3 0.114827 0.750850 0.846399
Si Si4 0.888646 0.096733 0.656316
Si Si5 0.345387 0.398290 0.665351
Si Si6 0.083257 0.596210 0.347927
Si Si7 0.280307 0.097450 0.657125
O O1 0.500000 0.500000 0.350013
O O2 0.500000 0.364757 0.500000
O O3 0.575671 0.374951 0.288213
O O4 0.198001 0.758063 0.852729
O O5 0.296843 0.663495 0.752586
O O6 0.306239 0.830585 0.761180
O O7 0.307011 0.740213 0.000000
O O8 0.087292 0.830839 0.759576
O O9 0.101164 0.664328 0.765160
O O10 0.087460 0.749116 0.000000
O O11 0.909887 0.114859 0.500000
O O12 0.804170 0.098028 0.658083
O O13 0.909922 0.000000 0.691216
O O14 0.339536 0.385354 0.500000
O O15 0.334132 0.500000 0.688545
O O16 0.108635 0.621695 0.500000
O O17 0.108784 0.500000 0.319771
O O18 0.000000 0.592328 0.354339
O O19 0.300831 0.116226 0.500000
O O20 0.301128 0.000000 0.690853
#
# Coordination Sequence:
#
# PCOD9384088 Si02
#       7
#     4   8   8   8   8   8   8
#     4   7  12  26  47  67  84 107 148 197 233 262
#     4  10  20  30  41  65 100 129 151 179 220 271
#     4  10  20  31  45  68  97 126 151 180 223 271
#     4   8  14  26  45  67  90 118 151 185 221 262
#     4   9  17  30  48  67  88 118 155 192 228 266
#     4   9  19  36  55  71  86 110 150 196 234 269
#     4   8  14  26  44  64  86 115 153 192 224 259
#
# _framework density 17.608322000000001
#
# number of rings (size 3 to 8) (size 9 to 14) (size 15 to 20)
#    0.000    3.154    0.000    3.231    0.000    4.000 
#    0.000    7.308    0.000    1.846    0.000    3.769 
#    0.000    4.308    0.000    0.000    0.000    0.000 
#
# Total GULP energy -289522.316997 kJ/mol
# GULP energy per Si atom -5567.736865 kJ/mol
# Density = 1.756824 g / cm^3
# Si number density = 17.608322 Si / 1000 Ang^3
#
#
#
# Elastic Constant Matrix: (Units=GPa)
#
#
# Indices 1 2 3 4 5 6 
#
# 1 20.0010 6.6483 11.1734 0.0000 0.0000 0.0000
# 2 6.6483 120.1164 106.6825 0.0000 0.0000 0.0000
# 3 11.1734 106.6825 139.9518 0.0000 0.0000 0.0000
# 4 0.0000 0.0000 0.0000 -21.0689 0.0000 0.0000
# 5 0.0000 0.0000 0.0000 0.0000 10.6272 0.0000
# 6 0.0000 0.0000 0.0000 0.0000 0.0000 18.2606
#
#
#
# Elastic Compliance Matrix: (Units=1/GPa)
#
#
# Indices 1 2 3 4 5 6 
#
# 1 0.052579 0.002533 -0.006129 0.000000 0.000000 0.000000
# 2 0.002533 0.025899 -0.019944 0.000000 0.000000 0.000000
# 3 -0.006129 -0.019944 0.022838 0.000000 0.000000 0.000000
# 4 0.000000 0.000000 0.000000 -0.047463 0.000000 0.000000
# 5 0.000000 0.000000 0.000000 0.000000 0.094099 0.000000
# 6 0.000000 0.000000 0.000000 0.000000 0.000000 0.054763
#
#
# Mechanical properties :
#
#
# Convention : Reuss Voigt Hill
#
# Bulk Modulus (GPa) = 18.43799 58.78640 38.61219
# Shear Modulus (GPa) = 18.66559 11.93477 15.30018
#
# Velocity S-wave (km/s) = 3.25936 2.60627 2.95094
# Velocity P-wave (km/s) = 4.96573 6.52034 5.79540
#
# Compressibility (1/GPa) = 0.05423586
#
# Stress axis : x y z
#
# Youngs Moduli (GPa) = 19.01890 38.61175 43.78701
#
# Poissons Ratio (x) = -0.09780 0.26835
# Poissons Ratio (y) = -0.04817 0.87331
# Poissons Ratio (z) = 0.11656 0.77009
#
# Static dielectric constant tensor:
#      x y z
#    x 1.637990 0.000000 0.000000 
#    y 0.000000 1.596100 0.000000 
#    z 0.000000 0.000000 1.602460 
# 
# From -- ./inp_files/7100.got.cif
#   From: 2010.05.17/outbox.cif.g08.bks.cpg/sg47_4_cif.got.tgz:7100.got - 2010.06.03 20:15:42.
