data_PCOD9384301
_publ_section_title
;
Structure prediction by ZEFSAII (Michael W. Deem and Ramdas Pophale) SiO2 
 PCOD9384301
Probable space group: P M M M
;
_chemical_formula_sum "Si O2"
_cell_formula_units_Z 52
_cell_length_a 7.995101
_cell_length_b 19.229955
_cell_length_c 19.690460
_cell_angle_alpha 90.000000
_cell_angle_beta 90.000000
_cell_angle_gamma 90.000000
_cell_volume 3027.318288
_symmetry_space_group_name_H-M "P M M M"
_symmetry_group_IT_number 47
_symmetry_cell_setting 'orthorhombic'
loop_
_space_group_symop_operation_xyz
x,y,z
-x,-y,z
x,-y,-z
-x,y,-z
-x,-y,-z
x,y,-z
-x,y,z
x,-y,z
loop_
_atom_site_type_symbol
_atom_site_label
_atom_site_fract_x
_atom_site_fract_y
_atom_site_fract_z
Si Si1 0.703461 0.578512 0.285341
Si Si2 0.197879 0.719192 0.788373
Si Si3 0.698523 0.355441 0.424645
Si Si4 0.688523 0.674937 0.921717
Si Si5 0.297918 0.077987 0.578562
Si Si6 0.000000 0.423931 0.081138
Si Si7 0.198186 0.217977 0.351096
O O1 0.500000 0.581977 0.283261
O O2 0.752934 0.500000 0.267127
O O3 0.770094 0.640523 0.238499
O O4 0.760505 0.597416 0.362193
O O5 0.287907 0.729094 0.860460
O O6 0.258229 0.766397 0.725537
O O7 0.000000 0.729510 0.797979
O O8 0.769537 0.367123 0.500000
O O9 0.500000 0.368085 0.428358
O O10 0.724130 0.275742 0.401027
O O11 0.500000 0.646237 0.917851
O O12 0.831929 0.618903 0.905775
O O13 0.713296 0.699055 0.000000
O O14 0.246151 0.088684 0.500000
O O15 0.500000 0.079413 0.579796
O O16 0.233745 0.140784 0.623812
O O17 0.244567 0.000000 0.598953
O O18 0.000000 0.500000 0.113016
O O19 0.000000 0.431481 0.000000
O O20 0.000000 0.230885 0.351498
#
# Coordination Sequence:
#
# PCOD9384301 Si02
#       7
#     8   8   8   8   8   4   8
#     4   9  18  31  45  62  84 112 151 198 245 292
#     4  10  20  34  49  66  93 126 158 196 245 295
#     4   9  17  29  45  63  84 114 152 194 241 289
#     4  10  20  34  53  74  95 123 160 201 246 298
#     4   9  18  32  49  70  98 132 166 198 237 286
#     4   9  18  32  48  68  96 126 154 193 246 298
#     4  10  20  31  46  69  95 124 159 196 234 283
#
# _framework density 17.176918000000001
#
# number of rings (size 3 to 8) (size 9 to 14) (size 15 to 20)
#    0.000    2.538    0.769    1.846    0.000    6.154 
#    0.000    3.846    0.000    0.000    0.000    4.308 
#    0.000    0.615    0.000    6.769    0.000    4.923 
#
# Total GULP energy -289802.784045 kJ/mol
# GULP energy per Si atom -5573.130462 kJ/mol
# Density = 1.713782 g / cm^3
# Si number density = 17.176918 Si / 1000 Ang^3
#
#
#
# Elastic Constant Matrix: (Units=GPa)
#
#
# Indices 1 2 3 4 5 6 
#
# 1 42.8211 -1.0229 15.8179 0.0000 0.0000 0.0000
# 2 -1.0229 65.6763 25.8933 0.0000 0.0000 0.0000
# 3 15.8179 25.8933 117.5274 0.0000 0.0000 0.0000
# 4 0.0000 0.0000 0.0000 11.9652 0.0000 0.0000
# 5 0.0000 0.0000 0.0000 0.0000 22.3820 0.0000
# 6 0.0000 0.0000 0.0000 0.0000 0.0000 -377.4418
#
#
#
# Elastic Compliance Matrix: (Units=1/GPa)
#
#
# Indices 1 2 3 4 5 6 
#
# 1 0.024781 0.001863 -0.003746 0.000000 0.000000 0.000000
# 2 0.001863 0.016815 -0.003955 0.000000 0.000000 0.000000
# 3 -0.003746 -0.003955 0.009884 0.000000 0.000000 0.000000
# 4 0.000000 0.000000 0.000000 0.083576 0.000000 0.000000
# 5 0.000000 0.000000 0.000000 0.000000 0.044679 0.000000
# 6 0.000000 0.000000 0.000000 0.000000 0.000000 -0.002649
#
#
# Mechanical properties :
#
#
# Convention : Reuss Voigt Hill
#
# Bulk Modulus (GPa) = 25.12344 34.15572 29.63958
# Shear Modulus (GPa) = 24.74889 -56.26316 -15.75714
#
# Velocity S-wave (km/s) = 3.79993 -5.72942 -3.03205
# Velocity P-wave (km/s) = 5.82329 4.88267 2.24391
#
# Compressibility (1/GPa) = 0.03980346
#
# Stress axis : x y z
#
# Youngs Moduli (GPa) = 40.35337 59.47221 101.17169
#
# Poissons Ratio (x) = -0.11078 0.37895
# Poissons Ratio (y) = -0.07517 0.40016
# Poissons Ratio (z) = 0.15115 0.23523
#
# Static dielectric constant tensor:
#      x y z
#    x 1.635740 0.000000 0.000000 
#    y 0.000000 1.563780 0.000000 
#    z 0.000000 0.000000 1.625350 
# 
# From -- ./inp_files/29902.got.cif
#   From: 2010.05.17/outbox.cif.g08.bks.cpg/sg47_15_cif.got.tgz:29902.got - 2010.06.03 20:15:42.
