data_PCOD9384502
_publ_section_title
;
Structure prediction by ZEFSAII (Michael W. Deem and Ramdas Pophale) SiO2 
 PCOD9384502
Probable space group: P M M M
;
_chemical_formula_sum "Si O2"
_cell_formula_units_Z 56
_cell_length_a 8.992804
_cell_length_b 21.918861
_cell_length_c 19.069094
_cell_angle_alpha 90.000000
_cell_angle_beta 90.000000
_cell_angle_gamma 90.000000
_cell_volume 3758.747655
_symmetry_space_group_name_H-M "P M M M"
_symmetry_group_IT_number 47
_symmetry_cell_setting 'orthorhombic'
loop_
_space_group_symop_operation_xyz
x,y,z
-x,-y,z
x,-y,-z
-x,y,-z
-x,-y,-z
x,y,-z
-x,y,z
x,-y,z
loop_
_atom_site_type_symbol
_atom_site_label
_atom_site_fract_x
_atom_site_fract_y
_atom_site_fract_z
Si Si1 0.321839 0.187033 0.292661
Si Si2 0.321471 0.932924 0.205037
Si Si3 0.670757 0.500000 0.085100
Si Si4 0.823378 0.871822 0.582973
Si Si5 0.668425 0.000000 0.415103
Si Si6 0.820870 0.373466 0.918149
Si Si7 0.178465 0.867400 0.080759
Si Si8 0.178781 0.254253 0.831599
O O1 0.500000 0.190546 0.296421
O O2 0.277524 0.123360 0.254212
O O3 0.250883 0.179884 0.369124
O O4 0.257428 0.239109 0.241893
O O5 0.500000 0.932129 0.201118
O O6 0.254601 0.917882 0.129114
O O7 0.273938 0.000000 0.229670
O O8 0.500000 0.500000 0.108024
O O9 0.752026 0.562416 0.105748
O O10 0.673516 0.500000 0.000000
O O11 0.796141 0.862420 0.500000
O O12 0.000000 0.873902 0.594301
O O13 0.751982 0.937483 0.602494
O O14 0.500000 0.000000 0.386107
O O15 0.659124 0.000000 0.500000
O O16 0.776509 0.317052 0.869087
O O17 0.000000 0.377844 0.916741
O O18 0.778574 0.362366 0.000000
O O19 0.213661 0.801739 0.115542
O O20 0.000000 0.874593 0.083763
O O21 0.224957 0.869518 0.000000
O O22 0.000000 0.254678 0.821736
#
# Coordination Sequence:
#
# PCOD9384502 Si02
#       8
#     8   8   4   8   4   8   8   8
#     4  10  20  32  47  64  84 111 143 178 217 264
#     4   9  19  33  44  56  76 103 134 169 213 262
#     4   9  17  27  39  61  93 123 150 185 226 261
#     4  10  20  33  48  67  89 111 138 174 216 263
#     4   9  17  29  45  65  87 109 134 165 206 259
#     4   9  16  27  45  66  88 119 157 191 223 262
#     4   9  17  29  44  61  79  99 131 176 219 259
#     4   9  17  30  46  63  85 113 145 181 221 260
#
# _framework density 14.898578000000001
#
# number of rings (size 3 to 8) (size 9 to 14) (size 15 to 20)
#    0.000    2.714    0.000    1.714    1.000    6.286 
#    0.000    1.429    0.000    2.571    0.000    0.000 
#    0.000    0.000    0.000    0.643    0.000   12.429 
#
# Total GULP energy -312180.718364 kJ/mol
# GULP energy per Si atom -5574.655685 kJ/mol
# Density = 1.486467 g / cm^3
# Si number density = 14.898578 Si / 1000 Ang^3
#
#
#
# Elastic Constant Matrix: (Units=GPa)
#
#
# Indices 1 2 3 4 5 6 
#
# 1 33.5325 30.2250 34.1586 0.0000 0.0000 0.0000
# 2 30.2250 90.2794 33.1314 0.0000 0.0000 0.0000
# 3 34.1586 33.1314 74.2814 0.0000 0.0000 0.0000
# 4 0.0000 0.0000 0.0000 19.3216 0.0000 0.0000
# 5 0.0000 0.0000 0.0000 0.0000 19.7389 0.0000
# 6 0.0000 0.0000 0.0000 0.0000 0.0000 16.8163
#
#
#
# Elastic Compliance Matrix: (Units=1/GPa)
#
#
# Indices 1 2 3 4 5 6 
#
# 1 0.067346 -0.013370 -0.025006 0.000000 0.000000 0.000000
# 2 -0.013370 0.015899 -0.000943 0.000000 0.000000 0.000000
# 3 -0.025006 -0.000943 0.025382 0.000000 0.000000 0.000000
# 4 0.000000 0.000000 0.000000 0.051756 0.000000 0.000000
# 5 0.000000 0.000000 0.000000 0.000000 0.050661 0.000000
# 6 0.000000 0.000000 0.000000 0.000000 0.000000 0.059466
#
#
# Mechanical properties :
#
#
# Convention : Reuss Voigt Hill
#
# Bulk Modulus (GPa) = 33.34572 43.68034 38.51303
# Shear Modulus (GPa) = 13.92196 17.88056 15.90126
#
# Velocity S-wave (km/s) = 3.06019 3.46808 3.27050
# Velocity P-wave (km/s) = 5.90904 6.73935 6.33781
#
# Compressibility (1/GPa) = 0.02998886
#
# Stress axis : x y z
#
# Youngs Moduli (GPa) = 14.84868 62.89674 39.39800
#
# Poissons Ratio (x) = 0.84094 0.98518
# Poissons Ratio (y) = 0.19853 0.03716
# Poissons Ratio (z) = 0.37130 0.05932
#
# Static dielectric constant tensor:
#      x y z
#    x 1.497830 0.000000 0.000000 
#    y 0.000000 1.480190 0.000000 
#    z 0.000000 0.000000 1.505620 
# 
# From -- ./inp_files/30109.got.cif
#   From: 2010.05.17/outbox.cif.g08.bks.cpg/sg47_16_cif.got.tgz:30109.got - 2010.06.03 20:15:42.
