data_PCOD9384663
_publ_section_title
;
Structure prediction by ZEFSAII (Michael W. Deem and Ramdas Pophale) SiO2 
 PCOD9384663
Probable space group: P M M M
;
_chemical_formula_sum "Si O2"
_cell_formula_units_Z 48
_cell_length_a 8.850476
_cell_length_b 32.058645
_cell_length_c 9.655986
_cell_angle_alpha 90.000000
_cell_angle_beta 90.000000
_cell_angle_gamma 90.000000
_cell_volume 2739.734121
_symmetry_space_group_name_H-M "P M M M"
_symmetry_group_IT_number 47
_symmetry_cell_setting 'orthorhombic'
loop_
_space_group_symop_operation_xyz
x,y,z
-x,-y,z
x,-y,-z
-x,y,-z
-x,-y,-z
x,y,-z
-x,y,z
x,-y,z
loop_
_atom_site_type_symbol
_atom_site_label
_atom_site_fract_x
_atom_site_fract_y
_atom_site_fract_z
Si Si1 0.317110 0.874370 0.339690
Si Si2 0.316087 0.952840 0.840779
Si Si3 0.674263 0.286945 0.831790
Si Si4 0.317408 0.621208 0.839475
Si Si5 0.818317 0.546885 0.662657
Si Si6 0.819957 0.200122 0.838032
O O1 0.270317 0.873664 0.500000
O O2 0.500000 0.873456 0.335564
O O3 0.266076 0.916714 0.262589
O O4 0.255513 0.835012 0.255559
O O5 0.500000 0.952958 0.839126
O O6 0.267694 0.000000 0.804756
O O7 0.270750 0.944121 0.000000
O O8 0.500000 0.281449 0.787623
O O9 0.730588 0.332679 0.787265
O O10 0.768738 0.246402 0.792762
O O11 0.673929 0.288842 0.000000
O O12 0.500000 0.621393 0.836799
O O13 0.255381 0.583425 0.750236
O O14 0.270304 0.616515 0.000000
O O15 0.781269 0.551319 0.500000
O O16 0.771728 0.500000 0.706482
O O17 0.000000 0.549133 0.675124
O O18 0.000000 0.196800 0.830990
O O19 0.773985 0.194795 0.000000
#
# Coordination Sequence:
#
# PCOD9384663 Si02
#       6
#     8   8   8   8   8   8
#     4  10  20  32  48  72 101 133 166 199 240 289
#     4   8  14  26  46  72  99 126 159 200 243 286
#     4   8  15  30  51  73  98 127 158 196 243 292
#     4   9  18  32  51  77 104 126 154 197 247 296
#     4   9  19  35  51  68  95 132 171 206 239 281
#     4  10  20  33  51  74  97 125 164 205 243 286
#
# _framework density 17.519947999999999
#
# number of rings (size 3 to 8) (size 9 to 14) (size 15 to 20)
#    0.000    3.000    0.000    3.000    0.000    4.333 
#    0.000    6.667    0.000    1.500    0.000    3.500 
#    0.000    0.000    0.000    0.000    0.000    0.000 
#
# Total GULP energy -267478.069209 kJ/mol
# GULP energy per Si atom -5572.459775 kJ/mol
# Density = 1.748007 g / cm^3
# Si number density = 17.519948 Si / 1000 Ang^3
#
#
#
# Elastic Constant Matrix: (Units=GPa)
#
#
# Indices 1 2 3 4 5 6 
#
# 1 11.5070 34.7676 27.5731 0.0000 0.0000 0.0000
# 2 34.7676 193.8404 100.0276 0.0000 0.0000 0.0000
# 3 27.5731 100.0276 86.3860 0.0000 0.0000 0.0000
# 4 0.0000 0.0000 0.0000 -13.1009 0.0000 0.0000
# 5 0.0000 0.0000 0.0000 0.0000 21.0486 0.0000
# 6 0.0000 0.0000 0.0000 0.0000 0.0000 -35.8486
#
#
#
# Elastic Compliance Matrix: (Units=1/GPa)
#
#
# Indices 1 2 3 4 5 6 
#
# 1 0.384221 -0.013988 -0.106441 0.000000 0.000000 0.000000
# 2 -0.013988 0.013327 -0.010967 0.000000 0.000000 0.000000
# 3 -0.106441 -0.010967 0.058249 0.000000 0.000000 0.000000
# 4 0.000000 0.000000 0.000000 -0.076331 0.000000 0.000000
# 5 0.000000 0.000000 0.000000 0.000000 0.047509 0.000000
# 6 0.000000 0.000000 0.000000 0.000000 0.000000 -0.027895
#
#
# Mechanical properties :
#
#
# Convention : Reuss Voigt Hill
#
# Bulk Modulus (GPa) = 5.18118 68.49667 36.83893
# Shear Modulus (GPa) = 6.88509 3.04417 4.96463
#
# Velocity S-wave (km/s) = 1.98454 1.31959 1.68519
# Velocity P-wave (km/s) = 2.86617 6.44228 4.98588
#
# Compressibility (1/GPa) = 0.19300617
#
# Stress axis : x y z
#
# Youngs Moduli (GPa) = 2.60267 75.03576 17.16776
#
# Poissons Ratio (x) = 1.04961 1.82735
# Poissons Ratio (y) = 0.03641 0.18827
# Poissons Ratio (z) = 0.27703 0.82290
#
# Static dielectric constant tensor:
#      x y z
#    x 1.590400 0.000000 0.000000 
#    y 0.000000 1.599750 0.000000 
#    z 0.000000 0.000000 1.580190 
# 
# From -- ./inp_files/2510.got.cif
#   From: 2010.05.17/outbox.cif.g08.bks.cpg/sg47_2_cif.got.tgz:2510.got - 2010.06.03 20:15:42.
