data_PCOD9384403
_publ_section_title
;
Structure prediction by ZEFSAII (Michael W. Deem and Ramdas Pophale) SiO2 
 PCOD9384403
Probable space group: P M M M
;
_chemical_formula_sum "Si O2"
_cell_formula_units_Z 52
_cell_length_a 7.334616
_cell_length_b 9.420638
_cell_length_c 34.848977
_cell_angle_alpha 90.000000
_cell_angle_beta 90.000000
_cell_angle_gamma 90.000000
_cell_volume 2407.951477
_symmetry_space_group_name_H-M "P M M M"
_symmetry_group_IT_number 47
_symmetry_cell_setting 'orthorhombic'
loop_
_space_group_symop_operation_xyz
x,y,z
-x,-y,z
x,-y,-z
-x,y,-z
-x,-y,-z
x,y,-z
-x,y,z
x,-y,z
loop_
_atom_site_type_symbol
_atom_site_label
_atom_site_fract_x
_atom_site_fract_y
_atom_site_fract_z
Si Si1 0.222763 0.336624 0.767480
Si Si2 0.778098 0.836087 0.456943
Si Si3 0.280860 0.661907 0.916686
Si Si4 0.222606 0.336932 0.617077
Si Si5 0.289528 0.327050 0.000000
Si Si6 0.777679 0.836525 0.692136
Si Si7 0.783705 0.160151 0.159276
O O1 0.281332 0.500000 0.766301
O O2 0.278758 0.249363 0.729903
O O3 0.285611 0.257276 0.805963
O O4 0.000000 0.338189 0.767626
O O5 0.720847 0.794617 0.500000
O O6 0.717925 0.735565 0.422582
O O7 0.000000 0.834361 0.456823
O O8 0.724476 0.000000 0.450316
O O9 0.500000 0.654403 0.920118
O O10 0.216863 0.500000 0.909384
O O11 0.240831 0.763315 0.881376
O O12 0.211277 0.712568 0.958471
O O13 0.280032 0.500000 0.620237
O O14 0.279737 0.244367 0.653626
O O15 0.000000 0.336435 0.617020
O O16 0.289067 0.500000 0.000000
O O17 0.500000 0.278668 0.000000
O O18 0.000000 0.837478 0.692081
O O19 0.718956 0.000000 0.692919
O O20 0.000000 0.149589 0.165578
O O21 0.710326 0.000000 0.159525
#
# Coordination Sequence:
#
# PCOD9384403 Si02
#       7
#     8   8   8   8   4   8   8
#     4   9  16  26  40  56  74  98 129 164 201 242
#     4   8  13  20  27  33  43  62  89 123 168 222
#     4   9  17  31  52  74  93 116 149 187 224 261
#     4   9  15  20  26  37  52  70  96 132 173 219
#     4   7  12  26  48  71  92 114 144 183 222 259
#     4   9  15  22  32  45  62  84 110 142 183 232
#     4  10  20  32  45  64  92 123 151 179 216 263
#
# _framework density 21.595117999999999
#
# number of rings (size 3 to 8) (size 9 to 14) (size 15 to 20)
#    0.000    3.154    0.000    3.231    0.000    7.077 
#    0.000    2.308    0.000    3.692    0.000    0.000 
#    0.000    0.000    0.000    0.000    0.000    0.000 
#
# Total GULP energy -290327.364146 kJ/mol
# GULP energy per Si atom -5583.218541 kJ/mol
# Density = 2.154597 g / cm^3
# Si number density = 21.595118 Si / 1000 Ang^3
#
#
#
# Elastic Constant Matrix: (Units=GPa)
#
#
# Indices 1 2 3 4 5 6 
#
# 1 83.0848 6.7090 3.4148 0.0000 0.0000 0.0000
# 2 6.7090 206.8634 156.2272 0.0000 0.0000 0.0000
# 3 3.4148 156.2272 244.9435 0.0000 0.0000 0.0000
# 4 0.0000 0.0000 0.0000 87.9168 0.0000 0.0000
# 5 0.0000 0.0000 0.0000 0.0000 7.6012 0.0000
# 6 0.0000 0.0000 0.0000 0.0000 0.0000 -3.1383
#
#
#
# Elastic Compliance Matrix: (Units=1/GPa)
#
#
# Indices 1 2 3 4 5 6 
#
# 1 0.012071 -0.000510 0.000157 0.000000 0.000000 0.000000
# 2 -0.000510 0.009348 -0.005955 0.000000 0.000000 0.000000
# 3 0.000157 -0.005955 0.007879 0.000000 0.000000 0.000000
# 4 0.000000 0.000000 0.000000 0.011374 0.000000 0.000000
# 5 0.000000 0.000000 0.000000 0.000000 0.131558 0.000000
# 6 0.000000 0.000000 0.000000 0.000000 0.000000 -0.318640
#
#
# Mechanical properties :
#
#
# Convention : Reuss Voigt Hill
#
# Bulk Modulus (GPa) = 59.94860 96.39930 78.17395
# Shear Modulus (GPa) = -38.99137 43.04532 2.02697
#
# Velocity S-wave (km/s) = -4.25380 4.46947 0.96988
# Velocity P-wave (km/s) = 1.92200 8.44815 6.12639
#
# Compressibility (1/GPa) = 0.01668096
#
# Stress axis : x y z
#
# Youngs Moduli (GPa) = 82.84569 106.97309 126.92487
#
# Poissons Ratio (x) = 0.05457 -0.01994
# Poissons Ratio (y) = 0.04226 0.75587
# Poissons Ratio (z) = -0.01301 0.63705
#
# Static dielectric constant tensor:
#      x y z
#    x 1.934450 0.000000 0.000000 
#    y 0.000000 1.727990 0.000000 
#    z 0.000000 0.000000 1.755470 
# 
# From -- ./inp_files/20015.got.cif
#   From: 2010.05.17/outbox.cif.g08.bks.cpg/sg47_11_cif.got.tgz:20015.got - 2010.06.03 20:15:42.
