data_PCOD9384483
_publ_section_title
;
Structure prediction by ZEFSAII (Michael W. Deem and Ramdas Pophale) SiO2 
 PCOD9384483
Probable space group: P M M M
;
_chemical_formula_sum "Si O2"
_cell_formula_units_Z 64
_cell_length_a 9.049001
_cell_length_b 29.576461
_cell_length_c 14.468540
_cell_angle_alpha 90.000000
_cell_angle_beta 90.000000
_cell_angle_gamma 90.000000
_cell_volume 3872.322792
_symmetry_space_group_name_H-M "P M M M"
_symmetry_group_IT_number 47
_symmetry_cell_setting 'orthorhombic'
loop_
_space_group_symop_operation_xyz
x,y,z
-x,-y,z
x,-y,-z
-x,y,-z
-x,-y,-z
x,y,-z
-x,y,z
x,-y,z
loop_
_atom_site_type_symbol
_atom_site_label
_atom_site_fract_x
_atom_site_fract_y
_atom_site_fract_z
Si Si1 0.176275 0.724495 0.219248
Si Si2 0.672021 0.194126 0.110899
Si Si3 0.823649 0.901264 0.105777
Si Si4 0.321707 0.235141 0.391593
Si Si5 0.171699 0.449747 0.112021
Si Si6 0.324314 0.642792 0.889981
Si Si7 0.328879 0.132495 0.611060
Si Si8 0.177033 0.950177 0.287941
O O1 0.235280 0.767492 0.161389
O O2 0.242322 0.731247 0.321713
O O3 0.240298 0.680421 0.168710
O O4 0.000000 0.723582 0.220888
O O5 0.500000 0.197093 0.138408
O O6 0.736648 0.144475 0.130216
O O7 0.680728 0.200706 0.000000
O O8 0.789999 0.939407 0.180680
O O9 0.000000 0.891948 0.110458
O O10 0.788480 0.913637 0.000000
O O11 0.287207 0.242148 0.500000
O O12 0.500000 0.237872 0.382224
O O13 0.277669 0.183414 0.365661
O O14 0.218544 0.500000 0.143616
O O15 0.270525 0.407205 0.139018
O O16 0.000000 0.442847 0.138610
O O17 0.174895 0.450771 0.000000
O O18 0.500000 0.647538 0.878576
O O19 0.291593 0.648436 0.000000
O O20 0.323226 0.129484 0.500000
O O21 0.500000 0.128847 0.639662
O O22 0.240488 0.091536 0.654916
O O23 0.000000 0.950225 0.298369
O O24 0.232776 0.000000 0.314692
#
# Coordination Sequence:
#
# PCOD9384483 Si02
#       8
#     8   8   8   8   8   8   8   8
#     4  12  23  32  47  71 100 131 161 197 241 289
#     4  10  20  33  49  69  94 124 158 195 234 279
#     4   9  18  33  51  69  90 118 153 190 227 270
#     4   9  19  37  58  76  95 121 154 193 237 286
#     4   8  14  26  44  65  92 129 171 213 256 298
#     4  10  20  32  46  67  98 136 177 216 250 287
#     4   9  19  36  56  75  93 116 147 182 224 276
#     4  10  21  34  48  70  97 122 149 182 223 270
#
# _framework density 16.527546999999998
#
# number of rings (size 3 to 8) (size 9 to 14) (size 15 to 20)
#    0.000    2.375    0.000    4.125    0.000    7.500 
#    0.000    5.000    0.000    0.000    0.000    2.625 
#    0.000    0.500    0.000    5.250    0.000    2.500 
#
# Total GULP energy -357053.207147 kJ/mol
# GULP energy per Si atom -5578.956362 kJ/mol
# Density = 1.648993 g / cm^3
# Si number density = 16.527547 Si / 1000 Ang^3
#
#
#
# Elastic Constant Matrix: (Units=GPa)
#
#
# Indices 1 2 3 4 5 6 
#
# 1 63.0098 52.1603 37.0734 0.0000 0.0000 0.0000
# 2 52.1603 97.4077 48.0880 0.0000 0.0000 0.0000
# 3 37.0734 48.0880 50.7681 0.0000 0.0000 0.0000
# 4 0.0000 0.0000 0.0000 15.5292 0.0000 0.0000
# 5 0.0000 0.0000 0.0000 0.0000 22.0197 0.0000
# 6 0.0000 0.0000 0.0000 0.0000 0.0000 21.6164
#
#
#
# Elastic Compliance Matrix: (Units=1/GPa)
#
#
# Indices 1 2 3 4 5 6 
#
# 1 0.032965 -0.010834 -0.013810 0.000000 0.000000 0.000000
# 2 -0.010834 0.022844 -0.013726 0.000000 0.000000 0.000000
# 3 -0.013810 -0.013726 0.042784 0.000000 0.000000 0.000000
# 4 0.000000 0.000000 0.000000 0.064395 0.000000 0.000000
# 5 0.000000 0.000000 0.000000 0.000000 0.045414 0.000000
# 6 0.000000 0.000000 0.000000 0.000000 0.000000 0.046261
#
#
# Mechanical properties :
#
#
# Convention : Reuss Voigt Hill
#
# Bulk Modulus (GPa) = 45.76411 53.98102 49.87257
# Shear Modulus (GPa) = 14.76280 16.75732 15.76006
#
# Velocity S-wave (km/s) = 2.99193 3.18764 3.09133
# Velocity P-wave (km/s) = 6.29962 6.80295 6.55612
#
# Compressibility (1/GPa) = 0.02185118
#
# Stress axis : x y z
#
# Youngs Moduli (GPa) = 30.33518 43.77473 23.37316
#
# Poissons Ratio (x) = 0.47427 0.32279
# Poissons Ratio (y) = 0.32866 0.32083
# Poissons Ratio (z) = 0.41894 0.60087
#
# Static dielectric constant tensor:
#      x y z
#    x 1.551670 0.000000 0.000000 
#    y 0.000000 1.548080 0.000000 
#    z 0.000000 0.000000 1.564890 
# 
# From -- ./inp_files/22140.got.cif
#   From: 2010.05.17/outbox.cif.g08.bks.cpg/sg47_12_cif.got.tgz:22140.got - 2010.06.03 20:15:42.
