data_PCOD9384481
_publ_section_title
;
Structure prediction by ZEFSAII (Michael W. Deem and Ramdas Pophale) SiO2 
 PCOD9384481
Probable space group: P M M M
;
_chemical_formula_sum "Si O2"
_cell_formula_units_Z 44
_cell_length_a 18.092943
_cell_length_b 15.964392
_cell_length_c 7.929218
_cell_angle_alpha 90.000000
_cell_angle_beta 90.000000
_cell_angle_gamma 90.000000
_cell_volume 2290.297802
_symmetry_space_group_name_H-M "P M M M"
_symmetry_group_IT_number 47
_symmetry_cell_setting 'orthorhombic'
loop_
_space_group_symop_operation_xyz
x,y,z
-x,-y,z
x,-y,-z
-x,y,-z
-x,-y,-z
x,y,-z
-x,y,z
x,-y,z
loop_
_atom_site_type_symbol
_atom_site_label
_atom_site_fract_x
_atom_site_fract_y
_atom_site_fract_z
Si Si1 0.087719 0.000000 0.193908
Si Si2 0.919023 0.356671 0.302022
Si Si3 0.755453 0.591367 0.799001
Si Si4 0.298752 0.233501 0.201978
Si Si5 0.584536 0.906741 0.297423
Si Si6 0.134051 0.178851 0.795237
O O1 0.111779 0.912096 0.269900
O O2 0.000000 0.000000 0.186169
O O3 0.116992 0.000000 0.000000
O O4 0.917076 0.376801 0.500000
O O5 0.843466 0.392621 0.224431
O O6 0.911315 0.256548 0.277540
O O7 0.000000 0.383303 0.235248
O O8 0.736835 0.500000 0.727833
O O9 0.709271 0.671008 0.731380
O O10 0.743015 0.589199 0.000000
O O11 0.363472 0.170990 0.253671
O O12 0.219747 0.193173 0.245149
O O13 0.302157 0.239305 0.000000
O O14 0.582357 0.910411 0.500000
O O15 0.500000 0.894905 0.237354
O O16 0.609923 0.000000 0.238169
O O17 0.124434 0.182022 0.000000
#
# Coordination Sequence:
#
# PCOD9384481 Si02
#       6
#     4   8   8   8   8   8
#     4   9  16  26  43  65  88 121 166 210 247 285
#     4  10  20  32  46  67  97 129 163 209 260 303
#     4   9  19  36  55  74  97 128 167 208 252 303
#     4   9  18  31  51  77 101 126 160 206 251 292
#     4   9  19  35  53  75 105 139 170 197 231 284
#     4   9  18  31  47  67  92 127 169 209 248 297
#
# _framework density 19.211475
#
# number of rings (size 3 to 8) (size 9 to 14) (size 15 to 20)
#    0.000    2.818    0.000    2.727    1.273    6.545 
#    0.000    3.182    0.000    2.182    0.000    3.818 
#    0.000    0.000    0.000    0.000    0.000    0.000 
#
# Total GULP energy -245164.145126 kJ/mol
# GULP energy per Si atom -5571.912389 kJ/mol
# Density = 1.916775 g / cm^3
# Si number density = 19.211475 Si / 1000 Ang^3
#
#
#
# Elastic Constant Matrix: (Units=GPa)
#
#
# Indices 1 2 3 4 5 6 
#
# 1 83.7771 63.1128 6.3427 0.0000 0.0000 0.0000
# 2 63.1128 168.6484 9.5847 0.0000 0.0000 0.0000
# 3 6.3427 9.5847 8.9031 0.0000 0.0000 0.0000
# 4 0.0000 0.0000 0.0000 367.0541 0.0000 0.0000
# 5 0.0000 0.0000 0.0000 0.0000 22.3626 0.0000
# 6 0.0000 0.0000 0.0000 0.0000 0.0000 0.3011
#
#
#
# Elastic Compliance Matrix: (Units=1/GPa)
#
#
# Indices 1 2 3 4 5 6 
#
# 1 0.016878 -0.006000 -0.005565 0.000000 0.000000 0.000000
# 2 -0.006000 0.008449 -0.004821 0.000000 0.000000 0.000000
# 3 -0.005565 -0.004821 0.121475 0.000000 0.000000 0.000000
# 4 0.000000 0.000000 0.000000 0.002724 0.000000 0.000000
# 5 0.000000 0.000000 0.000000 0.000000 0.044718 0.000000
# 6 0.000000 0.000000 0.000000 0.000000 0.000000 3.320963
#
#
# Mechanical properties :
#
#
# Convention : Reuss Voigt Hill
#
# Bulk Modulus (GPa) = 8.76967 46.60100 27.68533
# Shear Modulus (GPa) = 1.39432 90.09614 45.74523
#
# Velocity S-wave (km/s) = 0.85285 6.85557 4.88499
# Velocity P-wave (km/s) = 2.35468 9.32602 6.80144
#
# Compressibility (1/GPa) = 0.11402942
#
# Stress axis : x y z
#
# Youngs Moduli (GPa) = 59.24999 118.36023 8.23218
#
# Poissons Ratio (x) = 0.71014 0.04581
# Poissons Ratio (y) = 0.35549 0.03969
# Poissons Ratio (z) = 0.32971 0.57064
#
# Static dielectric constant tensor:
#      x y z
#    x 1.651390 0.000000 0.000000 
#    y 0.000000 1.724730 0.000000 
#    z 0.000000 0.000000 1.699800 
# 
# From -- ./inp_files/8964.got.cif
#   From: 2010.05.17/outbox.cif.g08.bks.cpg/sg47_5_cif.got.tgz:8964.got - 2010.06.03 20:15:42.
