data_PCOD9384132
_publ_section_title
;
Structure prediction by ZEFSAII (Michael W. Deem and Ramdas Pophale) SiO2 
 PCOD9384132
Probable space group: P M M M
;
_chemical_formula_sum "Si O2"
_cell_formula_units_Z 64
_cell_length_a 9.077655
_cell_length_b 20.123615
_cell_length_c 20.018221
_cell_angle_alpha 90.000000
_cell_angle_beta 90.000000
_cell_angle_gamma 90.000000
_cell_volume 3656.833212
_symmetry_space_group_name_H-M "P M M M"
_symmetry_group_IT_number 47
_symmetry_cell_setting 'orthorhombic'
loop_
_space_group_symop_operation_xyz
x,y,z
-x,-y,z
x,-y,-z
-x,y,-z
-x,-y,-z
x,y,-z
-x,y,z
x,-y,z
loop_
_atom_site_type_symbol
_atom_site_label
_atom_site_fract_x
_atom_site_fract_y
_atom_site_fract_z
Si Si1 0.164672 0.925554 0.856214
Si Si2 0.175786 0.693116 0.577216
Si Si3 0.323650 0.667412 0.214181
Si Si4 0.335641 0.814256 0.076144
Si Si5 0.824473 0.423057 0.325734
Si Si6 0.676244 0.784801 0.687994
Si Si7 0.169098 0.925906 0.695996
Si Si8 0.825090 0.677332 0.924537
O O1 0.285783 0.873869 0.878164
O O2 0.162691 0.928568 0.776385
O O3 0.000000 0.905087 0.878758
O O4 0.192702 0.000000 0.881592
O O5 0.218469 0.698363 0.500000
O O6 0.200938 0.619576 0.607213
O O7 0.261540 0.743081 0.625595
O O8 0.000000 0.706355 0.582553
O O9 0.500000 0.665152 0.211158
O O10 0.262314 0.614374 0.267178
O O11 0.281391 0.740511 0.245741
O O12 0.255875 0.651261 0.141641
O O13 0.500000 0.789194 0.093201
O O14 0.220186 0.754692 0.078437
O O15 0.338712 0.838461 0.000000
O O16 0.783732 0.500000 0.331888
O O17 0.000000 0.419181 0.311316
O O18 0.500000 0.787047 0.687068
O O19 0.739619 0.859237 0.682501
O O20 0.000000 0.918087 0.671881
O O21 0.222193 0.000000 0.673911
O O22 0.000000 0.668392 0.918673
O O23 0.780508 0.654228 0.000000
#
# Coordination Sequence:
#
# PCOD9384132 Si02
#       8
#     8   8   8   8   8   8   8   8
#     4   9  18  31  45  61  82 112 152 197 246 301
#     4   9  18  33  54  80 109 142 177 209 244 288
#     4  10  20  33  51  76 105 137 173 212 255 305
#     4  10  20  31  42  59  85 116 151 194 246 303
#     4   9  18  33  54  81 112 144 176 209 245 287
#     4  10  20  32  49  75 104 135 171 210 254 304
#     4   9  18  32  49  69  93 122 159 206 258 307
#     4  10  20  33  50  71  94 123 162 209 260 309
#
# _framework density 17.501480999999998
#
# number of rings (size 3 to 8) (size 9 to 14) (size 15 to 20)
#    0.000    2.500    0.000    3.000    0.000    7.000 
#    0.000    3.750    0.000    0.750    0.000    8.750 
#    0.000    0.000    0.000    0.000    0.000    0.000 
#
# Total GULP energy -356506.496823 kJ/mol
# GULP energy per Si atom -5570.414013 kJ/mol
# Density = 1.746165 g / cm^3
# Si number density = 17.501481 Si / 1000 Ang^3
#
#
#
# Elastic Constant Matrix: (Units=GPa)
#
#
# Indices 1 2 3 4 5 6 
#
# 1 43.2132 30.6922 29.7009 0.0000 0.0000 0.0000
# 2 30.6922 88.3667 21.2584 0.0000 0.0000 0.0000
# 3 29.7009 21.2584 84.8171 0.0000 0.0000 0.0000
# 4 0.0000 0.0000 0.0000 12.4899 0.0000 0.0000
# 5 0.0000 0.0000 0.0000 0.0000 12.6819 0.0000
# 6 0.0000 0.0000 0.0000 0.0000 0.0000 13.3143
#
#
#
# Elastic Compliance Matrix: (Units=1/GPa)
#
#
# Indices 1 2 3 4 5 6 
#
# 1 0.038017 -0.010644 -0.010645 0.000000 0.000000 0.000000
# 2 -0.010644 0.015022 -0.000038 0.000000 0.000000 0.000000
# 3 -0.010645 -0.000038 0.015527 0.000000 0.000000 0.000000
# 4 0.000000 0.000000 0.000000 0.080065 0.000000 0.000000
# 5 0.000000 0.000000 0.000000 0.000000 0.078852 0.000000
# 6 0.000000 0.000000 0.000000 0.000000 0.000000 0.075107
#
#
# Mechanical properties :
#
#
# Convention : Reuss Voigt Hill
#
# Bulk Modulus (GPa) = 38.58985 42.18889 40.38937
# Shear Modulus (GPa) = 14.12899 16.68025 15.40462
#
# Velocity S-wave (km/s) = 2.84439 3.09054 2.97002
# Velocity P-wave (km/s) = 5.73452 6.07400 5.90670
#
# Compressibility (1/GPa) = 0.02591355
#
# Stress axis : x y z
#
# Youngs Moduli (GPa) = 26.30397 66.56714 64.40297
#
# Poissons Ratio (x) = 0.70851 0.68557
# Poissons Ratio (y) = 0.27997 0.00245
# Poissons Ratio (z) = 0.28001 0.00254
#
# Static dielectric constant tensor:
#      x y z
#    x 1.608170 0.000000 0.000000 
#    y 0.000000 1.592450 0.000000 
#    z 0.000000 0.000000 1.603570 
# 
# From -- ./inp_files/29946.got.cif
#   From: 2010.05.17/outbox.cif.g08.bks.cpg/sg47_15_cif.got.tgz:29946.got - 2010.06.03 20:15:42.
