data_PCOD9384541
_publ_section_title
;
Structure prediction by ZEFSAII (Michael W. Deem and Ramdas Pophale) SiO2 
 PCOD9384541
Probable space group: P M M M
;
_chemical_formula_sum "Si O2"
_cell_formula_units_Z 52
_cell_length_a 14.761296
_cell_length_b 25.739126
_cell_length_c 7.723752
_cell_angle_alpha 90.000000
_cell_angle_beta 90.000000
_cell_angle_gamma 90.000000
_cell_volume 2934.584407
_symmetry_space_group_name_H-M "P M M M"
_symmetry_group_IT_number 47
_symmetry_cell_setting 'orthorhombic'
loop_
_space_group_symop_operation_xyz
x,y,z
-x,-y,z
x,-y,-z
-x,y,-z
-x,-y,-z
x,y,-z
-x,y,z
x,-y,z
loop_
_atom_site_type_symbol
_atom_site_label
_atom_site_fract_x
_atom_site_fract_y
_atom_site_fract_z
Si Si1 0.109818 0.559035 0.000000
Si Si2 0.400071 0.902915 0.205581
Si Si3 0.398362 0.782017 0.292259
Si Si4 0.209901 0.737878 0.203954
Si Si5 0.209356 0.942806 0.212168
Si Si6 0.104047 0.840371 0.788372
Si Si7 0.894163 0.363927 0.304515
O O1 0.135228 0.592637 0.167748
O O2 0.143947 0.500000 0.000000
O O3 0.000000 0.556325 0.000000
O O4 0.500000 0.915000 0.278468
O O5 0.383800 0.841268 0.229429
O O6 0.312548 0.932997 0.271994
O O7 0.403888 0.913066 0.000000
O O8 0.396610 0.782896 0.500000
O O9 0.500000 0.766646 0.235957
O O10 0.316782 0.746191 0.229450
O O11 0.161525 0.790539 0.269081
O O12 0.166730 0.687265 0.288685
O O13 0.190634 0.733420 0.000000
O O14 0.148775 0.894363 0.269055
O O15 0.177812 0.000000 0.264740
O O16 0.209822 0.941696 0.000000
O O17 0.000000 0.836064 0.734808
O O18 0.106293 0.840513 0.000000
O O19 0.890248 0.384017 0.500000
O O20 0.000000 0.350066 0.267236
#
# Coordination Sequence:
#
# PCOD9384541 Si02
#       7
#     4   8   8   8   8   8   8
#     4   9  18  34  54  78 113 155 194 228 264 305
#     4   9  16  28  45  64  86 112 147 192 248 314
#     4  10  20  32  47  69  96 125 159 202 255 317
#     4  11  19  31  51  72 101 135 169 213 262 315
#     4   9  16  26  40  61  87 113 149 198 250 308
#     4   9  17  27  41  64  91 122 158 199 254 311
#     4  10  20  33  51  79 113 148 188 229 267 308
#
# _framework density 17.719714
#
# number of rings (size 3 to 8) (size 9 to 14) (size 15 to 20)
#    0.000    2.385    2.308    1.385    0.000    2.462 
#    0.000    4.615    0.000    0.462    0.000    2.154 
#    0.000    2.462    0.000    3.231    0.000    0.154 
#
# Total GULP energy -290149.655761 kJ/mol
# GULP energy per Si atom -5579.801072 kJ/mol
# Density = 1.767938 g / cm^3
# Si number density = 17.719714 Si / 1000 Ang^3
#
#
#
# Elastic Constant Matrix: (Units=GPa)
#
#
# Indices 1 2 3 4 5 6 
#
# 1 86.3896 50.4908 12.7344 0.0000 0.0000 0.0000
# 2 50.4908 119.2282 25.3720 0.0000 0.0000 0.0000
# 3 12.7344 25.3720 50.2805 0.0000 0.0000 0.0000
# 4 0.0000 0.0000 0.0000 -12.2641 0.0000 0.0000
# 5 0.0000 0.0000 0.0000 0.0000 11.2741 0.0000
# 6 0.0000 0.0000 0.0000 0.0000 0.0000 17.1586
#
#
#
# Elastic Compliance Matrix: (Units=1/GPa)
#
#
# Indices 1 2 3 4 5 6 
#
# 1 0.015404 -0.006378 -0.000683 0.000000 0.000000 0.000000
# 2 -0.006378 0.012037 -0.004459 0.000000 0.000000 0.000000
# 3 -0.000683 -0.004459 0.022311 0.000000 0.000000 0.000000
# 4 0.000000 0.000000 0.000000 -0.081539 0.000000 0.000000
# 5 0.000000 0.000000 0.000000 0.000000 0.088699 0.000000
# 6 0.000000 0.000000 0.000000 0.000000 0.000000 0.058280
#
#
# Mechanical properties :
#
#
# Convention : Reuss Voigt Hill
#
# Bulk Modulus (GPa) = 37.43488 48.12142 42.77815
# Shear Modulus (GPa) = 33.98242 14.38712 24.18477
#
# Velocity S-wave (km/s) = 4.38399 2.85253 3.69840
# Velocity P-wave (km/s) = 6.84089 6.16970 6.51395
#
# Compressibility (1/GPa) = 0.02671306
#
# Stress axis : x y z
#
# Youngs Moduli (GPa) = 64.91950 83.07732 44.82036
#
# Poissons Ratio (x) = 0.52985 0.03061
# Poissons Ratio (y) = 0.41405 0.19984
# Poissons Ratio (z) = 0.04434 0.37041
#
# Static dielectric constant tensor:
#      x y z
#    x 1.600960 0.000000 0.000000 
#    y 0.000000 1.570300 0.000000 
#    z 0.000000 0.000000 1.655330 
# 
# From -- ./inp_files/7591.got.cif
#   From: 2010.05.17/outbox.cif.g08.bks.cpg/sg47_4_cif.got.tgz:7591.got - 2010.06.03 20:15:42.
