data_PCOD9384553
_publ_section_title
;
Structure prediction by ZEFSAII (Michael W. Deem and Ramdas Pophale) SiO2 
 PCOD9384553
Probable space group: P M M M
;
_chemical_formula_sum "Si O2"
_cell_formula_units_Z 44
_cell_length_a 28.956750
_cell_length_b 7.661736
_cell_length_c 9.687545
_cell_angle_alpha 90.000000
_cell_angle_beta 90.000000
_cell_angle_gamma 90.000000
_cell_volume 2149.268793
_symmetry_space_group_name_H-M "P M M M"
_symmetry_group_IT_number 47
_symmetry_cell_setting 'orthorhombic'
loop_
_space_group_symop_operation_xyz
x,y,z
-x,-y,z
x,-y,-z
-x,y,-z
-x,-y,-z
x,y,-z
-x,y,z
x,-y,z
loop_
_atom_site_type_symbol
_atom_site_label
_atom_site_fract_x
_atom_site_fract_y
_atom_site_fract_z
Si Si1 0.689894 0.210666 0.842413
Si Si2 0.861786 0.285985 0.841309
Si Si3 0.223514 0.292405 0.343973
Si Si4 0.052373 0.287206 0.341941
Si Si5 0.413997 0.209279 0.155057
Si Si6 0.500000 0.706346 0.346425
O O1 0.728281 0.266276 0.734243
O O2 0.637730 0.271005 0.808410
O O3 0.689707 0.000000 0.843595
O O4 0.700609 0.268229 0.000000
O O5 0.861440 0.500000 0.842261
O O6 0.818028 0.225088 0.751768
O O7 0.908665 0.230314 0.764661
O O8 0.859265 0.229449 0.000000
O O9 0.223544 0.221396 0.500000
O O10 0.216059 0.500000 0.354587
O O11 0.063068 0.234910 0.500000
O O12 0.052414 0.500000 0.340943
O O13 0.000000 0.231637 0.309152
O O14 0.454207 0.248439 0.261370
O O15 0.411184 0.000000 0.147117
O O16 0.425224 0.273496 0.000000
O O17 0.500000 0.500000 0.359246
O O18 0.500000 0.784691 0.500000
#
# Coordination Sequence:
#
# PCOD9384553 Si02
#       6
#     8   8   8   8   8   4
#     4   9  19  36  56  77 100 126 160 204 249 291
#     4   9  16  25  38  57  83 117 157 199 241 287
#     4  10  20  32  47  69  98 131 164 199 242 293
#     4   8  13  21  33  50  76 112 151 191 238 291
#     4   9  19  37  59  79  99 128 167 206 244 290
#     4  11  24  37  50  76 112 141 166 201 242 284
#
# _framework density 20.472079000000001
#
# number of rings (size 3 to 8) (size 9 to 14) (size 15 to 20)
#    0.000    2.818    0.000    3.273    0.000    7.636 
#    0.000    7.273    0.000    0.000    0.000    0.000 
#    0.000    0.727    0.000    7.636    0.000   10.545 
#
# Total GULP energy -245550.745968 kJ/mol
# GULP energy per Si atom -5580.698772 kJ/mol
# Density = 2.042548 g / cm^3
# Si number density = 20.472079 Si / 1000 Ang^3
#
#
#
# Elastic Constant Matrix: (Units=GPa)
#
#
# Indices 1 2 3 4 5 6 
#
# 1 184.4231 3.0052 158.7557 0.0000 0.0000 0.0000
# 2 3.0052 35.1285 7.8555 0.0000 0.0000 0.0000
# 3 158.7557 7.8555 213.0334 0.0000 0.0000 0.0000
# 4 0.0000 0.0000 0.0000 12.5009 0.0000 0.0000
# 5 0.0000 0.0000 0.0000 0.0000 127.5041 0.0000
# 6 0.0000 0.0000 0.0000 0.0000 0.0000 22.7622
#
#
#
# Elastic Compliance Matrix: (Units=1/GPa)
#
#
# Indices 1 2 3 4 5 6 
#
# 1 0.015178 0.001241 -0.011357 0.000000 0.000000 0.000000
# 2 0.001241 0.028805 -0.001987 0.000000 0.000000 0.000000
# 3 -0.011357 -0.001987 0.013231 0.000000 0.000000 0.000000
# 4 0.000000 0.000000 0.000000 0.079995 0.000000 0.000000
# 5 0.000000 0.000000 0.000000 0.000000 0.007843 0.000000
# 6 0.000000 0.000000 0.000000 0.000000 0.000000 0.043933
#
#
# Mechanical properties :
#
#
# Convention : Reuss Voigt Hill
#
# Bulk Modulus (GPa) = 30.29526 85.75752 58.02639
# Shear Modulus (GPa) = 22.30223 50.08466 36.19345
#
# Velocity S-wave (km/s) = 3.30418 4.95156 4.20925
# Velocity P-wave (km/s) = 5.42100 8.64127 7.21314
#
# Compressibility (1/GPa) = 0.03300846
#
# Stress axis : x y z
#
# Youngs Moduli (GPa) = 65.88302 34.71609 75.58153
#
# Poissons Ratio (x) = -0.04309 0.85838
# Poissons Ratio (y) = -0.08177 0.15019
# Poissons Ratio (z) = 0.74823 0.06899
#
# Static dielectric constant tensor:
#      x y z
#    x 1.716750 0.000000 0.000000 
#    y 0.000000 1.781730 0.000000 
#    z 0.000000 0.000000 1.719100 
# 
# From -- ./inp_files/2157.got.cif
#   From: 2010.05.17/outbox.cif.g08.bks.cpg/sg47_2_cif.got.tgz:2157.got - 2010.06.03 20:15:42.
