data_PCOD9384329
_publ_section_title
;
Structure prediction by ZEFSAII (Michael W. Deem and Ramdas Pophale) SiO2 
 PCOD9384329
Probable space group: P M M M
;
_chemical_formula_sum "Si O2"
_cell_formula_units_Z 36
_cell_length_a 7.895717
_cell_length_b 26.030295
_cell_length_c 8.993433
_cell_angle_alpha 90.000000
_cell_angle_beta 90.000000
_cell_angle_gamma 90.000000
_cell_volume 1848.400883
_symmetry_space_group_name_H-M "P M M M"
_symmetry_group_IT_number 47
_symmetry_cell_setting 'orthorhombic'
loop_
_space_group_symop_operation_xyz
x,y,z
-x,-y,z
x,-y,-z
-x,y,-z
-x,-y,-z
x,y,-z
-x,y,z
x,-y,z
loop_
_atom_site_type_symbol
_atom_site_label
_atom_site_fract_x
_atom_site_fract_y
_atom_site_fract_z
Si Si1 0.703637 0.055298 0.673863
Si Si2 0.200666 0.165832 0.331096
Si Si3 0.000000 0.438898 0.176476
Si Si4 0.700199 0.624990 0.322164
Si Si5 0.297547 0.269512 0.166906
O O1 0.759017 0.056135 0.500000
O O2 0.500000 0.054636 0.675059
O O3 0.756871 0.110107 0.737672
O O4 0.761878 0.000000 0.736862
O O5 0.273443 0.168106 0.500000
O O6 0.257468 0.214865 0.238978
O O7 0.000000 0.168387 0.342502
O O8 0.831388 0.414226 0.248095
O O9 0.000000 0.500000 0.199835
O O10 0.000000 0.428490 0.000000
O O11 0.712797 0.622378 0.500000
O O12 0.500000 0.616512 0.282844
O O13 0.753277 0.681828 0.266240
O O14 0.500000 0.272604 0.157665
O O15 0.226880 0.273547 0.000000
#
# Coordination Sequence:
#
# PCOD9384329 Si02
#       5
#     8   8   4   8   8
#     4   8  14  26  45  68  95 131 176 225 276 331
#     4  10  20  31  47  75 108 141 177 222 279 342
#     4  11  25  43  65  95 131 171 208 245 294 353
#     4  10  22  41  66  94 124 161 206 257 307 354
#     4  10  21  37  57  80 108 145 188 234 287 347
#
# _framework density 19.476293999999999
#
# number of rings (size 3 to 8) (size 9 to 14) (size 15 to 20)
#    0.000    2.333    0.000    3.000    1.556    5.778 
#    0.000    4.444    0.000    0.667    0.000    4.667 
#    0.000    0.000    0.000    0.000    0.000    0.000 
#
# Total GULP energy -200742.374028 kJ/mol
# GULP energy per Si atom -5576.177056 kJ/mol
# Density = 1.943197 g / cm^3
# Si number density = 19.476294 Si / 1000 Ang^3
#
#
#
# Elastic Constant Matrix: (Units=GPa)
#
#
# Indices 1 2 3 4 5 6 
#
# 1 61.1246 58.1727 43.1190 0.0000 0.0000 0.0000
# 2 58.1727 173.5344 75.2087 0.0000 0.0000 0.0000
# 3 43.1190 75.2087 80.2358 0.0000 0.0000 0.0000
# 4 0.0000 0.0000 0.0000 43.5158 0.0000 0.0000
# 5 0.0000 0.0000 0.0000 0.0000 20.1316 0.0000
# 6 0.0000 0.0000 0.0000 0.0000 0.0000 44.0494
#
#
#
# Elastic Compliance Matrix: (Units=1/GPa)
#
#
# Indices 1 2 3 4 5 6 
#
# 1 0.028659 -0.004938 -0.010773 0.000000 0.000000 0.000000
# 2 -0.004938 0.010556 -0.007241 0.000000 0.000000 0.000000
# 3 -0.010773 -0.007241 0.025040 0.000000 0.000000 0.000000
# 4 0.000000 0.000000 0.000000 0.022980 0.000000 0.000000
# 5 0.000000 0.000000 0.000000 0.000000 0.049673 0.000000
# 6 0.000000 0.000000 0.000000 0.000000 0.000000 0.022702
#
#
# Mechanical properties :
#
#
# Convention : Reuss Voigt Hill
#
# Bulk Modulus (GPa) = 54.49180 74.21061 64.35121
# Shear Modulus (GPa) = 23.62604 30.76565 27.19584
#
# Velocity S-wave (km/s) = 3.48669 3.97879 3.74084
# Velocity P-wave (km/s) = 6.65196 7.70022 7.19521
#
# Compressibility (1/GPa) = 0.01835138
#
# Stress axis : x y z
#
# Youngs Moduli (GPa) = 34.89276 94.73134 39.93673
#
# Poissons Ratio (x) = 0.46783 0.43022
# Poissons Ratio (y) = 0.17232 0.28917
# Poissons Ratio (z) = 0.37588 0.68593
#
# Static dielectric constant tensor:
#      x y z
#    x 1.682820 0.000000 0.000000 
#    y 0.000000 1.698090 0.000000 
#    z 0.000000 0.000000 1.693670 
# 
# From -- ./inp_files/1451.got.cif
#   From: 2010.05.17/outbox.cif.g08.bks.cpg/sg47_1_cif.got.tgz:1451.got - 2010.06.03 20:15:42.
