data_PCOD9385552
_publ_section_title
;
Structure prediction by ZEFSAII (Michael W. Deem and Ramdas Pophale) SiO2 
 PCOD9385552
Probable space group: P M M M
;
_chemical_formula_sum "Si O2"
_cell_formula_units_Z 44
_cell_length_a 8.804303
_cell_length_b 13.434926
_cell_length_c 20.391704
_cell_angle_alpha 90.000000
_cell_angle_beta 90.000000
_cell_angle_gamma 90.000000
_cell_volume 2412.035956
_symmetry_space_group_name_H-M "P M M M"
_symmetry_group_IT_number 47
_symmetry_cell_setting 'orthorhombic'
loop_
_space_group_symop_operation_xyz
x,y,z
-x,-y,z
x,-y,-z
-x,y,-z
-x,-y,-z
x,y,-z
-x,y,z
x,-y,z
loop_
_atom_site_type_symbol
_atom_site_label
_atom_site_fract_x
_atom_site_fract_y
_atom_site_fract_z
Si Si1 0.318880 0.118222 0.640638
Si Si2 0.172554 0.880358 0.500000
Si Si3 0.681461 0.615843 0.138311
Si Si4 0.500000 0.388577 0.422565
Si Si5 0.173673 0.379474 0.000000
Si Si6 0.167150 0.383719 0.613842
Si Si7 0.827299 0.727724 0.742076
O O1 0.500000 0.132292 0.639635
O O2 0.252029 0.145024 0.568805
O O3 0.246295 0.184133 0.698544
O O4 0.288461 0.000000 0.650876
O O5 0.000000 0.844714 0.500000
O O6 0.170547 0.000000 0.500000
O O7 0.500000 0.615783 0.137311
O O8 0.731135 0.500000 0.150014
O O9 0.739572 0.689413 0.194605
O O10 0.743652 0.648445 0.067322
O O11 0.500000 0.500000 0.391846
O O12 0.500000 0.396491 0.500000
O O13 0.665496 0.344761 0.406133
O O14 0.172989 0.500000 0.000000
O O15 0.000000 0.344678 0.000000
O O16 0.167723 0.500000 0.595642
O O17 0.166968 0.364725 0.691336
O O18 0.000000 0.344383 0.590766
O O19 0.000000 0.755009 0.759003
#
# Coordination Sequence:
#
# PCOD9385552 Si02
#       7
#     8   4   8   4   4   8   8
#     4  10  21  37  56  78 104 134 173 223 276 329
#     4   9  17  33  57  79 100 129 166 215 277 335
#     4  10  20  33  53  81 113 148 183 219 259 307
#     4   9  18  32  50  68  89 126 172 214 258 306
#     4   9  17  31  51  77 112 149 182 217 257 303
#     4   9  19  34  50  70  98 130 167 212 258 309
#     4  11  22  35  52  77 105 136 175 217 264 317
#
# _framework density 18.241852000000002
#
# number of rings (size 3 to 8) (size 9 to 14) (size 15 to 20)
#    0.000    2.273    0.000    2.727    2.545    5.455 
#    1.636    1.818    0.000    0.000    0.000    0.636 
#    0.000    5.091    0.000    0.000    0.000    0.000 
#
# Total GULP energy -245217.136521 kJ/mol
# GULP energy per Si atom -5573.116739 kJ/mol
# Density = 1.820033 g / cm^3
# Si number density = 18.241852 Si / 1000 Ang^3
#
#
#
# Elastic Constant Matrix: (Units=GPa)
#
#
# Indices 1 2 3 4 5 6 
#
# 1 161.9343 45.9230 78.8355 0.0000 0.0000 0.0000
# 2 45.9230 80.2931 53.7115 0.0000 0.0000 0.0000
# 3 78.8355 53.7115 144.3428 0.0000 0.0000 0.0000
# 4 0.0000 0.0000 0.0000 27.1391 0.0000 0.0000
# 5 0.0000 0.0000 0.0000 0.0000 36.9152 0.0000
# 6 0.0000 0.0000 0.0000 0.0000 0.0000 -2.5761
#
#
#
# Elastic Compliance Matrix: (Units=1/GPa)
#
#
# Indices 1 2 3 4 5 6 
#
# 1 0.008748 -0.002406 -0.003882 0.000000 0.000000 0.000000
# 2 -0.002406 0.017244 -0.005102 0.000000 0.000000 0.000000
# 3 -0.003882 -0.005102 0.010947 0.000000 0.000000 0.000000
# 4 0.000000 0.000000 0.000000 0.036847 0.000000 0.000000
# 5 0.000000 0.000000 0.000000 0.000000 0.027089 0.000000
# 6 0.000000 0.000000 0.000000 0.000000 0.000000 -0.388183
#
#
# Mechanical properties :
#
#
# Convention : Reuss Voigt Hill
#
# Bulk Modulus (GPa) = 70.63808 82.61227 76.62517
# Shear Modulus (GPa) = -19.24505 26.16899 3.46197
#
# Velocity S-wave (km/s) = -3.25159 3.79166 1.37911
# Velocity P-wave (km/s) = 4.97092 8.03458 6.68074
#
# Compressibility (1/GPa) = 0.01415667
#
# Stress axis : x y z
#
# Youngs Moduli (GPa) = 114.31442 57.99197 91.34839
#
# Poissons Ratio (x) = 0.13953 0.35465
# Poissons Ratio (y) = 0.27505 0.46610
# Poissons Ratio (z) = 0.44382 0.29590
#
# Static dielectric constant tensor:
#      x y z
#    x 1.681250 0.000000 0.000000 
#    y 0.000000 1.674750 0.000000 
#    z 0.000000 0.000000 1.599830 
# 
# From -- ./inp_files/26415.got.cif
#   From: 2010.05.17/outbox.cif.g08.bks.cpg/sg47_14_cif.got.tgz:26415.got - 2010.06.03 20:15:42.
