data_PCOD9385694
_publ_section_title
;
Structure prediction by ZEFSAII (Michael W. Deem and Ramdas Pophale) SiO2 
 PCOD9385694
Probable space group: P M M M
;
_chemical_formula_sum "Si O2"
_cell_formula_units_Z 64
_cell_length_a 28.541714
_cell_length_b 14.769926
_cell_length_c 8.901920
_cell_angle_alpha 90.000000
_cell_angle_beta 90.000000
_cell_angle_gamma 90.000000
_cell_volume 3752.684526
_symmetry_space_group_name_H-M "P M M M"
_symmetry_group_IT_number 47
_symmetry_cell_setting 'orthorhombic'
loop_
_space_group_symop_operation_xyz
x,y,z
-x,-y,z
x,-y,-z
-x,y,-z
-x,-y,-z
x,y,-z
-x,y,z
x,-y,z
loop_
_atom_site_type_symbol
_atom_site_label
_atom_site_fract_x
_atom_site_fract_y
_atom_site_fract_z
Si Si1 0.779369 0.607940 0.176816
Si Si2 0.054959 0.395239 0.820110
Si Si3 0.632780 0.229259 0.180225
Si Si4 0.678051 0.605646 0.678896
Si Si5 0.718459 0.897037 0.817612
Si Si6 0.555147 0.103681 0.319761
Si Si7 0.863941 0.279288 0.321534
Si Si8 0.825595 0.105644 0.180701
O O1 0.788226 0.500000 0.192216
O O2 0.728768 0.626803 0.248867
O O3 0.820400 0.663889 0.254284
O O4 0.777874 0.630192 0.000000
O O5 0.065865 0.500000 0.780947
O O6 0.089139 0.327616 0.736078
O O7 0.000000 0.379918 0.788451
O O8 0.061644 0.386408 0.000000
O O9 0.639998 0.327834 0.250254
O O10 0.678340 0.171169 0.231251
O O11 0.587654 0.175506 0.237586
O O12 0.632780 0.234166 0.000000
O O13 0.680546 0.617674 0.500000
O O14 0.668321 0.500000 0.710510
O O15 0.771602 0.874027 0.773124
O O16 0.708322 0.000000 0.768638
O O17 0.718361 0.897259 0.000000
O O18 0.561039 0.111153 0.500000
O O19 0.500000 0.116286 0.287302
O O20 0.567673 0.000000 0.276707
O O21 0.861803 0.280186 0.500000
O O22 0.858693 0.177644 0.259474
O O23 0.834645 0.000000 0.215258
O O24 0.828469 0.115817 0.000000
#
# Coordination Sequence:
#
# PCOD9385694 Si02
#       8
#     8   8   8   8   8   8   8   8
#     4  10  20  34  52  74 103 139 178 217 253 294
#     4   9  19  37  59  80 102 130 166 209 256 306
#     4  11  20  30  51  79 105 135 170 209 255 308
#     4  10  21  36  52  72 102 138 175 215 257 302
#     4   8  15  28  46  71 101 130 162 201 245 292
#     4   9  19  36  55  75 103 138 172 208 254 307
#     4  12  23  32  49  77 108 140 171 207 255 310
#     4   9  18  34  54  72  96 136 181 218 250 291
#
# _framework density 17.054456999999999
#
# number of rings (size 3 to 8) (size 9 to 14) (size 15 to 20)
#    0.000    2.250    0.000    5.250    0.000    5.750 
#    0.000    1.875    0.000    2.250    0.000    5.250 
#    0.000    0.000    0.000    0.000    0.000    0.000 
#
# Total GULP energy -357327.661316 kJ/mol
# GULP energy per Si atom -5583.244708 kJ/mol
# Density = 1.701564 g / cm^3
# Si number density = 17.054457 Si / 1000 Ang^3
#
#
#
# Elastic Constant Matrix: (Units=GPa)
#
#
# Indices 1 2 3 4 5 6 
#
# 1 77.4822 75.0745 52.8912 0.0000 0.0000 0.0000
# 2 75.0745 104.1829 64.4022 0.0000 0.0000 0.0000
# 3 52.8912 64.4022 69.2158 0.0000 0.0000 0.0000
# 4 0.0000 0.0000 0.0000 19.7832 0.0000 0.0000
# 5 0.0000 0.0000 0.0000 0.0000 24.8357 0.0000
# 6 0.0000 0.0000 0.0000 0.0000 0.0000 32.7715
#
#
#
# Elastic Compliance Matrix: (Units=1/GPa)
#
#
# Indices 1 2 3 4 5 6 
#
# 1 0.045550 -0.026616 -0.010042 0.000000 0.000000 0.000000
# 2 -0.026616 0.038146 -0.015155 0.000000 0.000000 0.000000
# 3 -0.010042 -0.015155 0.036222 0.000000 0.000000 0.000000
# 4 0.000000 0.000000 0.000000 0.050548 0.000000 0.000000
# 5 0.000000 0.000000 0.000000 0.000000 0.040265 0.000000
# 6 0.000000 0.000000 0.000000 0.000000 0.000000 0.030514
#
#
# Mechanical properties :
#
#
# Convention : Reuss Voigt Hill
#
# Bulk Modulus (GPa) = 61.37722 70.62409 66.00066
# Shear Modulus (GPa) = 14.27344 19.37894 16.82619
#
# Velocity S-wave (km/s) = 2.89612 3.37456 3.14445
# Velocity P-wave (km/s) = 6.87389 7.52890 7.20884
#
# Compressibility (1/GPa) = 0.01629269
#
# Stress axis : x y z
#
# Youngs Moduli (GPa) = 21.95403 26.21509 27.60730
#
# Poissons Ratio (x) = 0.69773 0.27724
# Poissons Ratio (y) = 0.58432 0.41839
# Poissons Ratio (z) = 0.22047 0.39729
#
# Static dielectric constant tensor:
#      x y z
#    x 1.556380 0.000000 0.000000 
#    y 0.000000 1.586930 0.000000 
#    z 0.000000 0.000000 1.562780 
# 
# From -- ./inp_files/12713.got.cif
#   From: 2010.05.17/outbox.cif.g08.bks.cpg/sg47_7_cif.got.tgz:12713.got - 2010.06.03 20:15:42.
