data_PCOD9385911
_publ_section_title
;
Structure prediction by ZEFSAII (Michael W. Deem and Ramdas Pophale) SiO2 
 PCOD9385911
Probable space group: P M M M
;
_chemical_formula_sum "Si O2"
_cell_formula_units_Z 64
_cell_length_a 8.884002
_cell_length_b 21.205691
_cell_length_c 18.080161
_cell_angle_alpha 90.000000
_cell_angle_beta 90.000000
_cell_angle_gamma 90.000000
_cell_volume 3406.146866
_symmetry_space_group_name_H-M "P M M M"
_symmetry_group_IT_number 47
_symmetry_cell_setting 'orthorhombic'
loop_
_space_group_symop_operation_xyz
x,y,z
-x,-y,z
x,-y,-z
-x,y,-z
-x,-y,-z
x,y,-z
-x,y,z
x,-y,z
loop_
_atom_site_type_symbol
_atom_site_label
_atom_site_fract_x
_atom_site_fract_y
_atom_site_fract_z
Si Si1 0.818682 0.796973 0.418990
Si Si2 0.821822 0.831430 0.083393
Si Si3 0.321147 0.568086 0.283288
Si Si4 0.321266 0.072169 0.801709
Si Si5 0.179464 0.569569 0.121182
Si Si6 0.679514 0.299470 0.124964
Si Si7 0.678305 0.295403 0.301416
Si Si8 0.181738 0.069769 0.639070
O O1 0.767466 0.774437 0.500000
O O2 0.761153 0.754945 0.351593
O O3 0.770944 0.869645 0.407601
O O4 0.000000 0.795629 0.417909
O O5 0.744129 0.877060 0.142138
O O6 0.754791 0.761344 0.089227
O O7 0.000000 0.828916 0.097585
O O8 0.797047 0.855169 0.000000
O O9 0.500000 0.572515 0.262963
O O10 0.298962 0.500000 0.320487
O O11 0.226227 0.567675 0.207823
O O12 0.285748 0.632516 0.325313
O O13 0.500000 0.081038 0.793832
O O14 0.244424 0.078354 0.721756
O O15 0.293867 0.000000 0.827265
O O16 0.224720 0.500000 0.091210
O O17 0.257502 0.633934 0.094990
O O18 0.000000 0.575074 0.112840
O O19 0.500000 0.298306 0.115956
O O20 0.712683 0.293423 0.213553
O O21 0.500000 0.284927 0.308841
O O22 0.000000 0.069975 0.641693
O O23 0.229042 0.000000 0.612442
#
# Coordination Sequence:
#
# PCOD9385911 Si02
#       8
#     8   8   8   8   8   8   8   8
#     4  10  21  34  48  70 100 133 168 207 252 301
#     4  11  24  39  55  77 106 139 174 213 256 303
#     4   8  14  26  44  67  96 127 162 208 257 302
#     4  10  21  37  58  83 109 136 168 208 252 302
#     4   9  16  26  44  73 106 136 168 209 257 307
#     4  10  20  34  54  78 104 136 174 216 260 308
#     4   9  18  31  49  74  99 127 165 206 250 300
#     4   9  18  34  56  78 100 130 168 209 252 298
#
# _framework density 18.789560000000002
#
# number of rings (size 3 to 8) (size 9 to 14) (size 15 to 20)
#    0.000    2.500    0.000    3.000    0.000    8.250 
#    0.000    2.500    0.000    0.750    0.000    7.875 
#    0.000    0.000    0.000    0.000    0.000    0.000 
#
# Total GULP energy -356843.467666 kJ/mol
# GULP energy per Si atom -5575.679182 kJ/mol
# Density = 1.874679 g / cm^3
# Si number density = 18.789560 Si / 1000 Ang^3
#
#
#
# Elastic Constant Matrix: (Units=GPa)
#
#
# Indices 1 2 3 4 5 6 
#
# 1 12.2892 14.2539 10.2770 0.0000 0.0000 0.0000
# 2 14.2539 86.5794 24.9281 0.0000 0.0000 0.0000
# 3 10.2770 24.9281 37.6817 0.0000 0.0000 0.0000
# 4 0.0000 0.0000 0.0000 -26.1447 0.0000 0.0000
# 5 0.0000 0.0000 0.0000 0.0000 -5.2445 0.0000
# 6 0.0000 0.0000 0.0000 0.0000 0.0000 32.5419
#
#
#
# Elastic Compliance Matrix: (Units=1/GPa)
#
#
# Indices 1 2 3 4 5 6 
#
# 1 0.115030 -0.012236 -0.023278 0.000000 0.000000 0.000000
# 2 -0.012236 0.015569 -0.006963 0.000000 0.000000 0.000000
# 3 -0.023278 -0.006963 0.037493 0.000000 0.000000 0.000000
# 4 0.000000 0.000000 0.000000 -0.038249 0.000000 0.000000
# 5 0.000000 0.000000 0.000000 0.000000 -0.190675 0.000000
# 6 0.000000 0.000000 0.000000 0.000000 0.000000 0.030730
#
#
# Mechanical properties :
#
#
# Convention : Reuss Voigt Hill
#
# Bulk Modulus (GPa) = 12.02797 26.16317 19.09557
# Shear Modulus (GPa) = 60.55933 6.03663 33.29798
#
# Velocity S-wave (km/s) = 5.68333 1.79436 4.21426
# Velocity P-wave (km/s) = 7.03437 4.27171 5.81936
#
# Compressibility (1/GPa) = 0.08313957
#
# Stress axis : x y z
#
# Youngs Moduli (GPa) = 8.69337 64.22947 26.67175
#
# Poissons Ratio (x) = 0.78588 0.62087
# Poissons Ratio (y) = 0.10637 0.18571
# Poissons Ratio (z) = 0.20237 0.44721
#
# Static dielectric constant tensor:
#      x y z
#    x 1.631050 0.000000 0.000000 
#    y 0.000000 1.690170 0.000000 
#    z 0.000000 0.000000 1.627200 
# 
# From -- ./inp_files/11579.got.cif
#   From: 2010.05.17/outbox.cif.g08.bks.cpg/sg47_6_cif.got.tgz:11579.got - 2010.06.03 20:15:42.
