data_PCOD9385899
_publ_section_title
;
Structure prediction by ZEFSAII (Michael W. Deem and Ramdas Pophale) SiO2 
 PCOD9385899
Probable space group: P M M M
;
_chemical_formula_sum "Si O2"
_cell_formula_units_Z 48
_cell_length_a 19.588047
_cell_length_b 7.679288
_cell_length_c 15.722092
_cell_angle_alpha 90.000000
_cell_angle_beta 90.000000
_cell_angle_gamma 90.000000
_cell_volume 2364.952520
_symmetry_space_group_name_H-M "P M M M"
_symmetry_group_IT_number 47
_symmetry_cell_setting 'orthorhombic'
loop_
_space_group_symop_operation_xyz
x,y,z
-x,-y,z
x,-y,-z
-x,y,-z
-x,-y,-z
x,y,-z
-x,y,z
x,-y,z
loop_
_atom_site_type_symbol
_atom_site_label
_atom_site_fract_x
_atom_site_fract_y
_atom_site_fract_z
Si Si1 0.831229 0.795349 0.155389
Si Si2 0.078791 0.214157 0.000000
Si Si3 0.825087 0.789366 0.347058
Si Si4 0.330692 0.707493 0.655712
Si Si5 0.421441 0.286063 0.500000
Si Si6 0.577407 0.207474 0.000000
Si Si7 0.322336 0.706803 0.846917
Si Si8 0.078532 0.786756 0.500000
O O1 0.881058 0.723727 0.083624
O O2 0.837761 0.722824 0.251034
O O3 0.752117 0.778397 0.128432
O O4 0.846812 0.000000 0.162201
O O5 0.000000 0.264762 0.000000
O O6 0.081235 0.000000 0.000000
O O7 0.747689 0.739867 0.370217
O O8 0.879614 0.730268 0.416582
O O9 0.827379 0.000000 0.345102
O O10 0.341314 0.500000 0.659778
O O11 0.381729 0.775003 0.584147
O O12 0.339545 0.775677 0.752139
O O13 0.419560 0.500000 0.500000
O O14 0.500000 0.233788 0.500000
O O15 0.620386 0.258568 0.916719
O O16 0.500000 0.278061 0.000000
O O17 0.573337 0.000000 0.000000
O O18 0.313557 0.500000 0.840304
O O19 0.000000 0.730379 0.500000
O O20 0.078454 0.000000 0.500000
#
# Coordination Sequence:
#
# PCOD9385899 Si02
#       8
#     8   4   8   8   4   4   8   4
#     4   9  17  30  49  71  95 125 161 201 246 295
#     4   9  17  28  44  68  94 119 152 195 238 282
#     4   9  17  29  47  69  92 123 161 200 242 288
#     4   9  18  32  52  76  99 127 163 203 244 287
#     4   9  17  30  49  73 100 129 160 194 236 287
#     4  11  24  39  54  74 102 135 166 199 246 300
#     4  10  20  34  54  78 101 128 166 209 248 290
#     4   9  17  28  43  67  98 129 164 208 254 295
#
# _framework density 20.296389999999999
#
# number of rings (size 3 to 8) (size 9 to 14) (size 15 to 20)
#    0.000    2.667    0.000    1.750    0.000    3.333 
#    0.000    5.000    0.000    3.000    0.000    4.667 
#    0.000    0.000    0.000    0.000    0.000    0.000 
#
# Total GULP energy -267892.856429 kJ/mol
# GULP energy per Si atom -5581.101176 kJ/mol
# Density = 2.025019 g / cm^3
# Si number density = 20.296390 Si / 1000 Ang^3
#
#
#
# Elastic Constant Matrix: (Units=GPa)
#
#
# Indices 1 2 3 4 5 6 
#
# 1 179.5046 -15.8809 137.3312 0.0000 0.0000 0.0000
# 2 -15.8809 30.1346 -2.1000 0.0000 0.0000 0.0000
# 3 137.3312 -2.1000 150.0237 0.0000 0.0000 0.0000
# 4 0.0000 0.0000 0.0000 -21.2636 0.0000 0.0000
# 5 0.0000 0.0000 0.0000 0.0000 -6.5458 0.0000
# 6 0.0000 0.0000 0.0000 0.0000 0.0000 55.5877
#
#
#
# Elastic Compliance Matrix: (Units=1/GPa)
#
#
# Indices 1 2 3 4 5 6 
#
# 1 0.021133 0.009798 -0.019208 0.000000 0.000000 0.000000
# 2 0.009798 0.037760 -0.008441 0.000000 0.000000 0.000000
# 3 -0.019208 -0.008441 0.024130 0.000000 0.000000 0.000000
# 4 0.000000 0.000000 0.000000 -0.047029 0.000000 0.000000
# 5 0.000000 0.000000 0.000000 0.000000 -0.152769 0.000000
# 6 0.000000 0.000000 0.000000 0.000000 0.000000 0.017990
#
#
# Mechanical properties :
#
#
# Convention : Reuss Voigt Hill
#
# Bulk Modulus (GPa) = 21.13160 66.48483 43.80822
# Shear Modulus (GPa) = -105.68287 21.57651 -42.05318
#
# Velocity S-wave (km/s) = -7.22377 3.26401 -4.55681
# Velocity P-wave (km/s) = 7.69045 6.85807 2.46068
#
# Compressibility (1/GPa) = 0.04732249
#
# Stress axis : x y z
#
# Youngs Moduli (GPa) = 47.32003 26.48308 41.44204
#
# Poissons Ratio (x) = -0.25949 0.79600
# Poissons Ratio (y) = -0.46366 0.34981
# Poissons Ratio (z) = 0.90891 0.22354
#
# Static dielectric constant tensor:
#      x y z
#    x 1.669390 0.000000 0.000000 
#    y 0.000000 1.749330 0.000000 
#    z 0.000000 0.000000 1.730310 
# 
# From -- ./inp_files/24528.got.cif
#   From: 2010.05.17/outbox.cif.g08.bks.cpg/sg47_13_cif.got.tgz:24528.got - 2010.06.03 20:15:42.
