data_PCOD9385777
_publ_section_title
;
Structure prediction by ZEFSAII (Michael W. Deem and Ramdas Pophale) SiO2 
 PCOD9385777
Probable space group: P M M M
;
_chemical_formula_sum "Si O2"
_cell_formula_units_Z 64
_cell_length_a 15.338749
_cell_length_b 7.613716
_cell_length_c 25.302158
_cell_angle_alpha 90.000000
_cell_angle_beta 90.000000
_cell_angle_gamma 90.000000
_cell_volume 2954.909452
_symmetry_space_group_name_H-M "P M M M"
_symmetry_group_IT_number 47
_symmetry_cell_setting 'orthorhombic'
loop_
_space_group_symop_operation_xyz
x,y,z
-x,-y,z
x,-y,-z
-x,y,-z
-x,-y,-z
x,y,-z
-x,y,z
x,-y,z
loop_
_atom_site_type_symbol
_atom_site_label
_atom_site_fract_x
_atom_site_fract_y
_atom_site_fract_z
Si Si1 0.225375 0.784710 0.939926
Si Si2 0.783169 0.298714 0.750260
Si Si3 0.404231 0.787184 0.885738
Si Si4 0.406504 0.709673 0.564022
Si Si5 0.405128 0.295108 0.762177
Si Si6 0.901786 0.205203 0.344699
Si Si7 0.216852 0.713024 0.560950
Si Si8 0.901901 0.792935 0.151124
O O1 0.320913 0.730370 0.919203
O O2 0.152554 0.721629 0.898584
O O3 0.225062 0.000000 0.939270
O O4 0.210125 0.729473 0.000000
O O5 0.768550 0.500000 0.766179
O O6 0.686847 0.217937 0.743038
O O7 0.837273 0.292907 0.696684
O O8 0.842598 0.222514 0.796767
O O9 0.500000 0.738761 0.907250
O O10 0.399083 0.717404 0.825919
O O11 0.401187 0.000000 0.882269
O O12 0.405549 0.728999 0.500000
O O13 0.500000 0.781193 0.583098
O O14 0.407590 0.500000 0.574440
O O15 0.311986 0.775628 0.581812
O O16 0.500000 0.218070 0.747239
O O17 0.408015 0.500000 0.745903
O O18 0.860724 0.225041 0.402355
O O19 0.000000 0.274923 0.341957
O O20 0.904249 0.000000 0.330606
O O21 0.207127 0.767406 0.500000
O O22 0.218380 0.500000 0.561731
O O23 0.000000 0.720557 0.158037
O O24 0.910930 0.000000 0.141324
#
# Coordination Sequence:
#
# PCOD9385777 Si02
#       8
#     8   8   8   8   8   8   8   8
#     4   9  17  29  46  72 106 140 176 219 263 313
#     4  11  22  37  60  84 105 133 172 220 269 319
#     4   9  16  27  47  74 102 135 174 215 260 311
#     4   7  10  20  43  76 110 141 174 211 250 296
#     4   9  18  33  54  80 108 136 167 207 260 321
#     4  11  25  42  58  78 107 144 183 224 271 320
#     4   9  18  34  58  87 116 147 184 224 265 310
#     4  10  20  34  53  76 103 137 177 222 272 322
#
# _framework density 21.658868999999999
#
# number of rings (size 3 to 8) (size 9 to 14) (size 15 to 20)
#    0.000    2.625    1.250    2.250    0.000    4.250 
#    0.000    4.375    0.000    5.625    0.000    4.375 
#    0.000    0.000    0.000    0.000    0.000    0.000 
#
# Total GULP energy -356990.449567 kJ/mol
# GULP energy per Si atom -5577.975774 kJ/mol
# Density = 2.160957 g / cm^3
# Si number density = 21.658869 Si / 1000 Ang^3
#
#
#
# Elastic Constant Matrix: (Units=GPa)
#
#
# Indices 1 2 3 4 5 6 
#
# 1 221.9594 9.1968 66.0802 0.0000 0.0000 0.0000
# 2 9.1968 44.5095 -6.5204 0.0000 0.0000 0.0000
# 3 66.0802 -6.5204 57.7138 0.0000 0.0000 0.0000
# 4 0.0000 0.0000 0.0000 13.4646 0.0000 0.0000
# 5 0.0000 0.0000 0.0000 0.0000 -51.2309 0.0000
# 6 0.0000 0.0000 0.0000 0.0000 0.0000 19.6698
#
#
#
# Elastic Compliance Matrix: (Units=1/GPa)
#
#
# Indices 1 2 3 4 5 6 
#
# 1 0.007145 -0.002720 -0.008488 0.000000 0.000000 0.000000
# 2 -0.002720 0.023881 0.005812 0.000000 0.000000 0.000000
# 3 -0.008488 0.005812 0.027702 0.000000 0.000000 0.000000
# 4 0.000000 0.000000 0.000000 0.074269 0.000000 0.000000
# 5 0.000000 0.000000 0.000000 0.000000 -0.019519 0.000000
# 6 0.000000 0.000000 0.000000 0.000000 0.000000 0.050839
#
#
# Mechanical properties :
#
#
# Convention : Reuss Voigt Hill
#
# Bulk Modulus (GPa) = 20.86117 51.29955 36.08036
# Shear Modulus (GPa) = 26.16613 13.40909 19.78761
#
# Velocity S-wave (km/s) = 3.47955 2.49088 3.02587
# Velocity P-wave (km/s) = 5.07894 5.65768 5.37610
#
# Compressibility (1/GPa) = 0.04793596
#
# Stress axis : x y z
#
# Youngs Moduli (GPa) = 139.95733 41.87509 36.09837
#
# Poissons Ratio (x) = 0.11389 0.30641
# Poissons Ratio (y) = 0.38066 -0.20981
# Poissons Ratio (z) = 1.18797 -0.24338
#
# Static dielectric constant tensor:
#      x y z
#    x 1.839400 0.000000 0.000000 
#    y 0.000000 1.865030 0.000000 
#    z 0.000000 0.000000 1.745460 
# 
# From -- ./inp_files/32753.got.cif
#   From: 2010.05.17/outbox.cif.g08.bks.cpg/sg47_17_cif.got.tgz:32753.got - 2010.06.03 20:15:42.
