data_PCOD9385172
_publ_section_title
;
Structure prediction by ZEFSAII (Michael W. Deem and Ramdas Pophale) SiO2 
 PCOD9385172
Probable space group: P M M M
;
_chemical_formula_sum "Si O2"
_cell_formula_units_Z 52
_cell_length_a 9.412540
_cell_length_b 35.331028
_cell_length_c 7.492250
_cell_angle_alpha 90.000000
_cell_angle_beta 90.000000
_cell_angle_gamma 90.000000
_cell_volume 2491.583058
_symmetry_space_group_name_H-M "P M M M"
_symmetry_group_IT_number 47
_symmetry_cell_setting 'orthorhombic'
loop_
_space_group_symop_operation_xyz
x,y,z
-x,-y,z
x,-y,-z
-x,y,-z
-x,-y,-z
x,y,-z
-x,y,z
x,-y,z
loop_
_atom_site_type_symbol
_atom_site_label
_atom_site_fract_x
_atom_site_fract_y
_atom_site_fract_z
Si Si1 0.664668 0.458254 0.782164
Si Si2 0.161178 0.386421 0.787510
Si Si3 0.338755 0.148813 0.714266
Si Si4 0.838413 0.073279 0.786437
Si Si5 0.166009 0.221533 0.282103
Si Si6 0.163894 0.304258 0.714015
Si Si7 0.664090 0.000000 0.218607
O O1 0.500000 0.455088 0.729784
O O2 0.717719 0.500000 0.727613
O O3 0.752384 0.422225 0.717549
O O4 0.667330 0.457798 0.000000
O O5 0.228806 0.344856 0.760439
O O6 0.000000 0.385921 0.714865
O O7 0.151413 0.391314 0.000000
O O8 0.346594 0.152222 0.500000
O O9 0.500000 0.144895 0.781667
O O10 0.244797 0.112003 0.751833
O O11 0.260164 0.186592 0.781099
O O12 0.000000 0.074166 0.717084
O O13 0.747886 0.037407 0.721402
O O14 0.847589 0.069028 0.000000
O O15 0.167255 0.220867 0.500000
O O16 0.219845 0.263312 0.225999
O O17 0.000000 0.217460 0.230295
O O18 0.160639 0.302876 0.500000
O O19 0.000000 0.305652 0.778929
O O20 0.500000 0.000000 0.275391
O O21 0.663102 0.000000 0.000000
#
# Coordination Sequence:
#
# PCOD9385172 Si02
#       7
#     8   8   8   8   8   8   4
#     4   8  14  25  40  57  79 109 141 169 203 254
#     4   9  16  25  40  64  88 106 132 177 223 254
#     4  10  20  33  50  73 100 128 158 196 242 285
#     4  10  20  34  53  76 100 128 164 201 235 277
#     4   8  14  27  47  66  85 116 156 189 218 263
#     4   8  14  26  44  63  84 114 148 177 211 261
#     4   9  17  31  52  75 100 131 162 194 236 283
#
# _framework density 20.870266000000001
#
# number of rings (size 3 to 8) (size 9 to 14) (size 15 to 20)
#    0.000    3.154    0.000    2.538    0.000    3.077 
#    0.000    3.462    0.000    6.923    0.000    3.231 
#    0.000    0.000    0.000    0.000    0.000    0.000 
#
# Total GULP energy -289931.722307 kJ/mol
# GULP energy per Si atom -5575.610044 kJ/mol
# Density = 2.082276 g / cm^3
# Si number density = 20.870266 Si / 1000 Ang^3
#
#
#
# Elastic Constant Matrix: (Units=GPa)
#
#
# Indices 1 2 3 4 5 6 
#
# 1 128.8472 116.9372 5.3040 0.0000 0.0000 0.0000
# 2 116.9372 260.8959 2.3135 0.0000 0.0000 0.0000
# 3 5.3040 2.3135 56.0648 0.0000 0.0000 0.0000
# 4 0.0000 0.0000 0.0000 21.2748 0.0000 0.0000
# 5 0.0000 0.0000 0.0000 0.0000 5.0460 0.0000
# 6 0.0000 0.0000 0.0000 0.0000 0.0000 435.3042
#
#
#
# Elastic Compliance Matrix: (Units=1/GPa)
#
#
# Indices 1 2 3 4 5 6 
#
# 1 0.013139 -0.005880 -0.001000 0.000000 0.000000 0.000000
# 2 -0.005880 0.006466 0.000289 0.000000 0.000000 0.000000
# 3 -0.001000 0.000289 0.017919 0.000000 0.000000 0.000000
# 4 0.000000 0.000000 0.000000 0.047004 0.000000 0.000000
# 5 0.000000 0.000000 0.000000 0.000000 0.198175 0.000000
# 6 0.000000 0.000000 0.000000 0.000000 0.000000 0.002297
#
#
# Mechanical properties :
#
#
# Convention : Reuss Voigt Hill
#
# Bulk Modulus (GPa) = 41.08133 77.21304 59.14719
# Shear Modulus (GPa) = 16.32403 113.74190 65.03296
#
# Velocity S-wave (km/s) = 2.79976 7.39039 5.58822
# Velocity P-wave (km/s) = 5.49349 10.48335 8.36896
#
# Compressibility (1/GPa) = 0.02434196
#
# Stress axis : x y z
#
# Youngs Moduli (GPa) = 76.10946 154.65592 55.80612
#
# Poissons Ratio (x) = 0.90941 0.05583
# Poissons Ratio (y) = 0.44754 -0.01615
# Poissons Ratio (z) = 0.07614 -0.04477
#
# Static dielectric constant tensor:
#      x y z
#    x 1.721290 0.000000 0.000000 
#    y 0.000000 1.756790 0.000000 
#    z 0.000000 0.000000 1.812810 
# 
# From -- ./inp_files/15449.got.cif
#   From: 2010.05.17/outbox.cif.g08.bks.cpg/sg47_8_cif.got.tgz:15449.got - 2010.06.03 20:15:42.
