data_PCOD9385693
_publ_section_title
;
Structure prediction by ZEFSAII (Michael W. Deem and Ramdas Pophale) SiO2 
 PCOD9385693
Probable space group: P M M M
;
_chemical_formula_sum "Si O2"
_cell_formula_units_Z 44
_cell_length_a 7.629651
_cell_length_b 14.827271
_cell_length_c 18.646083
_cell_angle_alpha 90.000000
_cell_angle_beta 90.000000
_cell_angle_gamma 90.000000
_cell_volume 2109.373623
_symmetry_space_group_name_H-M "P M M M"
_symmetry_group_IT_number 47
_symmetry_cell_setting 'orthorhombic'
loop_
_space_group_symop_operation_xyz
x,y,z
-x,-y,z
x,-y,-z
-x,y,-z
-x,-y,-z
x,y,-z
-x,y,z
x,-y,z
loop_
_atom_site_type_symbol
_atom_site_label
_atom_site_fract_x
_atom_site_fract_y
_atom_site_fract_z
Si Si1 0.714855 0.786667 0.920135
Si Si2 0.288787 0.400008 0.688067
Si Si3 0.292369 0.100794 0.784829
Si Si4 0.215038 0.104739 0.500000
Si Si5 0.794311 0.206242 0.358474
Si Si6 0.713657 0.599941 0.854460
O O1 0.500000 0.787221 0.919180
O O2 0.777885 0.850806 0.856088
O O3 0.770018 0.684572 0.901265
O O4 0.769726 0.812919 0.000000
O O5 0.500000 0.400884 0.688506
O O6 0.229319 0.500000 0.664712
O O7 0.233982 0.313525 0.642918
O O8 0.232971 0.387406 0.771223
O O9 0.500000 0.092668 0.796441
O O10 0.273050 0.162981 0.715148
O O11 0.220909 0.000000 0.773056
O O12 0.277217 0.156297 0.571297
O O13 0.000000 0.106787 0.500000
O O14 0.266748 0.000000 0.500000
O O15 0.000000 0.189270 0.357997
O O16 0.500000 0.599922 0.854842
O O17 0.770062 0.500000 0.877874
#
# Coordination Sequence:
#
# PCOD9385693 Si02
#       6
#     8   8   8   4   8   8
#     4   9  16  26  43  70 103 135 171 217 263 307
#     4   9  17  32  55  80 109 143 174 209 256 310
#     4  10  20  34  52  74 103 138 177 221 267 317
#     4   9  20  38  56  77 106 138 173 217 268 315
#     4  11  21  35  58  82 105 135 173 219 265 315
#     4   8  13  23  42  68  98 131 165 205 253 300
#
# _framework density 20.859272000000001
#
# number of rings (size 3 to 8) (size 9 to 14) (size 15 to 20)
#    0.000    2.636    1.818    2.182    0.000    2.182 
#    0.000    5.909    0.000    6.545    0.000    1.273 
#    0.000    2.909    0.000    0.000    0.000    0.000 
#
# Total GULP energy -245529.925983 kJ/mol
# GULP energy per Si atom -5580.225591 kJ/mol
# Density = 2.081180 g / cm^3
# Si number density = 20.859272 Si / 1000 Ang^3
#
#
#
# Elastic Constant Matrix: (Units=GPa)
#
#
# Indices 1 2 3 4 5 6 
#
# 1 37.0872 -1.5762 2.0705 0.0000 0.0000 0.0000
# 2 -1.5762 157.2423 86.6685 0.0000 0.0000 0.0000
# 3 2.0705 86.6685 140.0481 0.0000 0.0000 0.0000
# 4 0.0000 0.0000 0.0000 -12.4342 0.0000 0.0000
# 5 0.0000 0.0000 0.0000 0.0000 15.2300 0.0000
# 6 0.0000 0.0000 0.0000 0.0000 0.0000 7.7613
#
#
#
# Elastic Compliance Matrix: (Units=1/GPa)
#
#
# Indices 1 2 3 4 5 6 
#
# 1 0.027043 0.000746 -0.000861 0.000000 0.000000 0.000000
# 2 0.000746 0.009672 -0.005997 0.000000 0.000000 0.000000
# 3 -0.000861 -0.005997 0.010864 0.000000 0.000000 0.000000
# 4 0.000000 0.000000 0.000000 -0.080424 0.000000 0.000000
# 5 0.000000 0.000000 0.000000 0.000000 0.065660 0.000000
# 6 0.000000 0.000000 0.000000 0.000000 0.000000 0.128845
#
#
# Mechanical properties :
#
#
# Convention : Reuss Voigt Hill
#
# Bulk Modulus (GPa) = 28.28431 56.52256 42.40343
# Shear Modulus (GPa) = 26.92937 18.59240 22.76089
#
# Velocity S-wave (km/s) = 3.59695 2.98875 3.30686
# Velocity P-wave (km/s) = 5.55336 6.25028 5.91210
#
# Compressibility (1/GPa) = 0.03535529
#
# Stress axis : x y z
#
# Youngs Moduli (GPa) = 36.97779 103.38735 92.04531
#
# Poissons Ratio (x) = -0.07711 0.07929
# Poissons Ratio (y) = -0.02758 0.55197
# Poissons Ratio (z) = 0.03185 0.61999
#
# Static dielectric constant tensor:
#      x y z
#    x 1.807270 0.000000 0.000000 
#    y 0.000000 1.758360 0.000000 
#    z 0.000000 0.000000 1.723780 
# 
# From -- ./inp_files/20925.got.cif
#   From: 2010.05.17/outbox.cif.g08.bks.cpg/sg47_11_cif.got.tgz:20925.got - 2010.06.03 20:15:42.
