data_PCOD9385405
_publ_section_title
;
Structure prediction by ZEFSAII (Michael W. Deem and Ramdas Pophale) SiO2 
 PCOD9385405
Probable space group: P M M M
;
_chemical_formula_sum "Si O2"
_cell_formula_units_Z 48
_cell_length_a 9.067275
_cell_length_b 29.862869
_cell_length_c 10.296830
_cell_angle_alpha 90.000000
_cell_angle_beta 90.000000
_cell_angle_gamma 90.000000
_cell_volume 2788.122553
_symmetry_space_group_name_H-M "P M M M"
_symmetry_group_IT_number 47
_symmetry_cell_setting 'orthorhombic'
loop_
_space_group_symop_operation_xyz
x,y,z
-x,-y,z
x,-y,-z
-x,y,-z
-x,-y,-z
x,y,-z
-x,y,z
x,-y,z
loop_
_atom_site_type_symbol
_atom_site_label
_atom_site_fract_x
_atom_site_fract_y
_atom_site_fract_z
Si Si1 0.323376 0.946672 0.000000
Si Si2 0.327265 0.053663 0.500000
Si Si3 0.824328 0.804621 0.346761
Si Si4 0.822768 0.097568 0.749338
Si Si5 0.823602 0.379077 0.347662
Si Si6 0.323005 0.552615 0.850371
Si Si7 0.668857 0.713497 0.342346
O O1 0.500000 0.940648 0.000000
O O2 0.251109 0.923793 0.125013
O O3 0.294070 0.000000 0.000000
O O4 0.500000 0.066863 0.500000
O O5 0.245170 0.072795 0.374744
O O6 0.320728 0.000000 0.500000
O O7 0.789171 0.812502 0.500000
O O8 0.789806 0.849642 0.268540
O O9 0.740704 0.760300 0.300484
O O10 0.000000 0.796711 0.339893
O O11 0.000000 0.092468 0.752056
O O12 0.783018 0.386495 0.500000
O O13 0.756651 0.416589 0.254279
O O14 0.760174 0.330624 0.306971
O O15 0.000000 0.378756 0.339734
O O16 0.500000 0.557848 0.838496
O O17 0.289426 0.500000 0.830508
O O18 0.283130 0.563882 0.000000
O O19 0.670126 0.714886 0.500000
O O20 0.500000 0.709593 0.299133
#
# Coordination Sequence:
#
# PCOD9385405 Si02
#       7
#     4   4   8   8   8   8   8
#     4  11  25  43  59  79 111 149 185 225 278 333
#     4  11  23  37  55  83 117 147 179 227 278 321
#     4   9  17  32  53  80 112 140 172 219 271 320
#     4  11  22  38  60  85 110 144 186 227 273 329
#     4  10  20  33  51  78 111 145 180 222 270 318
#     4   9  19  36  56  77 104 141 183 227 275 325
#     4   9  17  29  49  78 108 141 180 219 263 318
#
# _framework density 17.215886000000001
#
# number of rings (size 3 to 8) (size 9 to 14) (size 15 to 20)
#    0.000    2.167    0.833    3.000    0.000    8.667 
#    0.000    2.500    1.833    0.000    0.000    0.000 
#    0.000    0.000    0.000    0.000    0.000    0.000 
#
# Total GULP energy -267865.685975 kJ/mol
# GULP energy per Si atom -5580.535124 kJ/mol
# Density = 1.717670 g / cm^3
# Si number density = 17.215886 Si / 1000 Ang^3
#
#
#
# Elastic Constant Matrix: (Units=GPa)
#
#
# Indices 1 2 3 4 5 6 
#
# 1 87.2165 87.4101 66.0988 0.0000 0.0000 0.0000
# 2 87.4101 149.6628 87.5445 0.0000 0.0000 0.0000
# 3 66.0988 87.5445 117.9968 0.0000 0.0000 0.0000
# 4 0.0000 0.0000 0.0000 24.2744 0.0000 0.0000
# 5 0.0000 0.0000 0.0000 0.0000 27.2020 0.0000
# 6 0.0000 0.0000 0.0000 0.0000 0.0000 38.3710
#
#
#
# Elastic Compliance Matrix: (Units=1/GPa)
#
#
# Indices 1 2 3 4 5 6 
#
# 1 0.030478 -0.013805 -0.006831 0.000000 0.000000 0.000000
# 2 -0.013805 0.018058 -0.005664 0.000000 0.000000 0.000000
# 3 -0.006831 -0.005664 0.016504 0.000000 0.000000 0.000000
# 4 0.000000 0.000000 0.000000 0.041196 0.000000 0.000000
# 5 0.000000 0.000000 0.000000 0.000000 0.036762 0.000000
# 6 0.000000 0.000000 0.000000 0.000000 0.000000 0.026061
#
#
# Mechanical properties :
#
#
# Convention : Reuss Voigt Hill
#
# Bulk Modulus (GPa) = 80.38937 92.99810 86.69373
# Shear Modulus (GPa) = 22.14293 25.55767 23.85030
#
# Velocity S-wave (km/s) = 3.59024 3.85715 3.72609
# Velocity P-wave (km/s) = 7.99892 8.60075 8.30529
#
# Compressibility (1/GPa) = 0.01243946
#
# Stress axis : x y z
#
# Youngs Moduli (GPa) = 32.81008 55.37780 60.59249
#
# Poissons Ratio (x) = 0.76450 0.41390
# Poissons Ratio (y) = 0.45295 0.34321
# Poissons Ratio (z) = 0.22412 0.31367
#
# Static dielectric constant tensor:
#      x y z
#    x 1.575110 0.000000 0.000000 
#    y 0.000000 1.569410 0.000000 
#    z 0.000000 0.000000 1.537970 
# 
# From -- ./inp_files/2691.got.cif
#   From: 2010.05.17/outbox.cif.g08.bks.cpg/sg47_2_cif.got.tgz:2691.got - 2010.06.03 20:15:42.
