data_PCOD9385299
_publ_section_title
;
Structure prediction by ZEFSAII (Michael W. Deem and Ramdas Pophale) SiO2 
 PCOD9385299
Probable space group: P M M M
;
_chemical_formula_sum "Si O2"
_cell_formula_units_Z 44
_cell_length_a 30.781048
_cell_length_b 9.402101
_cell_length_c 8.134470
_cell_angle_alpha 90.000000
_cell_angle_beta 90.000000
_cell_angle_gamma 90.000000
_cell_volume 2354.168672
_symmetry_space_group_name_H-M "P M M M"
_symmetry_group_IT_number 47
_symmetry_cell_setting 'orthorhombic'
loop_
_space_group_symop_operation_xyz
x,y,z
-x,-y,z
x,-y,-z
-x,y,-z
-x,-y,-z
x,y,-z
-x,y,z
x,-y,z
loop_
_atom_site_type_symbol
_atom_site_label
_atom_site_fract_x
_atom_site_fract_y
_atom_site_fract_z
Si Si1 0.947900 0.332599 0.500000
Si Si2 0.197110 0.839647 0.803182
Si Si3 0.904526 0.829098 0.193962
Si Si4 0.278167 0.659012 0.695041
Si Si5 0.360708 0.161363 0.195030
Si Si6 0.546855 0.166898 0.697620
O O1 0.935385 0.500000 0.500000
O O2 0.930410 0.255377 0.665650
O O3 0.000000 0.324068 0.500000
O O4 0.146774 0.803198 0.773022
O O5 0.232665 0.733364 0.735585
O O6 0.205004 0.000000 0.739970
O O7 0.202111 0.843318 0.000000
O O8 0.911714 0.000000 0.209123
O O9 0.913422 0.792638 0.000000
O O10 0.281807 0.650822 0.500000
O O11 0.279453 0.500000 0.765587
O O12 0.318824 0.750392 0.755232
O O13 0.407127 0.227428 0.245945
O O14 0.357826 0.000000 0.265003
O O15 0.360987 0.150774 0.000000
O O16 0.546719 0.170143 0.500000
O O17 0.500000 0.226547 0.754088
O O18 0.547369 0.000000 0.748773
#
# Coordination Sequence:
#
# PCOD9385299 Si02
#       6
#     4   8   8   8   8   8
#     4  11  25  41  59  89 129 169 207 249 298 357
#     4   9  19  37  60  85 111 140 179 227 279 334
#     4   9  20  40  65  92 121 156 202 255 306 356
#     4  11  24  37  50  74 107 142 180 220 265 321
#     4  10  20  33  51  75 102 134 173 216 263 317
#     4   8  14  26  46  72 100 129 163 207 260 316
#
# _framework density 18.690249000000001
#
# number of rings (size 3 to 8) (size 9 to 14) (size 15 to 20)
#    0.000    2.455    0.000    3.545    1.273    7.636 
#    0.000    5.455    0.000    0.545    0.000    3.818 
#    0.000    0.000    0.000    0.000    0.000    0.000 
#
# Total GULP energy -245272.903250 kJ/mol
# GULP energy per Si atom -5574.384165 kJ/mol
# Density = 1.864771 g / cm^3
# Si number density = 18.690249 Si / 1000 Ang^3
#
#
#
# Elastic Constant Matrix: (Units=GPa)
#
#
# Indices 1 2 3 4 5 6 
#
# 1 107.4937 71.5294 62.8257 0.0000 0.0000 0.0000
# 2 71.5294 79.1742 42.8878 0.0000 0.0000 0.0000
# 3 62.8257 42.8878 72.5630 0.0000 0.0000 0.0000
# 4 0.0000 0.0000 0.0000 -132.9101 0.0000 0.0000
# 5 0.0000 0.0000 0.0000 0.0000 51.4468 0.0000
# 6 0.0000 0.0000 0.0000 0.0000 0.0000 -27.9058
#
#
#
# Elastic Compliance Matrix: (Units=1/GPa)
#
#
# Indices 1 2 3 4 5 6 
#
# 1 0.032136 -0.020536 -0.015686 0.000000 0.000000 0.000000
# 2 -0.020536 0.031702 -0.000957 0.000000 0.000000 0.000000
# 3 -0.015686 -0.000957 0.027928 0.000000 0.000000 0.000000
# 4 0.000000 0.000000 0.000000 -0.007524 0.000000 0.000000
# 5 0.000000 0.000000 0.000000 0.000000 0.019438 0.000000
# 6 0.000000 0.000000 0.000000 0.000000 0.000000 -0.035835
#
#
# Mechanical properties :
#
#
# Convention : Reuss Voigt Hill
#
# Bulk Modulus (GPa) = 57.44537 68.19075 62.81806
# Shear Modulus (GPa) = 33.78280 -16.40795 8.68742
#
# Velocity S-wave (km/s) = 4.25609 -2.96613 2.15829
# Velocity P-wave (km/s) = 7.41314 4.98330 6.31617
#
# Compressibility (1/GPa) = 0.01740784
#
# Stress axis : x y z
#
# Youngs Moduli (GPa) = 31.11784 31.54392 35.80690
#
# Poissons Ratio (x) = 0.64779 0.56166
# Poissons Ratio (y) = 0.63904 0.03426
# Poissons Ratio (z) = 0.48811 0.03018
#
# Static dielectric constant tensor:
#      x y z
#    x 1.659000 0.000000 0.000000 
#    y 0.000000 1.641900 0.000000 
#    z 0.000000 0.000000 1.648970 
# 
# From -- ./inp_files/13683.got.cif
#   From: 2010.05.17/outbox.cif.g08.bks.cpg/sg47_7_cif.got.tgz:13683.got - 2010.06.03 20:15:42.
