data_PCOD9385616
_publ_section_title
;
Structure prediction by ZEFSAII (Michael W. Deem and Ramdas Pophale) SiO2 
 PCOD9385616
Probable space group: P M M M
;
_chemical_formula_sum "Si O2"
_cell_formula_units_Z 52
_cell_length_a 24.120412
_cell_length_b 15.041131
_cell_length_c 7.601830
_cell_angle_alpha 90.000000
_cell_angle_beta 90.000000
_cell_angle_gamma 90.000000
_cell_volume 2757.930824
_symmetry_space_group_name_H-M "P M M M"
_symmetry_group_IT_number 47
_symmetry_cell_setting 'orthorhombic'
loop_
_space_group_symop_operation_xyz
x,y,z
-x,-y,z
x,-y,-z
-x,y,-z
-x,-y,-z
x,y,-z
-x,y,z
x,-y,z
loop_
_atom_site_type_symbol
_atom_site_label
_atom_site_fract_x
_atom_site_fract_y
_atom_site_fract_z
Si Si1 0.898078 0.597787 0.790922
Si Si2 0.939108 0.213478 0.787547
Si Si3 0.830788 0.100312 0.290309
Si Si4 0.274516 0.214848 0.715966
Si Si5 0.378772 0.101766 0.290885
Si Si6 0.500000 0.898873 0.209187
Si Si7 0.232357 0.598059 0.712638
O O1 0.913449 0.500000 0.719166
O O2 0.927184 0.686273 0.721340
O O3 0.832060 0.609114 0.764640
O O4 0.908973 0.595133 0.000000
O O5 0.888770 0.149565 0.739118
O O6 0.000000 0.183551 0.728473
O O7 0.939520 0.217200 0.000000
O O8 0.822996 0.094382 0.500000
O O9 0.779512 0.159538 0.225170
O O10 0.830537 0.000000 0.219173
O O11 0.274836 0.215642 0.500000
O O12 0.329813 0.164513 0.776248
O O13 0.266843 0.316743 0.773423
O O14 0.370668 0.094856 0.500000
O O15 0.440617 0.139433 0.262434
O O16 0.376250 0.000000 0.219687
O O17 0.500000 0.000000 0.283052
O O18 0.500000 0.903301 0.000000
O O19 0.233719 0.597783 0.500000
O O20 0.250399 0.500000 0.773947
#
# Coordination Sequence:
#
# PCOD9385616 Si02
#       7
#     8   8   8   8   8   4   8
#     4   9  17  30  48  68  89 114 146 185 229 279
#     4  10  21  35  49  66  89 118 152 190 234 282
#     4  10  20  34  51  69  90 118 153 193 234 275
#     4   9  16  28  47  71  95 118 148 188 228 268
#     4   9  16  27  45  67  91 123 159 187 215 259
#     4   9  17  29  43  63  96 129 154 186 225 259
#     4   9  16  27  46  70  94 119 145 179 229 281
#
# _framework density 18.854714999999999
#
# number of rings (size 3 to 8) (size 9 to 14) (size 15 to 20)
#    0.000    2.692    1.538    0.692    0.000    4.000 
#    0.000    4.615    0.000    1.846    0.000    3.769 
#    0.000    4.308    0.000    0.000    0.000    0.000 
#
# Total GULP energy -289968.257247 kJ/mol
# GULP energy per Si atom -5576.312639 kJ/mol
# Density = 1.881180 g / cm^3
# Si number density = 18.854715 Si / 1000 Ang^3
#
#
#
# Elastic Constant Matrix: (Units=GPa)
#
#
# Indices 1 2 3 4 5 6 
#
# 1 141.4751 77.3906 -4.4883 0.0000 0.0000 0.0000
# 2 77.3906 133.2498 4.9310 0.0000 0.0000 0.0000
# 3 -4.4883 4.9310 39.5521 0.0000 0.0000 0.0000
# 4 0.0000 0.0000 0.0000 9.3141 0.0000 0.0000
# 5 0.0000 0.0000 0.0000 0.0000 23.4773 0.0000
# 6 0.0000 0.0000 0.0000 0.0000 0.0000 26.8403
#
#
#
# Elastic Compliance Matrix: (Units=1/GPa)
#
#
# Indices 1 2 3 4 5 6 
#
# 1 0.010509 -0.006176 0.001963 0.000000 0.000000 0.000000
# 2 -0.006176 0.011169 -0.002093 0.000000 0.000000 0.000000
# 3 0.001963 -0.002093 0.025767 0.000000 0.000000 0.000000
# 4 0.000000 0.000000 0.000000 0.107365 0.000000 0.000000
# 5 0.000000 0.000000 0.000000 0.000000 0.042594 0.000000
# 6 0.000000 0.000000 0.000000 0.000000 0.000000 0.037257
#
#
# Mechanical properties :
#
#
# Convention : Reuss Voigt Hill
#
# Bulk Modulus (GPa) = 28.70994 52.21595 40.46295
# Shear Modulus (GPa) = 19.31350 27.68926 23.50138
#
# Velocity S-wave (km/s) = 3.20399 3.83634 3.53433
# Velocity P-wave (km/s) = 5.38028 6.88311 6.17757
#
# Compressibility (1/GPa) = 0.03483114
#
# Stress axis : x y z
#
# Youngs Moduli (GPa) = 95.15417 89.53083 38.80967
#
# Poissons Ratio (x) = 0.55297 -0.07617
# Poissons Ratio (y) = 0.58770 0.08124
# Poissons Ratio (z) = -0.18675 0.18742
#
# Static dielectric constant tensor:
#      x y z
#    x 1.638400 0.000000 0.000000 
#    y 0.000000 1.671790 0.000000 
#    z 0.000000 0.000000 1.707750 
# 
# From -- ./inp_files/7588.got.cif
#   From: 2010.05.17/outbox.cif.g08.bks.cpg/sg47_4_cif.got.tgz:7588.got - 2010.06.03 20:15:42.
