data_PCOD9385103
_publ_section_title
;
Structure prediction by ZEFSAII (Michael W. Deem and Ramdas Pophale) SiO2 
 PCOD9385103
Probable space group: P M M M
;
_chemical_formula_sum "Si O2"
_cell_formula_units_Z 52
_cell_length_a 24.201246
_cell_length_b 14.923511
_cell_length_c 7.741149
_cell_angle_alpha 90.000000
_cell_angle_beta 90.000000
_cell_angle_gamma 90.000000
_cell_volume 2795.851903
_symmetry_space_group_name_H-M "P M M M"
_symmetry_group_IT_number 47
_symmetry_cell_setting 'orthorhombic'
loop_
_space_group_symop_operation_xyz
x,y,z
-x,-y,z
x,-y,-z
-x,y,-z
-x,-y,-z
x,y,-z
-x,y,z
x,-y,z
loop_
_atom_site_type_symbol
_atom_site_label
_atom_site_fract_x
_atom_site_fract_y
_atom_site_fract_z
Si Si1 0.726231 0.217280 0.794748
Si Si2 0.098478 0.599068 0.201394
Si Si3 0.168900 0.102992 0.788488
Si Si4 0.379934 0.897946 0.707820
Si Si5 0.500000 0.891137 0.698883
Si Si6 0.224266 0.599454 0.296043
Si Si7 0.060793 0.210352 0.211619
O O1 0.778466 0.159969 0.727160
O O2 0.669529 0.169012 0.746447
O O3 0.734378 0.319724 0.739384
O O4 0.730136 0.216068 0.000000
O O5 0.087795 0.500000 0.277572
O O6 0.164570 0.615316 0.209630
O O7 0.069910 0.687522 0.273715
O O8 0.082474 0.594513 0.000000
O O9 0.111992 0.149566 0.732604
O O10 0.172607 0.000000 0.733990
O O11 0.169338 0.103832 0.000000
O O12 0.385189 0.903231 0.500000
O O13 0.440279 0.867654 0.776169
O O14 0.368047 0.000000 0.769438
O O15 0.500000 0.858647 0.500000
O O16 0.500000 0.000000 0.694494
O O17 0.213488 0.597752 0.500000
O O18 0.243617 0.500000 0.242664
O O19 0.000000 0.178051 0.261971
O O20 0.062602 0.212078 0.000000
#
# Coordination Sequence:
#
# PCOD9385103 Si02
#       7
#     8   8   8   8   4   8   8
#     4  11  20  31  48  71 100 130 160 198 245 294
#     4   9  16  28  46  67  91 116 144 186 244 301
#     4   9  17  28  41  61  91 123 154 193 238 278
#     4   9  17  30  49  74 104 138 174 206 236 274
#     4   7  12  26  47  69  98 137 174 205 235 270
#     4  10  20  33  50  71  93 119 154 196 242 295
#     4   9  16  26  41  63  89 118 155 194 235 287
#
# _framework density 18.598980999999998
#
# number of rings (size 3 to 8) (size 9 to 14) (size 15 to 20)
#    0.000    2.692    1.538    2.308    0.000    2.462 
#    0.000    3.462    0.000    1.846    0.000    2.692 
#    0.000    5.538    0.000    0.000    0.000    0.000 
#
# Total GULP energy -289935.724773 kJ/mol
# GULP energy per Si atom -5575.687015 kJ/mol
# Density = 1.855665 g / cm^3
# Si number density = 18.598981 Si / 1000 Ang^3
#
#
#
# Elastic Constant Matrix: (Units=GPa)
#
#
# Indices 1 2 3 4 5 6 
#
# 1 138.4570 73.4480 2.8241 0.0000 0.0000 0.0000
# 2 73.4480 115.2012 4.0113 0.0000 0.0000 0.0000
# 3 2.8241 4.0113 31.7451 0.0000 0.0000 0.0000
# 4 0.0000 0.0000 0.0000 8.7865 0.0000 0.0000
# 5 0.0000 0.0000 0.0000 0.0000 15.0855 0.0000
# 6 0.0000 0.0000 0.0000 0.0000 0.0000 -48.9039
#
#
#
# Elastic Compliance Matrix: (Units=1/GPa)
#
#
# Indices 1 2 3 4 5 6 
#
# 1 0.010914 -0.006955 -0.000092 0.000000 0.000000 0.000000
# 2 -0.006955 0.013151 -0.001043 0.000000 0.000000 0.000000
# 3 -0.000092 -0.001043 0.031641 0.000000 0.000000 0.000000
# 4 0.000000 0.000000 0.000000 0.113811 0.000000 0.000000
# 5 0.000000 0.000000 0.000000 0.000000 0.066289 0.000000
# 6 0.000000 0.000000 0.000000 0.000000 0.000000 -0.020448
#
#
# Mechanical properties :
#
#
# Convention : Reuss Voigt Hill
#
# Bulk Modulus (GPa) = 25.30011 49.55223 37.42617
# Shear Modulus (GPa) = 20.43211 8.66827 14.55019
#
# Velocity S-wave (km/s) = 3.31805 2.16119 2.80002
# Velocity P-wave (km/s) = 5.32088 5.73829 5.53352
#
# Compressibility (1/GPa) = 0.03952553
#
# Stress axis : x y z
#
# Youngs Moduli (GPa) = 91.62709 76.03955 31.60463
#
# Poissons Ratio (x) = 0.52886 0.00291
# Poissons Ratio (y) = 0.63727 0.03296
# Poissons Ratio (z) = 0.00844 0.07931
#
# Static dielectric constant tensor:
#      x y z
#    x 1.654290 0.000000 0.000000 
#    y 0.000000 1.710170 0.000000 
#    z 0.000000 0.000000 1.704740 
# 
# From -- ./inp_files/7582.got.cif
#   From: 2010.05.17/outbox.cif.g08.bks.cpg/sg47_4_cif.got.tgz:7582.got - 2010.06.03 20:15:42.
