data_PCOD9385726
_publ_section_title
;
Structure prediction by ZEFSAII (Michael W. Deem and Ramdas Pophale) SiO2 
 PCOD9385726
Probable space group: P M M M
;
_chemical_formula_sum "Si O2"
_cell_formula_units_Z 48
_cell_length_a 15.257015
_cell_length_b 18.199873
_cell_length_c 7.815301
_cell_angle_alpha 90.000000
_cell_angle_beta 90.000000
_cell_angle_gamma 90.000000
_cell_volume 2170.119452
_symmetry_space_group_name_H-M "P M M M"
_symmetry_group_IT_number 47
_symmetry_cell_setting 'orthorhombic'
loop_
_space_group_symop_operation_xyz
x,y,z
-x,-y,z
x,-y,-z
-x,y,-z
-x,-y,-z
x,y,-z
-x,y,z
x,-y,z
loop_
_atom_site_type_symbol
_atom_site_label
_atom_site_fract_x
_atom_site_fract_y
_atom_site_fract_z
Si Si1 0.600546 0.000000 0.704415
Si Si2 0.099993 0.812438 0.296180
Si Si3 0.173571 0.658290 0.697050
Si Si4 0.277520 0.137042 0.797209
Si Si5 0.595259 0.737451 0.790559
Si Si6 0.652275 0.582429 0.800989
Si Si7 0.000000 0.586510 0.804724
O O1 0.657074 0.929463 0.758685
O O2 0.500000 0.000000 0.771288
O O3 0.595683 0.000000 0.500000
O O4 0.092073 0.802220 0.500000
O O5 0.143596 0.736967 0.227349
O O6 0.177743 0.870883 0.267503
O O7 0.000000 0.825076 0.232292
O O8 0.201898 0.667227 0.500000
O O9 0.248069 0.612023 0.791649
O O10 0.085088 0.612706 0.706977
O O11 0.326551 0.210466 0.728690
O O12 0.270768 0.144261 0.000000
O O13 0.500000 0.768406 0.744934
O O14 0.602272 0.653438 0.728355
O O15 0.600290 0.735649 0.000000
O O16 0.643402 0.500000 0.727102
O O17 0.626391 0.576852 0.000000
O O18 0.000000 0.500000 0.815678
O O19 0.000000 0.616256 0.000000
#
# Coordination Sequence:
#
# PCOD9385726 Si02
#       7
#     4   8   8   8   8   8   4
#     4  11  25  45  70 101 136 171 203 240 296 363
#     4  10  21  39  61  87 121 162 206 251 302 366
#     4  11  21  35  54  77 109 151 200 253 308 367
#     4  11  22  39  66  97 129 162 200 254 307 359
#     4   9  18  33  55  85 118 154 199 251 307 362
#     4  10  20  34  52  77 112 154 203 256 308 362
#     4  11  23  35  49  73 107 146 195 258 319 371
#
# _framework density 22.118599
#
# number of rings (size 3 to 8) (size 9 to 14) (size 15 to 20)
#    0.000    1.667    2.500    2.500    0.000    5.667 
#    0.000    2.083    0.000    4.000    0.000    1.167 
#    0.000    0.000    0.000    0.000    0.000    0.000 
#
# Total GULP energy -267834.210003 kJ/mol
# GULP energy per Si atom -5579.879375 kJ/mol
# Density = 2.206826 g / cm^3
# Si number density = 22.118599 Si / 1000 Ang^3
#
#
#
# Elastic Constant Matrix: (Units=GPa)
#
#
# Indices 1 2 3 4 5 6 
#
# 1 161.8530 60.5950 -1.3118 0.0000 0.0000 0.0000
# 2 60.5950 98.8833 5.2909 0.0000 0.0000 0.0000
# 3 -1.3118 5.2909 45.9626 0.0000 0.0000 0.0000
# 4 0.0000 0.0000 0.0000 15.6950 0.0000 0.0000
# 5 0.0000 0.0000 0.0000 0.0000 20.6698 0.0000
# 6 0.0000 0.0000 0.0000 0.0000 0.0000 35.7357
#
#
#
# Elastic Compliance Matrix: (Units=1/GPa)
#
#
# Indices 1 2 3 4 5 6 
#
# 1 0.008047 -0.004974 0.000802 0.000000 0.000000 0.000000
# 2 -0.004974 0.013250 -0.001667 0.000000 0.000000 0.000000
# 3 0.000802 -0.001667 0.021972 0.000000 0.000000 0.000000
# 4 0.000000 0.000000 0.000000 0.063714 0.000000 0.000000
# 5 0.000000 0.000000 0.000000 0.000000 0.048380 0.000000
# 6 0.000000 0.000000 0.000000 0.000000 0.000000 0.027983
#
#
# Mechanical properties :
#
#
# Convention : Reuss Voigt Hill
#
# Bulk Modulus (GPa) = 31.65482 48.42746 40.04114
# Shear Modulus (GPa) = 24.32437 30.56177 27.44307
#
# Velocity S-wave (km/s) = 3.31981 3.72119 3.52621
# Velocity P-wave (km/s) = 5.38863 6.35649 5.89246
#
# Compressibility (1/GPa) = 0.03159076
#
# Stress axis : x y z
#
# Youngs Moduli (GPa) = 124.26683 75.47002 45.51325
#
# Poissons Ratio (x) = 0.37540 -0.03651
# Poissons Ratio (y) = 0.61813 0.07588
# Poissons Ratio (z) = -0.09970 0.12583
#
# Static dielectric constant tensor:
#      x y z
#    x 1.837140 0.000000 0.000000 
#    y 0.000000 1.838170 0.000000 
#    z 0.000000 0.000000 1.855900 
# 
# From -- ./inp_files/6519.got.cif
#   From: 2010.05.17/outbox.cif.g08.bks.cpg/sg47_4_cif.got.tgz:6519.got - 2010.06.03 20:15:42.
