data_PCOD9385305
_publ_section_title
;
Structure prediction by ZEFSAII (Michael W. Deem and Ramdas Pophale) SiO2 
 PCOD9385305
Probable space group: P M M M
;
_chemical_formula_sum "Si O2"
_cell_formula_units_Z 64
_cell_length_a 7.400491
_cell_length_b 25.728731
_cell_length_c 15.099154
_cell_angle_alpha 90.000000
_cell_angle_beta 90.000000
_cell_angle_gamma 90.000000
_cell_volume 2874.958074
_symmetry_space_group_name_H-M "P M M M"
_symmetry_group_IT_number 47
_symmetry_cell_setting 'orthorhombic'
loop_
_space_group_symop_operation_xyz
x,y,z
-x,-y,z
x,-y,-z
-x,y,-z
-x,-y,-z
x,y,-z
-x,y,z
x,-y,z
loop_
_atom_site_type_symbol
_atom_site_label
_atom_site_fract_x
_atom_site_fract_y
_atom_site_fract_z
Si Si1 0.720671 0.556998 0.209241
Si Si2 0.716453 0.062634 0.595003
Si Si3 0.719017 0.658568 0.897922
Si Si4 0.219023 0.292464 0.402564
Si Si5 0.718137 0.940510 0.212487
Si Si6 0.787170 0.844098 0.901639
Si Si7 0.209925 0.756973 0.224966
Si Si8 0.289371 0.414950 0.402892
O O1 0.500000 0.559133 0.211317
O O2 0.771882 0.500000 0.175607
O O3 0.778816 0.605216 0.149156
O O4 0.784605 0.563250 0.310907
O O5 0.787368 0.082244 0.500000
O O6 0.500000 0.070924 0.593852
O O7 0.783146 0.080370 0.691164
O O8 0.743310 0.000000 0.595809
O O9 0.500000 0.659130 0.897447
O O10 0.780514 0.707054 0.839117
O O11 0.777681 0.662289 0.000000
O O12 0.273219 0.273341 0.500000
O O13 0.287509 0.259418 0.319818
O O14 0.278978 0.352375 0.394691
O O15 0.000000 0.293709 0.399491
O O16 0.500000 0.941818 0.216190
O O17 0.770541 0.902167 0.134666
O O18 0.779251 0.000000 0.200663
O O19 0.708446 0.804906 0.828869
O O20 0.000000 0.831769 0.907675
O O21 0.710782 0.837895 0.000000
O O22 0.000000 0.769489 0.242249
O O23 0.211984 0.428737 0.500000
O O24 0.500000 0.430161 0.405397
#
# Coordination Sequence:
#
# PCOD9385305 Si02
#       8
#     8   8   8   8   8   8   8   8
#     4   9  17  29  45  69 102 134 164 202 249 302
#     4   7  10  20  42  71 100 129 160 193 232 281
#     4  10  20  33  51  75  99 126 166 214 259 300
#     4   9  17  30  51  77 101 127 160 198 246 302
#     4   9  18  33  54  80 107 135 169 208 248 291
#     4  10  22  38  53  72 100 134 171 209 252 301
#     4  10  20  36  57  76  98 130 166 206 250 300
#     4   9  16  27  46  71  98 129 164 202 244 293
#
# _framework density 22.261195000000001
#
# number of rings (size 3 to 8) (size 9 to 14) (size 15 to 20)
#    0.000    2.875    1.250    1.500    0.000    2.500 
#    0.000    4.375    0.000    2.625    0.000    4.375 
#    0.000    0.000    0.000    0.000    0.000    0.000 
#
# Total GULP energy -357117.933582 kJ/mol
# GULP energy per Si atom -5579.967712 kJ/mol
# Density = 2.221053 g / cm^3
# Si number density = 22.261195 Si / 1000 Ang^3
#
#
#
# Elastic Constant Matrix: (Units=GPa)
#
#
# Indices 1 2 3 4 5 6 
#
# 1 75.6945 -9.3769 -3.3173 0.0000 0.0000 0.0000
# 2 -9.3769 80.7981 47.5356 0.0000 0.0000 0.0000
# 3 -3.3173 47.5356 134.1806 0.0000 0.0000 0.0000
# 4 0.0000 0.0000 0.0000 -13.9274 0.0000 0.0000
# 5 0.0000 0.0000 0.0000 0.0000 3.6671 0.0000
# 6 0.0000 0.0000 0.0000 0.0000 0.0000 12.1452
#
#
#
# Elastic Compliance Matrix: (Units=1/GPa)
#
#
# Indices 1 2 3 4 5 6 
#
# 1 0.013412 0.001720 -0.000278 0.000000 0.000000 0.000000
# 2 0.001720 0.015856 -0.005575 0.000000 0.000000 0.000000
# 3 -0.000278 -0.005575 0.009421 0.000000 0.000000 0.000000
# 4 0.000000 0.000000 0.000000 -0.071801 0.000000 0.000000
# 5 0.000000 0.000000 0.000000 0.000000 0.272698 0.000000
# 6 0.000000 0.000000 0.000000 0.000000 0.000000 0.082337
#
#
# Mechanical properties :
#
#
# Convention : Reuss Voigt Hill
#
# Bulk Modulus (GPa) = 32.86940 40.03954 36.45447
# Shear Modulus (GPa) = 14.69165 17.43242 16.06204
#
# Velocity S-wave (km/s) = 2.57177 2.80140 2.68904
# Velocity P-wave (km/s) = 4.85964 5.33752 5.10417
#
# Compressibility (1/GPa) = 0.03042343
#
# Stress axis : x y z
#
# Youngs Moduli (GPa) = 74.56075 63.06822 106.14937
#
# Poissons Ratio (x) = -0.10847 0.02948
# Poissons Ratio (y) = -0.12824 0.59175
# Poissons Ratio (z) = 0.02071 0.35158
#
# Static dielectric constant tensor:
#      x y z
#    x 1.862990 0.000000 0.000000 
#    y 0.000000 1.778290 0.000000 
#    z 0.000000 0.000000 1.842480 
# 
# From -- ./inp_files/21935.got.cif
#   From: 2010.05.17/outbox.cif.g08.bks.cpg/sg47_11_cif.got.tgz:21935.got - 2010.06.03 20:15:42.
