data_PCOD9385558
_publ_section_title
;
Structure prediction by ZEFSAII (Michael W. Deem and Ramdas Pophale) SiO2 
 PCOD9385558
Probable space group: P M M M
;
_chemical_formula_sum "Si O2"
_cell_formula_units_Z 64
_cell_length_a 13.578656
_cell_length_b 15.918837
_cell_length_c 15.935367
_cell_angle_alpha 90.000000
_cell_angle_beta 90.000000
_cell_angle_gamma 90.000000
_cell_volume 3444.531747
_symmetry_space_group_name_H-M "P M M M"
_symmetry_group_IT_number 47
_symmetry_cell_setting 'orthorhombic'
loop_
_space_group_symop_operation_xyz
x,y,z
-x,-y,z
x,-y,-z
-x,y,-z
-x,-y,-z
x,y,-z
-x,y,z
x,-y,z
loop_
_atom_site_type_symbol
_atom_site_label
_atom_site_fract_x
_atom_site_fract_y
_atom_site_fract_z
Si Si1 0.382394 0.164110 0.092104
Si Si2 0.390907 0.900524 0.724092
Si Si3 0.182701 0.595489 0.598318
Si Si4 0.270962 0.298857 0.182658
Si Si5 0.892438 0.399883 0.903776
Si Si6 0.888072 0.240243 0.694156
Si Si7 0.387398 0.401908 0.317023
Si Si8 0.782060 0.099684 0.400737
O O1 0.500000 0.177048 0.091717
O O2 0.361717 0.114591 0.178747
O O3 0.324263 0.249964 0.108247
O O4 0.356742 0.127902 0.000000
O O5 0.500000 0.862698 0.711858
O O6 0.313694 0.873756 0.653565
O O7 0.398252 0.000000 0.713568
O O8 0.161222 0.602308 0.500000
O O9 0.156485 0.500000 0.626217
O O10 0.129890 0.670098 0.648176
O O11 0.300370 0.605367 0.614397
O O12 0.199115 0.370300 0.149269
O O13 0.194658 0.239548 0.233275
O O14 0.352132 0.338613 0.244286
O O15 0.893795 0.500000 0.905187
O O16 0.000000 0.371606 0.871578
O O17 0.883360 0.370240 0.000000
O O18 0.865439 0.163167 0.631486
O O19 0.000000 0.234405 0.723777
O O20 0.500000 0.384894 0.343640
O O21 0.384464 0.500000 0.288650
O O22 0.765783 0.109303 0.500000
O O23 0.802155 0.000000 0.384870
#
# Coordination Sequence:
#
# PCOD9385558 Si02
#       8
#     8   8   8   8   8   8   8   8
#     4  10  20  33  53  82 112 143 176 212 261 322
#     4   9  18  35  58  84 114 144 175 217 268 326
#     4   9  19  35  53  75 105 139 177 225 278 330
#     4  11  19  33  51  73 104 142 177 223 271 326
#     4   9  18  32  50  73 100 132 177 232 282 328
#     4  11  23  37  55  79 107 142 188 235 281 331
#     4   9  18  31  48  70  97 135 179 219 263 317
#     4  10  21  38  59  84 113 146 185 229 279 333
#
# _framework density 18.580172999999998
#
# number of rings (size 3 to 8) (size 9 to 14) (size 15 to 20)
#    0.000    2.250    1.250    2.250    0.000    2.750 
#    0.000    5.000    0.000    1.500    0.000    5.250 
#    0.000    2.000    0.000    0.000    0.000    0.000 
#
# Total GULP energy -356513.114463 kJ/mol
# GULP energy per Si atom -5570.517413 kJ/mol
# Density = 1.853788 g / cm^3
# Si number density = 18.580173 Si / 1000 Ang^3
#
#
#
# Elastic Constant Matrix: (Units=GPa)
#
#
# Indices 1 2 3 4 5 6 
#
# 1 49.4620 22.3820 12.8450 0.0000 0.0000 0.0000
# 2 22.3820 38.3620 15.8825 0.0000 0.0000 0.0000
# 3 12.8450 15.8825 65.4527 0.0000 0.0000 0.0000
# 4 0.0000 0.0000 0.0000 119.3045 0.0000 0.0000
# 5 0.0000 0.0000 0.0000 0.0000 15.1222 0.0000
# 6 0.0000 0.0000 0.0000 0.0000 0.0000 19.3749
#
#
#
# Elastic Compliance Matrix: (Units=1/GPa)
#
#
# Indices 1 2 3 4 5 6 
#
# 1 0.027635 -0.015428 -0.001680 0.000000 0.000000 0.000000
# 2 -0.015428 0.037592 -0.006094 0.000000 0.000000 0.000000
# 3 -0.001680 -0.006094 0.017087 0.000000 0.000000 0.000000
# 4 0.000000 0.000000 0.000000 0.008382 0.000000 0.000000
# 5 0.000000 0.000000 0.000000 0.000000 0.066128 0.000000
# 6 0.000000 0.000000 0.000000 0.000000 0.000000 0.051613
#
#
# Mechanical properties :
#
#
# Convention : Reuss Voigt Hill
#
# Bulk Modulus (GPa) = 27.84751 28.38843 28.11797
# Shear Modulus (GPa) = 18.73989 37.57145 28.15567
#
# Velocity S-wave (km/s) = 3.17929 4.50168 3.89699
# Velocity P-wave (km/s) = 5.33830 6.50632 5.95104
#
# Compressibility (1/GPa) = 0.03590986
#
# Stress axis : x y z
#
# Youngs Moduli (GPa) = 36.18587 26.60146 58.52527
#
# Poissons Ratio (x) = 0.41041 0.09830
# Poissons Ratio (y) = 0.55828 0.35666
# Poissons Ratio (z) = 0.06078 0.16211
#
# Static dielectric constant tensor:
#      x y z
#    x 1.645260 0.000000 0.000000 
#    y 0.000000 1.663300 0.000000 
#    z 0.000000 0.000000 1.647700 
# 
# From -- ./inp_files/17903.got.cif
#   From: 2010.05.17/outbox.cif.g08.bks.cpg/sg47_9_cif.got.tgz:17903.got - 2010.06.03 20:15:42.
