data_PCOD9385337
_publ_section_title
;
Structure prediction by ZEFSAII (Michael W. Deem and Ramdas Pophale) SiO2 
 PCOD9385337
Probable space group: P M M M
;
_chemical_formula_sum "Si O2"
_cell_formula_units_Z 64
_cell_length_a 8.837685
_cell_length_b 20.016207
_cell_length_c 19.674187
_cell_angle_alpha 90.000000
_cell_angle_beta 90.000000
_cell_angle_gamma 90.000000
_cell_volume 3480.303327
_symmetry_space_group_name_H-M "P M M M"
_symmetry_group_IT_number 47
_symmetry_cell_setting 'orthorhombic'
loop_
_space_group_symop_operation_xyz
x,y,z
-x,-y,z
x,-y,-z
-x,y,-z
-x,-y,-z
x,y,-z
-x,y,z
x,-y,z
loop_
_atom_site_type_symbol
_atom_site_label
_atom_site_fract_x
_atom_site_fract_y
_atom_site_fract_z
Si Si1 0.176260 0.598818 0.076303
Si Si2 0.679377 0.257875 0.924830
Si Si3 0.673567 0.919087 0.575081
Si Si4 0.821447 0.077498 0.713946
Si Si5 0.176917 0.674724 0.691900
Si Si6 0.679313 0.204307 0.224774
Si Si7 0.670946 0.425426 0.211971
Si Si8 0.682024 0.577158 0.580215
O O1 0.214977 0.677306 0.075624
O O2 0.285912 0.571033 0.133401
O O3 0.000000 0.586724 0.092607
O O4 0.204505 0.574523 0.000000
O O5 0.500000 0.277025 0.921420
O O6 0.713349 0.220802 0.854287
O O7 0.699217 0.225084 0.000000
O O8 0.717760 0.894877 0.500000
O O9 0.500000 0.897995 0.588810
O O10 0.781786 0.901714 0.636603
O O11 0.672089 0.000000 0.572161
O O12 0.735679 0.130003 0.760156
O O13 0.000000 0.081186 0.725054
O O14 0.773555 0.000000 0.722805
O O15 0.246934 0.743435 0.721635
O O16 0.210703 0.622516 0.752484
O O17 0.249279 0.635487 0.627410
O O18 0.000000 0.684305 0.680146
O O19 0.500000 0.209117 0.233663
O O20 0.500000 0.399078 0.221084
O O21 0.676223 0.500000 0.240957
O O22 0.714779 0.587852 0.500000
O O23 0.500000 0.578651 0.588788
O O24 0.731033 0.500000 0.596429
#
# Coordination Sequence:
#
# PCOD9385337 Si02
#       8
#     8   8   8   8   8   8   8   8
#     4  10  20  33  51  76 106 140 178 224 277 329
#     4   9  18  34  57  82 107 139 182 229 277 334
#     4   8  14  27  49  76 106 141 180 218 256 307
#     4  10  21  36  55  82 116 150 185 229 280 335
#     4  12  24  37  56  83 115 145 180 232 286 337
#     4  11  22  37  60  85 112 147 185 228 279 338
#     4  11  23  37  53  74 104 145 189 229 271 323
#     4   9  19  38  63  87 113 150 195 240 286 339
#
# _framework density 18.389201
#
# number of rings (size 3 to 8) (size 9 to 14) (size 15 to 20)
#    0.000    2.000    1.250    3.750    0.000    5.500 
#    0.000    3.750    0.000    4.125    0.000    2.625 
#    0.000    0.000    0.000    0.000    0.000    0.000 
#
# Total GULP energy -356796.283055 kJ/mol
# GULP energy per Si atom -5574.941923 kJ/mol
# Density = 1.834735 g / cm^3
# Si number density = 18.389201 Si / 1000 Ang^3
#
#
#
# Elastic Constant Matrix: (Units=GPa)
#
#
# Indices 1 2 3 4 5 6 
#
# 1 52.1046 35.8987 39.9024 0.0000 0.0000 0.0000
# 2 35.8987 86.8987 54.1020 0.0000 0.0000 0.0000
# 3 39.9024 54.1020 113.7446 0.0000 0.0000 0.0000
# 4 0.0000 0.0000 0.0000 28.2455 0.0000 0.0000
# 5 0.0000 0.0000 0.0000 0.0000 21.8082 0.0000
# 6 0.0000 0.0000 0.0000 0.0000 0.0000 35.7798
#
#
#
# Elastic Compliance Matrix: (Units=1/GPa)
#
#
# Indices 1 2 3 4 5 6 
#
# 1 0.029916 -0.008275 -0.006559 0.000000 0.000000 0.000000
# 2 -0.008275 0.018638 -0.005962 0.000000 0.000000 0.000000
# 3 -0.006559 -0.005962 0.013928 0.000000 0.000000 0.000000
# 4 0.000000 0.000000 0.000000 0.035404 0.000000 0.000000
# 5 0.000000 0.000000 0.000000 0.000000 0.045854 0.000000
# 6 0.000000 0.000000 0.000000 0.000000 0.000000 0.027949
#
#
# Mechanical properties :
#
#
# Convention : Reuss Voigt Hill
#
# Bulk Modulus (GPa) = 47.86860 56.95045 52.40952
# Shear Modulus (GPa) = 22.70190 25.35636 24.02913
#
# Velocity S-wave (km/s) = 3.51739 3.71735 3.61875
# Velocity P-wave (km/s) = 6.52559 7.03290 6.78399
#
# Compressibility (1/GPa) = 0.02089052
#
# Stress axis : x y z
#
# Youngs Moduli (GPa) = 33.42638 53.65320 71.79614
#
# Poissons Ratio (x) = 0.44400 0.47089
# Poissons Ratio (y) = 0.27662 0.42806
# Poissons Ratio (z) = 0.21924 0.31989
#
# Static dielectric constant tensor:
#      x y z
#    x 1.615220 0.000000 0.000000 
#    y 0.000000 1.638650 0.000000 
#    z 0.000000 0.000000 1.671100 
# 
# From -- ./inp_files/27037.got.cif
#   From: 2010.05.17/outbox.cif.g08.bks.cpg/sg47_14_cif.got.tgz:27037.got - 2010.06.03 20:15:42.
