data_PCOD9385646
_publ_section_title
;
Structure prediction by ZEFSAII (Michael W. Deem and Ramdas Pophale) SiO2 
 PCOD9385646
Probable space group: P M M M
;
_chemical_formula_sum "Si O2"
_cell_formula_units_Z 48
_cell_length_a 15.014934
_cell_length_b 15.470665
_cell_length_c 12.379493
_cell_angle_alpha 90.000000
_cell_angle_beta 90.000000
_cell_angle_gamma 90.000000
_cell_volume 2875.644981
_symmetry_space_group_name_H-M "P M M M"
_symmetry_group_IT_number 47
_symmetry_cell_setting 'orthorhombic'
loop_
_space_group_symop_operation_xyz
x,y,z
-x,-y,z
x,-y,-z
-x,y,-z
-x,-y,-z
x,y,-z
-x,y,z
x,-y,z
loop_
_atom_site_type_symbol
_atom_site_label
_atom_site_fract_x
_atom_site_fract_y
_atom_site_fract_z
Si Si1 0.603221 0.395150 0.000000
Si Si2 0.103206 0.179421 0.236423
Si Si3 0.397953 0.903840 0.631231
Si Si4 0.735638 0.753387 0.371079
Si Si5 0.108338 0.000000 0.124515
Si Si6 0.901752 0.358917 0.126495
Si Si7 0.712618 0.598278 0.785795
O O1 0.656561 0.370823 0.109027
O O2 0.603194 0.500000 0.000000
O O3 0.500000 0.366424 0.000000
O O4 0.168149 0.214475 0.329242
O O5 0.133385 0.087928 0.186863
O O6 0.105415 0.255679 0.146971
O O7 0.000000 0.170819 0.271536
O O8 0.397760 0.904420 0.500000
O O9 0.500000 0.889560 0.665238
O O10 0.332804 0.828142 0.664321
O O11 0.369949 0.000000 0.666504
O O12 0.734751 0.744315 0.500000
O O13 0.706817 0.665510 0.311818
O O14 0.000000 0.000000 0.120993
O O15 0.139429 0.000000 0.000000
O O16 0.816779 0.400995 0.181582
O O17 0.000000 0.385189 0.167556
O O18 0.898132 0.377745 0.000000
O O19 0.685280 0.500000 0.759749
#
# Coordination Sequence:
#
# PCOD9385646 Si02
#       7
#     4   8   8   8   4   8   8
#     4   9  18  34  55  77 102 132 162 201 263 329
#     4   9  18  30  45  70 104 139 175 211 254 306
#     4   8  15  30  52  74  94 119 157 207 254 292
#     4  10  21  34  51  74 102 139 179 216 253 300
#     4   9  16  28  47  71 100 135 175 218 264 310
#     4   9  16  28  48  72  99 130 165 211 261 303
#     4  10  20  34  51  74 104 134 172 215 256 310
#
# _framework density 16.691905999999999
#
# number of rings (size 3 to 8) (size 9 to 14) (size 15 to 20)
#    0.000    2.833    0.833    1.000    1.167    3.667 
#    0.000    0.833    0.000    1.500    0.000    9.333 
#    0.000    2.667    0.000    0.000    0.000    0.000 
#
# Total GULP energy -267274.705790 kJ/mol
# GULP energy per Si atom -5568.223037 kJ/mol
# Density = 1.665391 g / cm^3
# Si number density = 16.691906 Si / 1000 Ang^3
#
#
#
# Elastic Constant Matrix: (Units=GPa)
#
#
# Indices 1 2 3 4 5 6 
#
# 1 72.5628 35.5922 31.3484 0.0000 0.0000 0.0000
# 2 35.5922 103.1614 45.5240 0.0000 0.0000 0.0000
# 3 31.3484 45.5240 77.5006 0.0000 0.0000 0.0000
# 4 0.0000 0.0000 0.0000 10.6480 0.0000 0.0000
# 5 0.0000 0.0000 0.0000 0.0000 10.4926 0.0000
# 6 0.0000 0.0000 0.0000 0.0000 0.0000 22.0427
#
#
#
# Elastic Compliance Matrix: (Units=1/GPa)
#
#
# Indices 1 2 3 4 5 6 
#
# 1 0.017850 -0.004012 -0.004863 0.000000 0.000000 0.000000
# 2 -0.004012 0.013987 -0.006593 0.000000 0.000000 0.000000
# 3 -0.004863 -0.006593 0.018743 0.000000 0.000000 0.000000
# 4 0.000000 0.000000 0.000000 0.093914 0.000000 0.000000
# 5 0.000000 0.000000 0.000000 0.000000 0.095305 0.000000
# 6 0.000000 0.000000 0.000000 0.000000 0.000000 0.045366
#
#
# Mechanical properties :
#
#
# Convention : Reuss Voigt Hill
#
# Bulk Modulus (GPa) = 50.90924 53.12822 52.01873
# Shear Modulus (GPa) = 15.49653 18.02067 16.75860
#
# Velocity S-wave (km/s) = 3.05025 3.28930 3.17203
# Velocity P-wave (km/s) = 6.55522 6.80616 6.68187
#
# Compressibility (1/GPa) = 0.01964280
#
# Stress axis : x y z
#
# Youngs Moduli (GPa) = 56.02128 71.49272 53.35259
#
# Poissons Ratio (x) = 0.28686 0.25947
# Poissons Ratio (y) = 0.22478 0.35177
# Poissons Ratio (z) = 0.27245 0.47137
#
# Static dielectric constant tensor:
#      x y z
#    x 1.578440 0.000000 0.000000 
#    y 0.000000 1.579640 0.000000 
#    z 0.000000 0.000000 1.539950 
# 
# From -- ./inp_files/17559.got.cif
#   From: 2010.05.17/outbox.cif.g08.bks.cpg/sg47_9_cif.got.tgz:17559.got - 2010.06.03 20:15:42.
