data_PCOD9385371
_publ_section_title
;
Structure prediction by ZEFSAII (Michael W. Deem and Ramdas Pophale) SiO2 
 PCOD9385371
Probable space group: P M M M
;
_chemical_formula_sum "Si O2"
_cell_formula_units_Z 52
_cell_length_a 14.442696
_cell_length_b 21.527870
_cell_length_c 9.003613
_cell_angle_alpha 90.000000
_cell_angle_beta 90.000000
_cell_angle_gamma 90.000000
_cell_volume 2799.407693
_symmetry_space_group_name_H-M "P M M M"
_symmetry_group_IT_number 47
_symmetry_cell_setting 'orthorhombic'
loop_
_space_group_symop_operation_xyz
x,y,z
-x,-y,z
x,-y,-z
-x,y,-z
-x,-y,-z
x,y,-z
-x,y,z
x,-y,z
loop_
_atom_site_type_symbol
_atom_site_label
_atom_site_fract_x
_atom_site_fract_y
_atom_site_fract_z
Si Si1 0.611064 0.263508 0.827310
Si Si2 0.393194 0.500000 0.319272
Si Si3 0.209758 0.931892 0.321922
Si Si4 0.107846 0.324145 0.820581
Si Si5 0.888690 0.183458 0.171859
Si Si6 0.605586 0.868140 0.677814
Si Si7 0.717607 0.376618 0.321885
O O1 0.500000 0.271967 0.817996
O O2 0.630891 0.195746 0.760135
O O3 0.661037 0.317309 0.736824
O O4 0.638765 0.266208 0.000000
O O5 0.500000 0.500000 0.267626
O O6 0.395971 0.500000 0.500000
O O7 0.337499 0.561580 0.274324
O O8 0.200118 0.931740 0.500000
O O9 0.154402 0.873519 0.259315
O O10 0.317687 0.919294 0.287300
O O11 0.180468 0.000000 0.266446
O O12 0.134257 0.253277 0.774795
O O13 0.180139 0.370541 0.746746
O O14 0.000000 0.334617 0.781589
O O15 0.114254 0.326523 0.000000
O O16 0.000000 0.179513 0.176624
O O17 0.859520 0.179004 0.000000
O O18 0.608400 0.857090 0.500000
O O19 0.500000 0.884990 0.717039
O O20 0.722643 0.375688 0.500000
#
# Coordination Sequence:
#
# PCOD9385371 Si02
#       7
#     8   4   8   8   8   8   8
#     4  10  20  33  51  77 107 136 169 215 269 319
#     4   9  20  38  56  77 110 150 185 215 252 301
#     4  10  21  34  48  71 102 134 169 210 258 310
#     4   9  19  37  59  82 109 139 172 215 267 317
#     4   9  19  36  56  76  99 131 170 210 255 309
#     4   9  18  33  52  73  98 131 172 215 259 310
#     4  11  21  34  56  82 108 141 180 220 260 304
#
# _framework density 18.575357
#
# number of rings (size 3 to 8) (size 9 to 14) (size 15 to 20)
#    0.000    2.385    0.000    3.231    0.000    6.769 
#    0.000    6.538    0.000    5.077    0.000    3.231 
#    0.000    0.000    0.000    0.000    0.000    0.000 
#
# Total GULP energy -290215.878496 kJ/mol
# GULP energy per Si atom -5581.074586 kJ/mol
# Density = 1.853308 g / cm^3
# Si number density = 18.575357 Si / 1000 Ang^3
#
#
#
# Elastic Constant Matrix: (Units=GPa)
#
#
# Indices 1 2 3 4 5 6 
#
# 1 86.0086 66.9635 29.5351 0.0000 0.0000 0.0000
# 2 66.9635 93.1894 29.4036 0.0000 0.0000 0.0000
# 3 29.5351 29.4036 28.0976 0.0000 0.0000 0.0000
# 4 0.0000 0.0000 0.0000 7.2385 0.0000 0.0000
# 5 0.0000 0.0000 0.0000 0.0000 29.4380 0.0000
# 6 0.0000 0.0000 0.0000 0.0000 0.0000 21.0738
#
#
#
# Elastic Compliance Matrix: (Units=1/GPa)
#
#
# Indices 1 2 3 4 5 6 
#
# 1 0.029295 -0.016922 -0.013085 0.000000 0.000000 0.000000
# 2 -0.016922 0.025795 -0.009207 0.000000 0.000000 0.000000
# 3 -0.013085 -0.009207 0.058980 0.000000 0.000000 0.000000
# 4 0.000000 0.000000 0.000000 0.138150 0.000000 0.000000
# 5 0.000000 0.000000 0.000000 0.000000 0.033970 0.000000
# 6 0.000000 0.000000 0.000000 0.000000 0.000000 0.047452
#
#
# Mechanical properties :
#
#
# Convention : Reuss Voigt Hill
#
# Bulk Modulus (GPa) = 28.05662 51.01111 39.53386
# Shear Modulus (GPa) = 11.79379 16.97628 14.38503
#
# Velocity S-wave (km/s) = 2.52249 3.02638 2.78585
# Velocity P-wave (km/s) = 4.86014 6.30344 5.62824
#
# Compressibility (1/GPa) = 0.03564222
#
# Stress axis : x y z
#
# Youngs Moduli (GPa) = 34.13540 38.76649 16.95489
#
# Poissons Ratio (x) = 0.65600 0.22186
# Poissons Ratio (y) = 0.57764 0.15610
# Poissons Ratio (z) = 0.44668 0.35692
#
# Static dielectric constant tensor:
#      x y z
#    x 1.665310 0.000000 0.000000 
#    y 0.000000 1.619390 0.000000 
#    z 0.000000 0.000000 1.623540 
# 
# From -- ./inp_files/7040.got.cif
#   From: 2010.05.17/outbox.cif.g08.bks.cpg/sg47_4_cif.got.tgz:7040.got - 2010.06.03 20:15:42.
