data_PCOD9385803
_publ_section_title
;
Structure prediction by ZEFSAII (Michael W. Deem and Ramdas Pophale) SiO2 
 PCOD9385803
Probable space group: P M M M
;
_chemical_formula_sum "Si O2"
_cell_formula_units_Z 40
_cell_length_a 7.681117
_cell_length_b 9.269190
_cell_length_c 26.562704
_cell_angle_alpha 90.000000
_cell_angle_beta 90.000000
_cell_angle_gamma 90.000000
_cell_volume 1891.204304
_symmetry_space_group_name_H-M "P M M M"
_symmetry_group_IT_number 47
_symmetry_cell_setting 'orthorhombic'
loop_
_space_group_symop_operation_xyz
x,y,z
-x,-y,z
x,-y,-z
-x,y,-z
-x,-y,-z
x,y,-z
-x,y,z
x,-y,z
loop_
_atom_site_type_symbol
_atom_site_label
_atom_site_fract_x
_atom_site_fract_y
_atom_site_fract_z
Si Si1 0.793580 0.336682 0.398906
Si Si2 0.706918 0.162782 0.298902
Si Si3 0.286678 0.666238 0.200946
Si Si4 0.287052 0.666413 0.000000
Si Si5 0.712822 0.166294 0.899608
Si Si6 0.292625 0.163786 0.500000
O O1 0.721419 0.500000 0.400550
O O2 0.730450 0.248328 0.350668
O O3 0.757583 0.250984 0.450154
O O4 0.000000 0.347247 0.393880
O O5 0.500000 0.150623 0.290894
O O6 0.774694 0.252220 0.251156
O O7 0.778144 0.000000 0.301891
O O8 0.500000 0.665576 0.201285
O O9 0.231010 0.500000 0.200284
O O10 0.232538 0.750957 0.150841
O O11 0.231432 0.749738 0.050269
O O12 0.231476 0.500000 0.000000
O O13 0.500000 0.666383 0.000000
O O14 0.500000 0.165975 0.899742
O O15 0.768894 0.000000 0.899761
O O16 0.500000 0.153415 0.500000
O O17 0.221387 0.000000 0.500000
#
# Coordination Sequence:
#
# PCOD9385803 Si02
#       6
#     8   8   8   4   8   4
#     4  11  24  40  58  82 111 142 176 213 255 304
#     4  10  20  34  53  77 103 133 172 215 258 307
#     4   9  16  26  41  61  86 118 157 202 251 301
#     4   9  15  21  29  43  67 103 148 195 244 301
#     4   9  15  22  32  48  73 107 149 197 247 299
#     4  11  24  41  62  88 114 141 176 215 254 300
#
# _framework density 21.150544
#
# number of rings (size 3 to 8) (size 9 to 14) (size 15 to 20)
#    0.000    2.200    0.000    3.900    0.000   13.200 
#    0.000    0.000    0.000    0.000    0.000    0.000 
#    0.000    0.000    0.000    0.900    0.000   17.600 
#
# Total GULP energy -223551.420034 kJ/mol
# GULP energy per Si atom -5588.785501 kJ/mol
# Density = 2.110240 g / cm^3
# Si number density = 21.150544 Si / 1000 Ang^3
#
#
#
# Elastic Constant Matrix: (Units=GPa)
#
#
# Indices 1 2 3 4 5 6 
#
# 1 36.0488 3.7297 -7.3220 0.0000 0.0000 0.0000
# 2 3.7297 266.9889 155.0328 0.0000 0.0000 0.0000
# 3 -7.3220 155.0328 238.3253 0.0000 0.0000 0.0000
# 4 0.0000 0.0000 0.0000 46.2263 0.0000 0.0000
# 5 0.0000 0.0000 0.0000 0.0000 -55.5881 0.0000
# 6 0.0000 0.0000 0.0000 0.0000 0.0000 27.1673
#
#
#
# Elastic Compliance Matrix: (Units=1/GPa)
#
#
# Indices 1 2 3 4 5 6 
#
# 1 0.028257 -0.001444 0.001808 0.000000 0.000000 0.000000
# 2 -0.001444 0.006093 -0.004008 0.000000 0.000000 0.000000
# 3 0.001808 -0.004008 0.006859 0.000000 0.000000 0.000000
# 4 0.000000 0.000000 0.000000 0.021633 0.000000 0.000000
# 5 0.000000 0.000000 0.000000 0.000000 -0.017989 0.000000
# 6 0.000000 0.000000 0.000000 0.000000 0.000000 0.036809
#
#
# Mechanical properties :
#
#
# Convention : Reuss Voigt Hill
#
# Bulk Modulus (GPa) = 29.48184 93.80489 61.64336
# Shear Modulus (GPa) = 49.87228 29.55594 39.71411
#
# Velocity S-wave (km/s) = 4.86116 3.74225 4.33793
# Velocity P-wave (km/s) = 6.74367 7.94480 7.36875
#
# Compressibility (1/GPa) = 0.03391919
#
# Stress axis : x y z
#
# Youngs Moduli (GPa) = 35.38976 164.12532 145.80155
#
# Poissons Ratio (x) = 0.23707 -0.26357
# Poissons Ratio (y) = 0.05112 0.58435
# Poissons Ratio (z) = -0.06398 0.65779
#
# Static dielectric constant tensor:
#      x y z
#    x 1.789270 0.000000 0.000000 
#    y 0.000000 1.748210 0.000000 
#    z 0.000000 0.000000 1.658580 
# 
# From -- ./inp_files/33062.got.cif
#   From: 2010.05.17/outbox.cif.g08.bks.cpg/sg47_17_cif.got.tgz:33062.got - 2010.06.03 20:15:42.
