data_PCOD9385067
_publ_section_title
;
Structure prediction by ZEFSAII (Michael W. Deem and Ramdas Pophale) SiO2 
 PCOD9385067
Probable space group: P M M M
;
_chemical_formula_sum "Si O2"
_cell_formula_units_Z 56
_cell_length_a 22.596346
_cell_length_b 13.904616
_cell_length_c 9.244312
_cell_angle_alpha 90.000000
_cell_angle_beta 90.000000
_cell_angle_gamma 90.000000
_cell_volume 2904.502873
_symmetry_space_group_name_H-M "P M M M"
_symmetry_group_IT_number 47
_symmetry_cell_setting 'orthorhombic'
loop_
_space_group_symop_operation_xyz
x,y,z
-x,-y,z
x,-y,-z
-x,y,-z
-x,-y,-z
x,y,-z
-x,y,z
x,-y,z
loop_
_atom_site_type_symbol
_atom_site_label
_atom_site_fract_x
_atom_site_fract_y
_atom_site_fract_z
Si Si1 0.882951 0.617033 0.164110
Si Si2 0.880249 0.883074 0.334883
Si Si3 0.000000 0.616959 0.335834
Si Si4 0.429496 0.389996 0.328143
Si Si5 0.668236 0.277665 0.172353
Si Si6 0.241682 0.112923 0.172008
Si Si7 0.767363 0.385050 0.662989
Si Si8 0.000000 0.882791 0.165714
O O1 0.882071 0.500000 0.156503
O O2 0.942603 0.643675 0.245296
O O3 0.827929 0.646292 0.261893
O O4 0.879215 0.653316 0.000000
O O5 0.881590 0.847360 0.500000
O O6 0.818301 0.859844 0.256269
O O7 0.939588 0.855303 0.248257
O O8 0.881571 0.000000 0.339825
O O9 0.000000 0.500000 0.344739
O O10 0.000000 0.653602 0.500000
O O11 0.417175 0.383692 0.500000
O O12 0.500000 0.380229 0.307897
O O13 0.413262 0.500000 0.282803
O O14 0.393049 0.308374 0.245755
O O15 0.701442 0.177700 0.211052
O O16 0.714358 0.355128 0.233989
O O17 0.662682 0.281870 0.000000
O O18 0.253064 0.000000 0.197912
O O19 0.231020 0.126045 0.000000
O O20 0.760322 0.346601 0.500000
O O21 0.769155 0.500000 0.653312
O O22 0.000000 0.000000 0.161381
O O23 0.000000 0.848197 0.000000
#
# Coordination Sequence:
#
# PCOD9385067 Si02
#       8
#     8   8   4   8   8   8   8   4
#     4   9  16  26  41  62  89 122 164 214 260 302
#     4   9  16  26  43  69  98 128 170 225 277 325
#     4   9  15  23  37  58  85 120 164 209 256 313
#     4   9  19  37  60  86 118 154 185 212 251 308
#     4  11  22  34  54  83 110 139 177 220 263 307
#     4   9  19  36  54  73 103 143 184 225 272 326
#     4  10  20  33  49  71 102 138 171 205 253 314
#     4   9  15  23  39  64  95 132 170 211 270 341
#
# _framework density 19.280408000000001
#
# number of rings (size 3 to 8) (size 9 to 14) (size 15 to 20)
#    0.000    2.571    0.000    3.000    0.000    9.429 
#    0.000    0.714    0.000    1.286    0.000    4.000 
#    0.000    0.000    0.000    0.000    0.000    1.143 
#
# Total GULP energy -312757.796105 kJ/mol
# GULP energy per Si atom -5584.960645 kJ/mol
# Density = 1.923652 g / cm^3
# Si number density = 19.280408 Si / 1000 Ang^3
#
#
#
# Elastic Constant Matrix: (Units=GPa)
#
#
# Indices 1 2 3 4 5 6 
#
# 1 102.5767 42.6021 56.4367 0.0000 0.0000 0.0000
# 2 42.6021 87.3848 50.1964 0.0000 0.0000 0.0000
# 3 56.4367 50.1964 84.5132 0.0000 0.0000 0.0000
# 4 0.0000 0.0000 0.0000 13.0911 0.0000 0.0000
# 5 0.0000 0.0000 0.0000 0.0000 30.5436 0.0000
# 6 0.0000 0.0000 0.0000 0.0000 0.0000 15.8803
#
#
#
# Elastic Compliance Matrix: (Units=1/GPa)
#
#
# Indices 1 2 3 4 5 6 
#
# 1 0.015759 -0.002486 -0.009047 0.000000 0.000000 0.000000
# 2 -0.002486 0.017762 -0.008890 0.000000 0.000000 0.000000
# 3 -0.009047 -0.008890 0.023154 0.000000 0.000000 0.000000
# 4 0.000000 0.000000 0.000000 0.076388 0.000000 0.000000
# 5 0.000000 0.000000 0.000000 0.000000 0.032740 0.000000
# 6 0.000000 0.000000 0.000000 0.000000 0.000000 0.062971
#
#
# Mechanical properties :
#
#
# Convention : Reuss Voigt Hill
#
# Bulk Modulus (GPa) = 63.17271 63.66056 63.41664
# Shear Modulus (GPa) = 18.18873 20.25230 19.22052
#
# Velocity S-wave (km/s) = 3.07478 3.24452 3.16079
# Velocity P-wave (km/s) = 6.74107 6.86482 6.80323
#
# Compressibility (1/GPa) = 0.01582962
#
# Stress axis : x y z
#
# Youngs Moduli (GPa) = 63.45654 56.29977 43.18927
#
# Poissons Ratio (x) = 0.13996 0.39073
# Poissons Ratio (y) = 0.15775 0.38394
# Poissons Ratio (z) = 0.57409 0.50049
#
# Static dielectric constant tensor:
#      x y z
#    x 1.317740 0.000000 0.000000 
#    y 0.000000 1.747830 0.000000 
#    z 0.000000 0.000000 1.657270 
# 
# From -- ./inp_files/11362.got.cif
#   From: 2010.05.17/outbox.cif.g08.bks.cpg/sg47_6_cif.got.tgz:11362.got - 2010.06.03 20:15:42.
