data_PCOD9385126
_publ_section_title
;
Structure prediction by ZEFSAII (Michael W. Deem and Ramdas Pophale) SiO2 
 PCOD9385126
Probable space group: P M M M
;
_chemical_formula_sum "Si O2"
_cell_formula_units_Z 56
_cell_length_a 7.502291
_cell_length_b 16.430950
_cell_length_c 20.416482
_cell_angle_alpha 90.000000
_cell_angle_beta 90.000000
_cell_angle_gamma 90.000000
_cell_volume 2516.735006
_symmetry_space_group_name_H-M "P M M M"
_symmetry_group_IT_number 47
_symmetry_cell_setting 'orthorhombic'
loop_
_space_group_symop_operation_xyz
x,y,z
-x,-y,z
x,-y,-z
-x,y,-z
-x,-y,-z
x,y,-z
-x,y,z
x,-y,z
loop_
_atom_site_type_symbol
_atom_site_label
_atom_site_fract_x
_atom_site_fract_y
_atom_site_fract_z
Si Si1 0.700068 0.264327 0.926773
Si Si2 0.719618 0.742075 0.213162
Si Si3 0.708496 0.090215 0.719305
Si Si4 0.284275 0.336221 0.571667
Si Si5 0.717304 0.411868 0.702585
Si Si6 0.204491 0.914182 0.921242
Si Si7 0.792209 0.145211 0.573880
O O1 0.500000 0.298021 0.930101
O O2 0.785700 0.288135 0.858360
O O3 0.689760 0.167535 0.911900
O O4 0.779907 0.274382 0.000000
O O5 0.500000 0.744292 0.211047
O O6 0.779224 0.830535 0.240899
O O7 0.773490 0.669730 0.260966
O O8 0.500000 0.087124 0.736306
O O9 0.718464 0.106414 0.640744
O O10 0.785471 0.000000 0.733080
O O11 0.224108 0.361263 0.500000
O O12 0.500000 0.333903 0.572667
O O13 0.227560 0.396767 0.628036
O O14 0.226637 0.242721 0.582165
O O15 0.500000 0.412336 0.705401
O O16 0.777401 0.500000 0.727211
O O17 0.000000 0.904320 0.898913
O O18 0.276048 0.000000 0.895580
O O19 0.197165 0.920583 0.000000
O O20 0.719891 0.125691 0.500000
O O21 0.000000 0.123621 0.572632
#
# Coordination Sequence:
#
# PCOD9385126 Si02
#       7
#     8   8   8   8   8   8   8
#     4   9  17  28  45  68  91 120 157 195 237 285
#     4   9  17  31  48  69 100 128 156 201 247 288
#     4  10  20  34  52  71  93 128 171 208 244 286
#     4   9  16  28  49  75 101 127 159 199 240 286
#     4   9  16  27  48  76 100 125 158 197 244 290
#     4   8  14  25  40  59  86 117 147 184 230 278
#     4  10  20  33  50  72 100 133 166 202 245 286
#
# _framework density 22.251052000000001
#
# number of rings (size 3 to 8) (size 9 to 14) (size 15 to 20)
#    0.000    2.857    1.429    0.857    0.000    2.571 
#    0.000    6.429    0.000    0.857    0.000    5.000 
#    0.000    0.000    0.000    3.571    0.000    3.714 
#
# Total GULP energy -311922.675637 kJ/mol
# GULP energy per Si atom -5570.047779 kJ/mol
# Density = 2.220041 g / cm^3
# Si number density = 22.251052 Si / 1000 Ang^3
#
#
#
# Elastic Constant Matrix: (Units=GPa)
#
#
# Indices 1 2 3 4 5 6 
#
# 1 59.9292 1.6336 0.7719 0.0000 0.0000 0.0000
# 2 1.6336 103.4910 56.1587 0.0000 0.0000 0.0000
# 3 0.7719 56.1587 143.7035 0.0000 0.0000 0.0000
# 4 0.0000 0.0000 0.0000 1.6114 0.0000 0.0000
# 5 0.0000 0.0000 0.0000 0.0000 -7.3193 0.0000
# 6 0.0000 0.0000 0.0000 0.0000 0.0000 -41.8102
#
#
#
# Elastic Compliance Matrix: (Units=1/GPa)
#
#
# Indices 1 2 3 4 5 6 
#
# 1 0.016694 -0.000273 0.000017 0.000000 0.000000 0.000000
# 2 -0.000273 0.012268 -0.004793 0.000000 0.000000 0.000000
# 3 0.000017 -0.004793 0.008832 0.000000 0.000000 0.000000
# 4 0.000000 0.000000 0.000000 0.620567 0.000000 0.000000
# 5 0.000000 0.000000 0.000000 0.000000 -0.136625 0.000000
# 6 0.000000 0.000000 0.000000 0.000000 0.000000 -0.023918
#
#
# Mechanical properties :
#
#
# Convention : Reuss Voigt Hill
#
# Bulk Modulus (GPa) = 36.10636 47.13912 41.62274
# Shear Modulus (GPa) = 9.66843 7.06703 8.36773
#
# Velocity S-wave (km/s) = 2.08677 1.78408 1.94133
# Velocity P-wave (km/s) = 4.69768 5.04728 4.87561
#
# Compressibility (1/GPa) = 0.02769595
#
# Stress axis : x y z
#
# Youngs Moduli (GPa) = 59.90331 81.51484 113.22921
#
# Poissons Ratio (x) = 0.02223 -0.00191
# Poissons Ratio (y) = 0.01633 0.54267
# Poissons Ratio (z) = -0.00101 0.39068
#
# Static dielectric constant tensor:
#      x y z
#    x 1.848950 0.000000 0.000000 
#    y 0.000000 1.820950 0.000000 
#    z 0.000000 0.000000 1.879210 
# 
# From -- ./inp_files/29716.got.cif
#   From: 2010.05.17/outbox.cif.g08.bks.cpg/sg47_15_cif.got.tgz:29716.got - 2010.06.03 20:15:42.
