data_PCOD9385296
_publ_section_title
;
Structure prediction by ZEFSAII (Michael W. Deem and Ramdas Pophale) SiO2 
 PCOD9385296
Probable space group: P M M M
;
_chemical_formula_sum "Si O2"
_cell_formula_units_Z 64
_cell_length_a 8.931681
_cell_length_b 20.064317
_cell_length_c 20.868325
_cell_angle_alpha 90.000000
_cell_angle_beta 90.000000
_cell_angle_gamma 90.000000
_cell_volume 3739.772434
_symmetry_space_group_name_H-M "P M M M"
_symmetry_group_IT_number 47
_symmetry_cell_setting 'orthorhombic'
loop_
_space_group_symop_operation_xyz
x,y,z
-x,-y,z
x,-y,-z
-x,y,-z
-x,-y,-z
x,y,-z
-x,y,z
x,-y,z
loop_
_atom_site_type_symbol
_atom_site_label
_atom_site_fract_x
_atom_site_fract_y
_atom_site_fract_z
Si Si1 0.320209 0.421949 0.926338
Si Si2 0.680203 0.077348 0.074087
Si Si3 0.317689 0.923462 0.572363
Si Si4 0.680384 0.174568 0.684680
Si Si5 0.178850 0.329424 0.818969
Si Si6 0.819918 0.422011 0.573573
Si Si7 0.821173 0.173774 0.178687
Si Si8 0.321132 0.330213 0.682071
O O1 0.500000 0.414821 0.920538
O O2 0.284753 0.500000 0.915715
O O3 0.240145 0.375518 0.875310
O O4 0.279754 0.405592 0.000000
O O5 0.500000 0.082653 0.079102
O O6 0.755634 0.127310 0.123438
O O7 0.719794 0.000000 0.087297
O O8 0.720719 0.091653 0.000000
O O9 0.269847 0.905729 0.500000
O O10 0.500000 0.922319 0.572335
O O11 0.268116 0.872693 0.626951
O O12 0.273111 0.000000 0.585248
O O13 0.500000 0.169278 0.690521
O O14 0.753282 0.155339 0.752201
O O15 0.715924 0.252060 0.671217
O O16 0.217879 0.251798 0.831838
O O17 0.250872 0.348574 0.750780
O O18 0.000000 0.334523 0.814384
O O19 0.778037 0.405384 0.500000
O O20 0.782816 0.500000 0.584249
O O21 0.742912 0.375337 0.625462
O O22 0.000000 0.415851 0.578550
O O23 0.000000 0.168257 0.180478
O O24 0.500000 0.336543 0.685226
#
# Coordination Sequence:
#
# PCOD9385296 Si02
#       8
#     8   8   8   8   8   8   8   8
#     4   9  19  36  56  78 104 132 164 206 254 300
#     4   9  19  36  56  77 101 131 169 210 251 300
#     4   8  14  26  46  72  99 126 159 200 243 286
#     4   9  18  32  50  73 101 132 167 207 248 293
#     4  10  21  36  53  74 103 138 173 208 248 301
#     4   9  19  36  55  74  99 132 168 206 251 306
#     4  10  21  35  51  74 104 135 168 208 252 298
#     4  10  20  33  51  75 102 132 167 210 256 298
#
# _framework density 17.113340000000001
#
# number of rings (size 3 to 8) (size 9 to 14) (size 15 to 20)
#    0.000    2.750    0.000    2.625    0.000    5.500 
#    0.000    6.875    0.000    0.375    0.000    0.875 
#    0.000    0.000    0.000    0.000    0.000    0.000 
#
# Total GULP energy -356941.692607 kJ/mol
# GULP energy per Si atom -5577.213947 kJ/mol
# Density = 1.707439 g / cm^3
# Si number density = 17.113340 Si / 1000 Ang^3
#
#
#
# Elastic Constant Matrix: (Units=GPa)
#
#
# Indices 1 2 3 4 5 6 
#
# 1 30.9795 46.1951 60.4486 0.0000 0.0000 0.0000
# 2 46.1951 98.4047 122.9858 0.0000 0.0000 0.0000
# 3 60.4486 122.9858 187.4378 0.0000 0.0000 0.0000
# 4 0.0000 0.0000 0.0000 43.4193 0.0000 0.0000
# 5 0.0000 0.0000 0.0000 0.0000 21.6660 0.0000
# 6 0.0000 0.0000 0.0000 0.0000 0.0000 24.8488
#
#
#
# Elastic Compliance Matrix: (Units=1/GPa)
#
#
# Indices 1 2 3 4 5 6 
#
# 1 0.110190 -0.040646 -0.008866 0.000000 0.000000 0.000000
# 2 -0.040646 0.071463 -0.033782 0.000000 0.000000 0.000000
# 3 -0.008866 -0.033782 0.030360 0.000000 0.000000 0.000000
# 4 0.000000 0.000000 0.000000 0.023031 0.000000 0.000000
# 5 0.000000 0.000000 0.000000 0.000000 0.046155 0.000000
# 6 0.000000 0.000000 0.000000 0.000000 0.000000 0.040243
#
#
# Mechanical properties :
#
#
# Convention : Reuss Voigt Hill
#
# Bulk Modulus (GPa) = 22.01462 86.23123 54.12292
# Shear Modulus (GPa) = 9.93694 23.79966 16.86830
#
# Velocity S-wave (km/s) = 2.41229 3.73327 3.14296
# Velocity P-wave (km/s) = 4.54432 8.31148 6.69819
#
# Compressibility (1/GPa) = 0.04542437
#
# Stress axis : x y z
#
# Youngs Moduli (GPa) = 9.07526 13.99318 32.93800
#
# Poissons Ratio (x) = 0.56877 0.29204
# Poissons Ratio (y) = 0.36888 1.11270
# Poissons Ratio (z) = 0.08046 0.47271
#
# Static dielectric constant tensor:
#      x y z
#    x 1.567480 0.000000 0.000000 
#    y 0.000000 1.566900 0.000000 
#    z 0.000000 0.000000 1.553690 
# 
# From -- ./inp_files/9993.got.cif
#   From: 2010.05.17/outbox.cif.g08.bks.cpg/sg47_5_cif.got.tgz:9993.got - 2010.06.03 20:15:42.
