data_PCOD9385199
_publ_section_title
;
Structure prediction by ZEFSAII (Michael W. Deem and Ramdas Pophale) SiO2 
 PCOD9385199
Probable space group: P M M M
;
_chemical_formula_sum "Si O2"
_cell_formula_units_Z 40
_cell_length_a 26.932209
_cell_length_b 7.380430
_cell_length_c 9.629570
_cell_angle_alpha 90.000000
_cell_angle_beta 90.000000
_cell_angle_gamma 90.000000
_cell_volume 1914.081986
_symmetry_space_group_name_H-M "P M M M"
_symmetry_group_IT_number 47
_symmetry_cell_setting 'orthorhombic'
loop_
_space_group_symop_operation_xyz
x,y,z
-x,-y,z
x,-y,-z
-x,y,-z
-x,-y,-z
x,y,-z
-x,y,z
x,-y,z
loop_
_atom_site_type_symbol
_atom_site_label
_atom_site_fract_x
_atom_site_fract_y
_atom_site_fract_z
Si Si1 0.500000 0.285619 0.331720
Si Si2 0.187678 0.717936 0.158703
Si Si3 0.000000 0.778009 0.839887
Si Si4 0.607984 0.278324 0.661201
Si Si5 0.092450 0.786195 0.656974
Si Si6 0.701254 0.720526 0.839636
O O1 0.500000 0.500000 0.300559
O O2 0.500000 0.268239 0.500000
O O3 0.446211 0.215786 0.285181
O O4 0.189092 0.500000 0.153117
O O5 0.144773 0.766646 0.265331
O O6 0.243083 0.778977 0.200884
O O7 0.177520 0.780749 0.000000
O O8 0.048604 0.716120 0.755838
O O9 0.000000 0.000000 0.842987
O O10 0.000000 0.719362 0.000000
O O11 0.612752 0.227038 0.500000
O O12 0.607172 0.500000 0.664842
O O13 0.655538 0.216857 0.746955
O O14 0.092644 0.711982 0.500000
O O15 0.082847 0.000000 0.644775
O O16 0.701088 0.500000 0.833773
O O17 0.693991 0.771196 0.000000
#
# Coordination Sequence:
#
# PCOD9385199 Si02
#       6
#     4   8   4   8   8   8
#     4   7  10  16  25  39  61  89 124 167 208 245
#     4   9  18  32  48  66  90 121 155 188 222 263
#     4   9  17  31  52  73  92 119 152 180 212 261
#     4   8  12  18  29  44  63  92 131 170 207 250
#     4  10  20  33  50  73  98 120 145 182 224 262
#     4   8  14  24  36  51  74 103 135 173 214 253
#
# _framework density 20.897745
#
# number of rings (size 3 to 8) (size 9 to 14) (size 15 to 20)
#    0.000    3.400    0.000    3.300    0.000    3.600 
#    0.000    3.000    0.000    6.000    0.000    0.000 
#    0.000    0.000    0.000    0.900    0.000   18.600 
#
# Total GULP energy -223043.904388 kJ/mol
# GULP energy per Si atom -5576.097610 kJ/mol
# Density = 2.085018 g / cm^3
# Si number density = 20.897745 Si / 1000 Ang^3
#
#
#
# Elastic Constant Matrix: (Units=GPa)
#
#
# Indices 1 2 3 4 5 6 
#
# 1 238.5800 1.3518 139.5452 0.0000 0.0000 0.0000
# 2 1.3518 70.1098 4.5803 0.0000 0.0000 0.0000
# 3 139.5452 4.5803 140.5109 0.0000 0.0000 0.0000
# 4 0.0000 0.0000 0.0000 1.4648 0.0000 0.0000
# 5 0.0000 0.0000 0.0000 0.0000 40.5753 0.0000
# 6 0.0000 0.0000 0.0000 0.0000 0.0000 15.6988
#
#
#
# Elastic Compliance Matrix: (Units=1/GPa)
#
#
# Indices 1 2 3 4 5 6 
#
# 1 0.010015 0.000458 -0.009961 0.000000 0.000000 0.000000
# 2 0.000458 0.014315 -0.000921 0.000000 0.000000 0.000000
# 3 -0.009961 -0.000921 0.017040 0.000000 0.000000 0.000000
# 4 0.000000 0.000000 0.000000 0.682666 0.000000 0.000000
# 5 0.000000 0.000000 0.000000 0.000000 0.024646 0.000000
# 6 0.000000 0.000000 0.000000 0.000000 0.000000 0.063699
#
#
# Mechanical properties :
#
#
# Convention : Reuss Voigt Hill
#
# Bulk Modulus (GPa) = 48.73271 82.23946 65.48608
# Shear Modulus (GPa) = 5.95188 31.79599 18.87394
#
# Velocity S-wave (km/s) = 1.68946 3.90488 3.00852
# Velocity P-wave (km/s) = 5.21305 7.73107 6.59338
#
# Compressibility (1/GPa) = 0.02052010
#
# Stress axis : x y z
#
# Youngs Moduli (GPa) = 99.84778 69.85826 58.68620
#
# Poissons Ratio (x) = -0.03197 0.58459
# Poissons Ratio (y) = -0.04570 0.05406
# Poissons Ratio (z) = 0.99462 0.06435
#
# Static dielectric constant tensor:
#      x y z
#    x 1.750510 0.000000 0.000000 
#    y 0.000000 1.840580 0.000000 
#    z 0.000000 0.000000 1.706580 
# 
# From -- ./inp_files/13149.got.cif
#   From: 2010.05.17/outbox.cif.g08.bks.cpg/sg47_7_cif.got.tgz:13149.got - 2010.06.03 20:15:42.
