data_PCOD9385784
_publ_section_title
;
Structure prediction by ZEFSAII (Michael W. Deem and Ramdas Pophale) SiO2 
 PCOD9385784
Probable space group: P M M M
;
_chemical_formula_sum "Si O2"
_cell_formula_units_Z 44
_cell_length_a 17.547929
_cell_length_b 8.192719
_cell_length_c 16.096229
_cell_angle_alpha 90.000000
_cell_angle_beta 90.000000
_cell_angle_gamma 90.000000
_cell_volume 2314.078408
_symmetry_space_group_name_H-M "P M M M"
_symmetry_group_IT_number 47
_symmetry_cell_setting 'orthorhombic'
loop_
_space_group_symop_operation_xyz
x,y,z
-x,-y,z
x,-y,-z
-x,y,-z
-x,-y,-z
x,y,-z
-x,y,z
x,-y,z
loop_
_atom_site_type_symbol
_atom_site_label
_atom_site_fract_x
_atom_site_fract_y
_atom_site_fract_z
Si Si1 0.238547 0.305119 0.747152
Si Si2 0.338021 0.196722 0.592596
Si Si3 0.914079 0.304913 0.819252
Si Si4 0.500000 0.800628 0.662726
Si Si5 0.667434 0.802368 0.091389
Si Si6 0.500000 0.801384 0.855862
Si Si7 0.092475 0.815437 0.000000
O O1 0.235932 0.500000 0.743235
O O2 0.280160 0.243581 0.665037
O O3 0.152236 0.241655 0.759498
O O4 0.285610 0.257457 0.829542
O O5 0.318167 0.255184 0.500000
O O6 0.422702 0.254109 0.618402
O O7 0.341013 0.000000 0.590429
O O8 0.918564 0.500000 0.810038
O O9 0.887894 0.269485 0.913714
O O10 0.000000 0.238468 0.807534
O O11 0.500000 0.751461 0.759231
O O12 0.500000 0.000000 0.661644
O O13 0.579139 0.749996 0.102587
O O14 0.669062 0.000000 0.093438
O O15 0.695496 0.749965 0.000000
O O16 0.500000 0.000000 0.858027
O O17 0.000000 0.820200 0.000000
O O18 0.122296 0.000000 0.000000
#
# Coordination Sequence:
#
# PCOD9385784 Si02
#       7
#     8   8   8   4   8   4   4
#     4  11  23  36  53  78 108 138 173 221 268 315
#     4  10  20  36  59  83 106 135 173 216 263 316
#     4   9  19  36  54  71  99 143 184 213 252 311
#     4   9  15  29  55  81 105 134 173 216 253 304
#     4  10  20  34  53  76 104 143 186 223 257 300
#     4   9  15  29  53  75 101 138 183 224 251 294
#     4   9  17  29  49  79 107 130 165 216 265 305
#
# _framework density 19.014049
#
# number of rings (size 3 to 8) (size 9 to 14) (size 15 to 20)
#    0.000    2.273    1.818    1.364    1.273    5.455 
#    0.000    1.818    0.000    2.727    0.000    3.818 
#    0.000    0.000    0.000    0.000    0.000    0.000 
#
# Total GULP energy -245537.949397 kJ/mol
# GULP energy per Si atom -5580.407941 kJ/mol
# Density = 1.897077 g / cm^3
# Si number density = 19.014049 Si / 1000 Ang^3
#
#
#
# Elastic Constant Matrix: (Units=GPa)
#
#
# Indices 1 2 3 4 5 6 
#
# 1 134.3310 11.7643 81.6899 0.0000 0.0000 0.0000
# 2 11.7643 9.6989 12.8198 0.0000 0.0000 0.0000
# 3 81.6899 12.8198 167.0352 0.0000 0.0000 0.0000
# 4 0.0000 0.0000 0.0000 10.0606 0.0000 0.0000
# 5 0.0000 0.0000 0.0000 0.0000 5.3006 0.0000
# 6 0.0000 0.0000 0.0000 0.0000 0.0000 17.8579
#
#
#
# Elastic Compliance Matrix: (Units=1/GPa)
#
#
# Indices 1 2 3 4 5 6 
#
# 1 0.010999 -0.006935 -0.004847 0.000000 0.000000 0.000000
# 2 -0.006935 0.119118 -0.005751 0.000000 0.000000 0.000000
# 3 -0.004847 -0.005751 0.008799 0.000000 0.000000 0.000000
# 4 0.000000 0.000000 0.000000 0.099397 0.000000 0.000000
# 5 0.000000 0.000000 0.000000 0.000000 0.188657 0.000000
# 6 0.000000 0.000000 0.000000 0.000000 0.000000 0.055998
#
#
# Mechanical properties :
#
#
# Convention : Reuss Voigt Hill
#
# Bulk Modulus (GPa) = 9.62923 58.17922 33.90422
# Shear Modulus (GPa) = 9.04733 20.29658 14.67196
#
# Velocity S-wave (km/s) = 2.18370 3.27073 2.78085
# Velocity P-wave (km/s) = 3.38132 6.70284 5.30855
#
# Compressibility (1/GPa) = 0.10385046
#
# Stress axis : x y z
#
# Youngs Moduli (GPa) = 90.91568 8.39506 113.65466
#
# Poissons Ratio (x) = 0.05822 0.55088
# Poissons Ratio (y) = 0.63048 0.65359
# Poissons Ratio (z) = 0.44067 0.04828
#
# Static dielectric constant tensor:
#      x y z
#    x 1.703820 0.000000 0.000000 
#    y 0.000000 1.676490 0.000000 
#    z 0.000000 0.000000 1.643070 
# 
# From -- ./inp_files/24350.got.cif
#   From: 2010.05.17/outbox.cif.g08.bks.cpg/sg47_13_cif.got.tgz:24350.got - 2010.06.03 20:15:42.
