data_PCOD9385793
_publ_section_title
;
Structure prediction by ZEFSAII (Michael W. Deem and Ramdas Pophale) SiO2 
 PCOD9385793
Probable space group: P M M M
;
_chemical_formula_sum "Si O2"
_cell_formula_units_Z 44
_cell_length_a 7.616702
_cell_length_b 9.327132
_cell_length_c 29.694040
_cell_angle_alpha 90.000000
_cell_angle_beta 90.000000
_cell_angle_gamma 90.000000
_cell_volume 2109.523543
_symmetry_space_group_name_H-M "P M M M"
_symmetry_group_IT_number 47
_symmetry_cell_setting 'orthorhombic'
loop_
_space_group_symop_operation_xyz
x,y,z
-x,-y,z
x,-y,-z
-x,y,-z
-x,-y,-z
x,y,-z
-x,y,z
x,-y,z
loop_
_atom_site_type_symbol
_atom_site_label
_atom_site_fract_x
_atom_site_fract_y
_atom_site_fract_z
Si Si1 0.711901 0.164851 0.853764
Si Si2 0.290928 0.826470 0.951574
Si Si3 0.285560 0.834962 0.500000
Si Si4 0.284879 0.664948 0.589280
Si Si5 0.792093 0.661572 0.764177
Si Si6 0.707850 0.838756 0.324122
O O1 0.500000 0.159081 0.856622
O O2 0.777292 0.219916 0.902656
O O3 0.756978 0.263466 0.811850
O O4 0.772468 0.000000 0.846746
O O5 0.500000 0.795633 0.952355
O O6 0.274071 0.000000 0.950980
O O7 0.218334 0.776199 0.000000
O O8 0.500000 0.835838 0.500000
O O9 0.230465 0.751602 0.544918
O O10 0.228249 0.000000 0.500000
O O11 0.500000 0.663625 0.589522
O O12 0.228211 0.500000 0.588032
O O13 0.222872 0.744497 0.634461
O O14 0.718733 0.500000 0.762529
O O15 0.727181 0.758588 0.723168
O O16 0.000000 0.652522 0.758738
O O17 0.500000 0.851449 0.332376
O O18 0.781170 0.000000 0.322602
#
# Coordination Sequence:
#
# PCOD9385793 Si02
#       6
#     8   8   4   8   8   8
#     4   9  17  30  51  78 102 125 158 199 242 289
#     4   7  10  19  39  69 101 126 149 185 234 283
#     4   9  15  23  37  61  96 133 166 201 240 281
#     4   9  16  26  42  66  97 131 163 196 239 290
#     4  11  24  38  50  67  94 129 167 204 244 292
#     4  10  20  34  53  76  99 124 159 203 249 296
#
# _framework density 20.857790999999999
#
# number of rings (size 3 to 8) (size 9 to 14) (size 15 to 20)
#    0.000    2.818    0.000    4.091    0.000    8.364 
#    0.000    0.000    0.000    1.091    0.000    7.000 
#    0.000    5.091    0.000    0.000    0.000    0.000 
#
# Total GULP energy -245446.748021 kJ/mol
# GULP energy per Si atom -5578.335182 kJ/mol
# Density = 2.081032 g / cm^3
# Si number density = 20.857791 Si / 1000 Ang^3
#
#
#
# Elastic Constant Matrix: (Units=GPa)
#
#
# Indices 1 2 3 4 5 6 
#
# 1 40.9628 4.2286 -5.6041 0.0000 0.0000 0.0000
# 2 4.2286 169.2907 114.8484 0.0000 0.0000 0.0000
# 3 -5.6041 114.8484 217.6768 0.0000 0.0000 0.0000
# 4 0.0000 0.0000 0.0000 16.0233 0.0000 0.0000
# 5 0.0000 0.0000 0.0000 0.0000 -51.2815 0.0000
# 6 0.0000 0.0000 0.0000 0.0000 0.0000 14.7192
#
#
#
# Elastic Compliance Matrix: (Units=1/GPa)
#
#
# Indices 1 2 3 4 5 6 
#
# 1 0.024787 -0.001639 0.001503 0.000000 0.000000 0.000000
# 2 -0.001639 0.009308 -0.004953 0.000000 0.000000 0.000000
# 3 0.001503 -0.004953 0.007246 0.000000 0.000000 0.000000
# 4 0.000000 0.000000 0.000000 0.062409 0.000000 0.000000
# 5 0.000000 0.000000 0.000000 0.000000 -0.019500 0.000000
# 6 0.000000 0.000000 0.000000 0.000000 0.000000 0.067938
#
#
# Mechanical properties :
#
#
# Convention : Reuss Voigt Hill
#
# Bulk Modulus (GPa) = 32.08926 72.76400 52.42663
# Shear Modulus (GPa) = 28.94271 16.85603 22.89937
#
# Velocity S-wave (km/s) = 3.72912 2.84587 3.31702
# Velocity P-wave (km/s) = 5.82752 6.76462 6.31348
#
# Compressibility (1/GPa) = 0.03116308
#
# Stress axis : x y z
#
# Youngs Moduli (GPa) = 40.34349 107.43075 138.00559
#
# Poissons Ratio (x) = 0.17603 -0.20738
# Poissons Ratio (y) = 0.06611 0.68359
# Poissons Ratio (z) = -0.06062 0.53214
#
# Static dielectric constant tensor:
#      x y z
#    x 1.775990 0.000000 0.000000 
#    y 0.000000 1.795290 0.000000 
#    z 0.000000 0.000000 1.751290 
# 
# From -- ./inp_files/2311.got.cif
#   From: 2010.05.17/outbox.cif.g08.bks.cpg/sg47_2_cif.got.tgz:2311.got - 2010.06.03 20:15:42.
