data_PCOD9385106
_publ_section_title
;
Structure prediction by ZEFSAII (Michael W. Deem and Ramdas Pophale) SiO2 
 PCOD9385106
Probable space group: P M M M
;
_chemical_formula_sum "Si O2"
_cell_formula_units_Z 48
_cell_length_a 9.592821
_cell_length_b 7.535107
_cell_length_c 32.025714
_cell_angle_alpha 90.000000
_cell_angle_beta 90.000000
_cell_angle_gamma 90.000000
_cell_volume 2314.912529
_symmetry_space_group_name_H-M "P M M M"
_symmetry_group_IT_number 47
_symmetry_cell_setting 'orthorhombic'
loop_
_space_group_symop_operation_xyz
x,y,z
-x,-y,z
x,-y,-z
-x,y,-z
-x,-y,-z
x,y,-z
-x,y,z
x,-y,z
loop_
_atom_site_type_symbol
_atom_site_label
_atom_site_fract_x
_atom_site_fract_y
_atom_site_fract_z
Si Si1 0.660220 0.217400 0.171013
Si Si2 0.658370 0.212708 0.577962
Si Si3 0.843158 0.209199 0.248544
Si Si4 0.838571 0.217281 0.908795
Si Si5 0.658358 0.710325 0.672542
Si Si6 0.159677 0.782343 0.500000
Si Si7 0.169522 0.794587 0.000000
O O1 0.500000 0.275068 0.172370
O O2 0.746828 0.280393 0.211258
O O3 0.739906 0.271899 0.128933
O O4 0.658875 0.000000 0.171379
O O5 0.500000 0.281296 0.573216
O O6 0.704331 0.250949 0.625198
O O7 0.758738 0.277012 0.541420
O O8 0.652012 0.000000 0.573856
O O9 0.763646 0.225492 0.292336
O O10 0.000000 0.283486 0.249648
O O11 0.856113 0.000000 0.239945
O O12 0.000000 0.269466 0.901714
O O13 0.838511 0.000000 0.910104
O O14 0.791404 0.280823 0.954806
O O15 0.500000 0.782888 0.677753
O O16 0.650291 0.500000 0.677090
O O17 0.000000 0.725319 0.500000
O O18 0.159877 0.000000 0.500000
O O19 0.000000 0.794971 0.000000
O O20 0.216038 0.000000 0.000000
#
# Coordination Sequence:
#
# PCOD9385106 Si02
#       7
#     8   8   8   8   8   4   4
#     4   9  16  25  38  57  81 109 144 189 237 280
#     4   9  17  31  52  75  99 129 163 196 232 277
#     4  10  20  33  50  71  93 121 159 200 241 286
#     4   8  12  19  31  47  70 102 141 182 223 271
#     4  10  21  36  53  74 100 129 160 196 241 290
#     4   9  17  29  48  75 102 126 158 201 240 271
#     4   7  10  16  27  43  65  99 140 177 216 267
#
# _framework density 20.735123999999999
#
# number of rings (size 3 to 8) (size 9 to 14) (size 15 to 20)
#    0.000    3.000    0.000    2.750    0.000    5.667 
#    0.000    2.500    0.000    5.000    0.000    0.000 
#    0.000    0.000    0.000    0.750    0.000   15.333 
#
# Total GULP energy -267799.603671 kJ/mol
# GULP energy per Si atom -5579.158410 kJ/mol
# Density = 2.068793 g / cm^3
# Si number density = 20.735124 Si / 1000 Ang^3
#
#
#
# Elastic Constant Matrix: (Units=GPa)
#
#
# Indices 1 2 3 4 5 6 
#
# 1 159.5276 6.1608 145.1453 0.0000 0.0000 0.0000
# 2 6.1608 50.6134 -2.5424 0.0000 0.0000 0.0000
# 3 145.1453 -2.5424 218.8542 0.0000 0.0000 0.0000
# 4 0.0000 0.0000 0.0000 -48.6115 0.0000 0.0000
# 5 0.0000 0.0000 0.0000 0.0000 32.7931 0.0000
# 6 0.0000 0.0000 0.0000 0.0000 0.0000 -3.2255
#
#
#
# Elastic Compliance Matrix: (Units=1/GPa)
#
#
# Indices 1 2 3 4 5 6 
#
# 1 0.016116 -0.002500 -0.010717 0.000000 0.000000 0.000000
# 2 -0.002500 0.020157 0.001892 0.000000 0.000000 0.000000
# 3 -0.010717 0.001892 0.011699 0.000000 0.000000 0.000000
# 4 0.000000 0.000000 0.000000 -0.020571 0.000000 0.000000
# 5 0.000000 0.000000 0.000000 0.000000 0.030494 0.000000
# 6 0.000000 0.000000 0.000000 0.000000 0.000000 -0.310028
#
#
# Mechanical properties :
#
#
# Convention : Reuss Voigt Hill
#
# Bulk Modulus (GPa) = 39.49170 80.72471 60.10821
# Shear Modulus (GPa) = -22.62021 14.87332 -3.87344
#
# Velocity S-wave (km/s) = -3.30648 2.68115 -1.36825
# Velocity P-wave (km/s) = 2.12369 6.97142 5.15319
#
# Compressibility (1/GPa) = 0.02532178
#
# Stress axis : x y z
#
# Youngs Moduli (GPa) = 62.04911 49.61058 85.47666
#
# Poissons Ratio (x) = 0.12403 0.91609
# Poissons Ratio (y) = 0.15513 -0.16174
# Poissons Ratio (z) = 0.66501 -0.09387
#
# Static dielectric constant tensor:
#      x y z
#    x 1.709740 0.000000 0.000000 
#    y 0.000000 1.778660 0.000000 
#    z 0.000000 0.000000 1.727210 
# 
# From -- ./inp_files/34076.got.cif
#   From: 2010.05.17/outbox.cif.g08.bks.cpg/sg47_18_cif.got.tgz:34076.got - 2010.06.03 20:15:42.
