data_PCOD9385834
_publ_section_title
;
Structure prediction by ZEFSAII (Michael W. Deem and Ramdas Pophale) SiO2 
 PCOD9385834
Probable space group: P M M M
;
_chemical_formula_sum "Si O2"
_cell_formula_units_Z 64
_cell_length_a 21.197458
_cell_length_b 8.657620
_cell_length_c 20.258579
_cell_angle_alpha 90.000000
_cell_angle_beta 90.000000
_cell_angle_gamma 90.000000
_cell_volume 3717.845025
_symmetry_space_group_name_H-M "P M M M"
_symmetry_group_IT_number 47
_symmetry_cell_setting 'orthorhombic'
loop_
_space_group_symop_operation_xyz
x,y,z
-x,-y,z
x,-y,-z
-x,y,-z
-x,-y,-z
x,y,-z
-x,y,z
x,-y,z
loop_
_atom_site_type_symbol
_atom_site_label
_atom_site_fract_x
_atom_site_fract_y
_atom_site_fract_z
Si Si1 0.616131 0.814708 0.574403
Si Si2 0.766200 0.814861 0.425364
Si Si3 0.265291 0.812298 0.927300
Si Si4 0.117363 0.812351 0.072674
Si Si5 0.070481 0.187049 0.785766
Si Si6 0.810006 0.316927 0.291020
Si Si7 0.429805 0.684221 0.290329
Si Si8 0.689289 0.814557 0.786990
O O1 0.597134 0.769227 0.500000
O O2 0.691153 0.783250 0.581528
O O3 0.580770 0.733090 0.633763
O O4 0.607975 0.000000 0.579921
O O5 0.784577 0.770814 0.500000
O O6 0.803107 0.732199 0.367170
O O7 0.773622 0.000000 0.418937
O O8 0.191330 0.770945 0.919892
O O9 0.303078 0.760969 0.862922
O O10 0.267189 0.000000 0.927707
O O11 0.286659 0.759367 0.000000
O O12 0.081169 0.762382 0.138079
O O13 0.114303 0.000000 0.071655
O O14 0.095579 0.759175 0.000000
O O15 0.126113 0.254240 0.741531
O O16 0.000000 0.230380 0.764368
O O17 0.075218 0.000000 0.784463
O O18 0.807152 0.500000 0.284703
O O19 0.750114 0.244473 0.252979
O O20 0.500000 0.733825 0.269465
O O21 0.425529 0.500000 0.285432
O O22 0.374159 0.757348 0.247404
O O23 0.690513 0.000000 0.785389
#
# Coordination Sequence:
#
# PCOD9385834 Si02
#       8
#     8   8   8   8   8   8   8   8
#     4   9  18  33  54  79 106 139 178 217 257 307
#     4   9  18  34  57  83 108 134 170 218 266 311
#     4   8  14  26  49  80 107 130 164 219 276 314
#     4   8  13  24  45  75 108 137 171 218 267 310
#     4  10  20  34  53  77 106 143 186 226 264 309
#     4  12  23  34  53  80 111 144 177 216 265 317
#     4  11  24  38  51  74 110 146 179 217 264 317
#     4  11  20  34  58  81 104 136 180 226 264 311
#
# _framework density 17.214272999999999
#
# number of rings (size 3 to 8) (size 9 to 14) (size 15 to 20)
#    0.000    2.250    2.500    3.375    0.000    2.250 
#    0.000    3.750    0.000    3.375    0.000    6.125 
#    0.000    0.000    0.000    0.000    0.000    0.000 
#
# Total GULP energy -357009.797282 kJ/mol
# GULP energy per Si atom -5578.278083 kJ/mol
# Density = 1.717509 g / cm^3
# Si number density = 17.214273 Si / 1000 Ang^3
#
#
#
# Elastic Constant Matrix: (Units=GPa)
#
#
# Indices 1 2 3 4 5 6 
#
# 1 117.8379 39.7948 74.0815 0.0000 0.0000 0.0000
# 2 39.7948 34.4749 35.1084 0.0000 0.0000 0.0000
# 3 74.0815 35.1084 125.6171 0.0000 0.0000 0.0000
# 4 0.0000 0.0000 0.0000 -18.0643 0.0000 0.0000
# 5 0.0000 0.0000 0.0000 0.0000 16.1715 0.0000
# 6 0.0000 0.0000 0.0000 0.0000 0.0000 -18.7197
#
#
#
# Elastic Compliance Matrix: (Units=1/GPa)
#
#
# Indices 1 2 3 4 5 6 
#
# 1 0.016843 -0.013037 -0.006289 0.000000 0.000000 0.000000
# 2 -0.013037 0.050639 -0.006464 0.000000 0.000000 0.000000
# 3 -0.006289 -0.006464 0.013476 0.000000 0.000000 0.000000
# 4 0.000000 0.000000 0.000000 -0.055358 0.000000 0.000000
# 5 0.000000 0.000000 0.000000 0.000000 0.061837 0.000000
# 6 0.000000 0.000000 0.000000 0.000000 0.000000 -0.053420
#
#
# Mechanical properties :
#
#
# Convention : Reuss Voigt Hill
#
# Bulk Modulus (GPa) = 34.04071 63.98881 49.01476
# Shear Modulus (GPa) = 52.41583 4.47386 28.44484
#
# Velocity S-wave (km/s) = 5.52405 1.61387 4.06938
# Velocity P-wave (km/s) = 7.77846 6.38165 7.11442
#
# Compressibility (1/GPa) = 0.02937659
#
# Stress axis : x y z
#
# Youngs Moduli (GPa) = 59.37247 19.74772 74.20394
#
# Poissons Ratio (x) = 0.25745 0.46668
# Poissons Ratio (y) = 0.77405 0.47968
# Poissons Ratio (z) = 0.37340 0.12766
#
# Static dielectric constant tensor:
#      x y z
#    x 1.566590 0.000000 0.000000 
#    y 0.000000 1.579360 0.000000 
#    z 0.000000 0.000000 1.602830 
# 
# From -- ./inp_files/31322.got.cif
#   From: 2010.05.17/outbox.cif.g08.bks.cpg/sg47_16_cif.got.tgz:31322.got - 2010.06.03 20:15:42.
