data_PCOD9385261
_publ_section_title
;
Structure prediction by ZEFSAII (Michael W. Deem and Ramdas Pophale) SiO2 
 PCOD9385261
Probable space group: P M M M
;
_chemical_formula_sum "Si O2"
_cell_formula_units_Z 32
_cell_length_a 11.708574
_cell_length_b 8.883733
_cell_length_c 18.499371
_cell_angle_alpha 90.000000
_cell_angle_beta 90.000000
_cell_angle_gamma 90.000000
_cell_volume 1924.227711
_symmetry_space_group_name_H-M "P M M M"
_symmetry_group_IT_number 47
_symmetry_cell_setting 'orthorhombic'
loop_
_space_group_symop_operation_xyz
x,y,z
-x,-y,z
x,-y,-z
-x,y,-z
-x,-y,-z
x,y,-z
-x,y,z
x,-y,z
loop_
_atom_site_type_symbol
_atom_site_label
_atom_site_fract_x
_atom_site_fract_y
_atom_site_fract_z
Si Si1 0.864133 0.678658 0.229800
Si Si2 0.138430 0.175607 0.079975
Si Si3 0.500000 0.319635 0.586257
Si Si4 0.737223 0.179730 0.364746
Si Si5 0.863460 0.325005 0.500000
O O1 0.850738 0.500000 0.239131
O O2 0.827139 0.728483 0.149345
O O3 0.792714 0.765369 0.290065
O O4 0.000000 0.713368 0.237676
O O5 0.000000 0.180863 0.078443
O O6 0.169988 0.000000 0.089473
O O7 0.177786 0.225603 0.000000
O O8 0.500000 0.500000 0.594248
O O9 0.500000 0.285947 0.500000
O O10 0.387443 0.249431 0.621752
O O11 0.815103 0.243683 0.429494
O O12 0.732297 0.000000 0.367743
O O13 0.825458 0.500000 0.500000
O O14 0.000000 0.321904 0.500000
#
# Coordination Sequence:
#
# PCOD9385261 Si02
#       5
#     8   8   4   8   4
#     4  10  20  33  50  75 109 145 179 216 260 312
#     4   8  14  26  45  70 102 139 176 214 258 308
#     4  11  23  41  63  79  99 132 171 218 268 314
#     4  12  24  37  56  79 104 134 174 219 263 310
#     4  11  23  38  55  76 105 139 173 209 256 313
#
# _framework density 16.630047999999999
#
# number of rings (size 3 to 8) (size 9 to 14) (size 15 to 20)
#    0.000    1.750    1.250    5.250    0.000    6.500 
#    0.000    2.500    0.000    0.000    0.000    0.875 
#    0.000    7.000    0.000    0.000    0.000    0.000 
#
# Total GULP energy -178636.365324 kJ/mol
# GULP energy per Si atom -5582.386416 kJ/mol
# Density = 1.659220 g / cm^3
# Si number density = 16.630048 Si / 1000 Ang^3
#
#
#
# Elastic Constant Matrix: (Units=GPa)
#
#
# Indices 1 2 3 4 5 6 
#
# 1 72.5391 54.4745 52.2004 0.0000 0.0000 0.0000
# 2 54.4745 118.1064 74.5786 0.0000 0.0000 0.0000
# 3 52.2004 74.5786 140.1642 0.0000 0.0000 0.0000
# 4 0.0000 0.0000 0.0000 -48.8524 0.0000 0.0000
# 5 0.0000 0.0000 0.0000 0.0000 -9.3185 0.0000
# 6 0.0000 0.0000 0.0000 0.0000 0.0000 3.0678
#
#
#
# Elastic Compliance Matrix: (Units=1/GPa)
#
#
# Indices 1 2 3 4 5 6 
#
# 1 0.022723 -0.007736 -0.004346 0.000000 0.000000 0.000000
# 2 -0.007736 0.015385 -0.005305 0.000000 0.000000 0.000000
# 3 -0.004346 -0.005305 0.011576 0.000000 0.000000 0.000000
# 4 0.000000 0.000000 0.000000 -0.020470 0.000000 0.000000
# 5 0.000000 0.000000 0.000000 0.000000 -0.107314 0.000000
# 6 0.000000 0.000000 0.000000 0.000000 0.000000 0.325963
#
#
# Mechanical properties :
#
#
# Convention : Reuss Voigt Hill
#
# Bulk Modulus (GPa) = 67.07361 77.03519 72.05440
# Shear Modulus (GPa) = 17.38482 -1.05019 8.16732
#
# Velocity S-wave (km/s) = 3.23675 -0.79553 2.21852
# Velocity P-wave (km/s) = 7.37490 6.75127 7.06996
#
# Compressibility (1/GPa) = 0.01490899
#
# Stress axis : x y z
#
# Youngs Moduli (GPa) = 44.00854 64.99913 86.38712
#
# Poissons Ratio (x) = 0.50283 0.37547
# Poissons Ratio (y) = 0.34045 0.45827
# Poissons Ratio (z) = 0.19128 0.34481
#
# Static dielectric constant tensor:
#      x y z
#    x 1.539640 0.000000 0.000000 
#    y 0.000000 1.553570 0.000000 
#    z 0.000000 0.000000 1.563440 
# 
# From -- ./inp_files/3554.got.cif
#   From: 2010.05.17/outbox.cif.g08.bks.cpg/sg47_2_cif.got.tgz:3554.got - 2010.06.03 20:15:42.
