data_PCOD9385962
_publ_section_title
;
Structure prediction by ZEFSAII (Michael W. Deem and Ramdas Pophale) SiO2 
 PCOD9385962
Probable space group: P M M M
;
_chemical_formula_sum "Si O2"
_cell_formula_units_Z 52
_cell_length_a 21.405220
_cell_length_b 15.355391
_cell_length_c 8.093707
_cell_angle_alpha 90.000000
_cell_angle_beta 90.000000
_cell_angle_gamma 90.000000
_cell_volume 2660.284315
_symmetry_space_group_name_H-M "P M M M"
_symmetry_group_IT_number 47
_symmetry_cell_setting 'orthorhombic'
loop_
_space_group_symop_operation_xyz
x,y,z
-x,-y,z
x,-y,-z
-x,y,-z
-x,-y,-z
x,y,-z
-x,y,z
x,-y,z
loop_
_atom_site_type_symbol
_atom_site_label
_atom_site_fract_x
_atom_site_fract_y
_atom_site_fract_z
Si Si1 0.087689 0.404593 0.690863
Si Si2 0.570615 0.811257 0.297220
Si Si3 0.776901 0.593729 0.810762
Si Si4 0.425049 0.000000 0.684367
Si Si5 0.192756 0.100964 0.197649
Si Si6 0.068923 0.791239 0.299917
Si Si7 0.704681 0.760168 0.302528
O O1 0.067634 0.405173 0.500000
O O2 0.069667 0.500000 0.763225
O O3 0.162494 0.403132 0.697655
O O4 0.070148 0.309772 0.761188
O O5 0.568583 0.815958 0.500000
O O6 0.500000 0.786971 0.245388
O O7 0.632009 0.759236 0.250818
O O8 0.587312 0.908360 0.234146
O O9 0.744847 0.500000 0.785906
O O10 0.736079 0.676700 0.776975
O O11 0.799594 0.596604 0.000000
O O12 0.500000 0.000000 0.664515
O O13 0.396029 0.000000 0.500000
O O14 0.129019 0.153351 0.243577
O O15 0.253168 0.155451 0.258848
O O16 0.191700 0.000000 0.257536
O O17 0.196038 0.099058 0.000000
O O18 0.072550 0.787920 0.500000
O O19 0.000000 0.827570 0.255285
O O20 0.706440 0.752614 0.500000
#
# Coordination Sequence:
#
# PCOD9385962 Si02
#       7
#     8   8   8   4   8   8   8
#     4   9  17  31  53  81 112 142 173 213 265 326
#     4   8  15  27  45  74 110 143 175 216 269 326
#     4  10  20  34  54  79 109 145 182 221 267 323
#     4   7  10  20  38  62  97 135 166 199 246 309
#     4  11  25  42  57  76 107 148 191 230 271 323
#     4  10  21  37  58  84 112 143 181 227 278 326
#     4  11  21  33  57  87 112 140 178 228 279 325
#
# _framework density 19.546783000000001
#
# number of rings (size 3 to 8) (size 9 to 14) (size 15 to 20)
#    0.000    2.385    1.538    2.308    1.077    3.077 
#    0.000    3.077    0.000    2.308    0.000    7.538 
#    0.000    0.000    0.000    0.000    0.000    0.000 
#
# Total GULP energy -289543.528297 kJ/mol
# GULP energy per Si atom -5568.144775 kJ/mol
# Density = 1.950229 g / cm^3
# Si number density = 19.546783 Si / 1000 Ang^3
#
#
#
# Elastic Constant Matrix: (Units=GPa)
#
#
# Indices 1 2 3 4 5 6 
#
# 1 129.4052 50.2030 13.3487 0.0000 0.0000 0.0000
# 2 50.2030 110.3404 12.3857 0.0000 0.0000 0.0000
# 3 13.3487 12.3857 34.3098 0.0000 0.0000 0.0000
# 4 0.0000 0.0000 0.0000 227.7624 0.0000 0.0000
# 5 0.0000 0.0000 0.0000 0.0000 -18.3814 0.0000
# 6 0.0000 0.0000 0.0000 0.0000 0.0000 -7.5858
#
#
#
# Elastic Compliance Matrix: (Units=1/GPa)
#
#
# Indices 1 2 3 4 5 6 
#
# 1 0.009546 -0.004092 -0.002237 0.000000 0.000000 0.000000
# 2 -0.004092 0.011200 -0.002451 0.000000 0.000000 0.000000
# 3 -0.002237 -0.002451 0.030901 0.000000 0.000000 0.000000
# 4 0.000000 0.000000 0.000000 0.004391 0.000000 0.000000
# 5 0.000000 0.000000 0.000000 0.000000 -0.054403 0.000000
# 6 0.000000 0.000000 0.000000 0.000000 0.000000 -0.131826
#
#
# Mechanical properties :
#
#
# Convention : Reuss Voigt Hill
#
# Bulk Modulus (GPa) = 29.33650 47.32560 38.33105
# Shear Modulus (GPa) = -49.37353 53.56692 2.09670
#
# Velocity S-wave (km/s) = -5.03130 5.24061 1.03681
# Velocity P-wave (km/s) = 4.32563 7.80273 4.59193
#
# Compressibility (1/GPa) = 0.03408722
#
# Stress axis : x y z
#
# Youngs Moduli (GPa) = 104.75638 89.28687 32.36123
#
# Poissons Ratio (x) = 0.36538 0.07238
# Poissons Ratio (y) = 0.42868 0.07932
# Poissons Ratio (z) = 0.23431 0.21884
#
# Static dielectric constant tensor:
#      x y z
#    x 1.683120 0.000000 0.000000 
#    y 0.000000 1.735780 0.000000 
#    z 0.000000 0.000000 1.713260 
# 
# From -- ./inp_files/11064.got.cif
#   From: 2010.05.17/outbox.cif.g08.bks.cpg/sg47_6_cif.got.tgz:11064.got - 2010.06.03 20:15:42.
