data_PCOD9386592
_publ_section_title
;
Structure prediction by ZEFSAII (Michael W. Deem and Ramdas Pophale) SiO2 
 PCOD9386592
Probable space group: P M M M
;
_chemical_formula_sum "Si O2"
_cell_formula_units_Z 64
_cell_length_a 9.032483
_cell_length_b 15.567243
_cell_length_c 24.848364
_cell_angle_alpha 90.000000
_cell_angle_beta 90.000000
_cell_angle_gamma 90.000000
_cell_volume 3493.949776
_symmetry_space_group_name_H-M "P M M M"
_symmetry_group_IT_number 47
_symmetry_cell_setting 'orthorhombic'
loop_
_space_group_symop_operation_xyz
x,y,z
-x,-y,z
x,-y,-z
-x,y,-z
-x,-y,-z
x,y,-z
-x,y,z
x,-y,z
loop_
_atom_site_type_symbol
_atom_site_label
_atom_site_fract_x
_atom_site_fract_y
_atom_site_fract_z
Si Si1 0.329865 0.369481 0.792093
Si Si2 0.825042 0.097625 0.857752
Si Si3 0.322343 0.404505 0.668135
Si Si4 0.328351 0.827099 0.241978
Si Si5 0.326449 0.231633 0.937734
Si Si6 0.175841 0.404505 0.098186
Si Si7 0.324052 0.099159 0.436039
Si Si8 0.176547 0.225666 0.647099
O O1 0.500000 0.394205 0.804461
O O2 0.292711 0.402310 0.732432
O O3 0.324596 0.266446 0.786644
O O4 0.223134 0.399368 0.839134
O O5 0.750214 0.110007 0.799575
O O6 0.755522 0.165168 0.898993
O O7 0.000000 0.113511 0.852850
O O8 0.801497 0.000000 0.876430
O O9 0.500000 0.392163 0.662363
O O10 0.283974 0.500000 0.647756
O O11 0.239445 0.322946 0.643378
O O12 0.500000 0.849451 0.251329
O O13 0.245032 0.814732 0.298292
O O14 0.500000 0.233324 0.923766
O O15 0.260072 0.326500 0.929802
O O16 0.310210 0.206299 0.000000
O O17 0.214359 0.500000 0.077999
O O18 0.000000 0.392803 0.092891
O O19 0.300271 0.109436 0.500000
O O20 0.500000 0.110800 0.425937
O O21 0.232802 0.166953 0.401662
O O22 0.287045 0.000000 0.422090
O O23 0.000000 0.227423 0.650340
#
# Coordination Sequence:
#
# PCOD9386592 Si02
#       8
#     8   8   8   8   8   8   8   8
#     4   9  17  31  53  80 109 144 186 230 276 329
#     4  11  24  41  63  90 117 145 180 228 289 349
#     4   9  18  33  53  78 112 156 202 243 282 330
#     4  10  20  36  58  83 115 155 194 230 274 331
#     4  11  25  44  64  84 108 144 189 234 279 334
#     4  11  23  36  55  84 115 147 182 226 283 341
#     4   9  19  38  63  87 112 148 197 249 296 345
#     4  11  22  34  54  86 124 161 194 236 290 345
#
# _framework density 18.317378999999999
#
# number of rings (size 3 to 8) (size 9 to 14) (size 15 to 20)
#    0.000    1.875    1.250    4.125    0.000    7.250 
#    0.000    3.125    0.000    0.375    0.000    2.625 
#    0.000    0.000    0.000    0.000    0.000    0.000 
#
# Total GULP energy -357455.830118 kJ/mol
# GULP energy per Si atom -5585.247346 kJ/mol
# Density = 1.827569 g / cm^3
# Si number density = 18.317379 Si / 1000 Ang^3
#
#
#
# Elastic Constant Matrix: (Units=GPa)
#
#
# Indices 1 2 3 4 5 6 
#
# 1 107.2891 76.3790 50.0641 0.0000 0.0000 0.0000
# 2 76.3790 116.0684 53.7253 0.0000 0.0000 0.0000
# 3 50.0641 53.7253 57.5293 0.0000 0.0000 0.0000
# 4 0.0000 0.0000 0.0000 -9.4829 0.0000 0.0000
# 5 0.0000 0.0000 0.0000 0.0000 -53.6609 0.0000
# 6 0.0000 0.0000 0.0000 0.0000 0.0000 21.1269
#
#
#
# Elastic Compliance Matrix: (Units=1/GPa)
#
#
# Indices 1 2 3 4 5 6 
#
# 1 0.019840 -0.008920 -0.008936 0.000000 0.000000 0.000000
# 2 -0.008920 0.019186 -0.010155 0.000000 0.000000 0.000000
# 3 -0.008936 -0.010155 0.034642 0.000000 0.000000 0.000000
# 4 0.000000 0.000000 0.000000 -0.105453 0.000000 0.000000
# 5 0.000000 0.000000 0.000000 0.000000 -0.018636 0.000000
# 6 0.000000 0.000000 0.000000 0.000000 0.000000 0.047333
#
#
# Mechanical properties :
#
#
# Convention : Reuss Voigt Hill
#
# Bulk Modulus (GPa) = 56.66575 71.24707 63.95641
# Shear Modulus (GPa) = 85.01209 -1.68883 41.66163
#
# Velocity S-wave (km/s) = 6.81992 -0.96124 4.77427
# Velocity P-wave (km/s) = 9.64458 6.14397 8.08598
#
# Compressibility (1/GPa) = 0.01764734
#
# Stress axis : x y z
#
# Youngs Moduli (GPa) = 50.40249 52.12222 28.86672
#
# Poissons Ratio (x) = 0.46492 0.25795
# Poissons Ratio (y) = 0.44958 0.29313
# Poissons Ratio (z) = 0.45039 0.52929
#
# Static dielectric constant tensor:
#      x y z
#    x 1.609130 0.000000 0.000000 
#    y 0.000000 1.645880 0.000000 
#    z 0.000000 0.000000 1.610480 
# 
# From -- ./inp_files/32108.got.cif
#   From: 2010.05.17/outbox.cif.g08.bks.cpg/sg47_17_cif.got.tgz:32108.got - 2010.06.03 20:15:42.
