data_PCOD9386401
_publ_section_title
;
Structure prediction by ZEFSAII (Michael W. Deem and Ramdas Pophale) SiO2 
 PCOD9386401
Probable space group: P M M M
;
_chemical_formula_sum "Si O2"
_cell_formula_units_Z 44
_cell_length_a 9.273467
_cell_length_b 30.241069
_cell_length_c 7.594728
_cell_angle_alpha 90.000000
_cell_angle_beta 90.000000
_cell_angle_gamma 90.000000
_cell_volume 2129.862144
_symmetry_space_group_name_H-M "P M M M"
_symmetry_group_IT_number 47
_symmetry_cell_setting 'orthorhombic'
loop_
_space_group_symop_operation_xyz
x,y,z
-x,-y,z
x,-y,-z
-x,y,-z
-x,-y,-z
x,y,-z
-x,y,z
x,-y,z
loop_
_atom_site_type_symbol
_atom_site_label
_atom_site_fract_x
_atom_site_fract_y
_atom_site_fract_z
Si Si1 0.162898 0.500000 0.790440
Si Si2 0.834308 0.674861 0.284006
Si Si3 0.333232 0.142531 0.788155
Si Si4 0.673976 0.952395 0.211762
Si Si5 0.662743 0.588646 0.710194
Si Si6 0.335288 0.761118 0.710155
O O1 0.248844 0.456041 0.739508
O O2 0.000000 0.500000 0.717573
O O3 0.153327 0.500000 0.000000
O O4 0.833697 0.674820 0.500000
O O5 0.746878 0.631771 0.223472
O O6 0.757613 0.719987 0.224623
O O7 0.000000 0.672756 0.228547
O O8 0.500000 0.144414 0.724810
O O9 0.270809 0.095430 0.724222
O O10 0.269760 0.190216 0.742804
O O11 0.336745 0.140041 0.000000
O O12 0.500000 0.951600 0.238395
O O13 0.726820 0.000000 0.281099
O O14 0.695818 0.953292 0.000000
O O15 0.652069 0.594299 0.500000
O O16 0.500000 0.585382 0.780563
O O17 0.345072 0.756225 0.500000
O O18 0.500000 0.759834 0.780734
#
# Coordination Sequence:
#
# PCOD9386401 Si02
#       6
#     4   8   8   8   8   8
#     4  11  24  39  54  76 108 141 168 195 232 278
#     4   9  17  30  49  71  93 119 153 191 228 268
#     4   8  13  21  34  53  77 106 140 175 212 259
#     4   7   9  14  26  45  69  98 133 171 208 249
#     4  10  20  35  57  82 103 126 162 204 241 279
#     4   9  16  26  41  61  85 112 142 178 220 264
#
# _framework density 20.658614
#
# number of rings (size 3 to 8) (size 9 to 14) (size 15 to 20)
#    0.000    3.182    0.000    3.273    0.000    5.091 
#    0.000    0.909    0.000    4.364    0.000    3.818 
#    0.000    0.727    0.000    9.091    0.000    8.364 
#
# Total GULP energy -245141.780759 kJ/mol
# GULP energy per Si atom -5571.404108 kJ/mol
# Density = 2.061159 g / cm^3
# Si number density = 20.658614 Si / 1000 Ang^3
#
#
#
# Elastic Constant Matrix: (Units=GPa)
#
#
# Indices 1 2 3 4 5 6 
#
# 1 107.6674 99.8760 6.0424 0.0000 0.0000 0.0000
# 2 99.8760 271.7045 2.6166 0.0000 0.0000 0.0000
# 3 6.0424 2.6166 42.8181 0.0000 0.0000 0.0000
# 4 0.0000 0.0000 0.0000 17.8638 0.0000 0.0000
# 5 0.0000 0.0000 0.0000 0.0000 1.7317 0.0000
# 6 0.0000 0.0000 0.0000 0.0000 0.0000 -7.9414
#
#
#
# Elastic Compliance Matrix: (Units=1/GPa)
#
#
# Indices 1 2 3 4 5 6 
#
# 1 0.014214 -0.005209 -0.001688 0.000000 0.000000 0.000000
# 2 -0.005209 0.005591 0.000393 0.000000 0.000000 0.000000
# 3 -0.001688 0.000393 0.023569 0.000000 0.000000 0.000000
# 4 0.000000 0.000000 0.000000 0.055979 0.000000 0.000000
# 5 0.000000 0.000000 0.000000 0.000000 0.577479 0.000000
# 6 0.000000 0.000000 0.000000 0.000000 0.000000 -0.125923
#
#
# Mechanical properties :
#
#
# Convention : Reuss Voigt Hill
#
# Bulk Modulus (GPa) = 32.92891 71.02889 51.97890
# Shear Modulus (GPa) = 8.71022 23.24116 15.97569
#
# Velocity S-wave (km/s) = 2.05558 3.35776 2.78388
# Velocity P-wave (km/s) = 4.64845 7.03488 5.96228
#
# Compressibility (1/GPa) = 0.03036845
#
# Stress axis : x y z
#
# Youngs Moduli (GPa) = 70.35074 178.84589 42.42907
#
# Poissons Ratio (x) = 0.93158 0.07160
# Poissons Ratio (y) = 0.36645 -0.01669
# Poissons Ratio (z) = 0.11872 -0.07035
#
# Static dielectric constant tensor:
#      x y z
#    x 1.705310 0.000000 0.000000 
#    y 0.000000 1.784690 0.000000 
#    z 0.000000 0.000000 1.788060 
# 
# From -- ./inp_files/2212.got.cif
#   From: 2010.05.17/outbox.cif.g08.bks.cpg/sg47_2_cif.got.tgz:2212.got - 2010.06.03 20:15:42.
