data_PCOD9386009
_publ_section_title
;
Structure prediction by ZEFSAII (Michael W. Deem and Ramdas Pophale) SiO2 
 PCOD9386009
Probable space group: P M M M
;
_chemical_formula_sum "Si O2"
_cell_formula_units_Z 48
_cell_length_a 31.824996
_cell_length_b 9.268467
_cell_length_c 7.773848
_cell_angle_alpha 90.000000
_cell_angle_beta 90.000000
_cell_angle_gamma 90.000000
_cell_volume 2293.043589
_symmetry_space_group_name_H-M "P M M M"
_symmetry_group_IT_number 47
_symmetry_cell_setting 'orthorhombic'
loop_
_space_group_symop_operation_xyz
x,y,z
-x,-y,z
x,-y,-z
-x,y,-z
-x,-y,-z
x,y,-z
-x,y,z
x,-y,z
loop_
_atom_site_type_symbol
_atom_site_label
_atom_site_fract_x
_atom_site_fract_y
_atom_site_fract_z
Si Si1 0.167562 0.664332 0.207143
Si Si2 0.582709 0.835960 0.206448
Si Si3 0.500000 0.666522 0.210882
Si Si4 0.000000 0.666521 0.710682
Si Si5 0.666903 0.663905 0.705226
Si Si6 0.916932 0.164638 0.292739
Si Si7 0.750976 0.163827 0.793707
O O1 0.166003 0.500000 0.272296
O O2 0.125287 0.750299 0.248298
O O3 0.208492 0.749516 0.272807
O O4 0.170953 0.657372 0.000000
O O5 0.541814 0.749646 0.269082
O O6 0.625161 0.749529 0.243103
O O7 0.584482 0.000000 0.273083
O O8 0.578687 0.844579 0.000000
O O9 0.500000 0.500000 0.265376
O O10 0.500000 0.666589 0.000000
O O11 0.958152 0.749752 0.767969
O O12 0.000000 0.500000 0.765468
O O13 0.000000 0.666691 0.500000
O O14 0.667329 0.655990 0.500000
O O15 0.666795 0.500000 0.774504
O O16 0.708365 0.749885 0.759584
O O17 0.919661 0.158699 0.500000
O O18 0.915829 0.000000 0.228450
O O19 0.749067 0.000000 0.726478
O O20 0.755501 0.154643 0.000000
#
# Coordination Sequence:
#
# PCOD9386009 Si02
#       7
#     8   8   4   4   8   8   8
#     4  10  21  37  57  81 109 141 177 219 268 320
#     4  10  20  35  57  84 112 143 181 224 269 318
#     4   9  17  31  54  83 112 143 180 222 266 313
#     4   9  17  31  52  77 106 141 180 222 266 313
#     4  11  24  39  55  79 111 145 181 222 268 318
#     4  10  20  34  54  80 109 142 180 221 266 317
#     4  10  21  38  60  83 106 137 178 221 267 321
#
# _framework density 20.932877999999999
#
# number of rings (size 3 to 8) (size 9 to 14) (size 15 to 20)
#    0.000    2.000    0.000    3.500    0.000   10.000 
#    0.000    0.833    0.000    5.000    0.000    0.000 
#    0.000    0.000    0.000    0.000    0.000    0.000 
#
# Total GULP energy -268310.543890 kJ/mol
# GULP energy per Si atom -5589.802998 kJ/mol
# Density = 2.088523 g / cm^3
# Si number density = 20.932878 Si / 1000 Ang^3
#
#
#
# Elastic Constant Matrix: (Units=GPa)
#
#
# Indices 1 2 3 4 5 6 
#
# 1 248.6169 159.9412 -1.6294 0.0000 0.0000 0.0000
# 2 159.9412 271.0909 9.8856 0.0000 0.0000 0.0000
# 3 -1.6294 9.8856 28.4244 0.0000 0.0000 0.0000
# 4 0.0000 0.0000 0.0000 16.7472 0.0000 0.0000
# 5 0.0000 0.0000 0.0000 0.0000 29.8414 0.0000
# 6 0.0000 0.0000 0.0000 0.0000 0.0000 49.4806
#
#
#
# Elastic Compliance Matrix: (Units=1/GPa)
#
#
# Indices 1 2 3 4 5 6 
#
# 1 0.006567 -0.003938 0.001746 0.000000 0.000000 0.000000
# 2 -0.003938 0.006098 -0.002347 0.000000 0.000000 0.000000
# 3 0.001746 -0.002347 0.036097 0.000000 0.000000 0.000000
# 4 0.000000 0.000000 0.000000 0.059711 0.000000 0.000000
# 5 0.000000 0.000000 0.000000 0.000000 0.033510 0.000000
# 6 0.000000 0.000000 0.000000 0.000000 0.000000 0.020210
#
#
# Mechanical properties :
#
#
# Convention : Reuss Voigt Hill
#
# Bulk Modulus (GPa) = 25.19840 98.28078 61.73959
# Shear Modulus (GPa) = 27.10027 44.54283 35.82155
#
# Velocity S-wave (km/s) = 3.60200 4.61791 4.14122
# Velocity P-wave (km/s) = 5.41876 8.68826 7.24047
#
# Compressibility (1/GPa) = 0.03968506
#
# Stress axis : x y z
#
# Youngs Moduli (GPa) = 152.26906 163.98951 27.70296
#
# Poissons Ratio (x) = 0.64585 -0.04837
# Poissons Ratio (y) = 0.59969 0.06501
# Poissons Ratio (z) = -0.26589 0.38481
#
# Static dielectric constant tensor:
#      x y z
#    x 1.693480 0.000000 0.000000 
#    y 0.000000 1.739270 0.000000 
#    z 0.000000 0.000000 1.784180 
# 
# From -- ./inp_files/2731.got.cif
#   From: 2010.05.17/outbox.cif.g08.bks.cpg/sg47_2_cif.got.tgz:2731.got - 2010.06.03 20:15:42.
