data_PCOD9386964
_publ_section_title
;
Structure prediction by ZEFSAII (Michael W. Deem and Ramdas Pophale) SiO2 
 PCOD9386964
Probable space group: P M M M
;
_chemical_formula_sum "Si O2"
_cell_formula_units_Z 44
_cell_length_a 15.155710
_cell_length_b 18.046806
_cell_length_c 7.600071
_cell_angle_alpha 90.000000
_cell_angle_beta 90.000000
_cell_angle_gamma 90.000000
_cell_volume 2078.711821
_symmetry_space_group_name_H-M "P M M M"
_symmetry_group_IT_number 47
_symmetry_cell_setting 'orthorhombic'
loop_
_space_group_symop_operation_xyz
x,y,z
-x,-y,z
x,-y,-z
-x,y,-z
-x,-y,-z
x,y,-z
-x,y,z
x,-y,z
loop_
_atom_site_type_symbol
_atom_site_label
_atom_site_fract_x
_atom_site_fract_y
_atom_site_fract_z
Si Si1 0.902578 0.282769 0.791956
Si Si2 0.406070 0.410582 0.210155
Si Si3 0.786242 0.414560 0.783859
Si Si4 0.217310 0.855430 0.706729
Si Si5 0.101623 0.000000 0.210728
Si Si6 0.597838 0.913137 0.714668
O O1 0.860120 0.358140 0.720618
O O2 0.835255 0.215277 0.773585
O O3 0.000000 0.265674 0.720141
O O4 0.911586 0.294666 0.000000
O O5 0.500000 0.382742 0.282430
O O6 0.405604 0.500000 0.231884
O O7 0.310584 0.386246 0.275936
O O8 0.407211 0.396999 0.000000
O O9 0.798803 0.500000 0.730772
O O10 0.784770 0.414807 0.000000
O O11 0.227827 0.844639 0.500000
O O12 0.315702 0.870132 0.779679
O O13 0.156617 0.927789 0.734501
O O14 0.000000 0.000000 0.276217
O O15 0.097507 0.000000 0.000000
O O16 0.598484 0.911045 0.500000
O O17 0.500000 0.887659 0.771254
O O18 0.607018 0.000000 0.762691
#
# Coordination Sequence:
#
# PCOD9386964 Si02
#       6
#     8   8   8   8   4   8
#     4  10  21  35  49  69 102 139 171 214 273 316
#     4   7   9  15  31  57  87 116 147 189 245 303
#     4   8  14  26  45  67  90 123 171 217 254 305
#     4  11  21  35  56  80 103 133 174 211 244 296
#     4  11  23  37  54  77 106 138 169 207 256 299
#     4   8  14  28  52  79 103 128 163 205 246 291
#
# _framework density 21.166955999999999
#
# number of rings (size 3 to 8) (size 9 to 14) (size 15 to 20)
#    0.000    3.000    0.909    3.545    0.000    3.636 
#    0.000    2.727    0.000    4.364    0.000    1.273 
#    0.000    0.000    0.000    9.091    0.000    3.636 
#
# Total GULP energy -245263.804444 kJ/mol
# GULP energy per Si atom -5574.177374 kJ/mol
# Density = 2.111878 g / cm^3
# Si number density = 21.166956 Si / 1000 Ang^3
#
#
#
# Elastic Constant Matrix: (Units=GPa)
#
#
# Indices 1 2 3 4 5 6 
#
# 1 228.3141 84.3076 8.5625 0.0000 0.0000 0.0000
# 2 84.3076 92.7876 -4.3294 0.0000 0.0000 0.0000
# 3 8.5625 -4.3294 41.9162 0.0000 0.0000 0.0000
# 4 0.0000 0.0000 0.0000 35.3347 0.0000 0.0000
# 5 0.0000 0.0000 0.0000 0.0000 -0.5474 0.0000
# 6 0.0000 0.0000 0.0000 0.0000 0.0000 24.8455
#
#
#
# Elastic Compliance Matrix: (Units=1/GPa)
#
#
# Indices 1 2 3 4 5 6 
#
# 1 0.006758 -0.006235 -0.002025 0.000000 0.000000 0.000000
# 2 -0.006235 0.016582 0.002986 0.000000 0.000000 0.000000
# 3 -0.002025 0.002986 0.024579 0.000000 0.000000 0.000000
# 4 0.000000 0.000000 0.000000 0.028301 0.000000 0.000000
# 5 0.000000 0.000000 0.000000 0.000000 -1.826693 0.000000
# 6 0.000000 0.000000 0.000000 0.000000 0.000000 0.040249
#
#
# Mechanical properties :
#
#
# Convention : Reuss Voigt Hill
#
# Bulk Modulus (GPa) = 26.75745 60.01104 43.38425
# Shear Modulus (GPa) = -2.96345 30.22502 13.63078
#
# Velocity S-wave (km/s) = -1.18452 3.78290 2.54040
# Velocity P-wave (km/s) = 3.28600 6.89154 5.39866
#
# Compressibility (1/GPa) = 0.03737276
#
# Stress axis : x y z
#
# Youngs Moduli (GPa) = 147.96799 60.30692 40.68490
#
# Poissons Ratio (x) = 0.37602 0.08237
# Poissons Ratio (y) = 0.92259 -0.12150
# Poissons Ratio (z) = 0.29957 -0.18010
#
# Static dielectric constant tensor:
#      x y z
#    x 1.834940 0.000000 0.000000 
#    y 0.000000 1.706430 0.000000 
#    z 0.000000 0.000000 1.845650 
# 
# From -- ./inp_files/6164.got.cif
#   From: 2010.05.17/outbox.cif.g08.bks.cpg/sg47_4_cif.got.tgz:6164.got - 2010.06.03 20:15:42.
