data_PCOD9386199
_publ_section_title
;
Structure prediction by ZEFSAII (Michael W. Deem and Ramdas Pophale) SiO2 
 PCOD9386199
Probable space group: P M M M
;
_chemical_formula_sum "Si O2"
_cell_formula_units_Z 29
_cell_length_a 22.043213
_cell_length_b 8.235653
_cell_length_c 7.663559
_cell_angle_alpha 90.000000
_cell_angle_beta 90.000000
_cell_angle_gamma 90.000000
_cell_volume 1391.244442
_symmetry_space_group_name_H-M "P M M M"
_symmetry_group_IT_number 47
_symmetry_cell_setting 'orthorhombic'
loop_
_space_group_symop_operation_xyz
x,y,z
-x,-y,z
x,-y,-z
-x,y,-z
-x,-y,-z
x,y,-z
-x,y,z
x,-y,z
loop_
_atom_site_type_symbol
_atom_site_label
_atom_site_fract_x
_atom_site_fract_y
_atom_site_fract_z
Si Si1 0.896708 0.500000 0.197528
Si Si2 0.820368 0.820569 0.712308
Si Si3 0.000000 0.500000 0.500000
Si Si4 0.434389 0.187600 0.789983
Si Si5 0.303255 0.679153 0.291955
O O1 0.856798 0.336019 0.222159
O O2 0.947210 0.500000 0.346634
O O3 0.920728 0.500000 0.000000
O O4 0.823549 0.816856 0.500000
O O5 0.749993 0.798173 0.768084
O O6 0.842247 0.000000 0.767300
O O7 0.500000 0.254657 0.729865
O O8 0.372492 0.273034 0.739439
O O9 0.431026 0.000000 0.732015
O O10 0.435831 0.188088 0.000000
O O11 0.296154 0.671946 0.500000
O O12 0.291953 0.500000 0.218756
#
# Coordination Sequence:
#
# PCOD9386199 Si02
#       5
#     4   8   1   8   8
#     4  12  25  45  75 108 140 184 227 265 326 391
#     4  10  20  40  69  97 135 181 221 275 338 388
#     4  12  26  52  78 102 156 182 220 276 314 374
#     4   9  19  35  51  70 105 154 206 263 326 387
#     4  10  20  34  56  85 119 158 206 262 324 389
#
# _framework density 20.844646999999998
#
# number of rings (size 3 to 8) (size 9 to 14) (size 15 to 20)
#    0.000    1.931    2.759    1.862    0.000    4.966 
#    0.000    5.517    0.000    1.655    0.000    0.000 
#    0.000    0.000    0.000    0.000    0.000    0.000 
#
# Total GULP energy -161525.306915 kJ/mol
# GULP energy per Si atom -5569.838169 kJ/mol
# Density = 2.079720 g / cm^3
# Si number density = 20.844647 Si / 1000 Ang^3
#
#
#
# Elastic Constant Matrix: (Units=GPa)
#
#
# Indices 1 2 3 4 5 6 
#
# 1 134.9716 59.6778 31.5588 0.0000 0.0000 0.0000
# 2 59.6778 135.1035 26.5836 0.0000 0.0000 0.0000
# 3 31.5588 26.5836 83.2129 0.0000 0.0000 0.0000
# 4 0.0000 0.0000 0.0000 12.5975 0.0000 0.0000
# 5 0.0000 0.0000 0.0000 0.0000 51.9990 0.0000
# 6 0.0000 0.0000 0.0000 0.0000 0.0000 -7.8527
#
#
#
# Elastic Compliance Matrix: (Units=1/GPa)
#
#
# Indices 1 2 3 4 5 6 
#
# 1 0.009655 -0.003782 -0.002453 0.000000 0.000000 0.000000
# 2 -0.003782 0.009380 -0.001562 0.000000 0.000000 0.000000
# 3 -0.002453 -0.001562 0.013447 0.000000 0.000000 0.000000
# 4 0.000000 0.000000 0.000000 0.079381 0.000000 0.000000
# 5 0.000000 0.000000 0.000000 0.000000 0.019231 0.000000
# 6 0.000000 0.000000 0.000000 0.000000 0.000000 -0.127344
#
#
# Mechanical properties :
#
#
# Convention : Reuss Voigt Hill
#
# Bulk Modulus (GPa) = 59.21960 65.43649 62.32804
# Shear Modulus (GPa) = 200.22059 27.04661 113.63360
#
# Velocity S-wave (km/s) = 9.81133 3.60604 7.39141
# Velocity P-wave (km/s) = 12.52283 6.98560 10.13952
#
# Compressibility (1/GPa) = 0.01688630
#
# Stress axis : x y z
#
# Youngs Moduli (GPa) = 103.57521 106.61352 74.36658
#
# Poissons Ratio (x) = 0.40321 0.18245
# Poissons Ratio (y) = 0.39172 0.11617
# Poissons Ratio (z) = 0.25411 0.16655
#
# Static dielectric constant tensor:
#      x y z
#    x 1.739130 0.000000 0.000000 
#    y 0.000000 1.758150 0.000000 
#    z 0.000000 0.000000 1.766250 
# 
# From -- ./inp_files/907.got.cif
#   From: 2010.05.17/outbox.cif.g08.bks.cpg/sg47_1_cif.got.tgz:907.got - 2010.06.03 20:15:42.
