data_PCOD9386160
_publ_section_title
;
Structure prediction by ZEFSAII (Michael W. Deem and Ramdas Pophale) SiO2 
 PCOD9386160
Probable space group: P M M M
;
_chemical_formula_sum "Si O2"
_cell_formula_units_Z 48
_cell_length_a 29.927519
_cell_length_b 9.848556
_cell_length_c 8.467521
_cell_angle_alpha 90.000000
_cell_angle_beta 90.000000
_cell_angle_gamma 90.000000
_cell_volume 2495.741245
_symmetry_space_group_name_H-M "P M M M"
_symmetry_group_IT_number 47
_symmetry_cell_setting 'orthorhombic'
loop_
_space_group_symop_operation_xyz
x,y,z
-x,-y,z
x,-y,-z
-x,y,-z
-x,-y,-z
x,y,-z
-x,y,z
x,-y,z
loop_
_atom_site_type_symbol
_atom_site_label
_atom_site_fract_x
_atom_site_fract_y
_atom_site_fract_z
Si Si1 0.448810 0.154324 0.192335
Si Si2 0.106265 0.250144 0.813566
Si Si3 0.204855 0.341809 0.191537
Si Si4 0.948974 0.000000 0.313114
Si Si5 0.632016 0.342479 0.191435
Si Si6 0.946888 0.500000 0.314235
Si Si7 0.713817 0.158513 0.689553
O O1 0.500000 0.179114 0.242344
O O2 0.413759 0.268197 0.243531
O O3 0.436081 0.000000 0.240714
O O4 0.448718 0.154761 0.000000
O O5 0.156095 0.288146 0.757330
O O6 0.081044 0.125808 0.736570
O O7 0.074399 0.373941 0.773093
O O8 0.109474 0.226930 0.000000
O O9 0.211234 0.500000 0.240793
O O10 0.242466 0.240112 0.253821
O O11 0.206215 0.341442 0.000000
O O12 0.953561 0.000000 0.500000
O O13 0.000000 0.000000 0.246561
O O14 0.635709 0.500000 0.243864
O O15 0.672123 0.246451 0.248173
O O16 0.632705 0.344211 0.000000
O O17 0.934752 0.500000 0.500000
O O18 0.000000 0.500000 0.304178
O O19 0.712779 0.157530 0.500000
O O20 0.712990 0.000000 0.743322
#
# Coordination Sequence:
#
# PCOD9386160 Si02
#       7
#     8   8   8   4   8   4   8
#     4   8  14  26  47  77 113 152 194 239 287 341
#     4  11  23  41  64  91 120 155 199 246 294 348
#     4  10  22  42  64  88 117 147 184 233 289 346
#     4  11  25  43  61  87 125 163 199 243 294 349
#     4  10  20  34  55  84 116 152 193 238 291 346
#     4  11  23  39  61  91 125 161 199 239 290 349
#     4  11  25  41  58  84 114 148 192 238 286 344
#
# _framework density 19.232762999999998
#
# number of rings (size 3 to 8) (size 9 to 14) (size 15 to 20)
#    0.000    1.833    0.833    3.500    1.167    9.667 
#    0.000    1.667    0.000    0.500    0.000    3.500 
#    0.000    0.000    0.000    0.000    0.000    0.000 
#
# Total GULP energy -267921.636603 kJ/mol
# GULP energy per Si atom -5581.700763 kJ/mol
# Density = 1.918899 g / cm^3
# Si number density = 19.232763 Si / 1000 Ang^3
#
#
#
# Elastic Constant Matrix: (Units=GPa)
#
#
# Indices 1 2 3 4 5 6 
#
# 1 140.4038 105.0408 25.7468 0.0000 0.0000 0.0000
# 2 105.0408 214.9576 27.1709 0.0000 0.0000 0.0000
# 3 25.7468 27.1709 17.2839 0.0000 0.0000 0.0000
# 4 0.0000 0.0000 0.0000 37.9761 0.0000 0.0000
# 5 0.0000 0.0000 0.0000 0.0000 336.8718 0.0000
# 6 0.0000 0.0000 0.0000 0.0000 0.0000 3.4171
#
#
#
# Elastic Compliance Matrix: (Units=1/GPa)
#
#
# Indices 1 2 3 4 5 6 
#
# 1 0.012846 -0.004815 -0.011566 0.000000 0.000000 0.000000
# 2 -0.004815 0.007611 -0.004791 0.000000 0.000000 0.000000
# 3 -0.011566 -0.004791 0.082618 0.000000 0.000000 0.000000
# 4 0.000000 0.000000 0.000000 0.026332 0.000000 0.000000
# 5 0.000000 0.000000 0.000000 0.000000 0.002968 0.000000
# 6 0.000000 0.000000 0.000000 0.000000 0.000000 0.292645
#
#
# Mechanical properties :
#
#
# Convention : Reuss Voigt Hill
#
# Bulk Modulus (GPa) = 16.46635 76.50693 46.48664
# Shear Modulus (GPa) = 10.25415 89.96545 50.10980
#
# Velocity S-wave (km/s) = 2.31153 6.84680 5.10989
# Velocity P-wave (km/s) = 3.96288 10.11785 7.68359
#
# Compressibility (1/GPa) = 0.06072991
#
# Stress axis : x y z
#
# Youngs Moduli (GPa) = 77.84765 131.39396 12.10389
#
# Poissons Ratio (x) = 0.63269 0.13999
# Poissons Ratio (y) = 0.37485 0.05799
# Poissons Ratio (z) = 0.90036 0.62956
#
# Static dielectric constant tensor:
#      x y z
#    x 1.664260 0.000000 0.000000 
#    y 0.000000 1.624470 0.000000 
#    z 0.000000 0.000000 1.665080 
# 
# From -- ./inp_files/13999.got.cif
#   From: 2010.05.17/outbox.cif.g08.bks.cpg/sg47_7_cif.got.tgz:13999.got - 2010.06.03 20:15:42.
