data_PCOD9386605
_publ_section_title
;
Structure prediction by ZEFSAII (Michael W. Deem and Ramdas Pophale) SiO2 
 PCOD9386605
Probable space group: P M M M
;
_chemical_formula_sum "Si O2"
_cell_formula_units_Z 52
_cell_length_a 20.798862
_cell_length_b 8.677692
_cell_length_c 14.599975
_cell_angle_alpha 90.000000
_cell_angle_beta 90.000000
_cell_angle_gamma 90.000000
_cell_volume 2635.092816
_symmetry_space_group_name_H-M "P M M M"
_symmetry_group_IT_number 47
_symmetry_cell_setting 'orthorhombic'
loop_
_space_group_symop_operation_xyz
x,y,z
-x,-y,z
x,-y,-z
-x,y,-z
-x,-y,-z
x,y,-z
-x,y,z
x,-y,z
loop_
_atom_site_type_symbol
_atom_site_label
_atom_site_fract_x
_atom_site_fract_y
_atom_site_fract_z
Si Si1 0.259890 0.175490 0.644074
Si Si2 0.000000 0.815136 0.392466
Si Si3 0.571424 0.686098 0.197851
Si Si4 0.700945 0.825602 0.142035
Si Si5 0.833886 0.315709 0.098010
Si Si6 0.128160 0.314465 0.699255
Si Si7 0.392586 0.315621 0.402062
O O1 0.280373 0.169968 0.750636
O O2 0.189949 0.251950 0.643730
O O3 0.317248 0.272311 0.600007
O O4 0.258017 0.000000 0.609727
O O5 0.936800 0.747957 0.344329
O O6 0.000000 0.774260 0.500000
O O7 0.000000 0.000000 0.384913
O O8 0.500000 0.727679 0.165854
O O9 0.577237 0.500000 0.197258
O O10 0.629944 0.754810 0.139869
O O11 0.578769 0.738244 0.304805
O O12 0.758493 0.726838 0.100316
O O13 0.701903 0.000000 0.107251
O O14 0.840293 0.500000 0.098837
O O15 0.864135 0.260928 0.194189
O O16 0.860467 0.257935 0.000000
O O17 0.129225 0.500000 0.697997
O O18 0.419101 0.257919 0.500000
O O19 0.400256 0.500000 0.401578
#
# Coordination Sequence:
#
# PCOD9386605 Si02
#       7
#     8   4   8   8   8   8   8
#     4   9  17  30  48  69  95 128 165 207 256 307
#     4  11  25  43  60  79 108 148 189 225 262 303
#     4   9  17  29  45  64  89 127 172 214 262 320
#     4   9  17  29  47  72 100 130 166 208 252 301
#     4   9  18  34  58  87 115 141 170 208 259 317
#     4  10  20  36  59  84 110 141 178 219 260 306
#     4   9  17  28  42  63  91 122 162 215 269 319
#
# _framework density 19.733649
#
# number of rings (size 3 to 8) (size 9 to 14) (size 15 to 20)
#    0.000    2.692    0.000    1.615    0.000    6.769 
#    0.000    1.923    0.000    2.769    0.000    7.538 
#    0.000    0.000    0.000    0.000    0.000    0.000 
#
# Total GULP energy -289840.237468 kJ/mol
# GULP energy per Si atom -5573.850721 kJ/mol
# Density = 1.968873 g / cm^3
# Si number density = 19.733649 Si / 1000 Ang^3
#
#
#
# Elastic Constant Matrix: (Units=GPa)
#
#
# Indices 1 2 3 4 5 6 
#
# 1 124.4236 10.3854 16.7320 0.0000 0.0000 0.0000
# 2 10.3854 10.6692 0.1922 0.0000 0.0000 0.0000
# 3 16.7320 0.1922 74.6365 0.0000 0.0000 0.0000
# 4 0.0000 0.0000 0.0000 3.4045 0.0000 0.0000
# 5 0.0000 0.0000 0.0000 0.0000 1.5716 0.0000
# 6 0.0000 0.0000 0.0000 0.0000 0.0000 -2.5749
#
#
#
# Elastic Compliance Matrix: (Units=1/GPa)
#
#
# Indices 1 2 3 4 5 6 
#
# 1 0.009038 -0.008761 -0.002004 0.000000 0.000000 0.000000
# 2 -0.008761 0.102225 0.001701 0.000000 0.000000 0.000000
# 3 -0.002004 0.001701 0.013843 0.000000 0.000000 0.000000
# 4 0.000000 0.000000 0.000000 0.293730 0.000000 0.000000
# 5 0.000000 0.000000 0.000000 0.000000 0.636274 0.000000
# 6 0.000000 0.000000 0.000000 0.000000 0.000000 -0.388360
#
#
# Mechanical properties :
#
#
# Convention : Reuss Voigt Hill
#
# Bulk Modulus (GPa) = 9.34773 29.37205 19.35989
# Shear Modulus (GPa) = 6.93926 12.64156 9.79041
#
# Velocity S-wave (km/s) = 1.87726 2.53377 2.22981
# Velocity P-wave (km/s) = 3.07344 4.84526 4.05725
#
# Compressibility (1/GPa) = 0.10697789
#
# Stress axis : x y z
#
# Youngs Moduli (GPa) = 110.64679 9.78235 72.23846
#
# Poissons Ratio (x) = 0.08571 0.14473
# Poissons Ratio (y) = 0.96940 -0.12286
# Poissons Ratio (z) = 0.22168 -0.01664
#
# Static dielectric constant tensor:
#      x y z
#    x 1.660240 0.000000 0.000000 
#    y 0.000000 1.678040 0.000000 
#    z 0.000000 0.000000 1.781640 
# 
# From -- ./inp_files/25008.got.cif
#   From: 2010.05.17/outbox.cif.g08.bks.cpg/sg47_13_cif.got.tgz:25008.got - 2010.06.03 20:15:42.
