data_PCOD9386624
_publ_section_title
;
Structure prediction by ZEFSAII (Michael W. Deem and Ramdas Pophale) SiO2 
 PCOD9386624
Probable space group: P M M M
;
_chemical_formula_sum "Si O2"
_cell_formula_units_Z 64
_cell_length_a 26.007057
_cell_length_b 15.108160
_cell_length_c 7.896581
_cell_angle_alpha 90.000000
_cell_angle_beta 90.000000
_cell_angle_gamma 90.000000
_cell_volume 3102.714959
_symmetry_space_group_name_H-M "P M M M"
_symmetry_group_IT_number 47
_symmetry_cell_setting 'orthorhombic'
loop_
_space_group_symop_operation_xyz
x,y,z
-x,-y,z
x,-y,-z
-x,y,-z
-x,-y,-z
x,y,-z
-x,y,z
x,-y,z
loop_
_atom_site_type_symbol
_atom_site_label
_atom_site_fract_x
_atom_site_fract_y
_atom_site_fract_z
Si Si1 0.717651 0.902940 0.793785
Si Si2 0.753041 0.285220 0.208272
Si Si3 0.941455 0.712570 0.699760
Si Si4 0.344729 0.600389 0.798524
Si Si5 0.403173 0.901682 0.204593
Si Si6 0.443465 0.287731 0.300107
Si Si7 0.847634 0.401182 0.200976
Si Si8 0.060845 0.095149 0.796272
O O1 0.747585 0.816283 0.735264
O O2 0.657248 0.893420 0.749630
O O3 0.735444 0.000000 0.735656
O O4 0.719543 0.903678 0.000000
O O5 0.703222 0.341293 0.264633
O O6 0.804074 0.334966 0.267585
O O7 0.752929 0.283355 0.000000
O O8 0.944124 0.698839 0.500000
O O9 0.903461 0.640543 0.774132
O O10 0.919403 0.811334 0.731250
O O11 0.000000 0.708792 0.768906
O O12 0.346183 0.500000 0.729914
O O13 0.397311 0.653744 0.771813
O O14 0.337012 0.593520 0.000000
O O15 0.432430 0.816241 0.271032
O O16 0.420854 0.000000 0.259229
O O17 0.406090 0.899315 0.000000
O O18 0.443944 0.303745 0.500000
O O19 0.500000 0.309565 0.229822
O O20 0.843686 0.500000 0.272667
O O21 0.838458 0.407348 0.000000
O O22 0.000000 0.094458 0.751729
O O23 0.082453 0.000000 0.737994
O O24 0.064493 0.096882 0.000000
#
# Coordination Sequence:
#
# PCOD9386624 Si02
#       8
#     8   8   8   8   8   8   8   8
#     4   8  13  24  49  83 111 134 164 207 260 315
#     4   9  16  31  56  83 110 136 168 218 274 326
#     4  10  21  36  54  77 108 148 188 224 268 322
#     4  10  20  36  60  84 103 132 179 231 279 326
#     4   9  17  32  56  83 108 138 180 226 268 314
#     4  11  24  38  51  73 110 151 185 221 270 328
#     4  10  21  36  55  80 108 140 180 227 279 329
#     4   8  14  27  50  79 108 138 175 219 263 309
#
# _framework density 20.627096999999999
#
# number of rings (size 3 to 8) (size 9 to 14) (size 15 to 20)
#    0.000    2.625    1.250    2.250    0.000    5.000 
#    0.000    6.250    0.000    3.750    0.000    0.000 
#    0.000    0.000    0.000    0.000    0.000    0.000 
#
# Total GULP energy -356970.758056 kJ/mol
# GULP energy per Si atom -5577.668095 kJ/mol
# Density = 2.058015 g / cm^3
# Si number density = 20.627097 Si / 1000 Ang^3
#
#
#
# Elastic Constant Matrix: (Units=GPa)
#
#
# Indices 1 2 3 4 5 6 
#
# 1 93.3723 73.0590 -2.3751 0.0000 0.0000 0.0000
# 2 73.0590 158.4603 0.9287 0.0000 0.0000 0.0000
# 3 -2.3751 0.9287 13.8534 0.0000 0.0000 0.0000
# 4 0.0000 0.0000 0.0000 -19.2558 0.0000 0.0000
# 5 0.0000 0.0000 0.0000 0.0000 38.5786 0.0000
# 6 0.0000 0.0000 0.0000 0.0000 0.0000 2.7383
#
#
#
# Elastic Compliance Matrix: (Units=1/GPa)
#
#
# Indices 1 2 3 4 5 6 
#
# 1 0.016915 -0.007819 0.003424 0.000000 0.000000 0.000000
# 2 -0.007819 0.009927 -0.002006 0.000000 0.000000 0.000000
# 3 0.003424 -0.002006 0.072906 0.000000 0.000000 0.000000
# 4 0.000000 0.000000 0.000000 -0.051932 0.000000 0.000000
# 5 0.000000 0.000000 0.000000 0.000000 0.025921 0.000000
# 6 0.000000 0.000000 0.000000 0.000000 0.000000 0.365186
#
#
# Mechanical properties :
#
#
# Convention : Reuss Voigt Hill
#
# Bulk Modulus (GPa) = 11.50129 45.43459 28.46794
# Shear Modulus (GPa) = 10.40138 17.35045 13.87591
#
# Velocity S-wave (km/s) = 2.24801 2.90340 2.59647
# Velocity P-wave (km/s) = 3.51083 5.77184 4.77703
#
# Compressibility (1/GPa) = 0.08694679
#
# Stress axis : x y z
#
# Youngs Moduli (GPa) = 59.12054 100.73220 13.71630
#
# Poissons Ratio (x) = 0.78759 -0.04697
# Poissons Ratio (y) = 0.46224 0.02752
# Poissons Ratio (z) = -0.20244 0.20207
#
# Static dielectric constant tensor:
#      x y z
#    x 1.731900 0.000000 0.000000 
#    y 0.000000 1.750650 0.000000 
#    z 0.000000 0.000000 1.743930 
# 
# From -- ./inp_files/12723.got.cif
#   From: 2010.05.17/outbox.cif.g08.bks.cpg/sg47_7_cif.got.tgz:12723.got - 2010.06.03 20:15:42.
