data_PCOD9386255
_publ_section_title
;
Structure prediction by ZEFSAII (Michael W. Deem and Ramdas Pophale) SiO2 
 PCOD9386255
Probable space group: P M M M
;
_chemical_formula_sum "Si O2"
_cell_formula_units_Z 52
_cell_length_a 8.261686
_cell_length_b 19.820899
_cell_length_c 14.034866
_cell_angle_alpha 90.000000
_cell_angle_beta 90.000000
_cell_angle_gamma 90.000000
_cell_volume 2298.266061
_symmetry_space_group_name_H-M "P M M M"
_symmetry_group_IT_number 47
_symmetry_cell_setting 'orthorhombic'
loop_
_space_group_symop_operation_xyz
x,y,z
-x,-y,z
x,-y,-z
-x,y,-z
-x,-y,-z
x,y,-z
-x,y,z
x,-y,z
loop_
_atom_site_type_symbol
_atom_site_label
_atom_site_fract_x
_atom_site_fract_y
_atom_site_fract_z
Si Si1 0.812561 0.074820 0.383986
Si Si2 0.326131 0.215882 0.383284
Si Si3 0.689042 0.575213 0.785363
Si Si4 0.192648 0.142905 0.110436
Si Si5 0.306842 0.714489 0.892612
Si Si6 0.000000 0.278434 0.395209
Si Si7 0.000000 0.572267 0.351312
Si Si8 0.692784 0.000000 0.888390
O O1 0.814896 0.074324 0.500000
O O2 0.702771 0.137891 0.357881
O O3 0.000000 0.085988 0.354036
O O4 0.759939 0.000000 0.354210
O O5 0.331103 0.220797 0.500000
O O6 0.500000 0.240744 0.347684
O O7 0.168259 0.255918 0.350278
O O8 0.500000 0.581440 0.751528
O O9 0.696305 0.500000 0.832846
O O10 0.726397 0.642195 0.845716
O O11 0.833071 0.573810 0.708871
O O12 0.249232 0.214497 0.151692
O O13 0.000000 0.142728 0.109565
O O14 0.247748 0.071335 0.153376
O O15 0.254431 0.142648 0.000000
O O16 0.500000 0.719404 0.897518
O O17 0.237913 0.712546 0.000000
O O18 0.000000 0.357796 0.404536
O O19 0.000000 0.244780 0.500000
O O20 0.000000 0.500000 0.400653
O O21 0.500000 0.000000 0.888079
O O22 0.751079 0.000000 0.000000
#
# Coordination Sequence:
#
# PCOD9386255 Si02
#       8
#     8   8   8   8   8   4   4   4
#     4   8  12  19  33  55  90 134 169 195 227 273
#     4   9  16  26  42  66  98 133 163 195 242 294
#     4   9  19  36  56  78 106 138 171 209 250 298
#     4   9  16  24  36  58  91 129 167 211 258 297
#     4   9  17  29  47  73 105 139 173 210 252 295
#     4  10  20  35  53  75 103 127 157 208 261 310
#     4  10  22  39  59  79  99 129 166 204 253 312
#     4   9  15  23  35  51  81 127 171 209 255 306
#
# _framework density 22.625753
#
# number of rings (size 3 to 8) (size 9 to 14) (size 15 to 20)
#    0.000    3.000    0.769    1.154    1.077    4.154 
#    0.000    3.077    0.000    1.385    0.000    4.308 
#    4.615    0.000    0.923    0.000    0.000    0.000 
#
# Total GULP energy -290024.865752 kJ/mol
# GULP energy per Si atom -5577.401264 kJ/mol
# Density = 2.257426 g / cm^3
# Si number density = 22.625753 Si / 1000 Ang^3
#
#
#
# Elastic Constant Matrix: (Units=GPa)
#
#
# Indices 1 2 3 4 5 6 
#
# 1 115.1608 72.5722 18.3555 0.0000 0.0000 0.0000
# 2 72.5722 210.9388 42.7193 0.0000 0.0000 0.0000
# 3 18.3555 42.7193 60.0968 0.0000 0.0000 0.0000
# 4 0.0000 0.0000 0.0000 21.4539 0.0000 0.0000
# 5 0.0000 0.0000 0.0000 0.0000 -58.3324 0.0000
# 6 0.0000 0.0000 0.0000 0.0000 0.0000 28.6803
#
#
#
# Elastic Compliance Matrix: (Units=1/GPa)
#
#
# Indices 1 2 3 4 5 6 
#
# 1 0.011119 -0.003665 -0.000791 0.000000 0.000000 0.000000
# 2 -0.003665 0.006746 -0.003676 0.000000 0.000000 0.000000
# 3 -0.000791 -0.003676 0.019494 0.000000 0.000000 0.000000
# 4 0.000000 0.000000 0.000000 0.046612 0.000000 0.000000
# 5 0.000000 0.000000 0.000000 0.000000 -0.017143 0.000000
# 6 0.000000 0.000000 0.000000 0.000000 0.000000 0.034867
#
#
# Mechanical properties :
#
#
# Convention : Reuss Voigt Hill
#
# Bulk Modulus (GPa) = 47.40274 72.61005 60.00639
# Shear Modulus (GPa) = 40.00268 15.19700 27.59984
#
# Velocity S-wave (km/s) = 4.20934 2.59447 3.49641
# Velocity P-wave (km/s) = 6.67989 6.41377 6.54818
#
# Compressibility (1/GPa) = 0.02109583
#
# Stress axis : x y z
#
# Youngs Moduli (GPa) = 89.93267 148.23085 51.29696
#
# Poissons Ratio (x) = 0.54333 0.04056
# Poissons Ratio (y) = 0.32964 0.18857
# Poissons Ratio (z) = 0.07111 0.54489
#
# Static dielectric constant tensor:
#      x y z
#    x 1.799300 0.000000 0.000000 
#    y 0.000000 1.841340 0.000000 
#    z 0.000000 0.000000 1.931070 
# 
# From -- ./inp_files/26846.got.cif
#   From: 2010.05.17/outbox.cif.g08.bks.cpg/sg47_14_cif.got.tgz:26846.got - 2010.06.03 20:15:42.
