data_PCOD9386399
_publ_section_title
;
Structure prediction by ZEFSAII (Michael W. Deem and Ramdas Pophale) SiO2 
 PCOD9386399
Probable space group: P M M M
;
_chemical_formula_sum "Si O2"
_cell_formula_units_Z 44
_cell_length_a 35.090805
_cell_length_b 7.806073
_cell_length_c 7.866519
_cell_angle_alpha 90.000000
_cell_angle_beta 90.000000
_cell_angle_gamma 90.000000
_cell_volume 2154.807783
_symmetry_space_group_name_H-M "P M M M"
_symmetry_group_IT_number 47
_symmetry_cell_setting 'orthorhombic'
loop_
_space_group_symop_operation_xyz
x,y,z
-x,-y,z
x,-y,-z
-x,y,-z
-x,-y,-z
x,y,-z
-x,y,z
x,-y,z
loop_
_atom_site_type_symbol
_atom_site_label
_atom_site_fract_x
_atom_site_fract_y
_atom_site_fract_z
Si Si1 0.095966 0.791216 0.688875
Si Si2 0.541330 0.296181 0.705735
Si Si3 0.818822 0.197391 0.205940
Si Si4 0.676994 0.500000 0.798849
Si Si5 0.043794 0.789919 0.000000
Si Si6 0.623746 0.814397 0.704836
Si Si7 0.763231 0.500000 0.791747
O O1 0.085474 0.734316 0.500000
O O2 0.139643 0.745565 0.729677
O O3 0.095283 0.000000 0.691735
O O4 0.067168 0.733116 0.834318
O O5 0.540958 0.274324 0.500000
O O6 0.500000 0.232996 0.768355
O O7 0.543192 0.500000 0.737591
O O8 0.580623 0.216871 0.769539
O O9 0.786545 0.330763 0.260308
O O10 0.811998 0.000000 0.259854
O O11 0.820454 0.197593 0.000000
O O12 0.652343 0.664672 0.750367
O O13 0.719870 0.500000 0.728372
O O14 0.680784 0.500000 0.000000
O O15 0.000000 0.735098 0.000000
O O16 0.043902 0.000000 0.000000
O O17 0.621152 0.815073 0.500000
O O18 0.637331 0.000000 0.763363
O O19 0.762900 0.500000 0.000000
#
# Coordination Sequence:
#
# PCOD9386399 Si02
#       7
#     8   8   8   4   4   8   4
#     4   9  16  27  45  71 104 142 184 229 278 332
#     4   8  13  24  47  78 107 134 173 230 284 325
#     4   9  16  31  54  76 102 133 169 222 282 333
#     4  11  23  39  56  78 113 148 183 229 274 335
#     4   9  16  26  42  69 107 151 194 231 275 328
#     4  10  20  35  57  81 107 145 186 225 279 338
#     4   9  20  35  55  82 102 133 184 223 269 332
#
# _framework density 20.419454999999999
#
# number of rings (size 3 to 8) (size 9 to 14) (size 15 to 20)
#    0.000    2.818    1.818    0.818    0.000    1.818 
#    0.000    7.727    0.000    3.273    0.000    2.545 
#    0.000    1.455    0.000    0.182    0.000    0.000 
#
# Total GULP energy -245524.042566 kJ/mol
# GULP energy per Si atom -5580.091877 kJ/mol
# Density = 2.037298 g / cm^3
# Si number density = 20.419455 Si / 1000 Ang^3
#
#
#
# Elastic Constant Matrix: (Units=GPa)
#
#
# Indices 1 2 3 4 5 6 
#
# 1 203.2496 87.2175 52.4197 0.0000 0.0000 0.0000
# 2 87.2175 100.1822 26.4899 0.0000 0.0000 0.0000
# 3 52.4197 26.4899 61.8168 0.0000 0.0000 0.0000
# 4 0.0000 0.0000 0.0000 -3.4294 0.0000 0.0000
# 5 0.0000 0.0000 0.0000 0.0000 16.2337 0.0000
# 6 0.0000 0.0000 0.0000 0.0000 0.0000 -4.5935
#
#
#
# Elastic Compliance Matrix: (Units=1/GPa)
#
#
# Indices 1 2 3 4 5 6 
#
# 1 0.008961 -0.006532 -0.004800 0.000000 0.000000 0.000000
# 2 -0.006532 0.016019 -0.001325 0.000000 0.000000 0.000000
# 3 -0.004800 -0.001325 0.020815 0.000000 0.000000 0.000000
# 4 0.000000 0.000000 0.000000 -0.291600 0.000000 0.000000
# 5 0.000000 0.000000 0.000000 0.000000 0.061600 0.000000
# 6 0.000000 0.000000 0.000000 0.000000 0.000000 -0.217700
#
#
# Mechanical properties :
#
#
# Convention : Reuss Voigt Hill
#
# Bulk Modulus (GPa) = 48.82671 77.50030 63.16350
# Shear Modulus (GPa) = -13.52213 14.91696 0.69741
#
# Velocity S-wave (km/s) = -2.57615 2.70576 0.58505
# Velocity P-wave (km/s) = 3.88780 6.91361 5.60861
#
# Compressibility (1/GPa) = 0.02048059
#
# Stress axis : x y z
#
# Youngs Moduli (GPa) = 111.59477 62.42529 48.04295
#
# Poissons Ratio (x) = 0.40778 0.23059
# Poissons Ratio (y) = 0.72897 0.06367
# Poissons Ratio (z) = 0.53561 0.08273
#
# Static dielectric constant tensor:
#      x y z
#    x 1.702850 0.000000 0.000000 
#    y 0.000000 1.723650 0.000000 
#    z 0.000000 0.000000 1.758720 
# 
# From -- ./inp_files/13738.got.cif
#   From: 2010.05.17/outbox.cif.g08.bks.cpg/sg47_7_cif.got.tgz:13738.got - 2010.06.03 20:15:42.
