data_PCOD9386249
_publ_section_title
;
Structure prediction by ZEFSAII (Michael W. Deem and Ramdas Pophale) SiO2 
 PCOD9386249
Probable space group: P M M M
;
_chemical_formula_sum "Si O2"
_cell_formula_units_Z 52
_cell_length_a 7.957277
_cell_length_b 17.780932
_cell_length_c 24.171647
_cell_angle_alpha 90.000000
_cell_angle_beta 90.000000
_cell_angle_gamma 90.000000
_cell_volume 3419.993186
_symmetry_space_group_name_H-M "P M M M"
_symmetry_group_IT_number 47
_symmetry_cell_setting 'orthorhombic'
loop_
_space_group_symop_operation_xyz
x,y,z
-x,-y,z
x,-y,-z
-x,y,-z
-x,-y,-z
x,y,-z
-x,y,z
x,-y,z
loop_
_atom_site_type_symbol
_atom_site_label
_atom_site_fract_x
_atom_site_fract_y
_atom_site_fract_z
Si Si1 0.500000 0.910671 0.175247
Si Si2 0.703831 0.673476 0.272106
Si Si3 0.799710 0.586189 0.500000
Si Si4 0.500000 0.820085 0.060004
Si Si5 0.186755 0.819458 0.785961
Si Si6 0.703441 0.586411 0.159885
Si Si7 0.701612 0.413621 0.380540
Si Si8 0.186008 0.728491 0.902306
O O1 0.500000 0.875021 0.113142
O O2 0.664355 0.878844 0.206595
O O3 0.500000 0.000000 0.172404
O O4 0.500000 0.678613 0.272176
O O5 0.773986 0.756195 0.259827
O O6 0.749711 0.619858 0.220207
O O7 0.761688 0.636090 0.329208
O O8 0.732027 0.500000 0.500000
O O9 0.743143 0.618450 0.558803
O O10 0.000000 0.583867 0.500000
O O11 0.663391 0.766862 0.064790
O O12 0.500000 0.858490 0.000000
O O13 0.187101 0.772508 0.843505
O O14 0.000000 0.851444 0.778301
O O15 0.500000 0.589879 0.156454
O O16 0.755666 0.500000 0.154531
O O17 0.776278 0.642457 0.113975
O O18 0.500000 0.417555 0.375880
O O19 0.766479 0.500000 0.377090
O O20 0.000000 0.736343 0.926720
#
# Coordination Sequence:
#
# PCOD9386249 Si02
#       8
#     4   8   4   4   8   8   8   8
#     4  10  20  35  54  75  99 121 141 168 204 256
#     4   9  15  25  41  63  90 117 149 190 232 271
#     4   9  17  27  35  45  71 115 163 208 247 278
#     4  10  20  35  53  72  92 115 146 180 212 248
#     4   9  17  30  48  69  94 122 148 175 214 265
#     4   9  15  24  41  64  89 115 145 186 233 274
#     4   9  16  25  38  56  80 116 162 205 241 274
#     4   9  17  30  47  66  89 119 151 181 219 265
#
# _framework density 15.20471
#
# number of rings (size 3 to 8) (size 9 to 14) (size 15 to 20)
#    0.000    2.846    1.538    0.692    0.000    4.462 
#    0.000    0.000    0.000    3.692    0.000    5.385 
#    0.000    0.000    0.000    1.385    0.000    3.231 
#
# Total GULP energy -289616.035518 kJ/mol
# GULP energy per Si atom -5569.539145 kJ/mol
# Density = 1.517010 g / cm^3
# Si number density = 15.204710 Si / 1000 Ang^3
#
#
#
# Elastic Constant Matrix: (Units=GPa)
#
#
# Indices 1 2 3 4 5 6 
#
# 1 79.7831 43.3593 23.2553 0.0000 0.0000 0.0000
# 2 43.3593 92.2235 29.3956 0.0000 0.0000 0.0000
# 3 23.2553 29.3956 68.6715 0.0000 0.0000 0.0000
# 4 0.0000 0.0000 0.0000 9.7924 0.0000 0.0000
# 5 0.0000 0.0000 0.0000 0.0000 -9.7046 0.0000
# 6 0.0000 0.0000 0.0000 0.0000 0.0000 4.9833
#
#
#
# Elastic Compliance Matrix: (Units=1/GPa)
#
#
# Indices 1 2 3 4 5 6 
#
# 1 0.017272 -0.007245 -0.002748 0.000000 0.000000 0.000000
# 2 -0.007245 0.015595 -0.004222 0.000000 0.000000 0.000000
# 3 -0.002748 -0.004222 0.017300 0.000000 0.000000 0.000000
# 4 0.000000 0.000000 0.000000 0.102120 0.000000 0.000000
# 5 0.000000 0.000000 0.000000 0.000000 -0.103044 0.000000
# 6 0.000000 0.000000 0.000000 0.000000 0.000000 0.200669
#
#
# Mechanical properties :
#
#
# Convention : Reuss Voigt Hill
#
# Bulk Modulus (GPa) = 46.00345 48.07760 47.04053
# Shear Modulus (GPa) = 17.50775 10.65876 14.08325
#
# Velocity S-wave (km/s) = 3.39701 2.65054 3.04673
# Velocity P-wave (km/s) = 6.76077 6.40750 6.58650
#
# Compressibility (1/GPa) = 0.02173750
#
# Stress axis : x y z
#
# Youngs Moduli (GPa) = 57.89649 64.12234 57.80316
#
# Poissons Ratio (x) = 0.46455 0.15884
# Poissons Ratio (y) = 0.41944 0.24406
# Poissons Ratio (z) = 0.15910 0.27074
#
# Static dielectric constant tensor:
#      x y z
#    x 1.544840 0.000000 0.000000 
#    y 0.000000 1.474230 0.000000 
#    z 0.000000 0.000000 1.506970 
# 
# From -- ./inp_files/32049.got.cif
#   From: 2010.05.17/outbox.cif.g08.bks.cpg/sg47_17_cif.got.tgz:32049.got - 2010.06.03 20:15:42.
