data_PCOD9386697
_publ_section_title
;
Structure prediction by ZEFSAII (Michael W. Deem and Ramdas Pophale) SiO2 
 PCOD9386697
Probable space group: P M M M
;
_chemical_formula_sum "Si O2"
_cell_formula_units_Z 29
_cell_length_a 7.733762
_cell_length_b 10.950457
_cell_length_c 17.745504
_cell_angle_alpha 90.000000
_cell_angle_beta 90.000000
_cell_angle_gamma 90.000000
_cell_volume 1502.835293
_symmetry_space_group_name_H-M "P M M M"
_symmetry_group_IT_number 47
_symmetry_cell_setting 'orthorhombic'
loop_
_space_group_symop_operation_xyz
x,y,z
-x,-y,z
x,-y,-z
-x,y,-z
-x,-y,-z
x,y,-z
-x,y,z
x,-y,z
loop_
_atom_site_type_symbol
_atom_site_label
_atom_site_fract_x
_atom_site_fract_y
_atom_site_fract_z
Si Si1 0.791492 0.139578 0.191618
Si Si2 0.293943 0.139956 0.635334
Si Si3 0.500000 0.500000 0.500000
Si Si4 0.188258 0.693356 0.500000
Si Si5 0.210960 0.362839 0.087606
O O1 0.744890 0.170245 0.277760
O O2 0.728716 0.248146 0.137203
O O3 0.000000 0.136293 0.185583
O O4 0.729577 0.000000 0.175630
O O5 0.500000 0.146903 0.623805
O O6 0.204762 0.224441 0.574624
O O7 0.238704 0.000000 0.624180
O O8 0.348642 0.604099 0.500000
O O9 0.000000 0.635071 0.500000
O O10 0.265143 0.500000 0.112413
O O11 0.000000 0.362312 0.090013
O O12 0.260403 0.348310 0.000000
#
# Coordination Sequence:
#
# PCOD9386697 Si02
#       5
#     8   8   1   4   8
#     4   9  17  29  47  76 108 136 178 233 288 351
#     4  10  20  37  60  85 114 147 189 244 301 354
#     4  12  26  48  58  86 128 156 200 246 284 346
#     4  12  24  42  66  87 117 160 198 242 293 345
#     4   8  14  26  44  68 100 137 179 229 285 348
#
# _framework density 19.296858
#
# number of rings (size 3 to 8) (size 9 to 14) (size 15 to 20)
#    0.000    2.483    1.379    2.276    0.000    3.862 
#    2.483    2.759    0.000    0.828    0.000    5.793 
#    0.000    0.000    0.000    0.000    0.000    0.000 
#
# Total GULP energy -161508.602661 kJ/mol
# GULP energy per Si atom -5569.262161 kJ/mol
# Density = 1.925294 g / cm^3
# Si number density = 19.296858 Si / 1000 Ang^3
#
#
#
# Elastic Constant Matrix: (Units=GPa)
#
#
# Indices 1 2 3 4 5 6 
#
# 1 78.3034 38.1965 24.0723 0.0000 0.0000 0.0000
# 2 38.1965 168.5518 116.5339 0.0000 0.0000 0.0000
# 3 24.0723 116.5339 106.0355 0.0000 0.0000 0.0000
# 4 0.0000 0.0000 0.0000 -46.2370 0.0000 0.0000
# 5 0.0000 0.0000 0.0000 0.0000 229.7303 0.0000
# 6 0.0000 0.0000 0.0000 0.0000 0.0000 58.3487
#
#
#
# Elastic Compliance Matrix: (Units=1/GPa)
#
#
# Indices 1 2 3 4 5 6 
#
# 1 0.014402 -0.004177 0.001321 0.000000 0.000000 0.000000
# 2 -0.004177 0.025915 -0.027533 0.000000 0.000000 0.000000
# 3 0.001321 -0.027533 0.039389 0.000000 0.000000 0.000000
# 4 0.000000 0.000000 0.000000 -0.021628 0.000000 0.000000
# 5 0.000000 0.000000 0.000000 0.000000 0.004353 0.000000
# 6 0.000000 0.000000 0.000000 0.000000 0.000000 0.017138
#
#
# Mechanical properties :
#
#
# Convention : Reuss Voigt Hill
#
# Bulk Modulus (GPa) = 52.82742 78.94402 65.88572
# Shear Modulus (GPa) = 34.09299 59.97427 47.03363
#
# Velocity S-wave (km/s) = 4.20785 5.58098 4.94233
# Velocity P-wave (km/s) = 7.14448 9.08454 8.17228
#
# Compressibility (1/GPa) = 0.01892956
#
# Stress axis : x y z
#
# Youngs Moduli (GPa) = 69.43321 38.58748 25.38751
#
# Poissons Ratio (x) = 0.16119 -0.03354
# Poissons Ratio (y) = 0.29004 0.69898
# Poissons Ratio (z) = -0.09174 1.06241
#
# Static dielectric constant tensor:
#      x y z
#    x 1.687390 0.000000 0.000000 
#    y 0.000000 1.667630 0.000000 
#    z 0.000000 0.000000 1.643930 
# 
# From -- ./inp_files/14649.got.cif
#   From: 2010.05.17/outbox.cif.g08.bks.cpg/sg47_8_cif.got.tgz:14649.got - 2010.06.03 20:15:42.
