data_PCOD9386666
_publ_section_title
;
Structure prediction by ZEFSAII (Michael W. Deem and Ramdas Pophale) SiO2 
 PCOD9386666
Probable space group: P M M M
;
_chemical_formula_sum "Si O2"
_cell_formula_units_Z 52
_cell_length_a 7.859208
_cell_length_b 23.505817
_cell_length_c 14.429394
_cell_angle_alpha 90.000000
_cell_angle_beta 90.000000
_cell_angle_gamma 90.000000
_cell_volume 2665.644475
_symmetry_space_group_name_H-M "P M M M"
_symmetry_group_IT_number 47
_symmetry_cell_setting 'orthorhombic'
loop_
_space_group_symop_operation_xyz
x,y,z
-x,-y,z
x,-y,-z
-x,y,-z
-x,-y,-z
x,y,-z
-x,y,z
x,-y,z
loop_
_atom_site_type_symbol
_atom_site_label
_atom_site_fract_x
_atom_site_fract_y
_atom_site_fract_z
Si Si1 0.000000 0.934050 0.610738
Si Si2 0.294476 0.564312 0.222319
Si Si3 0.204244 0.671071 0.103742
Si Si4 0.293893 0.638918 0.604851
Si Si5 0.797455 0.745838 0.723964
Si Si6 0.794403 0.066589 0.894275
Si Si7 0.687875 0.126393 0.710422
O O1 0.165395 0.903489 0.651575
O O2 0.000000 0.931301 0.500000
O O3 0.000000 0.000000 0.640453
O O4 0.500000 0.562879 0.224280
O O5 0.232448 0.500000 0.210081
O O6 0.243054 0.608267 0.142388
O O7 0.236636 0.592293 0.319635
O O8 0.265921 0.715604 0.181319
O O9 0.000000 0.676945 0.101185
O O10 0.270774 0.679673 0.000000
O O11 0.235923 0.628599 0.500000
O O12 0.500000 0.638594 0.604968
O O13 0.235432 0.699889 0.643544
O O14 0.711074 0.805902 0.706709
O O15 0.000000 0.755595 0.731816
O O16 0.713109 0.105302 0.815991
O O17 0.000000 0.071513 0.887399
O O18 0.751993 0.000000 0.878901
O O19 0.746582 0.081167 0.000000
O O20 0.500000 0.110244 0.678090
#
# Coordination Sequence:
#
# PCOD9386666 Si02
#       7
#     4   8   8   8   8   8   8
#     4  11  26  48  69  91 123 161 205 256 308 362
#     4   9  18  32  50  75 108 145 186 233 286 347
#     4   9  19  35  55  78 107 149 195 238 286 339
#     4   9  18  33  53  77 105 139 182 235 293 351
#     4  10  20  37  57  80 113 149 188 238 295 355
#     4   9  18  35  60  89 123 161 197 236 287 350
#     4  12  24  40  65  95 125 161 205 252 306 366
#
# _framework density 19.507477999999999
#
# number of rings (size 3 to 8) (size 9 to 14) (size 15 to 20)
#    0.000    2.231    1.538    1.385    0.000    5.231 
#    0.000    6.154    0.000    0.000    0.000    4.308 
#    0.000    0.000    0.000    0.000    0.000    0.000 
#
# Total GULP energy -290392.600405 kJ/mol
# GULP energy per Si atom -5584.473085 kJ/mol
# Density = 1.946308 g / cm^3
# Si number density = 19.507478 Si / 1000 Ang^3
#
#
#
# Elastic Constant Matrix: (Units=GPa)
#
#
# Indices 1 2 3 4 5 6 
#
# 1 68.4528 25.3597 15.9363 0.0000 0.0000 0.0000
# 2 25.3597 92.2866 11.1284 0.0000 0.0000 0.0000
# 3 15.9363 11.1284 68.7513 0.0000 0.0000 0.0000
# 4 0.0000 0.0000 0.0000 20.2344 0.0000 0.0000
# 5 0.0000 0.0000 0.0000 0.0000 11.3831 0.0000
# 6 0.0000 0.0000 0.0000 0.0000 0.0000 29.6005
#
#
#
# Elastic Compliance Matrix: (Units=1/GPa)
#
#
# Indices 1 2 3 4 5 6 
#
# 1 0.016942 -0.004265 -0.003237 0.000000 0.000000 0.000000
# 2 -0.004265 0.012125 -0.000974 0.000000 0.000000 0.000000
# 3 -0.003237 -0.000974 0.015453 0.000000 0.000000 0.000000
# 4 0.000000 0.000000 0.000000 0.049421 0.000000 0.000000
# 5 0.000000 0.000000 0.000000 0.000000 0.087849 0.000000
# 6 0.000000 0.000000 0.000000 0.000000 0.000000 0.033783
#
#
# Mechanical properties :
#
#
# Convention : Reuss Voigt Hill
#
# Bulk Modulus (GPa) = 36.27310 37.14883 36.71097
# Shear Modulus (GPa) = 20.68545 24.04803 22.36674
#
# Velocity S-wave (km/s) = 3.25989 3.51488 3.38978
# Velocity P-wave (km/s) = 5.72748 5.96299 5.84642
#
# Compressibility (1/GPa) = 0.02756864
#
# Stress axis : x y z
#
# Youngs Moduli (GPa) = 59.02379 82.47192 64.71198
#
# Poissons Ratio (x) = 0.35177 0.20946
# Poissons Ratio (y) = 0.25176 0.06303
# Poissons Ratio (z) = 0.19105 0.08033
#
# Static dielectric constant tensor:
#      x y z
#    x 1.706830 0.000000 0.000000 
#    y 0.000000 1.649330 0.000000 
#    z 0.000000 0.000000 1.675160 
# 
# From -- ./inp_files/21431.got.cif
#   From: 2010.05.17/outbox.cif.g08.bks.cpg/sg47_11_cif.got.tgz:21431.got - 2010.06.03 20:15:42.
