data_PCOD9386433
_publ_section_title
;
Structure prediction by ZEFSAII (Michael W. Deem and Ramdas Pophale) SiO2 
 PCOD9386433
Probable space group: P M M M
;
_chemical_formula_sum "Si O2"
_cell_formula_units_Z 40
_cell_length_a 14.837247
_cell_length_b 15.943500
_cell_length_c 7.573913
_cell_angle_alpha 90.000000
_cell_angle_beta 90.000000
_cell_angle_gamma 90.000000
_cell_volume 1791.667042
_symmetry_space_group_name_H-M "P M M M"
_symmetry_group_IT_number 47
_symmetry_cell_setting 'orthorhombic'
loop_
_space_group_symop_operation_xyz
x,y,z
-x,-y,z
x,-y,-z
-x,y,-z
-x,-y,-z
x,y,-z
-x,y,z
x,-y,z
loop_
_atom_site_type_symbol
_atom_site_label
_atom_site_fract_x
_atom_site_fract_y
_atom_site_fract_z
Si Si1 0.865322 0.409783 0.791858
Si Si2 0.849706 0.770849 0.790727
Si Si3 0.348462 0.590111 0.285348
Si Si4 0.500000 0.095171 0.283228
Si Si5 0.000000 0.905118 0.709790
Si Si6 0.358847 0.771720 0.706886
O O1 0.896028 0.500000 0.717045
O O2 0.890528 0.317757 0.720755
O O3 0.756709 0.409855 0.769735
O O4 0.888167 0.411382 0.000000
O O5 0.748510 0.782630 0.721802
O O6 0.913466 0.849596 0.759330
O O7 0.841059 0.759576 0.000000
O O8 0.351912 0.591101 0.500000
O O9 0.387045 0.500000 0.227951
O O10 0.384572 0.679554 0.220351
O O11 0.500000 0.090903 0.500000
O O12 0.414108 0.149658 0.223347
O O13 0.500000 0.000000 0.220595
O O14 0.000000 0.911543 0.500000
O O15 0.000000 0.000000 0.782601
O O16 0.381158 0.767782 0.500000
#
# Coordination Sequence:
#
# PCOD9386433 Si02
#       6
#     8   8   8   4   4   8
#     4   8  14  26  46  73 104 137 169 198 237 297
#     4  10  20  35  57  83 109 137 170 213 262 307
#     4   8  13  22  39  65  96 129 165 206 250 293
#     4   9  18  32  50  72  98 131 173 217 258 306
#     4  11  25  43  60  77 100 134 175 217 262 315
#     4   9  17  31  51  74 102 137 175 212 252 304
#
# _framework density 22.325576999999999
#
# number of rings (size 3 to 8) (size 9 to 14) (size 15 to 20)
#    0.000    3.000    0.000    0.900    0.000    2.400 
#    0.000    3.500    0.000    6.600    0.000    0.000 
#    0.000   16.000    0.000    0.000    0.000    0.000 
#
# Total GULP energy -222961.086225 kJ/mol
# GULP energy per Si atom -5574.027156 kJ/mol
# Density = 2.227476 g / cm^3
# Si number density = 22.325577 Si / 1000 Ang^3
#
#
#
# Elastic Constant Matrix: (Units=GPa)
#
#
# Indices 1 2 3 4 5 6 
#
# 1 97.7347 87.8826 -6.8129 0.0000 0.0000 0.0000
# 2 87.8826 288.9851 3.3001 0.0000 0.0000 0.0000
# 3 -6.8129 3.3001 55.5677 0.0000 0.0000 0.0000
# 4 0.0000 0.0000 0.0000 10.4710 0.0000 0.0000
# 5 0.0000 0.0000 0.0000 0.0000 14.6010 0.0000
# 6 0.0000 0.0000 0.0000 0.0000 0.0000 46.1294
#
#
#
# Elastic Compliance Matrix: (Units=1/GPa)
#
#
# Indices 1 2 3 4 5 6 
#
# 1 0.014304 -0.004373 0.002014 0.000000 0.000000 0.000000
# 2 -0.004373 0.004800 -0.000821 0.000000 0.000000 0.000000
# 3 0.002014 -0.000821 0.018292 0.000000 0.000000 0.000000
# 4 0.000000 0.000000 0.000000 0.095502 0.000000 0.000000
# 5 0.000000 0.000000 0.000000 0.000000 0.068489 0.000000
# 6 0.000000 0.000000 0.000000 0.000000 0.000000 0.021678
#
#
# Mechanical properties :
#
#
# Convention : Reuss Voigt Hill
#
# Bulk Modulus (GPa) = 32.22251 67.89189 50.05720
# Shear Modulus (GPa) = 20.85323 38.10144 29.47733
#
# Velocity S-wave (km/s) = 3.05954 4.13562 3.63759
# Velocity P-wave (km/s) = 5.19089 7.29934 6.33347
#
# Compressibility (1/GPa) = 0.03103421
#
# Stress axis : x y z
#
# Youngs Moduli (GPa) = 69.90862 208.34860 54.66955
#
# Poissons Ratio (x) = 0.91112 -0.11008
# Poissons Ratio (y) = 0.30572 0.04489
# Poissons Ratio (z) = -0.14076 0.17110
#
# Static dielectric constant tensor:
#      x y z
#    x 1.786560 0.000000 0.000000 
#    y 0.000000 1.887950 0.000000 
#    z 0.000000 0.000000 1.832250 
# 
# From -- ./inp_files/5706.got.cif
#   From: 2010.05.17/outbox.cif.g08.bks.cpg/sg47_3_cif.got.tgz:5706.got - 2010.06.03 20:15:42.
