data_PCOD9386728
_publ_section_title
;
Structure prediction by ZEFSAII (Michael W. Deem and Ramdas Pophale) SiO2 
 PCOD9386728
Probable space group: P M M M
;
_chemical_formula_sum "Si O2"
_cell_formula_units_Z 49
_cell_length_a 9.614731
_cell_length_b 8.036300
_cell_length_c 32.143884
_cell_angle_alpha 90.000000
_cell_angle_beta 90.000000
_cell_angle_gamma 90.000000
_cell_volume 2483.657073
_symmetry_space_group_name_H-M "P M M M"
_symmetry_group_IT_number 47
_symmetry_cell_setting 'orthorhombic'
loop_
_space_group_symop_operation_xyz
x,y,z
-x,-y,z
x,-y,-z
-x,y,-z
-x,-y,-z
x,y,-z
-x,y,z
x,-y,z
loop_
_atom_site_type_symbol
_atom_site_label
_atom_site_fract_x
_atom_site_fract_y
_atom_site_fract_z
Si Si1 0.839668 0.200404 0.673795
Si Si2 0.660408 0.300222 0.089866
Si Si3 0.708551 0.184912 0.500000
Si Si4 0.166350 0.310587 0.582592
Si Si5 0.500000 0.500000 0.500000
Si Si6 0.339787 0.198524 0.000000
Si Si7 0.840253 0.298873 0.831924
Si Si8 0.340312 0.798836 0.752023
O O1 0.787205 0.248687 0.627939
O O2 0.739465 0.260465 0.710529
O O3 0.000000 0.259916 0.679314
O O4 0.844000 0.000000 0.675662
O O5 0.500000 0.237047 0.093451
O O6 0.653672 0.500000 0.092882
O O7 0.718378 0.257215 0.044136
O O8 0.758202 0.238772 0.127015
O O9 0.792130 0.202313 0.456884
O O10 0.616123 0.349880 0.500000
O O11 0.646410 0.000000 0.500000
O O12 0.215843 0.500000 0.576884
O O13 0.000000 0.311876 0.584322
O O14 0.500000 0.261981 0.000000
O O15 0.341200 0.000000 0.000000
O O16 0.844833 0.500000 0.833784
O O17 0.750736 0.250473 0.791778
O O18 0.000000 0.238960 0.829701
O O19 0.500000 0.739136 0.754721
O O20 0.344575 0.000000 0.750394
#
# Coordination Sequence:
#
# PCOD9386728 Si02
#       8
#     8   8   4   8   1   4   8   8
#     4   9  18  34  55  81 114 152 194 236 285 345
#     4   9  17  31  51  74 101 137 176 218 266 325
#     4  12  24  42  66  89 121 166 206 252 305 357
#     4  10  20  37  62  92 123 152 192 250 301 351
#     4  12  26  48  58  86 128 164 214 254 292 370
#     4   9  17  29  48  75 104 132 170 217 264 315
#     4  10  21  36  55  79 107 140 182 229 280 336
#     4  10  21  37  56  81 112 147 188 235 285 343
#
# _framework density 19.728971999999999
#
# number of rings (size 3 to 8) (size 9 to 14) (size 15 to 20)
#    0.000    2.204    0.816    2.082    0.000    6.204 
#    1.469    3.673    0.000    2.449    0.000    0.000 
#    0.000    0.000    0.000    0.000    0.000    0.000 
#
# Total GULP energy -273005.006085 kJ/mol
# GULP energy per Si atom -5571.530736 kJ/mol
# Density = 1.968407 g / cm^3
# Si number density = 19.728972 Si / 1000 Ang^3
#
#
#
# Elastic Constant Matrix: (Units=GPa)
#
#
# Indices 1 2 3 4 5 6 
#
# 1 114.9496 22.1570 96.3849 0.0000 0.0000 0.0000
# 2 22.1570 50.1329 20.6726 0.0000 0.0000 0.0000
# 3 96.3849 20.6726 215.9671 0.0000 0.0000 0.0000
# 4 0.0000 0.0000 0.0000 33.9456 0.0000 0.0000
# 5 0.0000 0.0000 0.0000 0.0000 46.4552 0.0000
# 6 0.0000 0.0000 0.0000 0.0000 0.0000 -29.1229
#
#
#
# Elastic Compliance Matrix: (Units=1/GPa)
#
#
# Indices 1 2 3 4 5 6 
#
# 1 0.014607 -0.003922 -0.006143 0.000000 0.000000 0.000000
# 2 -0.003922 0.021820 -0.000338 0.000000 0.000000 0.000000
# 3 -0.006143 -0.000338 0.007404 0.000000 0.000000 0.000000
# 4 0.000000 0.000000 0.000000 0.029459 0.000000 0.000000
# 5 0.000000 0.000000 0.000000 0.000000 0.021526 0.000000
# 6 0.000000 0.000000 0.000000 0.000000 0.000000 -0.034337
#
#
# Mechanical properties :
#
#
# Convention : Reuss Voigt Hill
#
# Bulk Modulus (GPa) = 43.43420 73.27539 58.35480
# Shear Modulus (GPa) = 56.20418 26.37794 41.29106
#
# Velocity S-wave (km/s) = 5.34322 3.66049 4.57980
# Velocity P-wave (km/s) = 7.75435 7.42208 7.59003
#
# Compressibility (1/GPa) = 0.02302333
#
# Stress axis : x y z
#
# Youngs Moduli (GPa) = 68.46121 45.82961 135.05306
#
# Poissons Ratio (x) = 0.17976 0.82970
# Poissons Ratio (y) = 0.26853 0.04566
# Poissons Ratio (z) = 0.42059 0.01549
#
# Static dielectric constant tensor:
#      x y z
#    x 1.690760 0.000000 0.000000 
#    y 0.000000 1.706150 0.000000 
#    z 0.000000 0.000000 1.698860 
# 
# From -- ./inp_files/34253.got.cif
#   From: 2010.05.17/outbox.cif.g08.bks.cpg/sg47_18_cif.got.tgz:34253.got - 2010.06.03 20:15:42.
