data_PCOD9386195
_publ_section_title
;
Structure prediction by ZEFSAII (Michael W. Deem and Ramdas Pophale) SiO2 
 PCOD9386195
Probable space group: P M M M
;
_chemical_formula_sum "Si O2"
_cell_formula_units_Z 48
_cell_length_a 9.248941
_cell_length_b 7.850368
_cell_length_c 33.566774
_cell_angle_alpha 90.000000
_cell_angle_beta 90.000000
_cell_angle_gamma 90.000000
_cell_volume 2437.202580
_symmetry_space_group_name_H-M "P M M M"
_symmetry_group_IT_number 47
_symmetry_cell_setting 'orthorhombic'
loop_
_space_group_symop_operation_xyz
x,y,z
-x,-y,z
x,-y,-z
-x,y,-z
-x,-y,-z
x,y,-z
-x,y,z
x,-y,z
loop_
_atom_site_type_symbol
_atom_site_label
_atom_site_fract_x
_atom_site_fract_y
_atom_site_fract_z
Si Si1 0.835637 0.703417 0.000000
Si Si2 0.672314 0.193733 0.397090
Si Si3 0.675846 0.500000 0.454570
Si Si4 0.664991 0.705432 0.762766
Si Si5 0.164642 0.205191 0.157279
Si Si6 0.168019 0.293139 0.683514
Si Si7 0.664371 0.795225 0.920303
O O1 0.750546 0.757413 0.039471
O O2 0.842534 0.500000 0.000000
O O3 0.000000 0.771268 0.000000
O O4 0.500000 0.217249 0.389916
O O5 0.718603 0.333055 0.429601
O O6 0.755691 0.224426 0.355986
O O7 0.694612 0.000000 0.410831
O O8 0.500000 0.500000 0.455995
O O9 0.728168 0.500000 0.500000
O O10 0.500000 0.768593 0.763990
O O11 0.660405 0.500000 0.760829
O O12 0.750790 0.752683 0.802480
O O13 0.748136 0.764383 0.723167
O O14 0.250298 0.269618 0.118479
O O15 0.000000 0.269650 0.158389
O O16 0.158264 0.000000 0.154224
O O17 0.174728 0.500000 0.681969
O O18 0.000000 0.243842 0.685287
O O19 0.500000 0.729651 0.921960
O O20 0.656432 0.000000 0.916705
#
# Coordination Sequence:
#
# PCOD9386195 Si02
#       7
#     4   8   4   8   8   8   8
#     4  11  24  39  56  82 112 141 176 221 274 330
#     4  10  20  34  56  85 115 151 194 239 291 349
#     4   9  18  34  57  85 119 155 191 241 297 346
#     4  10  21  36  56  82 112 148 188 230 278 331
#     4  10  21  37  57  81 110 145 184 226 273 326
#     4  10  20  35  56  80 109 148 191 236 287 340
#     4  10  21  38  60  83 107 140 182 226 275 332
#
# _framework density 19.694710000000001
#
# number of rings (size 3 to 8) (size 9 to 14) (size 15 to 20)
#    0.000    2.000    0.833    2.500    0.000    7.333 
#    0.000    1.667    0.000    1.000    0.000    1.167 
#    0.000    0.000    0.000    0.000    0.000    0.000 
#
# Total GULP energy -268194.181521 kJ/mol
# GULP energy per Si atom -5587.378782 kJ/mol
# Density = 1.964988 g / cm^3
# Si number density = 19.694710 Si / 1000 Ang^3
#
#
#
# Elastic Constant Matrix: (Units=GPa)
#
#
# Indices 1 2 3 4 5 6 
#
# 1 164.1253 42.6612 106.7949 0.0000 0.0000 0.0000
# 2 42.6612 52.8346 44.8436 0.0000 0.0000 0.0000
# 3 106.7949 44.8436 211.1416 0.0000 0.0000 0.0000
# 4 0.0000 0.0000 0.0000 28.8073 0.0000 0.0000
# 5 0.0000 0.0000 0.0000 0.0000 -59.8801 0.0000
# 6 0.0000 0.0000 0.0000 0.0000 0.0000 20.1037
#
#
#
# Elastic Compliance Matrix: (Units=1/GPa)
#
#
# Indices 1 2 3 4 5 6 
#
# 1 0.009912 -0.004572 -0.004042 0.000000 0.000000 0.000000
# 2 -0.004572 0.025198 -0.003039 0.000000 0.000000 0.000000
# 3 -0.004042 -0.003039 0.007426 0.000000 0.000000 0.000000
# 4 0.000000 0.000000 0.000000 0.034713 0.000000 0.000000
# 5 0.000000 0.000000 0.000000 0.000000 -0.016700 0.000000
# 6 0.000000 0.000000 0.000000 0.000000 0.000000 0.049742
#
#
# Mechanical properties :
#
#
# Convention : Reuss Voigt Hill
#
# Bulk Modulus (GPa) = 52.00506 90.74455 71.37481
# Shear Modulus (GPa) = 35.71216 13.39297 24.55256
#
# Velocity S-wave (km/s) = 4.26289 2.61057 3.53463
# Velocity P-wave (km/s) = 7.11987 7.43387 7.27856
#
# Compressibility (1/GPa) = 0.01922890
#
# Stress axis : x y z
#
# Youngs Moduli (GPa) = 100.89207 39.68519 134.65944
#
# Poissons Ratio (x) = 0.18145 0.54432
# Poissons Ratio (y) = 0.46131 0.40925
# Poissons Ratio (z) = 0.40782 0.12061
#
# Static dielectric constant tensor:
#      x y z
#    x 1.680400 0.000000 0.000000 
#    y 0.000000 1.719590 0.000000 
#    z 0.000000 0.000000 1.637120 
# 
# From -- ./inp_files/34086.got.cif
#   From: 2010.05.17/outbox.cif.g08.bks.cpg/sg47_18_cif.got.tgz:34086.got - 2010.06.03 20:15:42.
