data_PCOD9386811
_publ_section_title
;
Structure prediction by ZEFSAII (Michael W. Deem and Ramdas Pophale) SiO2 
 PCOD9386811
Probable space group: P M M M
;
_chemical_formula_sum "Si O2"
_cell_formula_units_Z 48
_cell_length_a 8.901938
_cell_length_b 20.813509
_cell_length_c 15.567420
_cell_angle_alpha 90.000000
_cell_angle_beta 90.000000
_cell_angle_gamma 90.000000
_cell_volume 2884.340399
_symmetry_space_group_name_H-M "P M M M"
_symmetry_group_IT_number 47
_symmetry_cell_setting 'orthorhombic'
loop_
_space_group_symop_operation_xyz
x,y,z
-x,-y,z
x,-y,-z
-x,y,-z
-x,-y,-z
x,y,-z
-x,y,z
x,-y,z
loop_
_atom_site_type_symbol
_atom_site_label
_atom_site_fract_x
_atom_site_fract_y
_atom_site_fract_z
Si Si1 0.171702 0.500000 0.103932
Si Si2 0.180767 0.069844 0.350413
Si Si3 0.818618 0.788158 0.404162
Si Si4 0.170663 0.076832 0.000000
Si Si5 0.674611 0.740403 0.766749
Si Si6 0.674133 0.111521 0.177044
Si Si7 0.817550 0.641639 0.100106
O O1 0.237599 0.430336 0.125458
O O2 0.000000 0.500000 0.136594
O O3 0.164041 0.500000 0.000000
O O4 0.230331 0.136719 0.393932
O O5 0.234142 0.076459 0.252158
O O6 0.000000 0.069867 0.354587
O O7 0.232103 0.000000 0.384481
O O8 0.778280 0.766354 0.500000
O O9 0.749095 0.746959 0.327175
O O10 0.000000 0.787072 0.396148
O O11 0.256197 0.098144 0.085007
O O12 0.000000 0.102002 0.000000
O O13 0.165145 0.000000 0.000000
O O14 0.500000 0.722678 0.758993
O O15 0.683126 0.812595 0.804242
O O16 0.756018 0.692957 0.832781
O O17 0.500000 0.091796 0.180550
O O18 0.000000 0.641122 0.101945
O O19 0.774708 0.654432 0.000000
#
# Coordination Sequence:
#
# PCOD9386811 Si02
#       7
#     4   8   8   4   8   8   8
#     4   7  12  26  47  73 104 133 164 199 231 270
#     4   9  17  30  48  69  92 116 146 191 246 298
#     4   9  18  33  52  72  94 122 159 202 246 297
#     4  11  23  35  47  63  83 112 155 204 249 289
#     4  10  21  34  48  70 100 131 162 199 240 285
#     4  10  21  34  46  62  88 122 158 196 237 283
#     4   9  17  30  51  77 104 136 169 199 233 274
#
# _framework density 16.641587999999999
#
# number of rings (size 3 to 8) (size 9 to 14) (size 15 to 20)
#    0.000    2.667    0.000    2.750    1.167    6.000 
#    0.000    2.083    0.000    1.500    0.000    5.250 
#    0.000    4.667    0.000    0.000    0.000    0.000 
#
# Total GULP energy -267453.353303 kJ/mol
# GULP energy per Si atom -5571.944860 kJ/mol
# Density = 1.660371 g / cm^3
# Si number density = 16.641588 Si / 1000 Ang^3
#
#
#
# Elastic Constant Matrix: (Units=GPa)
#
#
# Indices 1 2 3 4 5 6 
#
# 1 20.2743 24.3922 26.2489 0.0000 0.0000 0.0000
# 2 24.3922 78.0700 40.4600 0.0000 0.0000 0.0000
# 3 26.2489 40.4600 114.1479 0.0000 0.0000 0.0000
# 4 0.0000 0.0000 0.0000 15.7489 0.0000 0.0000
# 5 0.0000 0.0000 0.0000 0.0000 -8.4970 0.0000
# 6 0.0000 0.0000 0.0000 0.0000 0.0000 12.1001
#
#
#
# Elastic Compliance Matrix: (Units=1/GPa)
#
#
# Indices 1 2 3 4 5 6 
#
# 1 0.093756 -0.022197 -0.013692 0.000000 0.000000 0.000000
# 2 -0.022197 0.020947 -0.002320 0.000000 0.000000 0.000000
# 3 -0.013692 -0.002320 0.012731 0.000000 0.000000 0.000000
# 4 0.000000 0.000000 0.000000 0.063497 0.000000 0.000000
# 5 0.000000 0.000000 0.000000 0.000000 -0.117689 0.000000
# 6 0.000000 0.000000 0.000000 0.000000 0.000000 0.082644
#
#
# Mechanical properties :
#
#
# Convention : Reuss Voigt Hill
#
# Bulk Modulus (GPa) = 19.60189 43.85492 31.72840
# Shear Modulus (GPa) = 20.05543 11.96315 16.00929
#
# Velocity S-wave (km/s) = 3.47528 2.68409 3.10499
# Velocity P-wave (km/s) = 5.28279 6.00130 5.65347
#
# Compressibility (1/GPa) = 0.05101549
#
# Stress axis : x y z
#
# Youngs Moduli (GPa) = 10.66601 47.73991 78.54542
#
# Poissons Ratio (x) = 1.05970 1.07543
# Poissons Ratio (y) = 0.23676 0.18225
# Poissons Ratio (z) = 0.14604 0.11077
#
# Static dielectric constant tensor:
#      x y z
#    x 1.564990 0.000000 0.000000 
#    y 0.000000 1.579000 0.000000 
#    z 0.000000 0.000000 1.552340 
# 
# From -- ./inp_files/21053.got.cif
#   From: 2010.05.17/outbox.cif.g08.bks.cpg/sg47_11_cif.got.tgz:21053.got - 2010.06.03 20:15:42.
