data_PCOD9386082
_publ_section_title
;
Structure prediction by ZEFSAII (Michael W. Deem and Ramdas Pophale) SiO2 
 PCOD9386082
Probable space group: P M M M
;
_chemical_formula_sum "Si O2"
_cell_formula_units_Z 48
_cell_length_a 19.115080
_cell_length_b 15.608320
_cell_length_c 8.916259
_cell_angle_alpha 90.000000
_cell_angle_beta 90.000000
_cell_angle_gamma 90.000000
_cell_volume 2660.204083
_symmetry_space_group_name_H-M "P M M M"
_symmetry_group_IT_number 47
_symmetry_cell_setting 'orthorhombic'
loop_
_space_group_symop_operation_xyz
x,y,z
-x,-y,z
x,-y,-z
-x,y,-z
-x,-y,-z
x,y,-z
-x,y,z
x,-y,z
loop_
_atom_site_type_symbol
_atom_site_label
_atom_site_fract_x
_atom_site_fract_y
_atom_site_fract_z
Si Si1 0.083776 0.772257 0.823730
Si Si2 0.415252 0.500000 0.171613
Si Si3 0.582603 0.320782 0.679466
Si Si4 0.915082 0.594908 0.675734
Si Si5 0.579076 0.000000 0.181982
Si Si6 0.331947 0.834140 0.180485
Si Si7 0.810680 0.100547 0.320481
O O1 0.108129 0.678602 0.765662
O O2 0.121816 0.847538 0.734594
O O3 0.000000 0.776776 0.802261
O O4 0.098615 0.780273 0.000000
O O5 0.500000 0.500000 0.167445
O O6 0.395867 0.413675 0.258076
O O7 0.390053 0.500000 0.000000
O O8 0.588404 0.318733 0.500000
O O9 0.500000 0.306638 0.717771
O O10 0.630881 0.249295 0.753855
O O11 0.896797 0.604070 0.500000
O O12 0.891379 0.500000 0.727293
O O13 0.000000 0.593914 0.683960
O O14 0.620533 0.915381 0.226437
O O15 0.500000 0.000000 0.238629
O O16 0.576733 0.000000 0.000000
O O17 0.255662 0.853180 0.245604
O O18 0.329207 0.829573 0.000000
O O19 0.805023 0.104750 0.500000
O O20 0.812339 0.000000 0.276633
#
# Coordination Sequence:
#
# PCOD9386082 Si02
#       7
#     8   4   8   8   4   8   8
#     4  10  21  36  57  86 116 146 185 233 280 329
#     4   9  17  31  53  81 111 147 192 237 280 329
#     4  10  20  34  54  83 118 153 189 232 281 333
#     4   8  14  27  50  80 113 147 180 216 264 322
#     4   9  18  32  53  83 114 143 180 227 275 324
#     4  11  21  36  58  82 112 149 189 233 281 337
#     4  11  24  41  60  80 108 147 189 232 284 345
#
# _framework density 18.043728000000002
#
# number of rings (size 3 to 8) (size 9 to 14) (size 15 to 20)
#    0.000    2.167    0.833    3.250    0.000    5.333 
#    0.000    3.333    1.833    2.000    0.000    0.000 
#    0.000    0.000    0.000    0.000    0.000    0.000 
#
# Total GULP energy -267842.443764 kJ/mol
# GULP energy per Si atom -5580.050912 kJ/mol
# Density = 1.800266 g / cm^3
# Si number density = 18.043728 Si / 1000 Ang^3
#
#
#
# Elastic Constant Matrix: (Units=GPa)
#
#
# Indices 1 2 3 4 5 6 
#
# 1 37.4809 42.5610 35.7516 0.0000 0.0000 0.0000
# 2 42.5610 164.5995 66.1895 0.0000 0.0000 0.0000
# 3 35.7516 66.1895 79.8367 0.0000 0.0000 0.0000
# 4 0.0000 0.0000 0.0000 24.8196 0.0000 0.0000
# 5 0.0000 0.0000 0.0000 0.0000 25.1057 0.0000
# 6 0.0000 0.0000 0.0000 0.0000 0.0000 865.7777
#
#
#
# Elastic Compliance Matrix: (Units=1/GPa)
#
#
# Indices 1 2 3 4 5 6 
#
# 1 0.050127 -0.005903 -0.017553 0.000000 0.000000 0.000000
# 2 -0.005903 0.009809 -0.005489 0.000000 0.000000 0.000000
# 3 -0.017553 -0.005489 0.024937 0.000000 0.000000 0.000000
# 4 0.000000 0.000000 0.000000 0.040291 0.000000 0.000000
# 5 0.000000 0.000000 0.000000 0.000000 0.039832 0.000000
# 6 0.000000 0.000000 0.000000 0.000000 0.000000 0.001155
#
#
# Mechanical properties :
#
#
# Convention : Reuss Voigt Hill
#
# Bulk Modulus (GPa) = 37.06154 63.43572 50.24863
# Shear Modulus (GPa) = 21.45616 192.30160 106.87888
#
# Velocity S-wave (km/s) = 3.45210 10.33473 7.70466
# Velocity P-wave (km/s) = 6.03935 13.32824 10.34688
#
# Compressibility (1/GPa) = 0.02698215
#
# Stress axis : x y z
#
# Youngs Moduli (GPa) = 19.94952 101.94902 40.10154
#
# Poissons Ratio (x) = 0.60178 0.70392
# Poissons Ratio (y) = 0.11776 0.22011
# Poissons Ratio (z) = 0.35018 0.55958
#
# Static dielectric constant tensor:
#      x y z
#    x 1.618290 0.000000 0.000000 
#    y 0.000000 1.611280 0.000000 
#    z 0.000000 0.000000 1.601260 
# 
# From -- ./inp_files/9188.got.cif
#   From: 2010.05.17/outbox.cif.g08.bks.cpg/sg47_5_cif.got.tgz:9188.got - 2010.06.03 20:15:42.
