data_PCOD9386271
_publ_section_title
;
Structure prediction by ZEFSAII (Michael W. Deem and Ramdas Pophale) SiO2 
 PCOD9386271
Probable space group: P M M M
;
_chemical_formula_sum "Si O2"
_cell_formula_units_Z 52
_cell_length_a 9.153944
_cell_length_b 29.051442
_cell_length_c 12.068033
_cell_angle_alpha 90.000000
_cell_angle_beta 90.000000
_cell_angle_gamma 90.000000
_cell_volume 3209.315653
_symmetry_space_group_name_H-M "P M M M"
_symmetry_group_IT_number 47
_symmetry_cell_setting 'orthorhombic'
loop_
_space_group_symop_operation_xyz
x,y,z
-x,-y,z
x,-y,-z
-x,y,-z
-x,-y,-z
x,y,-z
-x,y,z
x,-y,z
loop_
_atom_site_type_symbol
_atom_site_label
_atom_site_fract_x
_atom_site_fract_y
_atom_site_fract_z
Si Si1 0.831516 0.000000 0.864849
Si Si2 0.175067 0.186790 0.129574
Si Si3 0.668073 0.092632 0.134825
Si Si4 0.175363 0.633792 0.871327
Si Si5 0.323232 0.409345 0.500000
Si Si6 0.824112 0.276285 0.726680
Si Si7 0.676570 0.447216 0.261737
Si Si8 0.324346 0.301411 0.500000
O O1 0.750893 0.046534 0.828329
O O2 0.000000 0.000000 0.830890
O O3 0.828774 0.000000 0.000000
O O4 0.252746 0.139897 0.166874
O O5 0.213315 0.230646 0.203912
O O6 0.000000 0.180379 0.134489
O O7 0.212292 0.195398 0.000000
O O8 0.500000 0.092073 0.170151
O O9 0.670368 0.091903 0.000000
O O10 0.214226 0.678616 0.798988
O O11 0.253071 0.589248 0.821073
O O12 0.000000 0.628173 0.864392
O O13 0.213479 0.640707 0.000000
O O14 0.500000 0.411133 0.500000
O O15 0.275831 0.433777 0.613226
O O16 0.281644 0.355682 0.500000
O O17 0.742305 0.279266 0.610263
O O18 0.000000 0.276649 0.709926
O O19 0.500000 0.443471 0.257156
O O20 0.715893 0.500000 0.237632
O O21 0.500000 0.298697 0.500000
#
# Coordination Sequence:
#
# PCOD9386271 Si02
#       8
#     4   8   8   8   4   8   8   4
#     4   9  15  23  37  57  85 126 173 212 245 287
#     4   9  17  30  48  69  95 129 167 203 240 288
#     4   9  16  25  38  60  92 128 165 206 250 291
#     4  10  21  36  53  73  99 130 161 195 238 287
#     4   9  17  33  54  75  97 121 152 194 242 287
#     4  10  20  35  54  74  97 126 162 200 241 290
#     4  10  20  35  55  76  98 126 160 197 238 287
#     4  11  21  34  55  77  98 123 155 197 246 293
#
# _framework density 16.202832000000001
#
# number of rings (size 3 to 8) (size 9 to 14) (size 15 to 20)
#    0.000    2.385    1.538    1.615    0.000    7.077 
#    0.000    1.923    0.000    3.692    0.000    0.000 
#    0.000    0.615    0.000    6.462    0.000    4.923 
#
# Total GULP energy -289998.177865 kJ/mol
# GULP energy per Si atom -5576.888036 kJ/mol
# Density = 1.616595 g / cm^3
# Si number density = 16.202832 Si / 1000 Ang^3
#
#
#
# Elastic Constant Matrix: (Units=GPa)
#
#
# Indices 1 2 3 4 5 6 
#
# 1 49.8143 69.8757 43.6141 0.0000 0.0000 0.0000
# 2 69.8757 172.8620 69.1965 0.0000 0.0000 0.0000
# 3 43.6141 69.1965 99.2471 0.0000 0.0000 0.0000
# 4 0.0000 0.0000 0.0000 3.3918 0.0000 0.0000
# 5 0.0000 0.0000 0.0000 0.0000 20.6629 0.0000
# 6 0.0000 0.0000 0.0000 0.0000 0.0000 26.1843
#
#
#
# Elastic Compliance Matrix: (Units=1/GPa)
#
#
# Indices 1 2 3 4 5 6 
#
# 1 0.055101 -0.017451 -0.012047 0.000000 0.000000 0.000000
# 2 -0.017451 0.013551 -0.001779 0.000000 0.000000 0.000000
# 3 -0.012047 -0.001779 0.016611 0.000000 0.000000 0.000000
# 4 0.000000 0.000000 0.000000 0.294832 0.000000 0.000000
# 5 0.000000 0.000000 0.000000 0.000000 0.048396 0.000000
# 6 0.000000 0.000000 0.000000 0.000000 0.000000 0.038191
#
#
# Mechanical properties :
#
#
# Convention : Reuss Voigt Hill
#
# Bulk Modulus (GPa) = 44.03711 76.36622 60.20166
# Shear Modulus (GPa) = 9.31435 19.33027 14.32231
#
# Velocity S-wave (km/s) = 2.40022 3.45776 2.97634
# Velocity P-wave (km/s) = 5.90924 7.94828 7.00336
#
# Compressibility (1/GPa) = 0.02270812
#
# Stress axis : x y z
#
# Youngs Moduli (GPa) = 18.14850 73.79287 60.20259
#
# Poissons Ratio (x) = 1.28776 0.72526
# Poissons Ratio (y) = 0.31671 0.10713
# Poissons Ratio (z) = 0.21864 0.13131
#
# Static dielectric constant tensor:
#      x y z
#    x 1.543040 0.000000 0.000000 
#    y 0.000000 1.529140 0.000000 
#    z 0.000000 0.000000 1.520860 
# 
# From -- ./inp_files/15551.got.cif
#   From: 2010.05.17/outbox.cif.g08.bks.cpg/sg47_8_cif.got.tgz:15551.got - 2010.06.03 20:15:42.
