data_PCOD9386012
_publ_section_title
;
Structure prediction by ZEFSAII (Michael W. Deem and Ramdas Pophale) SiO2 
 PCOD9386012
Probable space group: P M M M
;
_chemical_formula_sum "Si O2"
_cell_formula_units_Z 44
_cell_length_a 30.607046
_cell_length_b 7.945710
_cell_length_c 9.710145
_cell_angle_alpha 90.000000
_cell_angle_beta 90.000000
_cell_angle_gamma 90.000000
_cell_volume 2361.455912
_symmetry_space_group_name_H-M "P M M M"
_symmetry_group_IT_number 47
_symmetry_cell_setting 'orthorhombic'
loop_
_space_group_symop_operation_xyz
x,y,z
-x,-y,z
x,-y,-z
-x,y,-z
-x,-y,-z
x,y,-z
-x,y,z
x,-y,z
loop_
_atom_site_type_symbol
_atom_site_label
_atom_site_fract_x
_atom_site_fract_y
_atom_site_fract_z
Si Si1 0.389340 0.310509 0.164083
Si Si2 0.789833 0.703638 0.658053
Si Si3 0.049568 0.796842 0.343329
Si Si4 0.549897 0.000000 0.832543
Si Si5 0.308168 0.200432 0.340020
Si Si6 0.869757 0.297982 0.844232
O O1 0.406042 0.500000 0.186543
O O2 0.344252 0.285756 0.245139
O O3 0.423275 0.166308 0.208497
O O4 0.381703 0.289919 0.000000
O O5 0.796827 0.760665 0.500000
O O6 0.790488 0.500000 0.657457
O O7 0.741512 0.759357 0.701905
O O8 0.828383 0.765564 0.756559
O O9 0.059827 0.740755 0.500000
O O10 0.085856 0.738963 0.237117
O O11 0.000000 0.741458 0.310422
O O12 0.049443 0.000000 0.344044
O O13 0.500000 0.000000 0.783273
O O14 0.548553 0.000000 0.000000
O O15 0.312734 0.254381 0.500000
O O16 0.314709 0.000000 0.333530
O O17 0.865332 0.500000 0.851196
O O18 0.870581 0.231971 0.000000
#
# Coordination Sequence:
#
# PCOD9386012 Si02
#       6
#     8   8   8   4   8   8
#     4  10  20  34  55  82 111 146 186 229 279 330
#     4   9  18  33  51  71  99 137 178 216 256 308
#     4   9  19  36  56  76  98 128 169 215 261 312
#     4   9  18  34  55  81 115 149 185 233 280 327
#     4  10  20  34  54  80 109 142 180 223 272 325
#     4  10  21  35  51  75 107 138 169 210 261 316
#
# _framework density 18.632573000000001
#
# number of rings (size 3 to 8) (size 9 to 14) (size 15 to 20)
#    0.000    2.455    0.909    1.636    0.000    5.091 
#    0.000    8.182    0.000    1.091    0.000    1.273 
#    0.000    0.000    0.000    0.000    0.000    0.000 
#
# Total GULP energy -245530.586101 kJ/mol
# GULP energy per Si atom -5580.240593 kJ/mol
# Density = 1.859016 g / cm^3
# Si number density = 18.632573 Si / 1000 Ang^3
#
#
#
# Elastic Constant Matrix: (Units=GPa)
#
#
# Indices 1 2 3 4 5 6 
#
# 1 157.6914 44.7758 86.9967 0.0000 0.0000 0.0000
# 2 44.7758 59.6809 34.7965 0.0000 0.0000 0.0000
# 3 86.9967 34.7965 79.7087 0.0000 0.0000 0.0000
# 4 0.0000 0.0000 0.0000 16.6138 0.0000 0.0000
# 5 0.0000 0.0000 0.0000 0.0000 28.2269 0.0000
# 6 0.0000 0.0000 0.0000 0.0000 0.0000 36.2096
#
#
#
# Elastic Compliance Matrix: (Units=1/GPa)
#
#
# Indices 1 2 3 4 5 6 
#
# 1 0.016207 -0.002476 -0.016608 0.000000 0.000000 0.000000
# 2 -0.002476 0.022855 -0.007275 0.000000 0.000000 0.000000
# 3 -0.016608 -0.007275 0.033848 0.000000 0.000000 0.000000
# 4 0.000000 0.000000 0.000000 0.060191 0.000000 0.000000
# 5 0.000000 0.000000 0.000000 0.000000 0.035427 0.000000
# 6 0.000000 0.000000 0.000000 0.000000 0.000000 0.027617
#
#
# Mechanical properties :
#
#
# Convention : Reuss Voigt Hill
#
# Bulk Modulus (GPa) = 49.52371 70.02434 59.77402
# Shear Modulus (GPa) = 19.56237 24.91088 22.23662
#
# Velocity S-wave (km/s) = 3.24373 3.66040 3.45835
# Velocity P-wave (km/s) = 6.37698 7.45171 6.93520
#
# Compressibility (1/GPa) = 0.02019235
#
# Stress axis : x y z
#
# Youngs Moduli (GPa) = 61.70170 43.75413 29.54413
#
# Poissons Ratio (x) = 0.10835 0.49066
# Poissons Ratio (y) = 0.15279 0.21492
# Poissons Ratio (z) = 1.02473 0.31829
#
# Static dielectric constant tensor:
#      x y z
#    x 1.611870 0.000000 0.000000 
#    y 0.000000 1.668600 0.000000 
#    z 0.000000 0.000000 1.635160 
# 
# From -- ./inp_files/2036.got.cif
#   From: 2010.05.17/outbox.cif.g08.bks.cpg/sg47_2_cif.got.tgz:2036.got - 2010.06.03 20:15:42.
