data_PCOD9386717
_publ_section_title
;
Structure prediction by ZEFSAII (Michael W. Deem and Ramdas Pophale) SiO2 
 PCOD9386717
Probable space group: P M M M
;
_chemical_formula_sum "Si O2"
_cell_formula_units_Z 48
_cell_length_a 9.212052
_cell_length_b 35.234343
_cell_length_c 7.861256
_cell_angle_alpha 90.000000
_cell_angle_beta 90.000000
_cell_angle_gamma 90.000000
_cell_volume 2551.611188
_symmetry_space_group_name_H-M "P M M M"
_symmetry_group_IT_number 47
_symmetry_cell_setting 'orthorhombic'
loop_
_space_group_symop_operation_xyz
x,y,z
-x,-y,z
x,-y,-z
-x,y,-z
-x,-y,-z
x,y,-z
-x,y,z
x,-y,z
loop_
_atom_site_type_symbol
_atom_site_label
_atom_site_fract_x
_atom_site_fract_y
_atom_site_fract_z
Si Si1 0.174262 0.796942 0.500000
Si Si2 0.165490 0.581452 0.796397
Si Si3 0.165700 0.500000 0.298255
Si Si4 0.325817 0.158777 0.193520
Si Si5 0.326289 0.342120 0.198234
Si Si6 0.674712 0.715698 0.500000
Si Si7 0.835363 0.000000 0.203865
Si Si8 0.666561 0.075657 0.701209
O O1 0.238516 0.818050 0.666049
O O2 0.236915 0.754444 0.500000
O O3 0.000000 0.797758 0.500000
O O4 0.231779 0.540331 0.753442
O O5 0.253060 0.618561 0.743068
O O6 0.000000 0.582578 0.727931
O O7 0.158140 0.583260 0.000000
O O8 0.156512 0.500000 0.500000
O O9 0.000000 0.500000 0.224996
O O10 0.500000 0.161113 0.228608
O O11 0.285124 0.114276 0.208232
O O12 0.301389 0.171882 0.000000
O O13 0.500000 0.346919 0.200953
O O14 0.290846 0.309022 0.331571
O O15 0.284678 0.334289 0.000000
O O16 0.500000 0.723078 0.500000
O O17 0.757115 0.038192 0.263171
O O18 0.000000 0.000000 0.266284
O O19 0.834665 0.000000 0.000000
O O20 0.669153 0.083645 0.500000
O O21 0.500000 0.068178 0.752618
#
# Coordination Sequence:
#
# PCOD9386717 Si02
#       8
#     4   8   4   8   8   4   4   8
#     4  12  26  42  62  93 130 159 188 240 304 364
#     4   9  17  30  49  72 101 139 180 222 268 322
#     4   9  17  27  42  69 102 138 179 220 262 317
#     4  10  21  41  69  94 120 160 207 251 295 353
#     4   9  19  36  57  81 108 140 180 228 282 334
#     4  10  22  40  62  83 110 147 189 232 278 344
#     4  11  24  37  50  78 122 165 204 246 297 355
#     4  10  20  37  62  88 115 151 202 255 296 342
#
# _framework density 18.811643
#
# number of rings (size 3 to 8) (size 9 to 14) (size 15 to 20)
#    0.000    2.167    0.833    2.000    1.167    6.000 
#    0.000    2.083    0.000    2.500    0.000    0.000 
#    0.000    0.000    0.000    0.000    0.000    0.000 
#
# Total GULP energy -267839.390659 kJ/mol
# GULP energy per Si atom -5579.987305 kJ/mol
# Density = 1.876883 g / cm^3
# Si number density = 18.811643 Si / 1000 Ang^3
#
#
#
# Elastic Constant Matrix: (Units=GPa)
#
#
# Indices 1 2 3 4 5 6 
#
# 1 60.5797 77.0555 46.4289 0.0000 0.0000 0.0000
# 2 77.0555 167.8749 69.0549 0.0000 0.0000 0.0000
# 3 46.4289 69.0549 95.2600 0.0000 0.0000 0.0000
# 4 0.0000 0.0000 0.0000 -5.5066 0.0000 0.0000
# 5 0.0000 0.0000 0.0000 0.0000 17.3710 0.0000
# 6 0.0000 0.0000 0.0000 0.0000 0.0000 42.2786
#
#
#
# Elastic Compliance Matrix: (Units=1/GPa)
#
#
# Indices 1 2 3 4 5 6 
#
# 1 0.045528 -0.016771 -0.010033 0.000000 0.000000 0.000000
# 2 -0.016771 0.014665 -0.002457 0.000000 0.000000 0.000000
# 3 -0.010033 -0.002457 0.017169 0.000000 0.000000 0.000000
# 4 0.000000 0.000000 0.000000 -0.181599 0.000000 0.000000
# 5 0.000000 0.000000 0.000000 0.000000 0.057567 0.000000
# 6 0.000000 0.000000 0.000000 0.000000 0.000000 0.023653
#
#
# Mechanical properties :
#
#
# Convention : Reuss Voigt Hill
#
# Bulk Modulus (GPa) = 53.07587 78.75480 65.91533
# Shear Modulus (GPa) = 119.65868 19.57361 69.61615
#
# Velocity S-wave (km/s) = 7.98417 3.22919 6.08993
# Velocity P-wave (km/s) = 10.64291 7.47391 9.19595
#
# Compressibility (1/GPa) = 0.01884095
#
# Stress axis : x y z
#
# Youngs Moduli (GPa) = 21.96430 68.18742 58.24530
#
# Poissons Ratio (x) = 1.14356 0.58437
# Poissons Ratio (y) = 0.36836 0.14312
# Poissons Ratio (z) = 0.22036 0.16755
#
# Static dielectric constant tensor:
#      x y z
#    x 1.646980 0.000000 0.000000 
#    y 0.000000 1.640850 0.000000 
#    z 0.000000 0.000000 1.665290 
# 
# From -- ./inp_files/2860.got.cif
#   From: 2010.05.17/outbox.cif.g08.bks.cpg/sg47_2_cif.got.tgz:2860.got - 2010.06.03 20:15:42.
