data_PCOD9387125
_publ_section_title
;
Structure prediction by ZEFSAII (Michael W. Deem and Ramdas Pophale) SiO2 
 PCOD9387125
Probable space group: P M M M
;
_chemical_formula_sum "Si O2"
_cell_formula_units_Z 64
_cell_length_a 14.884562
_cell_length_b 9.379506
_cell_length_c 25.260318
_cell_angle_alpha 90.000000
_cell_angle_beta 90.000000
_cell_angle_gamma 90.000000
_cell_volume 3526.588919
_symmetry_space_group_name_H-M "P M M M"
_symmetry_group_IT_number 47
_symmetry_cell_setting 'orthorhombic'
loop_
_space_group_symop_operation_xyz
x,y,z
-x,-y,z
x,-y,-z
-x,y,-z
-x,-y,-z
x,y,-z
-x,y,z
x,-y,z
loop_
_atom_site_type_symbol
_atom_site_label
_atom_site_fract_x
_atom_site_fract_y
_atom_site_fract_z
Si Si1 0.390729 0.663325 0.753666
Si Si2 0.732417 0.328359 0.938073
Si Si3 0.890631 0.336548 0.748757
Si Si4 0.608106 0.833288 0.142376
Si Si5 0.104275 0.170479 0.355626
Si Si6 0.102598 0.326623 0.134251
Si Si7 0.606054 0.329117 0.365387
Si Si8 0.744655 0.171531 0.561425
O O1 0.500000 0.661158 0.752697
O O2 0.361319 0.500000 0.763143
O O3 0.363285 0.763320 0.801775
O O4 0.363812 0.709091 0.694568
O O5 0.722800 0.500000 0.932961
O O6 0.655415 0.250824 0.904903
O O7 0.826937 0.287097 0.910722
O O8 0.730542 0.292910 0.000000
O O9 0.860442 0.500000 0.742272
O O10 0.863631 0.244699 0.698382
O O11 0.864984 0.281815 0.807076
O O12 0.000000 0.337903 0.749933
O O13 0.500000 0.819444 0.138594
O O14 0.630664 0.000000 0.140873
O O15 0.166478 0.209198 0.405058
O O16 0.000000 0.210333 0.364490
O O17 0.107889 0.000000 0.348868
O O18 0.099720 0.500000 0.136360
O O19 0.000000 0.278110 0.125146
O O20 0.500000 0.297788 0.370246
O O21 0.616852 0.500000 0.370258
O O22 0.662830 0.247232 0.408879
O O23 0.751058 0.212366 0.500000
O O24 0.733989 0.000000 0.563925
#
# Coordination Sequence:
#
# PCOD9387125 Si02
#       8
#     8   8   8   8   8   8   8   8
#     4   8  15  31  55  80 104 129 161 204 254 308
#     4  10  21  35  52  76 103 134 176 219 255 296
#     4   8  14  27  49  75 101 129 161 199 249 308
#     4  10  21  36  54  76 103 136 171 209 256 307
#     4   9  18  33  52  73  99 131 167 210 256 300
#     4   8  15  30  52  77 104 132 163 203 251 302
#     4   9  19  36  57  80 105 134 167 205 253 307
#     4  10  22  37  51  72 102 136 177 219 256 298
#
# _framework density 18.147848
#
# number of rings (size 3 to 8) (size 9 to 14) (size 15 to 20)
#    0.000    3.000    0.000    1.875    0.000    4.500 
#    0.000   10.625    0.000    1.125    0.000    3.500 
#    0.000    0.000    0.000    0.000    0.000    0.000 
#
# Total GULP energy -356915.072537 kJ/mol
# GULP energy per Si atom -5576.798008 kJ/mol
# Density = 1.810654 g / cm^3
# Si number density = 18.147848 Si / 1000 Ang^3
#
#
#
# Elastic Constant Matrix: (Units=GPa)
#
#
# Indices 1 2 3 4 5 6 
#
# 1 101.8981 58.0496 115.5979 0.0000 0.0000 0.0000
# 2 58.0496 51.1824 104.8705 0.0000 0.0000 0.0000
# 3 115.5979 104.8705 281.1317 0.0000 0.0000 0.0000
# 4 0.0000 0.0000 0.0000 51.3839 0.0000 0.0000
# 5 0.0000 0.0000 0.0000 0.0000 32.6366 0.0000
# 6 0.0000 0.0000 0.0000 0.0000 0.0000 15.9123
#
#
#
# Elastic Compliance Matrix: (Units=1/GPa)
#
#
# Indices 1 2 3 4 5 6 
#
# 1 0.027862 -0.034481 0.001406 0.000000 0.000000 0.000000
# 2 -0.034481 0.125573 -0.032664 0.000000 0.000000 0.000000
# 3 0.001406 -0.032664 0.015164 0.000000 0.000000 0.000000
# 4 0.000000 0.000000 0.000000 0.019461 0.000000 0.000000
# 5 0.000000 0.000000 0.000000 0.000000 0.030640 0.000000
# 6 0.000000 0.000000 0.000000 0.000000 0.000000 0.062844
#
#
# Mechanical properties :
#
#
# Convention : Reuss Voigt Hill
#
# Bulk Modulus (GPa) = 26.93958 110.13867 68.53913
# Shear Modulus (GPa) = 11.75371 30.36617 21.05994
#
# Velocity S-wave (km/s) = 2.54769 4.09499 3.41026
# Velocity P-wave (km/s) = 4.85088 9.12031 7.30449
#
# Compressibility (1/GPa) = 0.03712010
#
# Stress axis : x y z
#
# Youngs Moduli (GPa) = 35.89113 7.96348 65.94673
#
# Poissons Ratio (x) = 0.27459 -0.09271
# Poissons Ratio (y) = 1.23756 2.15411
# Poissons Ratio (z) = -0.05046 0.26012
#
# Static dielectric constant tensor:
#      x y z
#    x 1.649880 0.000000 0.000000 
#    y 0.000000 1.600330 0.000000 
#    z 0.000000 0.000000 1.605910 
# 
# From -- ./inp_files/7775.got.cif
#   From: 2010.05.17/outbox.cif.g08.bks.cpg/sg47_4_cif.got.tgz:7775.got - 2010.06.03 20:15:42.
