data_PCOD9387992
_publ_section_title
;
Structure prediction by ZEFSAII (Michael W. Deem and Ramdas Pophale) SiO2 
 PCOD9387992
Probable space group: P M M M
;
_chemical_formula_sum "Si O2"
_cell_formula_units_Z 36
_cell_length_a 7.501189
_cell_length_b 20.351258
_cell_length_c 11.032621
_cell_angle_alpha 90.000000
_cell_angle_beta 90.000000
_cell_angle_gamma 90.000000
_cell_volume 1684.224836
_symmetry_space_group_name_H-M "P M M M"
_symmetry_group_IT_number 47
_symmetry_cell_setting 'orthorhombic'
loop_
_space_group_symop_operation_xyz
x,y,z
-x,-y,z
x,-y,-z
-x,y,-z
-x,-y,-z
x,y,-z
-x,y,z
x,-y,z
loop_
_atom_site_type_symbol
_atom_site_label
_atom_site_fract_x
_atom_site_fract_y
_atom_site_fract_z
Si Si1 0.785744 0.570570 0.643214
Si Si2 0.797133 0.079765 0.500000
Si Si3 0.709976 0.208659 0.869419
Si Si4 0.216310 0.925206 0.235969
Si Si5 0.707664 0.717220 0.638164
O O1 0.742646 0.568650 0.500000
O O2 0.724450 0.500000 0.695315
O O3 0.716742 0.641345 0.682135
O O4 0.000000 0.572323 0.654327
O O5 0.715947 0.096104 0.370263
O O6 0.000000 0.105381 0.500000
O O7 0.806284 0.000000 0.500000
O O8 0.500000 0.225238 0.870177
O O9 0.727814 0.130336 0.856313
O O10 0.788454 0.239837 0.746593
O O11 0.784697 0.229604 0.000000
O O12 0.000000 0.926515 0.241872
O O13 0.273737 0.000000 0.210769
O O14 0.783018 0.722381 0.500000
O O15 0.500000 0.735212 0.627063
#
# Coordination Sequence:
#
# PCOD9387992 Si02
#       5
#     8   4   8   8   8
#     4   8  14  26  46  74 105 130 154 192 242 289
#     4   7  12  26  47  71  97 119 142 185 244 293
#     4  10  22  37  50  68  99 135 165 201 251 297
#     4   9  18  33  53  75  97 123 160 205 250 297
#     4   9  18  32  50  72  97 127 165 204 238 281
#
# _framework density 21.374818000000001
#
# number of rings (size 3 to 8) (size 9 to 14) (size 15 to 20)
#    0.000    3.222    0.000    2.000    1.556    2.667 
#    0.000    4.444    0.000    2.667    0.000    4.667 
#    0.000    0.000    0.000    0.000    0.000    0.000 
#
# Total GULP energy -200504.489652 kJ/mol
# GULP energy per Si atom -5569.569157 kJ/mol
# Density = 2.132617 g / cm^3
# Si number density = 21.374818 Si / 1000 Ang^3
#
#
#
# Elastic Constant Matrix: (Units=GPa)
#
#
# Indices 1 2 3 4 5 6 
#
# 1 55.7692 -1.9432 7.6383 0.0000 0.0000 0.0000
# 2 -1.9432 102.1506 66.2003 0.0000 0.0000 0.0000
# 3 7.6383 66.2003 129.6895 0.0000 0.0000 0.0000
# 4 0.0000 0.0000 0.0000 0.9274 0.0000 0.0000
# 5 0.0000 0.0000 0.0000 0.0000 2.1457 0.0000
# 6 0.0000 0.0000 0.0000 0.0000 0.0000 19.7850
#
#
#
# Elastic Compliance Matrix: (Units=1/GPa)
#
#
# Indices 1 2 3 4 5 6 
#
# 1 0.018241 0.001559 -0.001870 0.000000 0.000000 0.000000
# 2 0.001559 0.014762 -0.007627 0.000000 0.000000 0.000000
# 3 -0.001870 -0.007627 0.011714 0.000000 0.000000 0.000000
# 4 0.000000 0.000000 0.000000 1.078326 0.000000 0.000000
# 5 0.000000 0.000000 0.000000 0.000000 0.466047 0.000000
# 6 0.000000 0.000000 0.000000 0.000000 0.000000 0.050543
#
#
# Mechanical properties :
#
#
# Convention : Reuss Voigt Hill
#
# Bulk Modulus (GPa) = 34.67275 47.93333 41.30304
# Shear Modulus (GPa) = 3.00278 18.95254 10.97766
#
# Velocity S-wave (km/s) = 1.18654 2.98094 2.26869
# Velocity P-wave (km/s) = 4.25837 5.85848 5.12130
#
# Compressibility (1/GPa) = 0.02884109
#
# Stress axis : x y z
#
# Youngs Moduli (GPa) = 54.82006 67.74158 85.36692
#
# Poissons Ratio (x) = -0.10561 0.15965
# Poissons Ratio (y) = -0.08546 0.65110
# Poissons Ratio (z) = 0.10252 0.51667
#
# Static dielectric constant tensor:
#      x y z
#    x 1.807490 0.000000 0.000000 
#    y 0.000000 1.798230 0.000000 
#    z 0.000000 0.000000 1.807570 
# 
# From -- ./inp_files/3726.got.cif
#   From: 2010.05.17/outbox.cif.g08.bks.cpg/sg47_2_cif.got.tgz:3726.got - 2010.06.03 20:15:42.
