data_PCOD9387765
_publ_section_title
;
Structure prediction by ZEFSAII (Michael W. Deem and Ramdas Pophale) SiO2 
 PCOD9387765
Probable space group: P M M M
;
_chemical_formula_sum "Si O2"
_cell_formula_units_Z 44
_cell_length_a 9.329843
_cell_length_b 31.972235
_cell_length_c 7.915465
_cell_angle_alpha 90.000000
_cell_angle_beta 90.000000
_cell_angle_gamma 90.000000
_cell_volume 2361.151017
_symmetry_space_group_name_H-M "P M M M"
_symmetry_group_IT_number 47
_symmetry_cell_setting 'orthorhombic'
loop_
_space_group_symop_operation_xyz
x,y,z
-x,-y,z
x,-y,-z
-x,y,-z
-x,-y,-z
x,y,-z
-x,y,z
x,-y,z
loop_
_atom_site_type_symbol
_atom_site_label
_atom_site_fract_x
_atom_site_fract_y
_atom_site_fract_z
Si Si1 0.339670 0.500000 0.798823
Si Si2 0.667985 0.050302 0.195570
Si Si3 0.672678 0.815874 0.500000
Si Si4 0.828206 0.673752 0.701092
Si Si5 0.670270 0.755975 0.187754
Si Si6 0.828080 0.904643 0.500000
Si Si7 0.163107 0.581565 0.296677
O O1 0.500000 0.500000 0.727270
O O2 0.257454 0.458083 0.747297
O O3 0.347239 0.500000 0.000000
O O4 0.500000 0.060919 0.226441
O O5 0.766774 0.072019 0.333916
O O6 0.680315 0.000000 0.209934
O O7 0.700932 0.061463 0.000000
O O8 0.500000 0.823773 0.500000
O O9 0.708557 0.788241 0.335243
O O10 0.760391 0.858455 0.500000
O O11 0.798579 0.676987 0.500000
O O12 0.751392 0.712303 0.788366
O O13 0.783870 0.627291 0.761429
O O14 0.000000 0.676165 0.722830
O O15 0.500000 0.748199 0.202744
O O16 0.699050 0.772850 0.000000
O O17 0.000000 0.904076 0.500000
O O18 0.156322 0.584372 0.500000
O O19 0.000000 0.575389 0.234745
#
# Coordination Sequence:
#
# PCOD9387765 Si02
#       7
#     4   8   4   8   8   4   8
#     4  11  24  37  48  70 106 141 174 217 264 312
#     4   9  19  38  64  91 120 160 210 256 296 349
#     4  10  22  41  59  78 112 156 201 244 286 341
#     4   9  18  34  57  83 110 138 172 217 272 334
#     4  10  21  37  59  85 110 141 185 235 285 336
#     4  12  25  37  56  89 126 162 199 249 310 363
#     4   9  19  36  57  79 102 134 175 215 257 317
#
# _framework density 18.634978
#
# number of rings (size 3 to 8) (size 9 to 14) (size 15 to 20)
#    0.000    2.273    0.909    3.273    0.000    7.273 
#    0.000    8.182    0.000    0.000    0.000    0.000 
#    0.000    0.000    0.000    0.000    0.000    0.000 
#
# Total GULP energy -245588.021701 kJ/mol
# GULP energy per Si atom -5581.545948 kJ/mol
# Density = 1.859256 g / cm^3
# Si number density = 18.634978 Si / 1000 Ang^3
#
#
#
# Elastic Constant Matrix: (Units=GPa)
#
#
# Indices 1 2 3 4 5 6 
#
# 1 77.3563 69.0982 59.0342 0.0000 0.0000 0.0000
# 2 69.0982 116.5762 70.5040 0.0000 0.0000 0.0000
# 3 59.0342 70.5040 113.9624 0.0000 0.0000 0.0000
# 4 0.0000 0.0000 0.0000 6.4879 0.0000 0.0000
# 5 0.0000 0.0000 0.0000 0.0000 22.8515 0.0000
# 6 0.0000 0.0000 0.0000 0.0000 0.0000 31.4915
#
#
#
# Elastic Compliance Matrix: (Units=1/GPa)
#
#
# Indices 1 2 3 4 5 6 
#
# 1 0.031027 -0.013853 -0.007502 0.000000 0.000000 0.000000
# 2 -0.013853 0.019892 -0.005130 0.000000 0.000000 0.000000
# 3 -0.007502 -0.005130 0.015835 0.000000 0.000000 0.000000
# 4 0.000000 0.000000 0.000000 0.154133 0.000000 0.000000
# 5 0.000000 0.000000 0.000000 0.000000 0.043761 0.000000
# 6 0.000000 0.000000 0.000000 0.000000 0.000000 0.031755
#
#
# Mechanical properties :
#
#
# Convention : Reuss Voigt Hill
#
# Bulk Modulus (GPa) = 72.55433 78.35198 75.45316
# Shear Modulus (GPa) = 14.12561 19.45008 16.78785
#
# Velocity S-wave (km/s) = 2.75620 3.23420 3.00472
# Velocity P-wave (km/s) = 7.01055 7.48890 7.25367
#
# Compressibility (1/GPa) = 0.01378277
#
# Stress axis : x y z
#
# Youngs Moduli (GPa) = 32.23038 50.27124 63.15285
#
# Poissons Ratio (x) = 0.69643 0.47375
# Poissons Ratio (y) = 0.44650 0.32398
# Poissons Ratio (z) = 0.24178 0.25790
#
# Static dielectric constant tensor:
#      x y z
#    x 1.628040 0.000000 0.000000 
#    y 0.000000 1.627020 0.000000 
#    z 0.000000 0.000000 1.666850 
# 
# From -- ./inp_files/2332.got.cif
#   From: 2010.05.17/outbox.cif.g08.bks.cpg/sg47_2_cif.got.tgz:2332.got - 2010.06.03 20:15:42.
