data_PCOD9387568
_publ_section_title
;
Structure prediction by ZEFSAII (Michael W. Deem and Ramdas Pophale) SiO2 
 PCOD9387568
Probable space group: P M M M
;
_chemical_formula_sum "Si O2"
_cell_formula_units_Z 48
_cell_length_a 32.176498
_cell_length_b 9.306562
_cell_length_c 8.608159
_cell_angle_alpha 90.000000
_cell_angle_beta 90.000000
_cell_angle_gamma 90.000000
_cell_volume 2577.735366
_symmetry_space_group_name_H-M "P M M M"
_symmetry_group_IT_number 47
_symmetry_cell_setting 'orthorhombic'
loop_
_space_group_symop_operation_xyz
x,y,z
-x,-y,z
x,-y,-z
-x,y,-z
-x,-y,-z
x,y,-z
-x,y,z
x,-y,z
loop_
_atom_site_type_symbol
_atom_site_label
_atom_site_fract_x
_atom_site_fract_y
_atom_site_fract_z
Si Si1 0.761638 0.668539 0.814826
Si Si2 0.920026 0.333239 0.186254
Si Si3 0.500000 0.175171 0.682006
Si Si4 0.840444 0.166789 0.685809
Si Si5 0.000000 0.166765 0.686388
Si Si6 0.409798 0.832452 0.689851
Si Si7 0.672619 0.670467 0.314914
O O1 0.766187 0.500000 0.768712
O O2 0.797028 0.762730 0.735657
O O3 0.715369 0.715695 0.766127
O O4 0.766176 0.676723 0.000000
O O5 0.920767 0.500000 0.236732
O O6 0.877924 0.256838 0.240639
O O7 0.959271 0.247891 0.253118
O O8 0.922080 0.330474 0.000000
O O9 0.500000 0.216456 0.500000
O O10 0.544859 0.220743 0.746957
O O11 0.500000 0.000000 0.686018
O O12 0.844387 0.171972 0.500000
O O13 0.842550 0.000000 0.734872
O O14 0.000000 0.169118 0.500000
O O15 0.000000 0.000000 0.737120
O O16 0.410975 0.824534 0.500000
O O17 0.369156 0.747634 0.741489
O O18 0.405649 0.000000 0.730334
O O19 0.676819 0.696806 0.500000
O O20 0.667958 0.500000 0.291795
#
# Coordination Sequence:
#
# PCOD9387568 Si02
#       7
#     8   8   4   8   4   8   8
#     4  10  21  37  56  77 102 136 177 217 260 314
#     4  11  24  41  62  89 119 152 191 230 270 321
#     4   7  10  18  33  55  84 117 152 192 240 293
#     4  11  24  40  59  85 114 143 178 221 269 320
#     4  11  24  41  62  90 122 155 194 237 278 320
#     4   8  13  22  38  60  87 120 157 196 241 297
#     4   9  17  29  45  67  96 127 159 201 254 306
#
# _framework density 18.620996000000002
#
# number of rings (size 3 to 8) (size 9 to 14) (size 15 to 20)
#    0.000    2.333    0.000    4.000    0.000   10.000 
#    0.000    2.083    0.000    2.500    0.000    0.583 
#    0.000    4.667    0.000    0.000    0.000    0.000 
#
# Total GULP energy -267853.061159 kJ/mol
# GULP energy per Si atom -5580.272107 kJ/mol
# Density = 1.857861 g / cm^3
# Si number density = 18.620996 Si / 1000 Ang^3
#
#
#
# Elastic Constant Matrix: (Units=GPa)
#
#
# Indices 1 2 3 4 5 6 
#
# 1 167.3960 82.2874 32.5119 0.0000 0.0000 0.0000
# 2 82.2874 107.6453 34.9241 0.0000 0.0000 0.0000
# 3 32.5119 34.9241 24.4087 0.0000 0.0000 0.0000
# 4 0.0000 0.0000 0.0000 21.0386 0.0000 0.0000
# 5 0.0000 0.0000 0.0000 0.0000 253.0123 0.0000
# 6 0.0000 0.0000 0.0000 0.0000 0.0000 39.2804
#
#
#
# Elastic Compliance Matrix: (Units=1/GPa)
#
#
# Indices 1 2 3 4 5 6 
#
# 1 0.009813 -0.006086 -0.004363 0.000000 0.000000 0.000000
# 2 -0.006086 0.021113 -0.022102 0.000000 0.000000 0.000000
# 3 -0.004363 -0.022102 0.078404 0.000000 0.000000 0.000000
# 4 0.000000 0.000000 0.000000 0.047532 0.000000 0.000000
# 5 0.000000 0.000000 0.000000 0.000000 0.003952 0.000000
# 6 0.000000 0.000000 0.000000 0.000000 0.000000 0.025458
#
#
# Mechanical properties :
#
#
# Convention : Reuss Voigt Hill
#
# Bulk Modulus (GPa) = 22.61013 66.54410 44.57712
# Shear Modulus (GPa) = 18.78886 72.64803 45.71844
#
# Velocity S-wave (km/s) = 3.17995 6.25290 4.96038
# Velocity P-wave (km/s) = 5.06472 9.37792 7.53647
#
# Compressibility (1/GPa) = 0.04422797
#
# Stress axis : x y z
#
# Youngs Moduli (GPa) = 101.90751 47.36524 12.75448
#
# Poissons Ratio (x) = 0.28825 0.05565
# Poissons Ratio (y) = 0.62018 0.28190
# Poissons Ratio (z) = 0.44463 1.04686
#
# Static dielectric constant tensor:
#      x y z
#    x 1.638340 0.000000 0.000000 
#    y 0.000000 1.629270 0.000000 
#    z 0.000000 0.000000 1.631260 
# 
# From -- ./inp_files/13814.got.cif
#   From: 2010.05.17/outbox.cif.g08.bks.cpg/sg47_7_cif.got.tgz:13814.got - 2010.06.03 20:15:42.
