data_PCOD9387134
_publ_section_title
;
Structure prediction by ZEFSAII (Michael W. Deem and Ramdas Pophale) SiO2 
 PCOD9387134
Probable space group: P M M M
;
_chemical_formula_sum "Si O2"
_cell_formula_units_Z 64
_cell_length_a 21.182218
_cell_length_b 7.965492
_cell_length_c 18.370433
_cell_angle_alpha 90.000000
_cell_angle_beta 90.000000
_cell_angle_gamma 90.000000
_cell_volume 3099.584155
_symmetry_space_group_name_H-M "P M M M"
_symmetry_group_IT_number 47
_symmetry_cell_setting 'orthorhombic'
loop_
_space_group_symop_operation_xyz
x,y,z
-x,-y,z
x,-y,-z
-x,y,-z
-x,-y,-z
x,y,-z
-x,y,z
x,-y,z
loop_
_atom_site_type_symbol
_atom_site_label
_atom_site_fract_x
_atom_site_fract_y
_atom_site_fract_z
Si Si1 0.931675 0.294495 0.241438
Si Si2 0.097513 0.298161 0.920964
Si Si3 0.425620 0.315918 0.772430
Si Si4 0.759237 0.700956 0.877546
Si Si5 0.429019 0.807625 0.617716
Si Si6 0.793857 0.298255 0.715807
Si Si7 0.628280 0.806872 0.922175
Si Si8 0.707643 0.797336 0.420538
O O1 0.929873 0.500000 0.240640
O O2 0.928837 0.238623 0.156597
O O3 0.867175 0.239287 0.281158
O O4 0.000000 0.244123 0.272101
O O5 0.086264 0.500000 0.921836
O O6 0.172581 0.272569 0.912841
O O7 0.076287 0.232762 0.000000
O O8 0.500000 0.317246 0.786329
O O9 0.405030 0.500000 0.746331
O O10 0.416302 0.194258 0.704619
O O11 0.394046 0.278674 0.848631
O O12 0.746818 0.500000 0.880130
O O13 0.763071 0.755024 0.792817
O O14 0.703621 0.794090 0.917962
O O15 0.500000 0.733161 0.606155
O O16 0.364693 0.731963 0.586085
O O17 0.432847 0.000000 0.592320
O O18 0.795841 0.500000 0.718691
O O19 0.752294 0.250629 0.646508
O O20 0.607827 0.000000 0.919225
O O21 0.606891 0.734513 0.000000
O O22 0.732814 0.746262 0.500000
O O23 0.703425 0.000000 0.418875
#
# Coordination Sequence:
#
# PCOD9387134 Si02
#       8
#     8   8   8   8   8   8   8   8
#     4   8  14  25  42  66  96 129 166 208 250 291
#     4   8  13  21  36  62  95 128 160 195 239 289
#     4  10  21  36  53  71  91 119 157 198 239 288
#     4   9  17  30  48  68  92 124 161 199 239 288
#     4   9  18  34  56  79 103 131 160 192 233 283
#     4   9  18  32  51  75 100 129 166 205 246 293
#     4  11  23  34  45  65  92 122 160 207 253 292
#     4  10  21  35  52  77 106 133 161 194 235 286
#
# _framework density 20.647929999999999
#
# number of rings (size 3 to 8) (size 9 to 14) (size 15 to 20)
#    0.000    2.750    0.000    3.375    0.000    6.250 
#    0.000    3.750    0.000    0.750    0.000    5.250 
#    0.000    0.000    0.000   13.250    0.000   10.000 
#
# Total GULP energy -356742.946603 kJ/mol
# GULP energy per Si atom -5574.108541 kJ/mol
# Density = 2.060093 g / cm^3
# Si number density = 20.647930 Si / 1000 Ang^3
#
#
#
# Elastic Constant Matrix: (Units=GPa)
#
#
# Indices 1 2 3 4 5 6 
#
# 1 70.2938 6.8096 66.6126 0.0000 0.0000 0.0000
# 2 6.8096 19.1629 3.8834 0.0000 0.0000 0.0000
# 3 66.6126 3.8834 116.3062 0.0000 0.0000 0.0000
# 4 0.0000 0.0000 0.0000 1.8263 0.0000 0.0000
# 5 0.0000 0.0000 0.0000 0.0000 -162.7589 0.0000
# 6 0.0000 0.0000 0.0000 0.0000 0.0000 -11.0758
#
#
#
# Elastic Compliance Matrix: (Units=1/GPa)
#
#
# Indices 1 2 3 4 5 6 
#
# 1 0.032219 -0.007762 -0.018194 0.000000 0.000000 0.000000
# 2 -0.007762 0.054410 0.002629 0.000000 0.000000 0.000000
# 3 -0.018194 0.002629 0.018930 0.000000 0.000000 0.000000
# 4 0.000000 0.000000 0.000000 0.547565 0.000000 0.000000
# 5 0.000000 0.000000 0.000000 0.000000 -0.006144 0.000000
# 6 0.000000 0.000000 0.000000 0.000000 0.000000 -0.090287
#
#
# Mechanical properties :
#
#
# Convention : Reuss Voigt Hill
#
# Bulk Modulus (GPa) = 16.97640 40.04156 28.50898
# Shear Modulus (GPa) = 8.02591 -25.83787 -8.90598
#
# Velocity S-wave (km/s) = 1.97369 -3.54129 -2.07909
# Velocity P-wave (km/s) = 3.66519 1.64733 2.84142
#
# Compressibility (1/GPa) = 0.05890532
#
# Stress axis : x y z
#
# Youngs Moduli (GPa) = 31.03775 18.37904 52.82513
#
# Poissons Ratio (x) = 0.14266 0.96108
# Poissons Ratio (y) = 0.24092 -0.13887
# Poissons Ratio (z) = 0.56469 -0.04832
#
# Static dielectric constant tensor:
#      x y z
#    x 1.763030 0.000000 0.000000 
#    y 0.000000 1.779000 0.000000 
#    z 0.000000 0.000000 1.745730 
# 
# From -- ./inp_files/28821.got.cif
#   From: 2010.05.17/outbox.cif.g08.bks.cpg/sg47_15_cif.got.tgz:28821.got - 2010.06.03 20:15:42.
