data_PCOD9387054
_publ_section_title
;
Structure prediction by ZEFSAII (Michael W. Deem and Ramdas Pophale) SiO2 
 PCOD9387054
Probable space group: P M M M
;
_chemical_formula_sum "Si O2"
_cell_formula_units_Z 44
_cell_length_a 8.254577
_cell_length_b 30.813247
_cell_length_c 9.957047
_cell_angle_alpha 90.000000
_cell_angle_beta 90.000000
_cell_angle_gamma 90.000000
_cell_volume 2532.578091
_symmetry_space_group_name_H-M "P M M M"
_symmetry_group_IT_number 47
_symmetry_cell_setting 'orthorhombic'
loop_
_space_group_symop_operation_xyz
x,y,z
-x,-y,z
x,-y,-z
-x,y,-z
-x,-y,-z
x,y,-z
-x,y,z
x,-y,z
loop_
_atom_site_type_symbol
_atom_site_label
_atom_site_fract_x
_atom_site_fract_y
_atom_site_fract_z
Si Si1 0.693118 0.780199 0.346835
Si Si2 0.500000 0.449721 0.163764
Si Si3 0.304625 0.048792 0.845999
Si Si4 0.186882 0.394634 0.163360
Si Si5 0.193160 0.125168 0.653136
Si Si6 0.194524 0.295781 0.847334
O O1 0.755806 0.774505 0.500000
O O2 0.500000 0.780836 0.351689
O O3 0.750741 0.827456 0.298246
O O4 0.746190 0.741297 0.251519
O O5 0.500000 0.500000 0.204064
O O6 0.333297 0.425921 0.207178
O O7 0.500000 0.448247 0.000000
O O8 0.500000 0.048656 0.846141
O O9 0.248037 0.086173 0.747247
O O10 0.250908 0.000000 0.807031
O O11 0.251420 0.056570 0.000000
O O12 0.231629 0.344924 0.198511
O O13 0.000000 0.404111 0.207422
O O14 0.182066 0.395982 0.000000
O O15 0.255883 0.119760 0.500000
O O16 0.000000 0.125301 0.648636
O O17 0.000000 0.293634 0.853199
O O18 0.256989 0.289884 0.000000
#
# Coordination Sequence:
#
# PCOD9387054 Si02
#       6
#     8   4   8   8   8   8
#     4  10  21  35  51  73 100 130 165 205 249 297
#     4   9  16  24  38  62  91 129 171 205 248 303
#     4   9  19  36  56  77 101 129 162 201 244 290
#     4   8  15  27  41  61  92 126 162 207 252 298
#     4  10  21  36  53  73  99 131 164 200 244 293
#     4   9  18  32  50  72  97 129 168 205 247 300
#
# _framework density 17.373598999999999
#
# number of rings (size 3 to 8) (size 9 to 14) (size 15 to 20)
#    0.000    2.818    0.000    2.727    1.273    4.727 
#    0.000    4.545    0.000    0.000    0.000    0.000 
#    0.000    1.455    0.000    4.000    0.000    4.000 
#
# Total GULP energy -245169.579670 kJ/mol
# GULP energy per Si atom -5572.035902 kJ/mol
# Density = 1.733406 g / cm^3
# Si number density = 17.373599 Si / 1000 Ang^3
#
#
#
# Elastic Constant Matrix: (Units=GPa)
#
#
# Indices 1 2 3 4 5 6 
#
# 1 60.8094 74.8758 28.5636 0.0000 0.0000 0.0000
# 2 74.8758 183.2174 69.8187 0.0000 0.0000 0.0000
# 3 28.5636 69.8187 42.2339 0.0000 0.0000 0.0000
# 4 0.0000 0.0000 0.0000 -22.0329 0.0000 0.0000
# 5 0.0000 0.0000 0.0000 0.0000 19.6823 0.0000
# 6 0.0000 0.0000 0.0000 0.0000 0.0000 52.9449
#
#
#
# Elastic Compliance Matrix: (Units=1/GPa)
#
#
# Indices 1 2 3 4 5 6 
#
# 1 0.033102 -0.013503 -0.000065 0.000000 0.000000 0.000000
# 2 -0.013503 0.020258 -0.024357 0.000000 0.000000 0.000000
# 3 -0.000065 -0.024357 0.063988 0.000000 0.000000 0.000000
# 4 0.000000 0.000000 0.000000 -0.045387 0.000000 0.000000
# 5 0.000000 0.000000 0.000000 0.000000 0.050807 0.000000
# 6 0.000000 0.000000 0.000000 0.000000 0.000000 0.018888
#
#
# Mechanical properties :
#
#
# Convention : Reuss Voigt Hill
#
# Bulk Modulus (GPa) = 24.09801 70.30856 47.20329
# Shear Modulus (GPa) = 21.61333 17.65237 19.63285
#
# Velocity S-wave (km/s) = 3.53091 3.19101 3.36525
# Velocity P-wave (km/s) = 5.52483 7.35752 6.50603
#
# Compressibility (1/GPa) = 0.04149720
#
# Stress axis : x y z
#
# Youngs Moduli (GPa) = 30.20972 49.36285 15.62799
#
# Poissons Ratio (x) = 0.66655 0.00102
# Poissons Ratio (y) = 0.40792 0.38066
# Poissons Ratio (z) = 0.00196 1.20234
#
# Static dielectric constant tensor:
#      x y z
#    x 1.606280 0.000000 0.000000 
#    y 0.000000 1.580230 0.000000 
#    z 0.000000 0.000000 1.647100 
# 
# From -- ./inp_files/2153.got.cif
#   From: 2010.05.17/outbox.cif.g08.bks.cpg/sg47_2_cif.got.tgz:2153.got - 2010.06.03 20:15:42.
