data_PCOD9387893
_publ_section_title
;
Structure prediction by ZEFSAII (Michael W. Deem and Ramdas Pophale) SiO2 
 PCOD9387893
Probable space group: P M M M
;
_chemical_formula_sum "Si O2"
_cell_formula_units_Z 48
_cell_length_a 15.686252
_cell_length_b 7.800605
_cell_length_c 19.702788
_cell_angle_alpha 90.000000
_cell_angle_beta 90.000000
_cell_angle_gamma 90.000000
_cell_volume 2410.877585
_symmetry_space_group_name_H-M "P M M M"
_symmetry_group_IT_number 47
_symmetry_cell_setting 'orthorhombic'
loop_
_space_group_symop_operation_xyz
x,y,z
-x,-y,z
x,-y,-z
-x,y,-z
-x,-y,-z
x,y,-z
-x,y,z
x,-y,z
loop_
_atom_site_type_symbol
_atom_site_label
_atom_site_fract_x
_atom_site_fract_y
_atom_site_fract_z
Si Si1 0.602155 0.805443 0.676855
Si Si2 0.846646 0.500000 0.423803
Si Si3 0.644309 0.500000 0.576306
Si Si4 0.597647 0.793490 0.826719
Si Si5 0.901341 0.292193 0.823404
Si Si6 0.752773 0.294147 0.076925
Si Si7 0.897468 0.188930 0.671663
O O1 0.500000 0.817306 0.682736
O O2 0.620759 0.669063 0.618804
O O3 0.629885 0.740671 0.751552
O O4 0.634364 0.000000 0.664323
O O5 0.883439 0.500000 0.500000
O O6 0.745533 0.500000 0.429019
O O7 0.871558 0.666252 0.380817
O O8 0.607894 0.500000 0.500000
O O9 0.500000 0.731578 0.838088
O O10 0.665326 0.743288 0.883431
O O11 0.593824 0.000000 0.824228
O O12 0.901672 0.500000 0.822572
O O13 0.833990 0.231709 0.879534
O O14 0.872238 0.231904 0.748887
O O15 0.000000 0.237494 0.834868
O O16 0.760965 0.500000 0.073695
O O17 0.751612 0.227522 0.000000
O O18 0.000000 0.186886 0.672646
O O19 0.865831 0.000000 0.652825
#
# Coordination Sequence:
#
# PCOD9387893 Si02
#       7
#     8   4   4   8   8   8   8
#     4   9  20  39  62  88 116 152 201 250 295 347
#     4  11  25  41  57  85 125 160 191 238 300 358
#     4  11  25  39  57  89 123 158 195 236 298 362
#     4   9  20  38  58  82 111 149 199 247 294 350
#     4   9  18  35  59  85 117 157 199 244 294 351
#     4  10  22  36  54  86 121 155 195 238 294 356
#     4  10  21  38  62  89 114 150 202 250 295 349
#
# _framework density 19.909762000000001
#
# number of rings (size 3 to 8) (size 9 to 14) (size 15 to 20)
#    0.000    2.333    0.833    1.500    3.500    4.667 
#    0.000    6.667    0.000    0.000    0.000    3.500 
#    0.000    0.000    0.000    0.000    0.000    0.000 
#
# Total GULP energy -267922.805585 kJ/mol
# GULP energy per Si atom -5581.725116 kJ/mol
# Density = 1.986445 g / cm^3
# Si number density = 19.909762 Si / 1000 Ang^3
#
#
#
# Elastic Constant Matrix: (Units=GPa)
#
#
# Indices 1 2 3 4 5 6 
#
# 1 73.5982 26.1271 68.9959 0.0000 0.0000 0.0000
# 2 26.1271 88.3361 73.1315 0.0000 0.0000 0.0000
# 3 68.9959 73.1315 208.4952 0.0000 0.0000 0.0000
# 4 0.0000 0.0000 0.0000 -13.9661 0.0000 0.0000
# 5 0.0000 0.0000 0.0000 0.0000 44.3673 0.0000
# 6 0.0000 0.0000 0.0000 0.0000 0.0000 12.5825
#
#
#
# Elastic Compliance Matrix: (Units=1/GPa)
#
#
# Indices 1 2 3 4 5 6 
#
# 1 0.019721 -0.000606 -0.006314 0.000000 0.000000 0.000000
# 2 -0.000606 0.015971 -0.005402 0.000000 0.000000 0.000000
# 3 -0.006314 -0.005402 0.008780 0.000000 0.000000 0.000000
# 4 0.000000 0.000000 0.000000 -0.071602 0.000000 0.000000
# 5 0.000000 0.000000 0.000000 0.000000 0.022539 0.000000
# 6 0.000000 0.000000 0.000000 0.000000 0.000000 0.079475
#
#
# Mechanical properties :
#
#
# Convention : Reuss Voigt Hill
#
# Bulk Modulus (GPa) = 50.42738 78.54871 64.48805
# Shear Modulus (GPa) = 47.10836 22.07509 34.59173
#
# Velocity S-wave (km/s) = 4.86953 3.33341 4.17277
# Velocity P-wave (km/s) = 7.54979 7.37248 7.46166
#
# Compressibility (1/GPa) = 0.01983050
#
# Stress axis : x y z
#
# Youngs Moduli (GPa) = 50.70673 62.61154 113.89184
#
# Poissons Ratio (x) = 0.03794 0.71907
# Poissons Ratio (y) = 0.03073 0.61520
# Poissons Ratio (z) = 0.32014 0.33820
#
# Static dielectric constant tensor:
#      x y z
#    x 1.703960 0.000000 0.000000 
#    y 0.000000 1.769670 0.000000 
#    z 0.000000 0.000000 1.707140 
# 
# From -- ./inp_files/27978.got.cif
#   From: 2010.05.17/outbox.cif.g08.bks.cpg/sg47_14_cif.got.tgz:27978.got - 2010.06.03 20:15:42.
