data_PCOD9387049
_publ_section_title
;
Structure prediction by ZEFSAII (Michael W. Deem and Ramdas Pophale) SiO2 
 PCOD9387049
Probable space group: P M M M
;
_chemical_formula_sum "Si O2"
_cell_formula_units_Z 48
_cell_length_a 34.186141
_cell_length_b 7.711990
_cell_length_c 9.474994
_cell_angle_alpha 90.000000
_cell_angle_beta 90.000000
_cell_angle_gamma 90.000000
_cell_volume 2498.017525
_symmetry_space_group_name_H-M "P M M M"
_symmetry_group_IT_number 47
_symmetry_cell_setting 'orthorhombic'
loop_
_space_group_symop_operation_xyz
x,y,z
-x,-y,z
x,-y,-z
-x,y,-z
-x,-y,-z
x,y,-z
-x,y,z
x,-y,z
loop_
_atom_site_type_symbol
_atom_site_label
_atom_site_fract_x
_atom_site_fract_y
_atom_site_fract_z
Si Si1 0.661177 0.291978 0.659570
Si Si2 0.955098 0.500000 0.327625
Si Si3 0.102917 0.198942 0.328064
Si Si4 0.415007 0.209612 0.838318
Si Si5 0.734331 0.707720 0.840598
Si Si6 0.810198 0.208878 0.339260
Si Si7 0.500000 0.799429 0.828141
O O1 0.661208 0.223664 0.500000
O O2 0.665504 0.500000 0.651570
O O3 0.620713 0.256674 0.738969
O O4 0.697805 0.223728 0.749906
O O5 0.955373 0.500000 0.500000
O O6 0.930760 0.669565 0.283008
O O7 0.000000 0.500000 0.280795
O O8 0.103201 0.195983 0.500000
O O9 0.146518 0.262975 0.289073
O O10 0.097081 0.000000 0.281156
O O11 0.457749 0.276174 0.788769
O O12 0.417729 0.000000 0.842873
O O13 0.407983 0.268713 0.000000
O O14 0.729659 0.500000 0.849143
O O15 0.774839 0.741177 0.760932
O O16 0.734436 0.776710 0.000000
O O17 0.803570 0.272565 0.500000
O O18 0.811886 0.000000 0.345596
O O19 0.500000 0.000000 0.779956
O O20 0.500000 0.801035 0.000000
#
# Coordination Sequence:
#
# PCOD9387049 Si02
#       7
#     8   4   8   8   8   8   4
#     4  10  21  36  51  69  97 133 168 200 241 294
#     4   9  16  24  38  64  95 133 177 211 251 306
#     4   8  15  27  41  62  94 129 167 211 255 302
#     4   9  17  31  53  77  98 124 160 202 247 292
#     4  10  21  35  51  72  96 124 161 203 247 295
#     4   9  18  32  50  72  97 128 166 204 246 298
#     4   7  12  26  48  73  98 122 154 197 242 291
#
# _framework density 19.215237999999999
#
# number of rings (size 3 to 8) (size 9 to 14) (size 15 to 20)
#    0.000    3.000    0.000    3.000    1.167    3.667 
#    0.000    2.500    0.000    4.000    0.000    0.000 
#    0.000    1.333    0.000    3.667    0.000    3.667 
#
# Total GULP energy -267586.377245 kJ/mol
# GULP energy per Si atom -5574.716193 kJ/mol
# Density = 1.917150 g / cm^3
# Si number density = 19.215238 Si / 1000 Ang^3
#
#
#
# Elastic Constant Matrix: (Units=GPa)
#
#
# Indices 1 2 3 4 5 6 
#
# 1 218.2117 38.5318 90.1379 0.0000 0.0000 0.0000
# 2 38.5318 46.8362 19.8107 0.0000 0.0000 0.0000
# 3 90.1379 19.8107 94.9135 0.0000 0.0000 0.0000
# 4 0.0000 0.0000 0.0000 14.2034 0.0000 0.0000
# 5 0.0000 0.0000 0.0000 0.0000 44.1796 0.0000
# 6 0.0000 0.0000 0.0000 0.0000 0.0000 28.5218
#
#
#
# Elastic Compliance Matrix: (Units=1/GPa)
#
#
# Indices 1 2 3 4 5 6 
#
# 1 0.008097 -0.003739 -0.006909 0.000000 0.000000 0.000000
# 2 -0.003739 0.025145 -0.001698 0.000000 0.000000 0.000000
# 3 -0.006909 -0.001698 0.017452 0.000000 0.000000 0.000000
# 4 0.000000 0.000000 0.000000 0.070406 0.000000 0.000000
# 5 0.000000 0.000000 0.000000 0.000000 0.022635 0.000000
# 6 0.000000 0.000000 0.000000 0.000000 0.000000 0.035061
#
#
# Mechanical properties :
#
#
# Convention : Reuss Voigt Hill
#
# Bulk Modulus (GPa) = 38.45792 72.99136 55.72464
# Shear Modulus (GPa) = 23.56779 31.47969 27.52374
#
# Velocity S-wave (km/s) = 3.50596 4.05194 3.78880
# Velocity P-wave (km/s) = 6.03712 7.74336 6.94285
#
# Compressibility (1/GPa) = 0.02600245
#
# Stress axis : x y z
#
# Youngs Moduli (GPa) = 123.50411 39.76932 57.30094
#
# Poissons Ratio (x) = 0.14869 0.39590
# Poissons Ratio (y) = 0.46176 0.09728
# Poissons Ratio (z) = 0.85330 0.06751
#
# Static dielectric constant tensor:
#      x y z
#    x 1.673080 0.000000 0.000000 
#    y 0.000000 1.710650 0.000000 
#    z 0.000000 0.000000 1.652480 
# 
# From -- ./inp_files/13857.got.cif
#   From: 2010.05.17/outbox.cif.g08.bks.cpg/sg47_7_cif.got.tgz:13857.got - 2010.06.03 20:15:42.
