data_PCOD9387835
_publ_section_title
;
Structure prediction by ZEFSAII (Michael W. Deem and Ramdas Pophale) SiO2 
 PCOD9387835
Probable space group: P M M M
;
_chemical_formula_sum "Si O2"
_cell_formula_units_Z 48
_cell_length_a 8.958041
_cell_length_b 17.778590
_cell_length_c 15.604028
_cell_angle_alpha 90.000000
_cell_angle_beta 90.000000
_cell_angle_gamma 90.000000
_cell_volume 2485.118380
_symmetry_space_group_name_H-M "P M M M"
_symmetry_group_IT_number 47
_symmetry_cell_setting 'orthorhombic'
loop_
_space_group_symop_operation_xyz
x,y,z
-x,-y,z
x,-y,-z
-x,y,-z
-x,-y,-z
x,y,-z
-x,y,z
x,-y,z
loop_
_atom_site_type_symbol
_atom_site_label
_atom_site_fract_x
_atom_site_fract_y
_atom_site_fract_z
Si Si1 0.320678 0.306961 0.399993
Si Si2 0.821511 0.694495 0.898239
Si Si3 0.833187 0.152825 0.398225
Si Si4 0.676878 0.000000 0.653570
Si Si5 0.679829 0.412047 0.242184
Si Si6 0.331675 0.150115 0.898085
Si Si7 0.177676 0.000000 0.838618
O O1 0.277817 0.321963 0.500000
O O2 0.500000 0.299007 0.399341
O O3 0.249092 0.228393 0.369057
O O4 0.279640 0.371205 0.331851
O O5 0.757254 0.629967 0.837120
O O6 0.747139 0.773264 0.868912
O O7 0.000000 0.699540 0.890436
O O8 0.787524 0.682452 0.000000
O O9 0.846372 0.161894 0.500000
O O10 0.742821 0.076553 0.384799
O O11 0.000000 0.146024 0.360699
O O12 0.736462 0.000000 0.749448
O O13 0.500000 0.000000 0.646884
O O14 0.500000 0.405327 0.232612
O O15 0.717980 0.500000 0.244434
O O16 0.500000 0.141850 0.861850
O O17 0.233666 0.076342 0.882627
O O18 0.345001 0.157562 0.000000
O O19 0.000000 0.000000 0.829729
#
# Coordination Sequence:
#
# PCOD9387835 Si02
#       7
#     8   8   8   4   8   8   4
#     4   9  19  37  61  88 119 157 200 244 294 357
#     4  10  22  40  62  88 119 158 202 248 300 359
#     4  10  21  38  59  83 114 152 194 242 297 353
#     4  12  25  38  55  81 115 155 199 246 293 344
#     4  10  22  39  61  90 122 156 195 245 305 365
#     4  10  21  39  62  86 115 153 196 242 292 348
#     4  12  25  38  55  83 119 157 197 242 291 344
#
# _framework density 19.314973999999999
#
# number of rings (size 3 to 8) (size 9 to 14) (size 15 to 20)
#    0.000    1.833    0.000    3.500    2.333    6.667 
#    0.000    3.333    0.000    0.000    0.000    3.500 
#    0.000    0.000    0.000    0.000    0.000    0.000 
#
# Total GULP energy -267986.667258 kJ/mol
# GULP energy per Si atom -5583.055568 kJ/mol
# Density = 1.927101 g / cm^3
# Si number density = 19.314974 Si / 1000 Ang^3
#
#
#
# Elastic Constant Matrix: (Units=GPa)
#
#
# Indices 1 2 3 4 5 6 
#
# 1 328.6305 197.5166 119.4789 0.0000 0.0000 0.0000
# 2 197.5166 254.0336 102.9642 0.0000 0.0000 0.0000
# 3 119.4789 102.9642 93.7723 0.0000 0.0000 0.0000
# 4 0.0000 0.0000 0.0000 37.1615 0.0000 0.0000
# 5 0.0000 0.0000 0.0000 0.0000 25.3458 0.0000
# 6 0.0000 0.0000 0.0000 0.0000 0.0000 -0.9193
#
#
#
# Elastic Compliance Matrix: (Units=1/GPa)
#
#
# Indices 1 2 3 4 5 6 
#
# 1 0.006887 -0.003240 -0.005217 0.000000 0.000000 0.000000
# 2 -0.003240 0.008618 -0.005334 0.000000 0.000000 0.000000
# 3 -0.005217 -0.005334 0.023169 0.000000 0.000000 0.000000
# 4 0.000000 0.000000 0.000000 0.026910 0.000000 0.000000
# 5 0.000000 0.000000 0.000000 0.000000 0.039454 0.000000
# 6 0.000000 0.000000 0.000000 0.000000 0.000000 -1.087823
#
#
# Mechanical properties :
#
#
# Convention : Reuss Voigt Hill
#
# Bulk Modulus (GPa) = 90.16820 168.48397 129.32608
# Shear Modulus (GPa) = -5.25484 29.41605 12.08060
#
# Velocity S-wave (km/s) = -1.65121 3.90675 2.50362
# Velocity P-wave (km/s) = 6.56879 10.38120 8.68673
#
# Compressibility (1/GPa) = 0.01109038
#
# Stress axis : x y z
#
# Youngs Moduli (GPa) = 145.19313 116.03766 43.16150
#
# Poissons Ratio (x) = 0.37600 0.22519
# Poissons Ratio (y) = 0.47048 0.23022
# Poissons Ratio (z) = 0.75754 0.61895
#
# Static dielectric constant tensor:
#      x y z
#    x 1.677580 0.000000 0.000000 
#    y 0.000000 1.729620 0.000000 
#    z 0.000000 0.000000 2.013100 
# 
# From -- ./inp_files/9196.got.cif
#   From: 2010.05.17/outbox.cif.g08.bks.cpg/sg47_5_cif.got.tgz:9196.got - 2010.06.03 20:15:42.
