data_PCOD9387000
_publ_section_title
;
Structure prediction by ZEFSAII (Michael W. Deem and Ramdas Pophale) SiO2 
 PCOD9387000
Probable space group: P M M M
;
_chemical_formula_sum "Si O2"
_cell_formula_units_Z 44
_cell_length_a 8.750251
_cell_length_b 9.329816
_cell_length_c 29.838959
_cell_angle_alpha 90.000000
_cell_angle_beta 90.000000
_cell_angle_gamma 90.000000
_cell_volume 2435.999851
_symmetry_space_group_name_H-M "P M M M"
_symmetry_group_IT_number 47
_symmetry_cell_setting 'orthorhombic'
loop_
_space_group_symop_operation_xyz
x,y,z
-x,-y,z
x,-y,-z
-x,y,-z
-x,-y,-z
x,y,-z
-x,y,z
x,-y,z
loop_
_atom_site_type_symbol
_atom_site_label
_atom_site_fract_x
_atom_site_fract_y
_atom_site_fract_z
Si Si1 0.315991 0.169760 0.854112
Si Si2 0.684877 0.166951 0.414815
Si Si3 0.315958 0.332976 0.674730
Si Si4 0.816743 0.333188 0.500000
Si Si5 0.316674 0.827208 0.951809
Si Si6 0.182270 0.667328 0.230575
O O1 0.500000 0.185727 0.852863
O O2 0.260415 0.223924 0.903226
O O3 0.244680 0.249031 0.812113
O O4 0.283225 0.000000 0.851359
O O5 0.500000 0.174619 0.417507
O O6 0.731755 0.239499 0.367893
O O7 0.753600 0.253679 0.456192
O O8 0.728665 0.000000 0.416612
O O9 0.500000 0.328629 0.677474
O O10 0.270427 0.500000 0.668320
O O11 0.249182 0.280999 0.721959
O O12 0.769248 0.500000 0.500000
O O13 0.000000 0.327260 0.500000
O O14 0.500000 0.803037 0.952108
O O15 0.296688 0.000000 0.951603
O O16 0.255880 0.773605 0.000000
O O17 0.226850 0.500000 0.226479
O O18 0.000000 0.676701 0.231991
#
# Coordination Sequence:
#
# PCOD9387000 Si02
#       6
#     8   8   8   4   8   8
#     4   9  17  29  48  74  99 124 159 204 251 299
#     4  10  21  37  58  84 111 137 167 207 255 303
#     4   9  18  34  55  76  99 131 171 211 250 295
#     4  11  24  39  56  80 110 145 182 215 246 286
#     4   7  10  19  38  65  94 120 149 192 246 297
#     4  10  21  35  50  70  99 135 171 206 246 295
#
# _framework density 18.062398999999999
#
# number of rings (size 3 to 8) (size 9 to 14) (size 15 to 20)
#    0.000    2.818    0.000    3.273    0.000    5.818 
#    0.000    3.636    0.000    1.091    0.000    6.364 
#    0.000    0.000    0.000    0.000    0.000    0.000 
#
# Total GULP energy -245216.414699 kJ/mol
# GULP energy per Si atom -5573.100334 kJ/mol
# Density = 1.802129 g / cm^3
# Si number density = 18.062399 Si / 1000 Ang^3
#
#
#
# Elastic Constant Matrix: (Units=GPa)
#
#
# Indices 1 2 3 4 5 6 
#
# 1 6.9837 27.8993 41.8585 0.0000 0.0000 0.0000
# 2 27.8993 74.1310 88.5613 0.0000 0.0000 0.0000
# 3 41.8585 88.5613 238.3282 0.0000 0.0000 0.0000
# 4 0.0000 0.0000 0.0000 49.0272 0.0000 0.0000
# 5 0.0000 0.0000 0.0000 0.0000 -18.5435 0.0000
# 6 0.0000 0.0000 0.0000 0.0000 0.0000 18.9046
#
#
#
# Elastic Compliance Matrix: (Units=1/GPa)
#
#
# Indices 1 2 3 4 5 6 
#
# 1 -0.246000 0.073670 0.015831 0.000000 0.000000 0.000000
# 2 0.073670 0.002197 -0.013755 0.000000 0.000000 0.000000
# 3 0.015831 -0.013755 0.006527 0.000000 0.000000 0.000000
# 4 0.000000 0.000000 0.000000 0.020397 0.000000 0.000000
# 5 0.000000 0.000000 0.000000 0.000000 -0.053927 0.000000
# 6 0.000000 0.000000 0.000000 0.000000 0.000000 0.052897
#
#
# Mechanical properties :
#
#
# Convention : Reuss Voigt Hill
#
# Bulk Modulus (GPa) = -11.65700 70.67566 29.50933
# Shear Modulus (GPa) = -12.56296 20.61923 4.02814
#
# Velocity S-wave (km/s) = -2.64015 3.38236 1.49498
# Velocity P-wave (km/s) = 3.97009 7.38020 4.39919
#
# Compressibility (1/GPa) = -0.08578535
#
# Stress axis : x y z
#
# Youngs Moduli (GPa) = -4.06505 455.24443 153.21259
#
# Poissons Ratio (x) = -33.53793 -2.42543
# Poissons Ratio (y) = 0.29947 2.10747
# Poissons Ratio (z) = 0.06435 6.26199
#
# Static dielectric constant tensor:
#      x y z
#    x 1.603150 0.000000 0.000000 
#    y 0.000000 1.607820 0.000000 
#    z 0.000000 0.000000 1.633110 
# 
# From -- ./inp_files/2309.got.cif
#   From: 2010.05.17/outbox.cif.g08.bks.cpg/sg47_2_cif.got.tgz:2309.got - 2010.06.03 20:15:42.
