data_PCOD9387988
_publ_section_title
;
Structure prediction by ZEFSAII (Michael W. Deem and Ramdas Pophale) SiO2 
 PCOD9387988
Probable space group: P M M M
;
_chemical_formula_sum "Si O2"
_cell_formula_units_Z 45
_cell_length_a 15.742422
_cell_length_b 17.194826
_cell_length_c 9.431285
_cell_angle_alpha 90.000000
_cell_angle_beta 90.000000
_cell_angle_gamma 90.000000
_cell_volume 2552.937627
_symmetry_space_group_name_H-M "P M M M"
_symmetry_group_IT_number 47
_symmetry_cell_setting 'orthorhombic'
loop_
_space_group_symop_operation_xyz
x,y,z
-x,-y,z
x,-y,-z
-x,y,-z
-x,-y,-z
x,y,-z
-x,y,z
x,-y,z
loop_
_atom_site_type_symbol
_atom_site_label
_atom_site_fract_x
_atom_site_fract_y
_atom_site_fract_z
Si Si1 0.000000 0.905633 0.661425
Si Si2 0.127094 0.500000 0.267624
Si Si3 0.831559 0.089404 0.168931
Si Si4 0.094694 0.324912 0.338556
Si Si5 0.000000 0.500000 0.000000
Si Si6 0.675461 0.500000 0.328377
Si Si7 0.753297 0.245631 0.832084
Si Si8 0.598745 0.645637 0.832051
O O1 0.915433 0.884689 0.746474
O O2 0.000000 0.877261 0.500000
O O3 0.000000 0.000000 0.657491
O O4 0.102616 0.418477 0.339348
O O5 0.074754 0.500000 0.122521
O O6 0.229485 0.500000 0.263497
O O7 0.760832 0.153977 0.199356
O O8 0.810811 0.000000 0.206799
O O9 0.849484 0.090463 0.000000
O O10 0.101672 0.297029 0.500000
O O11 0.171125 0.290255 0.247751
O O12 0.000000 0.305112 0.283467
O O13 0.680755 0.500000 0.500000
O O14 0.626969 0.425198 0.267252
O O15 0.662946 0.283974 0.800140
O O16 0.768115 0.255328 0.000000
O O17 0.500000 0.664561 0.810827
O O18 0.609371 0.624877 0.000000
#
# Coordination Sequence:
#
# PCOD9387988 Si02
#       8
#     4   4   8   8   1   4   8   8
#     4   9  17  29  48  75 105 138 176 218 262 314
#     4  12  24  38  56  80 112 150 195 233 268 317
#     4   9  18  34  53  75 105 142 182 223 271 326
#     4  11  23  38  54  76 112 150 186 229 278 323
#     4  12  28  36  58  88 110 164 208 240 260 324
#     4  12  24  38  60  86 113 146 186 233 284 335
#     4  10  22  36  56  81 106 143 187 231 275 331
#     4  10  22  40  60  83 112 144 183 232 287 341
#
# _framework density 17.626753000000001
#
# number of rings (size 3 to 8) (size 9 to 14) (size 15 to 20)
#    0.000    1.689    2.667    1.600    3.733    4.267 
#    0.000    0.000    0.000    0.533    0.000    3.733 
#    0.000    0.000    0.000    7.644    0.000    8.178 
#
# Total GULP energy -250855.281612 kJ/mol
# GULP energy per Si atom -5574.561814 kJ/mol
# Density = 1.758663 g / cm^3
# Si number density = 17.626753 Si / 1000 Ang^3
#
#
#
# Elastic Constant Matrix: (Units=GPa)
#
#
# Indices 1 2 3 4 5 6 
#
# 1 155.7269 66.6574 55.1823 0.0000 0.0000 0.0000
# 2 66.6574 112.0075 44.4147 0.0000 0.0000 0.0000
# 3 55.1823 44.4147 59.2411 0.0000 0.0000 0.0000
# 4 0.0000 0.0000 0.0000-2059.2099 0.0000 0.0000
# 5 0.0000 0.0000 0.0000 0.0000 -132.7394 0.0000
# 6 0.0000 0.0000 0.0000 0.0000 0.0000 -6.8447
#
#
#
# Elastic Compliance Matrix: (Units=1/GPa)
#
#
# Indices 1 2 3 4 5 6 
#
# 1 0.010395 -0.003339 -0.007179 0.000000 0.000000 0.000000
# 2 -0.003339 0.013778 -0.007219 0.000000 0.000000 0.000000
# 3 -0.007179 -0.007219 0.028980 0.000000 0.000000 0.000000
# 4 0.000000 0.000000 0.000000 -0.000486 0.000000 0.000000
# 5 0.000000 0.000000 0.000000 0.000000 -0.007534 0.000000
# 6 0.000000 0.000000 0.000000 0.000000 0.000000 -0.146099
#
#
# Mechanical properties :
#
#
# Convention : Reuss Voigt Hill
#
# Bulk Modulus (GPa) = 56.56928 73.27603 64.92265
# Shear Modulus (GPa) = -83.89457 -429.04406 -256.46931
#
# Velocity S-wave (km/s) = -6.90640 -15.61837 -12.07543
# Velocity P-wave (km/s) = 5.60672 16.83994 12.55027
#
# Compressibility (1/GPa) = 0.01767744
#
# Stress axis : x y z
#
# Youngs Moduli (GPa) = 96.20214 72.57995 34.50698
#
# Poissons Ratio (x) = 0.24237 0.24772
# Poissons Ratio (y) = 0.32126 0.24911
# Poissons Ratio (z) = 0.69063 0.52396
#
# Static dielectric constant tensor:
#      x y z
#    x 1.579110 0.000000 0.000000 
#    y 0.000000 1.637970 0.000000 
#    z 0.000000 0.000000 1.592650 
# 
# From -- ./inp_files/6310.got.cif
#   From: 2010.05.17/outbox.cif.g08.bks.cpg/sg47_4_cif.got.tgz:6310.got - 2010.06.03 20:15:42.
