data_PCOD9387404
_publ_section_title
;
Structure prediction by ZEFSAII (Michael W. Deem and Ramdas Pophale) SiO2 
 PCOD9387404
Probable space group: P M M M
;
_chemical_formula_sum "Si O2"
_cell_formula_units_Z 44
_cell_length_a 8.067669
_cell_length_b 15.205377
_cell_length_c 18.148592
_cell_angle_alpha 90.000000
_cell_angle_beta 90.000000
_cell_angle_gamma 90.000000
_cell_volume 2226.323146
_symmetry_space_group_name_H-M "P M M M"
_symmetry_group_IT_number 47
_symmetry_cell_setting 'orthorhombic'
loop_
_space_group_symop_operation_xyz
x,y,z
-x,-y,z
x,-y,-z
-x,y,-z
-x,-y,-z
x,y,-z
-x,y,z
x,-y,z
loop_
_atom_site_type_symbol
_atom_site_label
_atom_site_fract_x
_atom_site_fract_y
_atom_site_fract_z
Si Si1 0.202714 0.897490 0.000000
Si Si2 0.301688 0.596909 0.187223
Si Si3 0.701853 0.401585 0.500000
Si Si4 0.811685 0.859485 0.700643
Si Si5 0.299997 0.327637 0.342877
Si Si6 0.305108 0.000000 0.416354
Si Si7 0.799686 0.794206 0.146198
O O1 0.255488 0.842930 0.927842
O O2 0.000000 0.898404 0.000000
O O3 0.255214 0.000000 0.000000
O O4 0.500000 0.595981 0.177568
O O5 0.238555 0.500000 0.162157
O O6 0.268584 0.606789 0.274962
O O7 0.243488 0.690096 0.152407
O O8 0.764039 0.500000 0.500000
O O9 0.500000 0.403014 0.500000
O O10 0.749543 0.358614 0.576611
O O11 0.798948 0.759891 0.674182
O O12 0.735439 0.849588 0.782687
O O13 0.000000 0.889921 0.709406
O O14 0.737100 0.917841 0.635913
O O15 0.500000 0.310343 0.342421
O O16 0.500000 0.000000 0.425883
O O17 0.231202 0.000000 0.500000
O O18 0.000000 0.797934 0.149352
#
# Coordination Sequence:
#
# PCOD9387404 Si02
#       7
#     4   8   4   8   8   4   8
#     4   9  18  34  60  85 108 140 179 223 268 323
#     4   9  17  31  52  76 106 146 185 221 266 318
#     4   9  16  26  45  72  97 126 171 221 258 297
#     4  10  21  36  55  79 107 137 172 218 272 323
#     4   9  17  30  49  72 101 136 177 220 261 312
#     4  11  25  41  57  76 101 138 186 227 263 311
#     4   9  19  35  57  85 111 140 179 221 269 324
#
# _framework density 19.763528000000001
#
# number of rings (size 3 to 8) (size 9 to 14) (size 15 to 20)
#    0.000    2.636    0.000    1.364    2.545    4.000 
#    0.000    0.909    0.000    5.455    0.000    0.000 
#    0.000    0.000    0.000    0.000    0.000    0.000 
#
# Total GULP energy -245007.153885 kJ/mol
# GULP energy per Si atom -5568.344406 kJ/mol
# Density = 1.971855 g / cm^3
# Si number density = 19.763528 Si / 1000 Ang^3
#
#
#
# Elastic Constant Matrix: (Units=GPa)
#
#
# Indices 1 2 3 4 5 6 
#
# 1 15.8555 17.2024 16.5933 0.0000 0.0000 0.0000
# 2 17.2024 121.4677 83.6070 0.0000 0.0000 0.0000
# 3 16.5933 83.6070 178.0515 0.0000 0.0000 0.0000
# 4 0.0000 0.0000 0.0000 17.9911 0.0000 0.0000
# 5 0.0000 0.0000 0.0000 0.0000 23.4754 0.0000
# 6 0.0000 0.0000 0.0000 0.0000 0.0000 28.6897
#
#
#
# Elastic Compliance Matrix: (Units=1/GPa)
#
#
# Indices 1 2 3 4 5 6 
#
# 1 0.075576 -0.008651 -0.002981 0.000000 0.000000 0.000000
# 2 -0.008651 0.013155 -0.005371 0.000000 0.000000 0.000000
# 3 -0.002981 -0.005371 0.008416 0.000000 0.000000 0.000000
# 4 0.000000 0.000000 0.000000 0.055583 0.000000 0.000000
# 5 0.000000 0.000000 0.000000 0.000000 0.042598 0.000000
# 6 0.000000 0.000000 0.000000 0.000000 0.000000 0.034856
#
#
# Mechanical properties :
#
#
# Convention : Reuss Voigt Hill
#
# Bulk Modulus (GPa) = 15.83772 61.13112 38.48442
# Shear Modulus (GPa) = 17.52939 27.22935 22.37937
#
# Velocity S-wave (km/s) = 2.98141 3.71584 3.36870
# Velocity P-wave (km/s) = 4.45901 7.02911 5.88605
#
# Compressibility (1/GPa) = 0.06314039
#
# Stress axis : x y z
#
# Youngs Moduli (GPa) = 13.23180 76.01951 118.82090
#
# Poissons Ratio (x) = 0.65767 0.35418
# Poissons Ratio (y) = 0.11447 0.63815
# Poissons Ratio (z) = 0.03944 0.40828
#
# Static dielectric constant tensor:
#      x y z
#    x 1.718670 0.000000 0.000000 
#    y 0.000000 1.706830 0.000000 
#    z 0.000000 0.000000 1.630010 
# 
# From -- ./inp_files/26421.got.cif
#   From: 2010.05.17/outbox.cif.g08.bks.cpg/sg47_14_cif.got.tgz:26421.got - 2010.06.03 20:15:42.
