data_PCOD9387622
_publ_section_title
;
Structure prediction by ZEFSAII (Michael W. Deem and Ramdas Pophale) SiO2 
 PCOD9387622
Probable space group: P M M M
;
_chemical_formula_sum "Si O2"
_cell_formula_units_Z 48
_cell_length_a 9.745547
_cell_length_b 8.177428
_cell_length_c 31.639397
_cell_angle_alpha 90.000000
_cell_angle_beta 90.000000
_cell_angle_gamma 90.000000
_cell_volume 2521.454567
_symmetry_space_group_name_H-M "P M M M"
_symmetry_group_IT_number 47
_symmetry_cell_setting 'orthorhombic'
loop_
_space_group_symop_operation_xyz
x,y,z
-x,-y,z
x,-y,-z
-x,y,-z
-x,-y,-z
x,y,-z
-x,y,z
x,-y,z
loop_
_atom_site_type_symbol
_atom_site_label
_atom_site_fract_x
_atom_site_fract_y
_atom_site_fract_z
Si Si1 0.842237 0.200409 0.626016
Si Si2 0.657044 0.197172 0.295805
Si Si3 0.343643 0.697428 0.951928
Si Si4 0.844562 0.805146 0.875234
Si Si5 0.343487 0.304719 0.798048
Si Si6 0.342428 0.199452 0.452144
O O1 0.758444 0.254136 0.667433
O O2 0.761386 0.254034 0.584019
O O3 0.000000 0.253072 0.626500
O O4 0.841792 0.000000 0.625975
O O5 0.500000 0.254894 0.302708
O O6 0.699126 0.247773 0.248680
O O7 0.654672 0.000000 0.297424
O O8 0.500000 0.750630 0.941762
O O9 0.344122 0.500000 0.951716
O O10 0.236760 0.754844 0.917275
O O11 0.312142 0.750607 0.000000
O O12 0.758123 0.750399 0.834606
O O13 0.000000 0.738879 0.874773
O O14 0.851639 0.000000 0.874343
O O15 0.500000 0.243259 0.805436
O O16 0.348150 0.500000 0.798312
O O17 0.307715 0.251201 0.500000
O O18 0.500000 0.247939 0.443053
O O19 0.340931 0.000000 0.452001
#
# Coordination Sequence:
#
# PCOD9387622 Si02
#       6
#     8   8   8   8   8   8
#     4   9  16  24  36  57  85 117 153 194 238 283
#     4   9  17  30  48  68  92 124 159 195 240 294
#     4   9  19  37  60  84 109 139 177 218 257 299
#     4  11  24  38  53  78 111 143 174 210 253 302
#     4  10  21  37  57  79 101 128 167 213 257 303
#     4   8  13  21  33  50  76 113 154 192 232 282
#
# _framework density 19.036629999999999
#
# number of rings (size 3 to 8) (size 9 to 14) (size 15 to 20)
#    0.000    2.667    0.000    3.000    0.000    8.333 
#    0.000    5.833    0.000    0.000    0.000    0.000 
#    0.000    0.667    0.000    7.667    0.000    9.833 
#
# Total GULP energy -267828.297898 kJ/mol
# GULP energy per Si atom -5579.756206 kJ/mol
# Density = 1.899330 g / cm^3
# Si number density = 19.036630 Si / 1000 Ang^3
#
#
#
# Elastic Constant Matrix: (Units=GPa)
#
#
# Indices 1 2 3 4 5 6 
#
# 1 158.7435 14.4962 147.0881 0.0000 0.0000 0.0000
# 2 14.4962 11.4080 15.7638 0.0000 0.0000 0.0000
# 3 147.0881 15.7638 193.3944 0.0000 0.0000 0.0000
# 4 0.0000 0.0000 0.0000 66.6026 0.0000 0.0000
# 5 0.0000 0.0000 0.0000 0.0000 0.8861 0.0000
# 6 0.0000 0.0000 0.0000 0.0000 0.0000 14.3820
#
#
#
# Elastic Compliance Matrix: (Units=1/GPa)
#
#
# Indices 1 2 3 4 5 6 
#
# 1 0.021620 -0.005354 -0.016007 0.000000 0.000000 0.000000
# 2 -0.005354 0.100110 -0.004088 0.000000 0.000000 0.000000
# 3 -0.016007 -0.004088 0.017678 0.000000 0.000000 0.000000
# 4 0.000000 0.000000 0.000000 0.015014 0.000000 0.000000
# 5 0.000000 0.000000 0.000000 0.000000 1.128554 0.000000
# 6 0.000000 0.000000 0.000000 0.000000 0.000000 0.069531
#
#
# Mechanical properties :
#
#
# Convention : Reuss Voigt Hill
#
# Bulk Modulus (GPa) = 11.29807 79.80465 45.55136
# Shear Modulus (GPa) = 3.48940 28.78733 16.13837
#
# Velocity S-wave (km/s) = 1.35535 3.89293 2.91478
# Velocity P-wave (km/s) = 2.89777 7.88791 5.94206
#
# Compressibility (1/GPa) = 0.08851069
#
# Stress axis : x y z
#
# Youngs Moduli (GPa) = 46.25335 9.98897 56.56674
#
# Poissons Ratio (x) = 0.05348 0.90546
# Poissons Ratio (y) = 0.24764 0.23124
# Poissons Ratio (z) = 0.74037 0.04083
#
# Static dielectric constant tensor:
#      x y z
#    x 1.649750 0.000000 0.000000 
#    y 0.000000 1.671750 0.000000 
#    z 0.000000 0.000000 1.640170 
# 
# From -- ./inp_files/2432.got.cif
#   From: 2010.05.17/outbox.cif.g08.bks.cpg/sg47_2_cif.got.tgz:2432.got - 2010.06.03 20:15:42.
