data_PCOD9387685
_publ_section_title
;
Structure prediction by ZEFSAII (Michael W. Deem and Ramdas Pophale) SiO2 
 PCOD9387685
Probable space group: P M M M
;
_chemical_formula_sum "Si O2"
_cell_formula_units_Z 64
_cell_length_a 14.152880
_cell_length_b 24.721204
_cell_length_c 9.371505
_cell_angle_alpha 90.000000
_cell_angle_beta 90.000000
_cell_angle_gamma 90.000000
_cell_volume 3278.866873
_symmetry_space_group_name_H-M "P M M M"
_symmetry_group_IT_number 47
_symmetry_cell_setting 'orthorhombic'
loop_
_space_group_symop_operation_xyz
x,y,z
-x,-y,z
x,-y,-z
-x,y,-z
-x,-y,-z
x,y,-z
-x,y,z
x,-y,z
loop_
_atom_site_type_symbol
_atom_site_label
_atom_site_fract_x
_atom_site_fract_y
_atom_site_fract_z
Si Si1 0.108552 0.377392 0.331854
Si Si2 0.612853 0.124379 0.833588
Si Si3 0.887984 0.836865 0.668587
Si Si4 0.759914 0.061117 0.669699
Si Si5 0.705558 0.561598 0.330493
Si Si6 0.615125 0.766623 0.663474
Si Si7 0.614160 0.660164 0.164577
Si Si8 0.115254 0.730591 0.163022
O O1 0.110835 0.363197 0.500000
O O2 0.183568 0.424867 0.309455
O O3 0.139231 0.324972 0.242646
O O4 0.000000 0.391334 0.295773
O O5 0.500000 0.117784 0.823852
O O6 0.667527 0.075370 0.760135
O O7 0.639112 0.178492 0.746214
O O8 0.637699 0.130126 0.000000
O O9 0.874841 0.826860 0.500000
O O10 0.835106 0.892244 0.706106
O O11 0.853950 0.784419 0.754564
O O12 0.000000 0.843282 0.693833
O O13 0.739970 0.065530 0.500000
O O14 0.792923 0.000000 0.697125
O O15 0.685842 0.567869 0.500000
O O16 0.684020 0.500000 0.289787
O O17 0.649560 0.606361 0.242353
O O18 0.649060 0.766913 0.500000
O O19 0.500000 0.764951 0.659187
O O20 0.645894 0.713457 0.749168
O O21 0.500000 0.660429 0.165629
O O22 0.645050 0.662114 0.000000
O O23 0.000000 0.731894 0.163609
O O24 0.147394 0.730813 0.000000
#
# Coordination Sequence:
#
# PCOD9387685 Si02
#       8
#     8   8   8   8   8   8   8   8
#     4   9  18  34  56  80 107 139 174 216 267 319
#     4  10  21  37  57  81 110 143 178 219 268 320
#     4   9  18  34  56  80 107 139 174 216 267 319
#     4  10  22  38  55  78 107 141 184 228 268 315
#     4  10  22  38  55  78 107 141 184 228 268 315
#     4   9  17  32  57  86 112 138 172 216 267 323
#     4  10  21  37  57  81 110 143 178 219 268 320
#     4   9  17  30  51  80 110 138 172 214 261 317
#
# _framework density 19.518940000000001
#
# number of rings (size 3 to 8) (size 9 to 14) (size 15 to 20)
#    0.000    2.500    0.000    1.500    0.000    8.000 
#    0.000    6.250    0.000    0.000    0.000    5.250 
#    0.000    0.000    0.000    0.000    0.000    0.000 
#
# Total GULP energy -357498.843284 kJ/mol
# GULP energy per Si atom -5585.919426 kJ/mol
# Density = 1.947451 g / cm^3
# Si number density = 19.518940 Si / 1000 Ang^3
#
#
#
# Elastic Constant Matrix: (Units=GPa)
#
#
# Indices 1 2 3 4 5 6 
#
# 1 37.7465 2.9782 9.8920 0.0000 0.0000 0.0000
# 2 2.9782 87.9253 30.3783 0.0000 0.0000 0.0000
# 3 9.8920 30.3783 53.6851 0.0000 0.0000 0.0000
# 4 0.0000 0.0000 0.0000 2.8912 0.0000 0.0000
# 5 0.0000 0.0000 0.0000 0.0000 17.7100 0.0000
# 6 0.0000 0.0000 0.0000 0.0000 0.0000 27.8361
#
#
#
# Elastic Compliance Matrix: (Units=1/GPa)
#
#
# Indices 1 2 3 4 5 6 
#
# 1 0.027912 0.001034 -0.005728 0.000000 0.000000 0.000000
# 2 0.001034 0.014175 -0.008212 0.000000 0.000000 0.000000
# 3 -0.005728 -0.008212 0.024329 0.000000 0.000000 0.000000
# 4 0.000000 0.000000 0.000000 0.345880 0.000000 0.000000
# 5 0.000000 0.000000 0.000000 0.000000 0.056465 0.000000
# 6 0.000000 0.000000 0.000000 0.000000 0.000000 0.035925
#
#
# Mechanical properties :
#
#
# Convention : Reuss Voigt Hill
#
# Bulk Modulus (GPa) = 24.62779 29.53931 27.08355
# Shear Modulus (GPa) = 9.19061 18.76136 13.97598
#
# Velocity S-wave (km/s) = 2.17228 3.10367 2.67876
# Velocity P-wave (km/s) = 4.35161 5.29246 4.84493
#
# Compressibility (1/GPa) = 0.04060454
#
# Stress axis : x y z
#
# Youngs Moduli (GPa) = 35.82684 70.54437 41.10272
#
# Poissons Ratio (x) = -0.07291 0.23543
# Poissons Ratio (y) = -0.03703 0.33753
# Poissons Ratio (z) = 0.20521 0.57930
#
# Static dielectric constant tensor:
#      x y z
#    x 1.726770 0.000000 0.000000 
#    y 0.000000 1.634500 0.000000 
#    z 0.000000 0.000000 1.658440 
# 
# From -- ./inp_files/7850.got.cif
#   From: 2010.05.17/outbox.cif.g08.bks.cpg/sg47_4_cif.got.tgz:7850.got - 2010.06.03 20:15:42.
