data_PCOD9387703
_publ_section_title
;
Structure prediction by ZEFSAII (Michael W. Deem and Ramdas Pophale) SiO2 
 PCOD9387703
Probable space group: P M M M
;
_chemical_formula_sum "Si O2"
_cell_formula_units_Z 64
_cell_length_a 14.091140
_cell_length_b 26.782771
_cell_length_c 9.076317
_cell_angle_alpha 90.000000
_cell_angle_beta 90.000000
_cell_angle_gamma 90.000000
_cell_volume 3425.400000
_symmetry_space_group_name_H-M "P M M M"
_symmetry_group_IT_number 47
_symmetry_cell_setting 'orthorhombic'
loop_
_space_group_symop_operation_xyz
x,y,z
-x,-y,z
x,-y,-z
-x,y,-z
-x,-y,-z
x,y,-z
-x,y,z
x,-y,z
loop_
_atom_site_type_symbol
_atom_site_label
_atom_site_fract_x
_atom_site_fract_y
_atom_site_fract_z
Si Si1 0.885328 0.849780 0.329201
Si Si2 0.114809 0.252981 0.171231
Si Si3 0.388561 0.908450 0.325363
Si Si4 0.112033 0.556629 0.176656
Si Si5 0.205754 0.349153 0.325658
Si Si6 0.791468 0.055268 0.824447
Si Si7 0.609793 0.705502 0.326231
Si Si8 0.384968 0.193552 0.833567
O O1 0.855739 0.847909 0.500000
O O2 0.854774 0.799140 0.246154
O O3 0.846216 0.899494 0.252898
O O4 0.000000 0.851096 0.324246
O O5 0.153586 0.301489 0.254203
O O6 0.000000 0.254473 0.177535
O O7 0.143019 0.254027 0.000000
O O8 0.375414 0.914346 0.500000
O O9 0.500000 0.917118 0.292295
O O10 0.316160 0.942056 0.234972
O O11 0.363225 0.852141 0.274252
O O12 0.138983 0.500000 0.219380
O O13 0.169738 0.599966 0.254747
O O14 0.000000 0.562900 0.209335
O O15 0.122436 0.560790 0.000000
O O16 0.187489 0.349354 0.500000
O O17 0.317542 0.339255 0.301268
O O18 0.830673 0.000000 0.790190
O O19 0.793045 0.062035 0.000000
O O20 0.614585 0.719048 0.500000
O O21 0.500000 0.694208 0.291997
O O22 0.642501 0.753067 0.231575
O O23 0.500000 0.194882 0.839897
O O24 0.349857 0.184869 0.000000
#
# Coordination Sequence:
#
# PCOD9387703 Si02
#       8
#     8   8   8   8   8   8   8   8
#     4  10  22  41  64  87 112 143 181 229 282 336
#     4  10  21  37  57  82 115 152 184 218 271 339
#     4  10  21  37  58  82 110 145 182 225 279 336
#     4   9  19  37  59  82 112 151 191 231 280 340
#     4  11  22  33  53  85 116 149 190 237 283 327
#     4  11  25  42  60  83 110 143 184 230 279 336
#     4   9  19  35  51  71 107 152 192 229 274 328
#     4   9  17  30  50  76 104 136 178 225 271 324
#
# _framework density 18.683948999999998
#
# number of rings (size 3 to 8) (size 9 to 14) (size 15 to 20)
#    0.000    2.125    0.000    3.000    1.750    8.250 
#    0.000    3.125    0.000    0.375    0.000    2.625 
#    0.000    0.000    0.000    0.000    0.000    0.000 
#
# Total GULP energy -357548.838241 kJ/mol
# GULP energy per Si atom -5586.700598 kJ/mol
# Density = 1.864142 g / cm^3
# Si number density = 18.683949 Si / 1000 Ang^3
#
#
#
# Elastic Constant Matrix: (Units=GPa)
#
#
# Indices 1 2 3 4 5 6 
#
# 1 52.4780 50.3650 36.2905 0.0000 0.0000 0.0000
# 2 50.3650 155.9887 70.7106 0.0000 0.0000 0.0000
# 3 36.2905 70.7106 87.1707 0.0000 0.0000 0.0000
# 4 0.0000 0.0000 0.0000 80.6477 0.0000 0.0000
# 5 0.0000 0.0000 0.0000 0.0000 25.1534 0.0000
# 6 0.0000 0.0000 0.0000 0.0000 0.0000 27.7815
#
#
#
# Elastic Compliance Matrix: (Units=1/GPa)
#
#
# Indices 1 2 3 4 5 6 
#
# 1 0.030368 -0.006443 -0.007416 0.000000 0.000000 0.000000
# 2 -0.006443 0.011506 -0.006651 0.000000 0.000000 0.000000
# 3 -0.007416 -0.006651 0.019954 0.000000 0.000000 0.000000
# 4 0.000000 0.000000 0.000000 0.012400 0.000000 0.000000
# 5 0.000000 0.000000 0.000000 0.000000 0.039756 0.000000
# 6 0.000000 0.000000 0.000000 0.000000 0.000000 0.035995
#
#
# Mechanical properties :
#
#
# Convention : Reuss Voigt Hill
#
# Bulk Modulus (GPa) = 48.05918 67.81885 57.93902
# Shear Modulus (GPa) = 25.26077 35.93462 30.59769
#
# Velocity S-wave (km/s) = 3.68095 4.39029 4.05117
# Velocity P-wave (km/s) = 6.62147 7.87885 7.27737
#
# Compressibility (1/GPa) = 0.02080768
#
# Stress axis : x y z
#
# Youngs Moduli (GPa) = 32.92941 86.91086 50.11493
#
# Poissons Ratio (x) = 0.56000 0.37165
# Poissons Ratio (y) = 0.21218 0.33331
# Poissons Ratio (z) = 0.24420 0.57804
#
# Static dielectric constant tensor:
#      x y z
#    x 1.686690 0.000000 0.000000 
#    y 0.000000 1.616850 0.000000 
#    z 0.000000 0.000000 1.627190 
# 
# From -- ./inp_files/7829.got.cif
#   From: 2010.05.17/outbox.cif.g08.bks.cpg/sg47_4_cif.got.tgz:7829.got - 2010.06.03 20:15:42.
