data_PCOD9387857
_publ_section_title
;
Structure prediction by ZEFSAII (Michael W. Deem and Ramdas Pophale) SiO2 
 PCOD9387857
Probable space group: P M M M
;
_chemical_formula_sum "Si O2"
_cell_formula_units_Z 60
_cell_length_a 14.876740
_cell_length_b 14.309222
_cell_length_c 14.770094
_cell_angle_alpha 90.000000
_cell_angle_beta 90.000000
_cell_angle_gamma 90.000000
_cell_volume 3144.177487
_symmetry_space_group_name_H-M "P M M M"
_symmetry_group_IT_number 47
_symmetry_cell_setting 'orthorhombic'
loop_
_space_group_symop_operation_xyz
x,y,z
-x,-y,z
x,-y,-z
-x,y,-z
-x,-y,-z
x,y,-z
-x,y,z
x,-y,z
loop_
_atom_site_type_symbol
_atom_site_label
_atom_site_fract_x
_atom_site_fract_y
_atom_site_fract_z
Si Si1 0.284425 0.388887 0.821931
Si Si2 0.397753 0.759163 0.729466
Si Si3 0.099432 0.707009 0.789834
Si Si4 0.397214 0.613155 0.000000
Si Si5 0.143176 0.105741 0.105839
Si Si6 0.639304 0.108317 0.896456
Si Si7 0.286752 0.896795 0.607590
Si Si8 0.898764 0.199785 0.604656
O O1 0.287484 0.500000 0.810355
O O2 0.336981 0.331759 0.745308
O O3 0.182403 0.352879 0.825935
O O4 0.339313 0.362231 0.912399
O O5 0.500000 0.735225 0.707742
O O6 0.396364 0.822305 0.820663
O O7 0.349884 0.822302 0.654706
O O8 0.106423 0.810606 0.833502
O O9 0.108780 0.721392 0.681588
O O10 0.000000 0.669102 0.809753
O O11 0.403316 0.500000 0.000000
O O12 0.500000 0.648423 0.000000
O O13 0.251849 0.110888 0.110108
O O14 0.116836 0.000000 0.132787
O O15 0.118057 0.118435 0.000000
O O16 0.612308 0.000000 0.881969
O O17 0.615169 0.133780 0.000000
O O18 0.301046 0.896626 0.500000
O O19 0.182335 0.871243 0.622807
O O20 0.305428 0.000000 0.644391
O O21 0.889047 0.231840 0.500000
O O22 0.000000 0.160056 0.613177
#
# Coordination Sequence:
#
# PCOD9387857 Si02
#       8
#     8   8   8   4   8   8   8   8
#     4  11  24  43  63  86 119 156 199 260 314 358
#     4  12  24  37  59  86 113 152 201 249 297 358
#     4  11  22  36  60  91 120 158 199 245 305 373
#     4   9  20  40  65  89 114 151 201 255 311 364
#     4   9  18  34  55  80 116 159 199 239 283 344
#     4   9  18  33  54  81 115 152 189 234 287 343
#     4  10  21  38  60  88 125 164 199 239 293 360
#     4   9  18  35  60  89 120 154 196 245 297 354
#
# _framework density 19.082892999999999
#
# number of rings (size 3 to 8) (size 9 to 14) (size 15 to 20)
#    0.000    1.933    2.667    1.600    1.867    5.067 
#    0.000    4.667    0.000    2.800    0.000    2.800 
#    0.000    0.000    0.000    0.000    0.000    0.000 
#
# Total GULP energy -335068.545824 kJ/mol
# GULP energy per Si atom -5584.475764 kJ/mol
# Density = 1.903946 g / cm^3
# Si number density = 19.082893 Si / 1000 Ang^3
#
#
#
# Elastic Constant Matrix: (Units=GPa)
#
#
# Indices 1 2 3 4 5 6 
#
# 1 152.3084 52.9087 36.9124 0.0000 0.0000 0.0000
# 2 52.9087 81.2977 25.8436 0.0000 0.0000 0.0000
# 3 36.9124 25.8436 48.2148 0.0000 0.0000 0.0000
# 4 0.0000 0.0000 0.0000 22.3949 0.0000 0.0000
# 5 0.0000 0.0000 0.0000 0.0000 -57.3327 0.0000
# 6 0.0000 0.0000 0.0000 0.0000 0.0000 3.8063
#
#
#
# Elastic Compliance Matrix: (Units=1/GPa)
#
#
# Indices 1 2 3 4 5 6 
#
# 1 0.009278 -0.004557 -0.004661 0.000000 0.000000 0.000000
# 2 -0.004557 0.017065 -0.005658 0.000000 0.000000 0.000000
# 3 -0.004661 -0.005658 0.027342 0.000000 0.000000 0.000000
# 4 0.000000 0.000000 0.000000 0.044653 0.000000 0.000000
# 5 0.000000 0.000000 0.000000 0.000000 -0.017442 0.000000
# 6 0.000000 0.000000 0.000000 0.000000 0.000000 0.262722
#
#
# Mechanical properties :
#
#
# Convention : Reuss Voigt Hill
#
# Bulk Modulus (GPa) = 41.78344 57.01672 49.40008
# Shear Modulus (GPa) = 13.11145 4.85078 8.98112
#
# Velocity S-wave (km/s) = 2.62406 1.59608 2.17177
# Velocity P-wave (km/s) = 5.57891 5.77407 5.67733
#
# Compressibility (1/GPa) = 0.02393293
#
# Stress axis : x y z
#
# Youngs Moduli (GPa) = 107.78157 58.60083 36.57429
#
# Poissons Ratio (x) = 0.26702 0.17046
# Poissons Ratio (y) = 0.49111 0.20695
# Poissons Ratio (z) = 0.50234 0.33158
#
# Static dielectric constant tensor:
#      x y z
#    x 1.680170 0.000000 0.000000 
#    y 0.000000 1.649760 0.000000 
#    z 0.000000 0.000000 1.682110 
# 
# From -- ./inp_files/23932.got.cif
#   From: 2010.05.17/outbox.cif.g08.bks.cpg/sg47_12_cif.got.tgz:23932.got - 2010.06.03 20:15:42.
