data_PCOD9387836
_publ_section_title
;
Structure prediction by ZEFSAII (Michael W. Deem and Ramdas Pophale) SiO2 
 PCOD9387836
Probable space group: P M M M
;
_chemical_formula_sum "Si O2"
_cell_formula_units_Z 46
_cell_length_a 7.607275
_cell_length_b 11.097735
_cell_length_c 26.872104
_cell_angle_alpha 90.000000
_cell_angle_beta 90.000000
_cell_angle_gamma 90.000000
_cell_volume 2268.637664
_symmetry_space_group_name_H-M "P M M M"
_symmetry_group_IT_number 47
_symmetry_cell_setting 'orthorhombic'
loop_
_space_group_symop_operation_xyz
x,y,z
-x,-y,z
x,-y,-z
-x,y,-z
-x,-y,-z
x,y,-z
-x,y,z
x,-y,z
loop_
_atom_site_type_symbol
_atom_site_label
_atom_site_fract_x
_atom_site_fract_y
_atom_site_fract_z
Si Si1 0.203392 0.356201 0.622409
Si Si2 0.198830 0.854898 0.000000
Si Si3 0.295247 0.367739 0.166752
Si Si4 0.295077 0.863254 0.889109
Si Si5 0.789539 0.000000 0.707753
Si Si6 0.500000 0.000000 0.377498
Si Si7 0.500000 0.757661 0.558942
Si Si8 0.789315 0.264595 0.730605
O O1 0.208271 0.500000 0.626349
O O2 0.328825 0.312489 0.578742
O O3 0.266408 0.302179 0.675189
O O4 0.000000 0.318654 0.615024
O O5 0.285184 0.826060 0.947261
O O6 0.000000 0.808251 0.000000
O O7 0.193902 0.000000 0.000000
O O8 0.500000 0.371435 0.151407
O O9 0.218834 0.500000 0.155313
O O10 0.215291 0.247501 0.141885
O O11 0.287949 0.344315 0.225718
O O12 0.500000 0.872650 0.875096
O O13 0.220200 0.000000 0.883427
O O14 0.670689 0.000000 0.658391
O O15 0.748819 0.122957 0.736942
O O16 0.000000 0.000000 0.696496
O O17 0.500000 0.884143 0.412429
O O18 0.500000 0.770677 0.500000
O O19 0.000000 0.279902 0.732456
#
# Coordination Sequence:
#
# PCOD9387836 Si02
#       8
#     8   4   8   8   4   2   4   8
#     4  10  22  41  64  89 120 159 201 245 297 355
#     4   9  17  31  54  81 106 136 184 245 296 336
#     4  10  22  36  53  83 121 153 188 236 291 351
#     4   9  18  34  54  78 107 148 192 236 284 346
#     4  10  22  39  61  91 120 153 203 249 294 358
#     4  12  23  42  68  88 118 164 188 245 308 354
#     4  12  26  42  63  93 122 154 200 249 299 358
#     4  10  21  38  59  84 116 152 192 239 290 348
#
# _framework density 20.276485000000001
#
# number of rings (size 3 to 8) (size 9 to 14) (size 15 to 20)
#    0.000    2.000    1.739    1.174    3.652    3.826 
#    0.000    1.304    0.000    4.174    0.000    0.000 
#    0.000    0.000    0.000    0.000    0.000    0.000 
#
# Total GULP energy -256708.161211 kJ/mol
# GULP energy per Si atom -5580.612200 kJ/mol
# Density = 2.023033 g / cm^3
# Si number density = 20.276485 Si / 1000 Ang^3
#
#
#
# Elastic Constant Matrix: (Units=GPa)
#
#
# Indices 1 2 3 4 5 6 
#
# 1 55.5597 24.1995 6.9988 0.0000 0.0000 0.0000
# 2 24.1995 132.2041 43.2537 0.0000 0.0000 0.0000
# 3 6.9988 43.2537 71.3019 0.0000 0.0000 0.0000
# 4 0.0000 0.0000 0.0000 3.0319 0.0000 0.0000
# 5 0.0000 0.0000 0.0000 0.0000 154.9258 0.0000
# 6 0.0000 0.0000 0.0000 0.0000 0.0000 10.3034
#
#
#
# Elastic Compliance Matrix: (Units=1/GPa)
#
#
# Indices 1 2 3 4 5 6 
#
# 1 0.019564 -0.003684 0.000314 0.000000 0.000000 0.000000
# 2 -0.003684 0.010131 -0.005784 0.000000 0.000000 0.000000
# 3 0.000314 -0.005784 0.017503 0.000000 0.000000 0.000000
# 4 0.000000 0.000000 0.000000 0.329822 0.000000 0.000000
# 5 0.000000 0.000000 0.000000 0.000000 0.006455 0.000000
# 6 0.000000 0.000000 0.000000 0.000000 0.000000 0.097055
#
#
# Mechanical properties :
#
#
# Convention : Reuss Voigt Hill
#
# Bulk Modulus (GPa) = 34.61384 45.32998 39.97191
# Shear Modulus (GPa) = 9.83350 45.95981 27.89665
#
# Velocity S-wave (km/s) = 2.20459 4.76611 3.71322
# Velocity P-wave (km/s) = 4.85678 7.25894 6.17578
#
# Compressibility (1/GPa) = 0.02889018
#
# Stress axis : x y z
#
# Youngs Moduli (GPa) = 51.11531 98.70922 57.13388
#
# Poissons Ratio (x) = 0.36364 -0.01797
# Poissons Ratio (y) = 0.18831 0.33046
# Poissons Ratio (z) = -0.01607 0.57093
#
# Static dielectric constant tensor:
#      x y z
#    x 1.755310 0.000000 0.000000 
#    y 0.000000 1.752960 0.000000 
#    z 0.000000 0.000000 1.686650 
# 
# From -- ./inp_files/31911.got.cif
#   From: 2010.05.17/outbox.cif.g08.bks.cpg/sg47_16_cif.got.tgz:31911.got - 2010.06.03 20:15:42.
