data_PCOD9387641
_publ_section_title
;
Structure prediction by ZEFSAII (Michael W. Deem and Ramdas Pophale) SiO2 
 PCOD9387641
Probable space group: P M M M
;
_chemical_formula_sum "Si O2"
_cell_formula_units_Z 48
_cell_length_a 7.502988
_cell_length_b 9.617822
_cell_length_c 32.060953
_cell_angle_alpha 90.000000
_cell_angle_beta 90.000000
_cell_angle_gamma 90.000000
_cell_volume 2313.595413
_symmetry_space_group_name_H-M "P M M M"
_symmetry_group_IT_number 47
_symmetry_cell_setting 'orthorhombic'
loop_
_space_group_symop_operation_xyz
x,y,z
-x,-y,z
x,-y,-z
-x,y,-z
-x,-y,-z
x,y,-z
-x,y,z
x,-y,z
loop_
_atom_site_type_symbol
_atom_site_label
_atom_site_fract_x
_atom_site_fract_y
_atom_site_fract_z
Si Si1 0.288058 0.658535 0.500000
Si Si2 0.285810 0.341812 0.750721
Si Si3 0.281783 0.659832 0.000000
Si Si4 0.787128 0.659046 0.657314
Si Si5 0.717283 0.160914 0.078923
Si Si6 0.787615 0.842439 0.418821
Si Si7 0.282555 0.839455 0.828039
O O1 0.215693 0.500000 0.500000
O O2 0.500000 0.647730 0.500000
O O3 0.238041 0.746683 0.540734
O O4 0.500000 0.346251 0.754049
O O5 0.218375 0.500000 0.753051
O O6 0.245034 0.288888 0.704289
O O7 0.219106 0.251541 0.789346
O O8 0.223425 0.741563 0.958616
O O9 0.225629 0.500000 0.000000
O O10 0.500000 0.661196 0.000000
O O11 0.717249 0.500000 0.653971
O O12 0.716100 0.760589 0.621593
O O13 0.000000 0.650338 0.651792
O O14 0.500000 0.161623 0.078560
O O15 0.772668 0.206108 0.125460
O O16 0.770804 0.000000 0.072675
O O17 0.000000 0.854910 0.413140
O O18 0.717664 0.000000 0.423846
O O19 0.500000 0.836065 0.827756
O O20 0.230329 0.000000 0.822975
#
# Coordination Sequence:
#
# PCOD9387641 Si02
#       7
#     4   8   4   8   8   8   8
#     4  11  24  39  56  80 108 137 168 201 238 282
#     4   9  17  28  43  64  88 114 147 188 229 267
#     4   9  15  19  25  41  63  89 126 171 214 253
#     4   9  18  33  51  70  95 128 161 191 229 279
#     4   8  13  21  31  42  61  93 131 168 207 256
#     4  10  21  37  57  80 104 131 165 203 242 285
#     4   8  14  24  37  53  74 103 139 176 217 268
#
# _framework density 20.746928
#
# number of rings (size 3 to 8) (size 9 to 14) (size 15 to 20)
#    0.000    3.000    0.000    2.250    0.000    5.667 
#    0.000    5.000    0.000    0.000    0.000    0.000 
#    0.000    0.000    0.000    0.750    0.000   16.000 
#
# Total GULP energy -267821.535501 kJ/mol
# GULP energy per Si atom -5579.615323 kJ/mol
# Density = 2.069971 g / cm^3
# Si number density = 20.746928 Si / 1000 Ang^3
#
#
#
# Elastic Constant Matrix: (Units=GPa)
#
#
# Indices 1 2 3 4 5 6 
#
# 1 55.9128 5.0551 -1.3427 0.0000 0.0000 0.0000
# 2 5.0551 144.0552 140.6590 0.0000 0.0000 0.0000
# 3 -1.3427 140.6590 243.9773 0.0000 0.0000 0.0000
# 4 0.0000 0.0000 0.0000 43.7044 0.0000 0.0000
# 5 0.0000 0.0000 0.0000 0.0000 17.7753 0.0000
# 6 0.0000 0.0000 0.0000 0.0000 0.0000 1.1548
#
#
#
# Elastic Compliance Matrix: (Units=1/GPa)
#
#
# Indices 1 2 3 4 5 6 
#
# 1 0.018062 -0.001672 0.001063 0.000000 0.000000 0.000000
# 2 -0.001672 0.016037 -0.009255 0.000000 0.000000 0.000000
# 3 0.001063 -0.009255 0.009440 0.000000 0.000000 0.000000
# 4 0.000000 0.000000 0.000000 0.022881 0.000000 0.000000
# 5 0.000000 0.000000 0.000000 0.000000 0.056258 0.000000
# 6 0.000000 0.000000 0.000000 0.000000 0.000000 0.865986
#
#
# Mechanical properties :
#
#
# Convention : Reuss Voigt Hill
#
# Bulk Modulus (GPa) = 41.99608 81.40977 61.70292
# Shear Modulus (GPa) = 4.91966 32.49849 18.70908
#
# Velocity S-wave (km/s) = 1.54156 3.96210 3.00622
# Velocity P-wave (km/s) = 4.84299 7.76245 6.46955
#
# Compressibility (1/GPa) = 0.02381175
#
# Stress axis : x y z
#
# Youngs Moduli (GPa) = 55.36577 62.35393 105.92708
#
# Poissons Ratio (x) = 0.10427 -0.11265
# Poissons Ratio (y) = 0.09258 0.98038
# Poissons Ratio (z) = -0.05888 0.57710
#
# Static dielectric constant tensor:
#      x y z
#    x 1.803350 0.000000 0.000000 
#    y 0.000000 1.725400 0.000000 
#    z 0.000000 0.000000 1.721740 
# 
# From -- ./inp_files/34121.got.cif
#   From: 2010.05.17/outbox.cif.g08.bks.cpg/sg47_18_cif.got.tgz:34121.got - 2010.06.03 20:15:42.
