data_PCOD9387752
_publ_section_title
;
Structure prediction by ZEFSAII (Michael W. Deem and Ramdas Pophale) SiO2 
 PCOD9387752
Probable space group: P M M M
;
_chemical_formula_sum "Si O2"
_cell_formula_units_Z 56
_cell_length_a 13.931444
_cell_length_b 9.111896
_cell_length_c 21.612196
_cell_angle_alpha 90.000000
_cell_angle_beta 90.000000
_cell_angle_gamma 90.000000
_cell_volume 2743.492550
_symmetry_space_group_name_H-M "P M M M"
_symmetry_group_IT_number 47
_symmetry_cell_setting 'orthorhombic'
loop_
_space_group_symop_operation_xyz
x,y,z
-x,-y,z
x,-y,-z
-x,y,-z
-x,-y,-z
x,y,-z
-x,y,z
x,-y,z
loop_
_atom_site_type_symbol
_atom_site_label
_atom_site_fract_x
_atom_site_fract_y
_atom_site_fract_z
Si Si1 0.389513 0.826932 0.631679
Si Si2 0.115778 0.331592 0.311473
Si Si3 0.884027 0.830823 0.813867
Si Si4 0.207851 0.325119 0.068541
Si Si5 0.616346 0.666401 0.757351
Si Si6 0.197694 0.174650 0.431665
Si Si7 0.612800 0.174087 0.883752
O O1 0.500000 0.791427 0.615725
O O2 0.357636 0.732932 0.691040
O O3 0.311990 0.804592 0.578236
O O4 0.386893 0.000000 0.648639
O O5 0.148187 0.500000 0.311044
O O6 0.148630 0.249685 0.248997
O O7 0.148021 0.252878 0.374168
O O8 0.000000 0.330394 0.310090
O O9 0.848356 0.750522 0.875442
O O10 0.000000 0.828903 0.813748
O O11 0.852155 0.000000 0.813579
O O12 0.207710 0.500000 0.076734
O O13 0.315888 0.263120 0.072827
O O14 0.168439 0.291462 0.000000
O O15 0.500000 0.660790 0.756268
O O16 0.651188 0.500000 0.767280
O O17 0.639338 0.771894 0.814524
O O18 0.168346 0.226093 0.500000
O O19 0.178890 0.000000 0.427828
O O20 0.500000 0.205734 0.894050
O O21 0.626591 0.000000 0.889951
#
# Coordination Sequence:
#
# PCOD9387752 Si02
#       7
#     8   8   8   8   8   8   8
#     4   9  18  33  53  78 112 154 199 245 293 349
#     4  10  22  41  65  91 119 153 194 243 301 364
#     4  10  22  42  69  97 123 154 195 246 302 360
#     4  11  25  42  61  89 125 165 205 246 298 358
#     4   9  17  30  50  77 108 144 190 243 298 352
#     4  10  22  38  57  85 120 159 202 248 301 358
#     4  10  21  37  58  84 117 159 206 254 302 353
#
# _framework density 20.411937999999999
#
# number of rings (size 3 to 8) (size 9 to 14) (size 15 to 20)
#    0.000    2.143    0.000    2.143    2.000    7.429 
#    0.000    5.714    0.000    0.000    0.000    3.000 
#    0.000    0.000    0.000    0.000    0.000    0.000 
#
# Total GULP energy -312910.236894 kJ/mol
# GULP energy per Si atom -5587.682802 kJ/mol
# Density = 2.036548 g / cm^3
# Si number density = 20.411938 Si / 1000 Ang^3
#
#
#
# Elastic Constant Matrix: (Units=GPa)
#
#
# Indices 1 2 3 4 5 6 
#
# 1 45.1574 25.2432 31.3277 0.0000 0.0000 0.0000
# 2 25.2432 107.8430 84.5525 0.0000 0.0000 0.0000
# 3 31.3277 84.5525 175.4516 0.0000 0.0000 0.0000
# 4 0.0000 0.0000 0.0000 31.6403 0.0000 0.0000
# 5 0.0000 0.0000 0.0000 0.0000 15.7447 0.0000
# 6 0.0000 0.0000 0.0000 0.0000 0.0000 26.9138
#
#
#
# Elastic Compliance Matrix: (Units=1/GPa)
#
#
# Indices 1 2 3 4 5 6 
#
# 1 0.026295 -0.003976 -0.002779 0.000000 0.000000 0.000000
# 2 -0.003976 0.015505 -0.006762 0.000000 0.000000 0.000000
# 3 -0.002779 -0.006762 0.009455 0.000000 0.000000 0.000000
# 4 0.000000 0.000000 0.000000 0.031605 0.000000 0.000000
# 5 0.000000 0.000000 0.000000 0.000000 0.063513 0.000000
# 6 0.000000 0.000000 0.000000 0.000000 0.000000 0.037156
#
#
# Mechanical properties :
#
#
# Convention : Reuss Voigt Hill
#
# Bulk Modulus (GPa) = 41.28756 67.85543 54.57150
# Shear Modulus (GPa) = 22.86886 27.34832 25.10859
#
# Velocity S-wave (km/s) = 3.35082 3.66433 3.51107
# Velocity P-wave (km/s) = 5.93647 7.15669 6.57495
#
# Compressibility (1/GPa) = 0.02422037
#
# Stress axis : x y z
#
# Youngs Moduli (GPa) = 38.02948 64.49402 105.76872
#
# Poissons Ratio (x) = 0.25645 0.29393
# Poissons Ratio (y) = 0.15122 0.71523
# Poissons Ratio (z) = 0.10568 0.43612
#
# Static dielectric constant tensor:
#      x y z
#    x 1.776330 0.000000 0.000000 
#    y 0.000000 1.689340 0.000000 
#    z 0.000000 0.000000 1.698940 
# 
# From -- ./inp_files/7270.got.cif
#   From: 2010.05.17/outbox.cif.g08.bks.cpg/sg47_4_cif.got.tgz:7270.got - 2010.06.03 20:15:42.
