data_PCOD9387882
_publ_section_title
;
Structure prediction by ZEFSAII (Michael W. Deem and Ramdas Pophale) SiO2 
 PCOD9387882
Probable space group: P M M M
;
_chemical_formula_sum "Si O2"
_cell_formula_units_Z 44
_cell_length_a 7.936688
_cell_length_b 30.496439
_cell_length_c 9.171654
_cell_angle_alpha 90.000000
_cell_angle_beta 90.000000
_cell_angle_gamma 90.000000
_cell_volume 2219.913751
_symmetry_space_group_name_H-M "P M M M"
_symmetry_group_IT_number 47
_symmetry_cell_setting 'orthorhombic'
loop_
_space_group_symop_operation_xyz
x,y,z
-x,-y,z
x,-y,-z
-x,y,-z
-x,-y,-z
x,y,-z
-x,y,z
x,-y,z
loop_
_atom_site_type_symbol
_atom_site_label
_atom_site_fract_x
_atom_site_fract_y
_atom_site_fract_z
Si Si1 0.299379 0.193069 0.163577
Si Si2 0.801245 0.278706 0.336593
Si Si3 0.000000 0.052491 0.828239
Si Si4 0.700981 0.104341 0.325346
Si Si5 0.203662 0.549219 0.331446
Si Si6 0.300400 0.635878 0.164557
O O1 0.500000 0.189214 0.151731
O O2 0.264819 0.239837 0.235518
O O3 0.248386 0.152529 0.265541
O O4 0.226978 0.189983 0.000000
O O5 0.728050 0.276552 0.500000
O O6 0.771195 0.326063 0.266308
O O7 0.000000 0.272143 0.346685
O O8 0.831702 0.071524 0.751614
O O9 0.000000 0.000000 0.816783
O O10 0.000000 0.064539 0.000000
O O11 0.718700 0.102534 0.500000
O O12 0.500000 0.096726 0.292212
O O13 0.255716 0.556350 0.500000
O O14 0.257740 0.500000 0.288234
O O15 0.266495 0.588139 0.230842
O O16 0.000000 0.549891 0.329007
O O17 0.500000 0.642742 0.159141
O O18 0.232247 0.639132 0.000000
#
# Coordination Sequence:
#
# PCOD9387882 Si02
#       6
#     8   8   4   8   8   8
#     4  10  21  38  61  89 121 157 198 244 297 359
#     4  11  24  39  57  83 114 150 193 240 290 347
#     4  11  25  43  65  95 131 173 219 269 324 381
#     4  10  22  41  66  95 129 170 215 266 322 380
#     4   9  19  37  60  84 109 139 179 227 278 336
#     4  11  24  39  55  79 112 147 185 232 284 340
#
# _framework density 19.820588999999998
#
# number of rings (size 3 to 8) (size 9 to 14) (size 15 to 20)
#    0.000    1.727    0.000    4.091    1.273   11.636 
#    0.000    4.545    0.000    0.000    0.000    0.000 
#    0.000    0.000    0.000    0.000    0.000    0.000 
#
# Total GULP energy -245772.956024 kJ/mol
# GULP energy per Si atom -5585.749001 kJ/mol
# Density = 1.977548 g / cm^3
# Si number density = 19.820589 Si / 1000 Ang^3
#
#
#
# Elastic Constant Matrix: (Units=GPa)
#
#
# Indices 1 2 3 4 5 6 
#
# 1 41.4241 15.9553 33.8494 0.0000 0.0000 0.0000
# 2 15.9553 99.7709 58.5843 0.0000 0.0000 0.0000
# 3 33.8494 58.5843 138.1098 0.0000 0.0000 0.0000
# 4 0.0000 0.0000 0.0000 36.4761 0.0000 0.0000
# 5 0.0000 0.0000 0.0000 0.0000 27.5869 0.0000
# 6 0.0000 0.0000 0.0000 0.0000 0.0000 42.2243
#
#
#
# Elastic Compliance Matrix: (Units=1/GPa)
#
#
# Indices 1 2 3 4 5 6 
#
# 1 0.030217 -0.000644 -0.007133 0.000000 0.000000 0.000000
# 2 -0.000644 0.013361 -0.005510 0.000000 0.000000 0.000000
# 3 -0.007133 -0.005510 0.011326 0.000000 0.000000 0.000000
# 4 0.000000 0.000000 0.000000 0.027415 0.000000 0.000000
# 5 0.000000 0.000000 0.000000 0.000000 0.036249 0.000000
# 6 0.000000 0.000000 0.000000 0.000000 0.000000 0.023683
#
#
# Mechanical properties :
#
#
# Convention : Reuss Voigt Hill
#
# Bulk Modulus (GPa) = 35.29686 55.12032 45.20859
# Shear Modulus (GPa) = 28.04758 32.65185 30.34971
#
# Velocity S-wave (km/s) = 3.76583 4.06318 3.91733
# Velocity P-wave (km/s) = 6.06263 7.06276 6.58172
#
# Compressibility (1/GPa) = 0.02833113
#
# Stress axis : x y z
#
# Youngs Moduli (GPa) = 33.09388 74.84328 88.29269
#
# Poissons Ratio (x) = 0.04820 0.62977
# Poissons Ratio (y) = 0.02131 0.48648
# Poissons Ratio (z) = 0.23605 0.41237
#
# Static dielectric constant tensor:
#      x y z
#    x 1.716000 0.000000 0.000000 
#    y 0.000000 1.657800 0.000000 
#    z 0.000000 0.000000 1.713150 
# 
# From -- ./inp_files/2127.got.cif
#   From: 2010.05.17/outbox.cif.g08.bks.cpg/sg47_2_cif.got.tgz:2127.got - 2010.06.03 20:15:42.
