data_PCOD9387255
_publ_section_title
;
Structure prediction by ZEFSAII (Michael W. Deem and Ramdas Pophale) SiO2 
 PCOD9387255
Probable space group: P M M M
;
_chemical_formula_sum "Si O2"
_cell_formula_units_Z 28
_cell_length_a 7.611170
_cell_length_b 7.874831
_cell_length_c 22.147819
_cell_angle_alpha 90.000000
_cell_angle_beta 90.000000
_cell_angle_gamma 90.000000
_cell_volume 1327.466684
_symmetry_space_group_name_H-M "P M M M"
_symmetry_group_IT_number 47
_symmetry_cell_setting 'orthorhombic'
loop_
_space_group_symop_operation_xyz
x,y,z
-x,-y,z
x,-y,-z
-x,y,-z
-x,-y,-z
x,y,-z
-x,y,z
x,-y,z
loop_
_atom_site_type_symbol
_atom_site_label
_atom_site_fract_x
_atom_site_fract_y
_atom_site_fract_z
Si Si1 0.292571 0.181250 0.197484
Si Si2 0.790052 0.500000 0.411417
Si Si3 0.211952 0.698926 0.065953
Si Si4 0.214392 0.799729 0.500000
Si Si5 0.711465 0.500000 0.270488
O O1 0.500000 0.175704 0.210614
O O2 0.275607 0.211200 0.125969
O O3 0.217504 0.335826 0.235617
O O4 0.213831 0.000000 0.213426
O O5 0.730325 0.324155 0.444064
O O6 0.747927 0.500000 0.341130
O O7 0.000000 0.500000 0.418965
O O8 0.261702 0.500000 0.070049
O O9 0.000000 0.707092 0.066450
O O10 0.270929 0.763025 0.000000
O O11 0.000000 0.807884 0.500000
O O12 0.272481 0.000000 0.500000
O O13 0.500000 0.500000 0.262976
#
# Coordination Sequence:
#
# PCOD9387255 Si02
#       5
#     8   4   8   4   4
#     4  10  21  36  53  73  98 134 178 215 254 309
#     4   9  18  32  54  81 103 133 174 206 239 294
#     4   9  18  33  53  76 101 129 164 212 269 320
#     4   8  15  31  54  80 110 136 162 204 250 288
#     4  10  21  37  52  71 106 142 168 209 260 296
#
# _framework density 21.092808000000002
#
# number of rings (size 3 to 8) (size 9 to 14) (size 15 to 20)
#    0.000    2.714    1.429    1.714    0.000    4.000 
#    0.000    5.714    0.000    0.857    0.000    0.000 
#    0.000    0.000    0.000    0.000    0.000    0.000 
#
# Total GULP energy -156130.547914 kJ/mol
# GULP energy per Si atom -5576.090997 kJ/mol
# Density = 2.104480 g / cm^3
# Si number density = 21.092808 Si / 1000 Ang^3
#
#
#
# Elastic Constant Matrix: (Units=GPa)
#
#
# Indices 1 2 3 4 5 6 
#
# 1 40.2978 13.8790 -6.9973 0.0000 0.0000 0.0000
# 2 13.8790 218.3108 111.5126 0.0000 0.0000 0.0000
# 3 -6.9973 111.5126 154.7877 0.0000 0.0000 0.0000
# 4 0.0000 0.0000 0.0000 -186.0920 0.0000 0.0000
# 5 0.0000 0.0000 0.0000 0.0000 29.8176 0.0000
# 6 0.0000 0.0000 0.0000 0.0000 0.0000 -6.3172
#
#
#
# Elastic Compliance Matrix: (Units=1/GPa)
#
#
# Indices 1 2 3 4 5 6 
#
# 1 0.026747 -0.003668 0.003851 0.000000 0.000000 0.000000
# 2 -0.003668 0.007751 -0.005750 0.000000 0.000000 0.000000
# 3 0.003851 -0.005750 0.010777 0.000000 0.000000 0.000000
# 4 0.000000 0.000000 0.000000 -0.005374 0.000000 0.000000
# 5 0.000000 0.000000 0.000000 0.000000 0.033537 0.000000
# 6 0.000000 0.000000 0.000000 0.000000 0.000000 -0.158297
#
#
# Mechanical properties :
#
#
# Convention : Reuss Voigt Hill
#
# Bulk Modulus (GPa) = 29.28869 72.24277 50.76573
# Shear Modulus (GPa) = -80.19679 -12.85152 -46.52416
#
# Velocity S-wave (km/s) = -6.17280 -2.47105 -4.70157
# Velocity P-wave (km/s) = 6.07362 5.11692 2.31365
#
# Compressibility (1/GPa) = 0.03414287
#
# Stress axis : x y z
#
# Youngs Moduli (GPa) = 37.38703 129.02128 92.79300
#
# Poissons Ratio (x) = 0.47322 -0.35739
# Poissons Ratio (y) = 0.13713 0.53352
# Poissons Ratio (z) = -0.14399 0.74181
#
# Static dielectric constant tensor:
#      x y z
#    x 1.776020 0.000000 0.000000 
#    y 0.000000 1.796130 0.000000 
#    z 0.000000 0.000000 1.725390 
# 
# From -- ./inp_files/29007.got.cif
#   From: 2010.05.17/outbox.cif.g08.bks.cpg/sg47_15_cif.got.tgz:29007.got - 2010.06.03 20:15:42.
