data_PCOD9387086
_publ_section_title
;
Structure prediction by ZEFSAII (Michael W. Deem and Ramdas Pophale) SiO2 
 PCOD9387086
Probable space group: P M M M
;
_chemical_formula_sum "Si O2"
_cell_formula_units_Z 56
_cell_length_a 9.366919
_cell_length_b 14.183622
_cell_length_c 24.030738
_cell_angle_alpha 90.000000
_cell_angle_beta 90.000000
_cell_angle_gamma 90.000000
_cell_volume 3192.647875
_symmetry_space_group_name_H-M "P M M M"
_symmetry_group_IT_number 47
_symmetry_cell_setting 'orthorhombic'
loop_
_space_group_symop_operation_xyz
x,y,z
-x,-y,z
x,-y,-z
-x,y,-z
-x,-y,-z
x,y,-z
-x,y,z
x,-y,z
loop_
_atom_site_type_symbol
_atom_site_label
_atom_site_fract_x
_atom_site_fract_y
_atom_site_fract_z
Si Si1 0.828809 0.107027 0.335266
Si Si2 0.828513 0.705650 0.272553
Si Si3 0.836169 0.105322 0.932450
Si Si4 0.329427 0.392884 0.373258
Si Si5 0.671073 0.203875 0.436353
Si Si6 0.330277 0.708514 0.065323
Si Si7 0.831732 0.391110 0.840688
O O1 0.793478 0.186809 0.289492
O O2 0.751229 0.138994 0.391839
O O3 0.000000 0.110640 0.343504
O O4 0.790143 0.000000 0.320104
O O5 0.752442 0.639476 0.317837
O O6 0.787224 0.674955 0.210667
O O7 0.000000 0.693694 0.276979
O O8 0.733486 0.190126 0.916628
O O9 0.000000 0.123614 0.914830
O O10 0.795193 0.000000 0.913568
O O11 0.836539 0.102999 0.000000
O O12 0.500000 0.389881 0.363167
O O13 0.291820 0.500000 0.389027
O O14 0.298547 0.312527 0.419045
O O15 0.712791 0.185909 0.500000
O O16 0.500000 0.190187 0.431537
O O17 0.500000 0.707506 0.070812
O O18 0.256996 0.632436 0.104602
O O19 0.294981 0.694524 0.000000
O O20 0.813867 0.500000 0.824070
O O21 0.000000 0.375348 0.851786
#
# Coordination Sequence:
#
# PCOD9387086 Si02
#       7
#     8   8   8   8   8   8   8
#     4   9  18  33  53  75  99 129 163 201 248 297
#     4   9  18  34  54  74  97 124 159 205 252 299
#     4   8  14  27  49  74  98 127 163 199 234 276
#     4   9  17  29  47  71  97 127 164 206 252 298
#     4   9  18  31  46  68 100 136 172 207 243 287
#     4  10  21  35  51  74 105 138 169 204 247 295
#     4  10  21  36  54  75  98 127 164 206 253 305
#
# _framework density 17.540299999999998
#
# number of rings (size 3 to 8) (size 9 to 14) (size 15 to 20)
#    0.000    2.857    0.000    1.286    0.000    4.286 
#    0.000    6.429    0.000    2.571    0.000    4.000 
#    0.000    0.000    0.000    0.000    0.000    0.000 
#
# Total GULP energy -312081.076544 kJ/mol
# GULP energy per Si atom -5572.876367 kJ/mol
# Density = 1.750038 g / cm^3
# Si number density = 17.540300 Si / 1000 Ang^3
#
#
#
# Elastic Constant Matrix: (Units=GPa)
#
#
# Indices 1 2 3 4 5 6 
#
# 1 22.8165 29.3192 34.9377 0.0000 0.0000 0.0000
# 2 29.3192 98.0721 40.4005 0.0000 0.0000 0.0000
# 3 34.9377 40.4005 82.5148 0.0000 0.0000 0.0000
# 4 0.0000 0.0000 0.0000 11.3321 0.0000 0.0000
# 5 0.0000 0.0000 0.0000 0.0000 23.5077 0.0000
# 6 0.0000 0.0000 0.0000 0.0000 0.0000 17.7142
#
#
#
# Elastic Compliance Matrix: (Units=1/GPa)
#
#
# Indices 1 2 3 4 5 6 
#
# 1 0.163447 -0.025497 -0.056722 0.000000 0.000000 0.000000
# 2 -0.025497 0.016750 0.002595 0.000000 0.000000 0.000000
# 3 -0.056722 0.002595 0.034865 0.000000 0.000000 0.000000
# 4 0.000000 0.000000 0.000000 0.088245 0.000000 0.000000
# 5 0.000000 0.000000 0.000000 0.000000 0.042539 0.000000
# 6 0.000000 0.000000 0.000000 0.000000 0.000000 0.056452
#
#
# Mechanical properties :
#
#
# Convention : Reuss Voigt Hill
#
# Bulk Modulus (GPa) = 17.91656 45.85758 31.88707
# Shear Modulus (GPa) = 8.61844 17.09387 12.85615
#
# Velocity S-wave (km/s) = 2.21905 3.12516 2.71024
# Velocity P-wave (km/s) = 4.09906 6.26283 5.29270
#
# Compressibility (1/GPa) = 0.05581428
#
# Stress axis : x y z
#
# Youngs Moduli (GPa) = 6.11819 59.70063 28.68179
#
# Poissons Ratio (x) = 1.52219 1.62688
# Poissons Ratio (y) = 0.15600 -0.07442
# Poissons Ratio (z) = 0.34703 -0.15490
#
# Static dielectric constant tensor:
#      x y z
#    x 1.580500 0.000000 0.000000 
#    y 0.000000 1.617580 0.000000 
#    z 0.000000 0.000000 1.578870 
# 
# From -- ./inp_files/7339.got.cif
#   From: 2010.05.17/outbox.cif.g08.bks.cpg/sg47_4_cif.got.tgz:7339.got - 2010.06.03 20:15:42.
