data_PCOD9387440
_publ_section_title
;
Structure prediction by ZEFSAII (Michael W. Deem and Ramdas Pophale) SiO2 
 PCOD9387440
Probable space group: P M M M
;
_chemical_formula_sum "Si O2"
_cell_formula_units_Z 48
_cell_length_a 9.055051
_cell_length_b 31.618723
_cell_length_c 9.177575
_cell_angle_alpha 90.000000
_cell_angle_beta 90.000000
_cell_angle_gamma 90.000000
_cell_volume 2627.623691
_symmetry_space_group_name_H-M "P M M M"
_symmetry_group_IT_number 47
_symmetry_cell_setting 'orthorhombic'
loop_
_space_group_symop_operation_xyz
x,y,z
-x,-y,z
x,-y,-z
-x,y,-z
-x,-y,-z
x,y,-z
-x,y,z
x,-y,z
loop_
_atom_site_type_symbol
_atom_site_label
_atom_site_fract_x
_atom_site_fract_y
_atom_site_fract_z
Si Si1 0.676123 0.000000 0.330555
Si Si2 0.824837 0.921292 0.174265
Si Si3 0.677402 0.252518 0.330805
Si Si4 0.822098 0.825801 0.829405
Si Si5 0.823436 0.419383 0.672893
Si Si6 0.676755 0.500000 0.826725
Si Si7 0.322561 0.660474 0.827844
O O1 0.739864 0.041743 0.254644
O O2 0.500000 0.000000 0.318769
O O3 0.718127 0.000000 0.500000
O O4 0.778589 0.873524 0.215402
O O5 0.000000 0.925365 0.203128
O O6 0.805051 0.925170 0.000000
O O7 0.717533 0.258296 0.500000
O O8 0.500000 0.248348 0.321757
O O9 0.750490 0.210770 0.265233
O O10 0.719052 0.294067 0.238847
O O11 0.000000 0.823641 0.820091
O O12 0.782350 0.820213 0.000000
O O13 0.792104 0.420485 0.500000
O O14 0.746932 0.458831 0.752305
O O15 0.759978 0.376707 0.743353
O O16 0.000000 0.421623 0.692283
O O17 0.500000 0.500000 0.806691
O O18 0.706527 0.500000 0.000000
O O19 0.500000 0.655275 0.809470
O O20 0.290559 0.658871 0.000000
#
# Coordination Sequence:
#
# PCOD9387440 Si02
#       7
#     4   8   8   8   8   4   8
#     4  11  24  37  50  76 112 143 174 217 268 322
#     4   9  19  37  59  80 103 136 180 225 268 320
#     4  10  21  36  55  81 113 148 184 224 272 324
#     4   9  19  36  57  81 108 139 178 224 272 322
#     4  11  24  40  59  86 118 150 186 229 278 330
#     4  11  24  41  62  88 116 149 190 231 274 328
#     4  10  21  38  60  84 110 145 190 233 274 326
#
# _framework density 18.267457
#
# number of rings (size 3 to 8) (size 9 to 14) (size 15 to 20)
#    0.000    2.000    0.000    4.000    0.000   11.333 
#    0.000    5.000    0.000    0.000    0.000    0.000 
#    0.000    0.000    0.000    0.000    0.000    0.000 
#
# Total GULP energy -268168.125980 kJ/mol
# GULP energy per Si atom -5586.835958 kJ/mol
# Density = 1.822588 g / cm^3
# Si number density = 18.267457 Si / 1000 Ang^3
#
#
#
# Elastic Constant Matrix: (Units=GPa)
#
#
# Indices 1 2 3 4 5 6 
#
# 1 46.7191 69.6711 68.5550 0.0000 0.0000 0.0000
# 2 69.6711 185.9194 102.4736 0.0000 0.0000 0.0000
# 3 68.5550 102.4736 126.5875 0.0000 0.0000 0.0000
# 4 0.0000 0.0000 0.0000 169.1690 0.0000 0.0000
# 5 0.0000 0.0000 0.0000 0.0000 31.7815 0.0000
# 6 0.0000 0.0000 0.0000 0.0000 0.0000 38.3789
#
#
#
# Elastic Compliance Matrix: (Units=1/GPa)
#
#
# Indices 1 2 3 4 5 6 
#
# 1 0.130876 -0.018018 -0.056292 0.000000 0.000000 0.000000
# 2 -0.018018 0.012192 -0.000112 0.000000 0.000000 0.000000
# 3 -0.056292 -0.000112 0.038476 0.000000 0.000000 0.000000
# 4 0.000000 0.000000 0.000000 0.005911 0.000000 0.000000
# 5 0.000000 0.000000 0.000000 0.000000 0.031465 0.000000
# 6 0.000000 0.000000 0.000000 0.000000 0.000000 0.026056
#
#
# Mechanical properties :
#
#
# Convention : Reuss Voigt Hill
#
# Bulk Modulus (GPa) = 30.58035 93.40283 61.99159
# Shear Modulus (GPa) = 12.35421 55.76762 34.06091
#
# Velocity S-wave (km/s) = 2.60339 5.53124 4.32275
# Velocity P-wave (km/s) = 5.08070 9.59347 7.67620
#
# Compressibility (1/GPa) = 0.03270074
#
# Stress axis : x y z
#
# Youngs Moduli (GPa) = 7.64083 82.01844 25.99011
#
# Poissons Ratio (x) = 1.47777 1.46304
# Poissons Ratio (y) = 0.13767 0.00292
# Poissons Ratio (z) = 0.43012 0.00920
#
# Static dielectric constant tensor:
#      x y z
#    x 1.609290 0.000000 0.000000 
#    y 0.000000 1.598480 0.000000 
#    z 0.000000 0.000000 1.607910 
# 
# From -- ./inp_files/2718.got.cif
#   From: 2010.05.17/outbox.cif.g08.bks.cpg/sg47_2_cif.got.tgz:2718.got - 2010.06.03 20:15:42.
