data_PCOD9387245
_publ_section_title
;
Structure prediction by ZEFSAII (Michael W. Deem and Ramdas Pophale) SiO2 
 PCOD9387245
Probable space group: P M M M
;
_chemical_formula_sum "Si O2"
_cell_formula_units_Z 44
_cell_length_a 9.284224
_cell_length_b 29.714258
_cell_length_c 8.088181
_cell_angle_alpha 90.000000
_cell_angle_beta 90.000000
_cell_angle_gamma 90.000000
_cell_volume 2231.317448
_symmetry_space_group_name_H-M "P M M M"
_symmetry_group_IT_number 47
_symmetry_cell_setting 'orthorhombic'
loop_
_space_group_symop_operation_xyz
x,y,z
-x,-y,z
x,-y,-z
-x,y,-z
-x,-y,-z
x,y,-z
-x,y,z
x,-y,z
loop_
_atom_site_type_symbol
_atom_site_label
_atom_site_fract_x
_atom_site_fract_y
_atom_site_fract_z
Si Si1 0.164017 0.765162 0.300609
Si Si2 0.835676 0.411109 0.802399
Si Si3 0.666679 0.146284 0.799848
Si Si4 0.335540 0.500000 0.697685
Si Si5 0.325422 0.048379 0.803513
Si Si6 0.335923 0.322432 0.699371
O O1 0.160422 0.762449 0.500000
O O2 0.238516 0.811916 0.254363
O O3 0.256462 0.722603 0.239597
O O4 0.000000 0.762923 0.239522
O O5 0.749093 0.455538 0.751772
O O6 0.753588 0.366654 0.743370
O O7 0.000000 0.412334 0.738310
O O8 0.841369 0.409940 0.000000
O O9 0.500000 0.152438 0.746278
O O10 0.721258 0.097207 0.738686
O O11 0.665710 0.144518 0.000000
O O12 0.500000 0.500000 0.761802
O O13 0.341870 0.500000 0.500000
O O14 0.500000 0.049035 0.790882
O O15 0.276000 0.000000 0.733473
O O16 0.292362 0.047629 0.000000
O O17 0.341768 0.319804 0.500000
O O18 0.500000 0.325206 0.761127
#
# Coordination Sequence:
#
# PCOD9387245 Si02
#       6
#     8   8   8   4   8   8
#     4  10  21  36  53  73 100 137 177 214 256 308
#     4  11  24  40  59  86 118 149 181 218 263 313
#     4   9  17  29  48  75 102 128 163 209 260 311
#     4  11  24  41  62  88 116 149 190 229 264 306
#     4   7  10  19  38  65  95 124 156 199 251 304
#     4  10  21  38  60  83 105 134 176 221 264 313
#
# _framework density 19.719291999999999
#
# number of rings (size 3 to 8) (size 9 to 14) (size 15 to 20)
#    0.000    2.455    0.000    4.364    0.000    8.727 
#    0.000    0.000    0.000    1.091    0.000    6.364 
#    0.000    0.000    0.000    0.000    0.000    0.000 
#
# Total GULP energy -245476.744366 kJ/mol
# GULP energy per Si atom -5579.016917 kJ/mol
# Density = 1.967441 g / cm^3
# Si number density = 19.719292 Si / 1000 Ang^3
#
#
#
# Elastic Constant Matrix: (Units=GPa)
#
#
# Indices 1 2 3 4 5 6 
#
# 1 160.1534 114.8787 14.6657 0.0000 0.0000 0.0000
# 2 114.8787 235.6875 9.0337 0.0000 0.0000 0.0000
# 3 14.6657 9.0337 13.3631 0.0000 0.0000 0.0000
# 4 0.0000 0.0000 0.0000 30.9542 0.0000 0.0000
# 5 0.0000 0.0000 0.0000 0.0000 20.2150 0.0000
# 6 0.0000 0.0000 0.0000 0.0000 0.0000 -42.0720
#
#
#
# Elastic Compliance Matrix: (Units=1/GPa)
#
#
# Indices 1 2 3 4 5 6 
#
# 1 0.010409 -0.004759 -0.008207 0.000000 0.000000 0.000000
# 2 -0.004759 0.006532 0.000807 0.000000 0.000000 0.000000
# 3 -0.008207 0.000807 0.083294 0.000000 0.000000 0.000000
# 4 0.000000 0.000000 0.000000 0.032306 0.000000 0.000000
# 5 0.000000 0.000000 0.000000 0.000000 0.049468 0.000000
# 6 0.000000 0.000000 0.000000 0.000000 0.000000 -0.023769
#
#
# Mechanical properties :
#
#
# Convention : Reuss Voigt Hill
#
# Bulk Modulus (GPa) = 13.17207 76.26224 44.71716
# Shear Modulus (GPa) = 24.05435 19.86117 21.95776
#
# Velocity S-wave (km/s) = 3.49641 3.17708 3.34056
# Velocity P-wave (km/s) = 4.79522 7.22608 6.13231
#
# Compressibility (1/GPa) = 0.07591818
#
# Stress axis : x y z
#
# Youngs Moduli (GPa) = 96.06841 153.10093 12.00569
#
# Poissons Ratio (x) = 0.72862 0.09853
# Poissons Ratio (y) = 0.45720 -0.00969
# Poissons Ratio (z) = 0.78840 -0.12363
#
# Static dielectric constant tensor:
#      x y z
#    x 1.680140 0.000000 0.000000 
#    y 0.000000 1.716570 0.000000 
#    z 0.000000 0.000000 1.709630 
# 
# From -- ./inp_files/2275.got.cif
#   From: 2010.05.17/outbox.cif.g08.bks.cpg/sg47_2_cif.got.tgz:2275.got - 2010.06.03 20:15:42.
