data_PCOD9387612
_publ_section_title
;
Structure prediction by ZEFSAII (Michael W. Deem and Ramdas Pophale) SiO2 
 PCOD9387612
Probable space group: P M M M
;
_chemical_formula_sum "Si O2"
_cell_formula_units_Z 37
_cell_length_a 7.632239
_cell_length_b 18.688690
_cell_length_c 12.427736
_cell_angle_alpha 90.000000
_cell_angle_beta 90.000000
_cell_angle_gamma 90.000000
_cell_volume 1772.649371
_symmetry_space_group_name_H-M "P M M M"
_symmetry_group_IT_number 47
_symmetry_cell_setting 'orthorhombic'
loop_
_space_group_symop_operation_xyz
x,y,z
-x,-y,z
x,-y,-z
-x,y,-z
-x,-y,-z
x,y,-z
-x,y,z
x,-y,z
loop_
_atom_site_type_symbol
_atom_site_label
_atom_site_fract_x
_atom_site_fract_y
_atom_site_fract_z
Si Si1 0.714852 0.281599 0.000000
Si Si2 0.209567 0.786315 0.622686
Si Si3 0.290461 0.883278 0.000000
Si Si4 0.000000 0.500000 0.500000
Si Si5 0.709356 0.655419 0.776102
Si Si6 0.791958 0.077644 0.241789
Si Si7 0.712166 0.500000 0.689935
O O1 0.767514 0.199082 0.000000
O O2 0.778193 0.318109 0.890855
O O3 0.500000 0.283189 0.000000
O O4 0.277598 0.786651 0.500000
O O5 0.239260 0.711159 0.682876
O O6 0.278509 0.852525 0.695488
O O7 0.000000 0.794647 0.616283
O O8 0.231453 0.915610 0.886698
O O9 0.500000 0.886596 0.000000
O O10 0.155677 0.500000 0.591454
O O11 0.500000 0.659714 0.781638
O O12 0.751465 0.573420 0.752586
O O13 0.000000 0.076637 0.261899
O O14 0.720216 0.000000 0.276399
O O15 0.500000 0.500000 0.664460
#
# Coordination Sequence:
#
# PCOD9387612 Si02
#       7
#     4   8   4   1   8   8   4
#     4   9  18  35  62  87 116 157 195 246 308 366
#     4  10  22  37  57  83 113 153 201 247 301 363
#     4  11  20  34  56  86 113 145 194 242 297 359
#     4  12  26  44  72  88 140 176 204 276 306 362
#     4  10  21  40  62  89 122 156 202 250 304 370
#     4  10  21  37  56  81 115 152 194 246 304 362
#     4  10  25  42  65 100 128 169 218 259 314 369
#
# _framework density 20.872712
#
# number of rings (size 3 to 8) (size 9 to 14) (size 15 to 20)
#    0.000    1.946    2.162    0.811    3.027    3.027 
#    0.000    4.865    0.000    0.649    0.000    3.027 
#    0.000    0.000    0.000    0.000    0.000    0.000 
#
# Total GULP energy -206271.804330 kJ/mol
# GULP energy per Si atom -5574.913631 kJ/mol
# Density = 2.082520 g / cm^3
# Si number density = 20.872712 Si / 1000 Ang^3
#
#
#
# Elastic Constant Matrix: (Units=GPa)
#
#
# Indices 1 2 3 4 5 6 
#
# 1 39.2516 18.7471 1.2764 0.0000 0.0000 0.0000
# 2 18.7471 194.8425 88.9185 0.0000 0.0000 0.0000
# 3 1.2764 88.9185 143.4879 0.0000 0.0000 0.0000
# 4 0.0000 0.0000 0.0000 93.9676 0.0000 0.0000
# 5 0.0000 0.0000 0.0000 0.0000 20.0771 0.0000
# 6 0.0000 0.0000 0.0000 0.0000 0.0000 42.8075
#
#
#
# Elastic Compliance Matrix: (Units=1/GPa)
#
#
# Indices 1 2 3 4 5 6 
#
# 1 0.027076 -0.003479 0.001915 0.000000 0.000000 0.000000
# 2 -0.003479 0.007603 -0.004681 0.000000 0.000000 0.000000
# 3 0.001915 -0.004681 0.009853 0.000000 0.000000 0.000000
# 4 0.000000 0.000000 0.000000 0.010642 0.000000 0.000000
# 5 0.000000 0.000000 0.000000 0.000000 0.049808 0.000000
# 6 0.000000 0.000000 0.000000 0.000000 0.000000 0.023360
#
#
# Mechanical properties :
#
#
# Convention : Reuss Voigt Hill
#
# Bulk Modulus (GPa) = 31.20840 66.16289 48.68565
# Shear Modulus (GPa) = 33.00054 49.27979 41.14016
#
# Velocity S-wave (km/s) = 3.98054 4.86425 4.44441
# Velocity P-wave (km/s) = 6.00920 7.95707 7.05073
#
# Compressibility (1/GPa) = 0.03204265
#
# Stress axis : x y z
#
# Youngs Moduli (GPa) = 36.93296 131.52359 101.49408
#
# Poissons Ratio (x) = 0.45760 -0.19438
# Poissons Ratio (y) = 0.12850 0.47506
# Poissons Ratio (z) = -0.07073 0.61562
#
# Static dielectric constant tensor:
#      x y z
#    x 1.774230 0.000000 0.000000 
#    y 0.000000 1.783840 0.000000 
#    z 0.000000 0.000000 1.730220 
# 
# From -- ./inp_files/14913.got.cif
#   From: 2010.05.17/outbox.cif.g08.bks.cpg/sg47_8_cif.got.tgz:14913.got - 2010.06.03 20:15:42.
