data_PCOD9387569
_publ_section_title
;
Structure prediction by ZEFSAII (Michael W. Deem and Ramdas Pophale) SiO2 
 PCOD9387569
Probable space group: P M M M
;
_chemical_formula_sum "Si O2"
_cell_formula_units_Z 48
_cell_length_a 33.183134
_cell_length_b 7.887888
_cell_length_c 9.466823
_cell_angle_alpha 90.000000
_cell_angle_beta 90.000000
_cell_angle_gamma 90.000000
_cell_volume 2477.892114
_symmetry_space_group_name_H-M "P M M M"
_symmetry_group_IT_number 47
_symmetry_cell_setting 'orthorhombic'
loop_
_space_group_symop_operation_xyz
x,y,z
-x,-y,z
x,-y,-z
-x,y,-z
-x,-y,-z
x,y,-z
-x,y,z
x,-y,z
loop_
_atom_site_type_symbol
_atom_site_label
_atom_site_fract_x
_atom_site_fract_y
_atom_site_fract_z
Si Si1 0.408046 0.200310 0.831250
Si Si2 0.548253 0.500000 0.666398
Si Si3 0.162187 0.797803 0.841279
Si Si4 0.685829 0.796093 0.840462
Si Si5 0.913007 0.203345 0.338284
Si Si6 0.000000 0.701984 0.662155
Si Si7 0.761390 0.700205 0.340981
O O1 0.434142 0.332699 0.742869
O O2 0.360744 0.242296 0.807517
O O3 0.414442 0.000000 0.796874
O O4 0.415400 0.218870 0.000000
O O5 0.500000 0.500000 0.678509
O O6 0.558907 0.500000 0.500000
O O7 0.123962 0.729575 0.754055
O O8 0.203322 0.771716 0.756522
O O9 0.156311 0.000000 0.852096
O O10 0.164739 0.728300 0.000000
O O11 0.718190 0.730971 0.730080
O O12 0.688847 0.000000 0.843154
O O13 0.694753 0.734184 0.000000
O O14 0.911117 0.269752 0.500000
O O15 0.957242 0.241578 0.276299
O O16 0.909317 0.000000 0.346342
O O17 0.000000 0.500000 0.657598
O O18 0.000000 0.770079 0.500000
O O19 0.763034 0.770946 0.500000
O O20 0.767954 0.500000 0.348378
#
# Coordination Sequence:
#
# PCOD9387569 Si02
#       7
#     8   4   8   8   8   4   8
#     4   9  20  40  65  92 121 158 207 258 307 363
#     4  11  25  41  59  89 129 169 207 253 311 370
#     4  10  21  37  56  77 102 136 179 224 270 320
#     4   9  19  37  60  85 112 144 185 233 284 336
#     4   9  17  31  52  75  99 130 168 210 259 316
#     4   9  17  29  48  75 102 128 162 207 258 311
#     4  11  24  37  51  78 113 146 182 223 269 326
#
# _framework density 19.371302
#
# number of rings (size 3 to 8) (size 9 to 14) (size 15 to 20)
#    0.000    2.333    0.000    3.000    1.167    8.333 
#    0.000    5.417    0.000    2.500    0.000    0.000 
#    0.000    0.000    0.000    0.000    0.000    0.000 
#
# Total GULP energy -267857.501442 kJ/mol
# GULP energy per Si atom -5580.364613 kJ/mol
# Density = 1.932721 g / cm^3
# Si number density = 19.371302 Si / 1000 Ang^3
#
#
#
# Elastic Constant Matrix: (Units=GPa)
#
#
# Indices 1 2 3 4 5 6 
#
# 1 113.1097 39.1688 89.8956 0.0000 0.0000 0.0000
# 2 39.1688 47.9017 38.2366 0.0000 0.0000 0.0000
# 3 89.8956 38.2366 129.1302 0.0000 0.0000 0.0000
# 4 0.0000 0.0000 0.0000 17.9324 0.0000 0.0000
# 5 0.0000 0.0000 0.0000 0.0000 30.7384 0.0000
# 6 0.0000 0.0000 0.0000 0.0000 0.0000 47.4448
#
#
#
# Elastic Compliance Matrix: (Units=1/GPa)
#
#
# Indices 1 2 3 4 5 6 
#
# 1 0.021635 -0.007423 -0.012863 0.000000 0.000000 0.000000
# 2 -0.007423 0.029884 -0.003682 0.000000 0.000000 0.000000
# 3 -0.012863 -0.003682 0.017789 0.000000 0.000000 0.000000
# 4 0.000000 0.000000 0.000000 0.055765 0.000000 0.000000
# 5 0.000000 0.000000 0.000000 0.000000 0.032533 0.000000
# 6 0.000000 0.000000 0.000000 0.000000 0.000000 0.021077
#
#
# Mechanical properties :
#
#
# Convention : Reuss Voigt Hill
#
# Bulk Modulus (GPa) = 46.78797 69.41596 58.10196
# Shear Modulus (GPa) = 21.39105 27.41249 24.40177
#
# Velocity S-wave (km/s) = 3.32665 3.76587 3.55306
# Velocity P-wave (km/s) = 6.24189 7.40414 6.84772
#
# Compressibility (1/GPa) = 0.02137302
#
# Stress axis : x y z
#
# Youngs Moduli (GPa) = 46.22209 33.46243 56.21356
#
# Poissons Ratio (x) = 0.24838 0.72310
# Poissons Ratio (y) = 0.34309 0.20696
# Poissons Ratio (z) = 0.59457 0.12320
#
# Static dielectric constant tensor:
#      x y z
#    x 1.660910 0.000000 0.000000 
#    y 0.000000 1.683270 0.000000 
#    z 0.000000 0.000000 1.689350 
# 
# From -- ./inp_files/13831.got.cif
#   From: 2010.05.17/outbox.cif.g08.bks.cpg/sg47_7_cif.got.tgz:13831.got - 2010.06.03 20:15:42.
