data_PCOD9387555
_publ_section_title
;
Structure prediction by ZEFSAII (Michael W. Deem and Ramdas Pophale) SiO2 
 PCOD9387555
Probable space group: P M M M
;
_chemical_formula_sum "Si O2"
_cell_formula_units_Z 48
_cell_length_a 18.700160
_cell_length_b 7.965641
_cell_length_c 15.540658
_cell_angle_alpha 90.000000
_cell_angle_beta 90.000000
_cell_angle_gamma 90.000000
_cell_volume 2314.917164
_symmetry_space_group_name_H-M "P M M M"
_symmetry_group_IT_number 47
_symmetry_cell_setting 'orthorhombic'
loop_
_space_group_symop_operation_xyz
x,y,z
-x,-y,z
x,-y,-z
-x,y,-z
-x,-y,-z
x,y,-z
-x,y,z
x,-y,z
loop_
_atom_site_type_symbol
_atom_site_label
_atom_site_fract_x
_atom_site_fract_y
_atom_site_fract_z
Si Si1 0.108567 0.300329 0.094860
Si Si2 0.580021 0.795097 0.400642
Si Si3 0.000000 0.814723 0.229818
Si Si4 0.721445 0.700087 0.094664
Si Si5 0.288159 0.801418 0.287209
Si Si6 0.158020 0.697922 0.403993
Si Si7 0.000000 0.739153 0.597347
O O1 0.095297 0.500000 0.103695
O O2 0.067965 0.206749 0.169406
O O3 0.193053 0.273737 0.097002
O O4 0.083288 0.248887 0.000000
O O5 0.590888 0.746235 0.500000
O O6 0.500000 0.741878 0.374152
O O7 0.644452 0.734657 0.341487
O O8 0.580490 0.000000 0.398237
O O9 0.000000 0.678045 0.304379
O O10 0.000000 0.000000 0.269971
O O11 0.708862 0.500000 0.095534
O O12 0.697333 0.770331 0.186312
O O13 0.696218 0.763460 0.000000
O O14 0.214924 0.729555 0.328460
O O15 0.282729 0.000000 0.300477
O O16 0.189903 0.728995 0.500000
O O17 0.137538 0.500000 0.400503
O O18 0.083568 0.800725 0.400072
O O19 0.000000 0.669471 0.500000
#
# Coordination Sequence:
#
# PCOD9387555 Si02
#       7
#     8   8   4   8   8   8   4
#     4   9  19  36  55  72  92 124 165 206 252 310
#     4   8  15  30  52  78 110 146 178 207 246 304
#     4  12  24  33  47  73  98 123 159 208 269 322
#     4   9  19  36  55  73  97 134 177 215 253 304
#     4  11  21  32  53  85 113 136 169 216 269 319
#     4  10  21  37  56  76 100 135 180 224 262 306
#     4  10  23  40  53  67  94 138 188 226 255 298
#
# _framework density 20.735084000000001
#
# number of rings (size 3 to 8) (size 9 to 14) (size 15 to 20)
#    0.000    2.333    0.000    4.250    0.000    9.167 
#    0.000    3.333    0.000    2.500    0.000    9.333 
#    0.000    0.000    0.000    0.000    0.000    0.000 
#
# Total GULP energy -267266.139538 kJ/mol
# GULP energy per Si atom -5568.044574 kJ/mol
# Density = 2.068789 g / cm^3
# Si number density = 20.735084 Si / 1000 Ang^3
#
#
#
# Elastic Constant Matrix: (Units=GPa)
#
#
# Indices 1 2 3 4 5 6 
#
# 1 99.7036 17.8037 57.2441 0.0000 0.0000 0.0000
# 2 17.8037 40.9582 25.1132 0.0000 0.0000 0.0000
# 3 57.2441 25.1132 148.7625 0.0000 0.0000 0.0000
# 4 0.0000 0.0000 0.0000 16.6420 0.0000 0.0000
# 5 0.0000 0.0000 0.0000 0.0000 29.2124 0.0000
# 6 0.0000 0.0000 0.0000 0.0000 0.0000 12.2163
#
#
#
# Elastic Compliance Matrix: (Units=1/GPa)
#
#
# Indices 1 2 3 4 5 6 
#
# 1 0.013180 -0.002922 -0.004579 0.000000 0.000000 0.000000
# 2 -0.002922 0.027882 -0.003582 0.000000 0.000000 0.000000
# 3 -0.004579 -0.003582 0.009089 0.000000 0.000000 0.000000
# 4 0.000000 0.000000 0.000000 0.060089 0.000000 0.000000
# 5 0.000000 0.000000 0.000000 0.000000 0.034232 0.000000
# 6 0.000000 0.000000 0.000000 0.000000 0.000000 0.081858
#
#
# Mechanical properties :
#
#
# Convention : Reuss Voigt Hill
#
# Bulk Modulus (GPa) = 35.73352 54.41625 45.07489
# Shear Modulus (GPa) = 19.39313 24.23171 21.81242
#
# Velocity S-wave (km/s) = 3.06155 3.42224 3.24691
# Velocity P-wave (km/s) = 5.45603 6.47427 5.98684
#
# Compressibility (1/GPa) = 0.02798493
#
# Stress axis : x y z
#
# Youngs Moduli (GPa) = 75.87135 35.86576 110.02651
#
# Poissons Ratio (x) = 0.10480 0.50376
# Poissons Ratio (y) = 0.22169 0.39417
# Poissons Ratio (z) = 0.34738 0.12849
#
# Static dielectric constant tensor:
#      x y z
#    x 1.727810 0.000000 0.000000 
#    y 0.000000 1.973700 0.000000 
#    z 0.000000 0.000000 1.743740 
# 
# From -- ./inp_files/24513.got.cif
#   From: 2010.05.17/outbox.cif.g08.bks.cpg/sg47_13_cif.got.tgz:24513.got - 2010.06.03 20:15:42.
