data_PCOD9387820
_publ_section_title
;
Structure prediction by ZEFSAII (Michael W. Deem and Ramdas Pophale) SiO2 
 PCOD9387820
Probable space group: P M M M
;
_chemical_formula_sum "Si O2"
_cell_formula_units_Z 64
_cell_length_a 7.652831
_cell_length_b 25.567873
_cell_length_c 15.406260
_cell_angle_alpha 90.000000
_cell_angle_beta 90.000000
_cell_angle_gamma 90.000000
_cell_volume 3014.490684
_symmetry_space_group_name_H-M "P M M M"
_symmetry_group_IT_number 47
_symmetry_cell_setting 'orthorhombic'
loop_
_space_group_symop_operation_xyz
x,y,z
-x,-y,z
x,-y,-z
-x,y,-z
-x,-y,-z
x,y,-z
-x,y,z
x,-y,z
loop_
_atom_site_type_symbol
_atom_site_label
_atom_site_fract_x
_atom_site_fract_y
_atom_site_fract_z
Si Si1 0.293137 0.364396 0.245773
Si Si2 0.293460 0.844267 0.901664
Si Si3 0.789347 0.558824 0.599928
Si Si4 0.787811 0.801629 0.593207
Si Si5 0.294186 0.076234 0.594181
Si Si6 0.713317 0.559615 0.096949
Si Si7 0.203235 0.244651 0.228667
Si Si8 0.286326 0.057312 0.787859
O O1 0.500000 0.359104 0.234731
O O2 0.263300 0.394450 0.336420
O O3 0.222447 0.402729 0.171489
O O4 0.219468 0.306875 0.230508
O O5 0.500000 0.854159 0.908935
O O6 0.276123 0.789398 0.850625
O O7 0.224105 0.892536 0.842796
O O8 0.221847 0.842563 0.000000
O O9 0.731843 0.566447 0.500000
O O10 0.730198 0.500000 0.628054
O O11 0.000000 0.557777 0.599455
O O12 0.733441 0.778468 0.500000
O O13 0.726475 0.861257 0.595493
O O14 0.720072 0.774234 0.679333
O O15 0.000000 0.801001 0.594481
O O16 0.221129 0.059129 0.500000
O O17 0.500000 0.062859 0.593321
O O18 0.223964 0.058886 0.687578
O O19 0.500000 0.559472 0.099112
O O20 0.769370 0.500000 0.111225
O O21 0.764987 0.575826 0.000000
O O22 0.000000 0.230929 0.228513
O O23 0.500000 0.060313 0.784466
O O24 0.241413 0.000000 0.824781
#
# Coordination Sequence:
#
# PCOD9387820 Si02
#       8
#     8   8   8   8   8   8   8   8
#     4  11  22  34  54  85 116 144 183 235 286 336
#     4  10  21  38  59  80 105 140 184 234 285 335
#     4   9  19  37  59  82 114 159 203 239 282 337
#     4   9  18  33  53  74  97 131 174 216 259 310
#     4   9  16  27  48  77 107 138 170 208 257 314
#     4   8  15  30  52  77 105 136 169 209 263 324
#     4  11  23  38  56  78 107 145 185 226 277 337
#     4   9  17  30  51  81 114 142 173 219 275 336
#
# _framework density 21.230785000000001
#
# number of rings (size 3 to 8) (size 9 to 14) (size 15 to 20)
#    0.000    2.500    1.250    1.875    0.000    3.250 
#    0.000    5.625    0.000    2.625    0.000    7.000 
#    0.000    0.000    0.000    0.000    0.000    0.000 
#
# Total GULP energy -356957.471005 kJ/mol
# GULP energy per Si atom -5577.460484 kJ/mol
# Density = 2.118246 g / cm^3
# Si number density = 21.230785 Si / 1000 Ang^3
#
#
#
# Elastic Constant Matrix: (Units=GPa)
#
#
# Indices 1 2 3 4 5 6 
#
# 1 38.3171 -11.7044 3.1685 0.0000 0.0000 0.0000
# 2 -11.7044 119.1921 90.5298 0.0000 0.0000 0.0000
# 3 3.1685 90.5298 167.2336 0.0000 0.0000 0.0000
# 4 0.0000 0.0000 0.0000 -25.2427 0.0000 0.0000
# 5 0.0000 0.0000 0.0000 0.0000 97.3371 0.0000
# 6 0.0000 0.0000 0.0000 0.0000 0.0000 47.9718
#
#
#
# Elastic Compliance Matrix: (Units=1/GPa)
#
#
# Indices 1 2 3 4 5 6 
#
# 1 0.028018 0.005357 -0.003431 0.000000 0.000000 0.000000
# 2 0.005357 0.015272 -0.008369 0.000000 0.000000 0.000000
# 3 -0.003431 -0.008369 0.010575 0.000000 0.000000 0.000000
# 4 0.000000 0.000000 0.000000 -0.039615 0.000000 0.000000
# 5 0.000000 0.000000 0.000000 0.000000 0.010274 0.000000
# 6 0.000000 0.000000 0.000000 0.000000 0.000000 0.020846
#
#
# Mechanical properties :
#
#
# Convention : Reuss Voigt Hill
#
# Bulk Modulus (GPa) = 24.40205 54.30339 39.35272
# Shear Modulus (GPa) = 69.52669 40.19650 54.86159
#
# Velocity S-wave (km/s) = 5.72880 4.35594 5.08888
# Velocity P-wave (km/s) = 7.43489 7.13668 7.28731
#
# Compressibility (1/GPa) = 0.04098017
#
# Stress axis : x y z
#
# Youngs Moduli (GPa) = 35.69120 65.47772 94.56163
#
# Poissons Ratio (x) = -0.35078 0.32443
# Poissons Ratio (y) = -0.19120 0.79139
# Poissons Ratio (z) = 0.12245 0.54798
#
# Static dielectric constant tensor:
#      x y z
#    x 1.820230 0.000000 0.000000 
#    y 0.000000 1.753300 0.000000 
#    z 0.000000 0.000000 1.792700 
# 
# From -- ./inp_files/7888.got.cif
#   From: 2010.05.17/outbox.cif.g08.bks.cpg/sg47_4_cif.got.tgz:7888.got - 2010.06.03 20:15:42.
