data_PCOD9387541
_publ_section_title
;
Structure prediction by ZEFSAII (Michael W. Deem and Ramdas Pophale) SiO2 
 PCOD9387541
Probable space group: P M M M
;
_chemical_formula_sum "Si O2"
_cell_formula_units_Z 48
_cell_length_a 7.621969
_cell_length_b 29.895985
_cell_length_c 10.333394
_cell_angle_alpha 90.000000
_cell_angle_beta 90.000000
_cell_angle_gamma 90.000000
_cell_volume 2354.631956
_symmetry_space_group_name_H-M "P M M M"
_symmetry_group_IT_number 47
_symmetry_cell_setting 'orthorhombic'
loop_
_space_group_symop_operation_xyz
x,y,z
-x,-y,z
x,-y,-z
-x,y,-z
-x,-y,-z
x,y,-z
-x,y,z
x,-y,z
loop_
_atom_site_type_symbol
_atom_site_label
_atom_site_fract_x
_atom_site_fract_y
_atom_site_fract_z
Si Si1 0.214244 0.949088 0.647785
Si Si2 0.294257 0.703166 0.353150
Si Si3 0.796615 0.392751 0.752050
Si Si4 0.711304 0.551572 0.500000
Si Si5 0.289916 0.226457 0.853457
Si Si6 0.215344 0.448035 0.000000
Si Si7 0.788424 0.123658 0.853392
O O1 0.268086 0.939377 0.500000
O O2 0.276107 0.912441 0.750042
O O3 0.000000 0.948541 0.648888
O O4 0.267116 0.000000 0.679720
O O5 0.220497 0.701559 0.500000
O O6 0.500000 0.713686 0.366690
O O7 0.283360 0.654817 0.285652
O O8 0.218180 0.740164 0.255586
O O9 0.779227 0.423860 0.626855
O O10 0.725575 0.420472 0.873961
O O11 0.000000 0.383763 0.779544
O O12 0.763563 0.500000 0.500000
O O13 0.500000 0.554497 0.500000
O O14 0.500000 0.233002 0.859711
O O15 0.257361 0.174706 0.819900
O O16 0.221424 0.234305 0.000000
O O17 0.271751 0.500000 0.000000
O O18 0.000000 0.449170 0.000000
O O19 0.000000 0.120709 0.855610
O O20 0.725086 0.115108 0.000000
#
# Coordination Sequence:
#
# PCOD9387541 Si02
#       7
#     8   8   8   4   8   4   8
#     4   8  14  25  42  66  97 131 165 202 249 304
#     4  10  21  37  55  76 106 138 171 215 262 311
#     4  11  22  37  59  85 111 142 179 219 265 315
#     4  11  23  39  59  83 113 147 181 219 262 309
#     4   9  19  35  53  72  97 136 177 210 255 314
#     4   9  20  38  57  81 113 143 173 213 260 311
#     4   9  17  29  46  71  99 125 160 211 261 300
#
# _framework density 20.385351
#
# number of rings (size 3 to 8) (size 9 to 14) (size 15 to 20)
#    0.000    2.500    0.833    1.750    1.167    3.000 
#    0.000    2.917    0.000    3.500    0.000    3.500 
#    0.000    0.000    0.000    0.000    0.000    0.000 
#
# Total GULP energy -267886.998799 kJ/mol
# GULP energy per Si atom -5580.979142 kJ/mol
# Density = 2.033895 g / cm^3
# Si number density = 20.385351 Si / 1000 Ang^3
#
#
#
# Elastic Constant Matrix: (Units=GPa)
#
#
# Indices 1 2 3 4 5 6 
#
# 1 39.7440 -3.7941 0.5268 0.0000 0.0000 0.0000
# 2 -3.7941 177.1108 138.7714 0.0000 0.0000 0.0000
# 3 0.5268 138.7714 189.8626 0.0000 0.0000 0.0000
# 4 0.0000 0.0000 0.0000 38.3188 0.0000 0.0000
# 5 0.0000 0.0000 0.0000 0.0000 -0.2063 0.0000
# 6 0.0000 0.0000 0.0000 0.0000 0.0000 24.4676
#
#
#
# Elastic Compliance Matrix: (Units=1/GPa)
#
#
# Indices 1 2 3 4 5 6 
#
# 1 0.025309 0.001398 -0.001092 0.000000 0.000000 0.000000
# 2 0.001398 0.013290 -0.009718 0.000000 0.000000 0.000000
# 3 -0.001092 -0.009718 0.012373 0.000000 0.000000 0.000000
# 4 0.000000 0.000000 0.000000 0.026097 0.000000 0.000000
# 5 0.000000 0.000000 0.000000 0.000000 -4.847150 0.000000
# 6 0.000000 0.000000 0.000000 0.000000 0.000000 0.040870
#
#
# Mechanical properties :
#
#
# Convention : Reuss Voigt Hill
#
# Bulk Modulus (GPa) = 31.10605 75.30284 53.20445
# Shear Modulus (GPa) = -1.06390 30.59692 14.76651
#
# Velocity S-wave (km/s) = -0.72321 3.87838 2.69433
# Velocity P-wave (km/s) = 3.82031 7.55484 5.98625
#
# Compressibility (1/GPa) = 0.03214809
#
# Stress axis : x y z
#
# Youngs Moduli (GPa) = 39.51176 75.24280 80.82253
#
# Poissons Ratio (x) = -0.10516 0.08823
# Poissons Ratio (y) = -0.05522 0.78542
# Poissons Ratio (z) = 0.04314 0.73120
#
# Static dielectric constant tensor:
#      x y z
#    x 1.778100 0.000000 0.000000 
#    y 0.000000 1.678480 0.000000 
#    z 0.000000 0.000000 1.725930 
# 
# From -- ./inp_files/2714.got.cif
#   From: 2010.05.17/outbox.cif.g08.bks.cpg/sg47_2_cif.got.tgz:2714.got - 2010.06.03 20:15:42.
