data_PCOD9387315
_publ_section_title
;
Structure prediction by ZEFSAII (Michael W. Deem and Ramdas Pophale) SiO2 
 PCOD9387315
Probable space group: P M M M
;
_chemical_formula_sum "Si O2"
_cell_formula_units_Z 56
_cell_length_a 21.148016
_cell_length_b 15.650358
_cell_length_c 7.368878
_cell_angle_alpha 90.000000
_cell_angle_beta 90.000000
_cell_angle_gamma 90.000000
_cell_volume 2438.907185
_symmetry_space_group_name_H-M "P M M M"
_symmetry_group_IT_number 47
_symmetry_cell_setting 'orthorhombic'
loop_
_space_group_symop_operation_xyz
x,y,z
-x,-y,z
x,-y,-z
-x,y,-z
-x,-y,-z
x,y,-z
-x,y,z
x,-y,z
loop_
_atom_site_type_symbol
_atom_site_label
_atom_site_fract_x
_atom_site_fract_y
_atom_site_fract_z
Si Si1 0.839774 0.094109 0.218287
Si Si2 0.928869 0.253272 0.285519
Si Si3 0.296611 0.363774 0.710086
Si Si4 0.158451 0.593754 0.278285
Si Si5 0.568138 0.856011 0.212018
Si Si6 0.704250 0.161749 0.779152
Si Si7 0.568077 0.651885 0.720303
O O1 0.890009 0.166188 0.265650
O O2 0.768944 0.117756 0.280743
O O3 0.857760 0.000000 0.282499
O O4 0.836641 0.092505 0.000000
O O5 0.934321 0.269301 0.500000
O O6 0.885827 0.330137 0.211980
O O7 0.000000 0.248839 0.211667
O O8 0.297462 0.390903 0.500000
O O9 0.230708 0.396467 0.787456
O O10 0.293253 0.260523 0.719106
O O11 0.365716 0.386884 0.786375
O O12 0.161102 0.599369 0.500000
O O13 0.134110 0.500000 0.231581
O O14 0.500000 0.884357 0.289532
O O15 0.637706 0.879353 0.283782
O O16 0.568192 0.752205 0.225754
O O17 0.567434 0.879942 0.000000
O O18 0.702722 0.161706 0.000000
O O19 0.569597 0.649573 0.500000
O O20 0.500000 0.615803 0.777865
#
# Coordination Sequence:
#
# PCOD9387315 Si02
#       7
#     8   8   8   8   8   8   8
#     4  10  21  36  54  76 103 136 169 200 241 295
#     4  10  21  37  57  80 103 127 160 203 247 292
#     4   9  15  25  44  66  91 125 162 199 240 286
#     4   9  17  30  50  76 103 130 161 198 242 292
#     4   8  13  21  35  58  87 118 154 196 240 282
#     4   9  16  27  45  67  93 126 163 202 241 283
#     4   8  13  20  32  55  86 118 154 195 236 278
#
# _framework density 22.961105
#
# number of rings (size 3 to 8) (size 9 to 14) (size 15 to 20)
#    0.000    3.000    1.429    0.000    0.000    1.143 
#    0.000    2.857    0.000    2.571    0.000    7.000 
#    0.000    0.000    0.000   47.571    0.000   23.143 
#
# Total GULP energy -312377.536146 kJ/mol
# GULP energy per Si atom -5578.170288 kJ/mol
# Density = 2.290884 g / cm^3
# Si number density = 22.961105 Si / 1000 Ang^3
#
#
#
# Elastic Constant Matrix: (Units=GPa)
#
#
# Indices 1 2 3 4 5 6 
#
# 1 246.2641 89.3477 8.6518 0.0000 0.0000 0.0000
# 2 89.3477 111.2221 -4.7014 0.0000 0.0000 0.0000
# 3 8.6518 -4.7014 89.1597 0.0000 0.0000 0.0000
# 4 0.0000 0.0000 0.0000 7.6370 0.0000 0.0000
# 5 0.0000 0.0000 0.0000 0.0000 3.8663 0.0000
# 6 0.0000 0.0000 0.0000 0.0000 0.0000 -16.6485
#
#
#
# Elastic Compliance Matrix: (Units=1/GPa)
#
#
# Indices 1 2 3 4 5 6 
#
# 1 0.005789 -0.004684 -0.000809 0.000000 0.000000 0.000000
# 2 -0.004684 0.012802 0.001130 0.000000 0.000000 0.000000
# 3 -0.000809 0.001130 0.011354 0.000000 0.000000 0.000000
# 4 0.000000 0.000000 0.000000 0.130942 0.000000 0.000000
# 5 0.000000 0.000000 0.000000 0.000000 0.258647 0.000000
# 6 0.000000 0.000000 0.000000 0.000000 0.000000 -0.060065
#
#
# Mechanical properties :
#
#
# Convention : Reuss Voigt Hill
#
# Bulk Modulus (GPa) = 47.13116 70.36024 58.74570
# Shear Modulus (GPa) = 13.32384 22.52746 17.92565
#
# Velocity S-wave (km/s) = 2.41151 3.13567 2.79713
# Velocity P-wave (km/s) = 5.32212 6.61964 6.00602
#
# Compressibility (1/GPa) = 0.02121739
#
# Stress axis : x y z
#
# Youngs Moduli (GPa) = 172.75224 78.11378 88.07574
#
# Poissons Ratio (x) = 0.36591 0.07123
# Poissons Ratio (y) = 0.80923 -0.09949
# Poissons Ratio (z) = 0.13971 -0.08824
#
# Static dielectric constant tensor:
#      x y z
#    x 1.886610 0.000000 0.000000 
#    y 0.000000 1.824820 0.000000 
#    z 0.000000 0.000000 1.778080 
# 
# From -- ./inp_files/7325.got.cif
#   From: 2010.05.17/outbox.cif.g08.bks.cpg/sg47_4_cif.got.tgz:7325.got - 2010.06.03 20:15:42.
