data_PCOD9388803
_publ_section_title
;
Structure prediction by ZEFSAII (Michael W. Deem and Ramdas Pophale) SiO2 
 PCOD9388803
Probable space group: P M M M
;
_chemical_formula_sum "Si O2"
_cell_formula_units_Z 52
_cell_length_a 7.555434
_cell_length_b 14.317590
_cell_length_c 24.757563
_cell_angle_alpha 90.000000
_cell_angle_beta 90.000000
_cell_angle_gamma 90.000000
_cell_volume 2678.164388
_symmetry_space_group_name_H-M "P M M M"
_symmetry_group_IT_number 47
_symmetry_cell_setting 'orthorhombic'
loop_
_space_group_symop_operation_xyz
x,y,z
-x,-y,z
x,-y,-z
-x,y,-z
-x,-y,-z
x,y,-z
-x,y,z
x,-y,z
loop_
_atom_site_type_symbol
_atom_site_label
_atom_site_fract_x
_atom_site_fract_y
_atom_site_fract_z
Si Si1 0.716226 0.396821 0.770157
Si Si2 0.796808 0.500000 0.065813
Si Si3 0.212225 0.394786 0.439224
Si Si4 0.711738 0.785680 0.832139
Si Si5 0.211718 0.703185 0.939144
Si Si6 0.716712 0.895522 0.729019
Si Si7 0.289194 0.712879 0.667021
O O1 0.500000 0.398051 0.771765
O O2 0.777943 0.500000 0.784502
O O3 0.777495 0.313222 0.808322
O O4 0.771263 0.365760 0.709838
O O5 0.715620 0.600972 0.079637
O O6 0.000000 0.500000 0.085404
O O7 0.800933 0.500000 0.000000
O O8 0.275709 0.372585 0.500000
O O9 0.276353 0.500000 0.425100
O O10 0.254105 0.320187 0.393334
O O11 0.000000 0.399526 0.441633
O O12 0.500000 0.785609 0.828181
O O13 0.754561 0.782635 0.895136
O O14 0.771647 0.863890 0.789597
O O15 0.000000 0.691575 0.942459
O O16 0.275978 0.722514 0.000000
O O17 0.500000 0.896533 0.728018
O O18 0.776143 0.813608 0.688127
O O19 0.776504 0.000000 0.716293
O O20 0.500000 0.717149 0.673147
#
# Coordination Sequence:
#
# PCOD9388803 Si02
#       7
#     8   4   8   8   8   8   8
#     4   8  14  24  37  57  88 116 134 166 219 265
#     4   7  12  24  39  53  73 109 149 171 194 245
#     4   9  18  31  45  64  96 135 162 181 216 262
#     4   9  17  27  43  66  85 109 144 178 216 265
#     4   9  17  29  43  58  82 116 147 177 216 260
#     4   8  15  30  50  70  92 116 143 182 236 285
#     4   9  16  27  47  71  89 114 155 194 224 259
#
# _framework density 19.416284000000001
#
# number of rings (size 3 to 8) (size 9 to 14) (size 15 to 20)
#    0.000    3.462    0.000    3.692    1.077    1.538 
#    0.000    3.846    0.000    5.077    0.000    6.462 
#    0.000    0.000    0.000    0.000    0.000    0.000 
#
# Total GULP energy -289633.649189 kJ/mol
# GULP energy per Si atom -5569.877869 kJ/mol
# Density = 1.937209 g / cm^3
# Si number density = 19.416284 Si / 1000 Ang^3
#
#
#
# Elastic Constant Matrix: (Units=GPa)
#
#
# Indices 1 2 3 4 5 6 
#
# 1 42.5000 4.6446 -3.0076 0.0000 0.0000 0.0000
# 2 4.6446 89.2901 44.4935 0.0000 0.0000 0.0000
# 3 -3.0076 44.4935 114.1032 0.0000 0.0000 0.0000
# 4 0.0000 0.0000 0.0000 20.2342 0.0000 0.0000
# 5 0.0000 0.0000 0.0000 0.0000 20.8424 0.0000
# 6 0.0000 0.0000 0.0000 0.0000 0.0000 -39.7626
#
#
#
# Elastic Compliance Matrix: (Units=1/GPa)
#
#
# Indices 1 2 3 4 5 6 
#
# 1 0.023838 -0.001928 0.001380 0.000000 0.000000 0.000000
# 2 -0.001928 0.014056 -0.005532 0.000000 0.000000 0.000000
# 3 0.001380 -0.005532 0.010957 0.000000 0.000000 0.000000
# 4 0.000000 0.000000 0.000000 0.049421 0.000000 0.000000
# 5 0.000000 0.000000 0.000000 0.000000 0.047979 0.000000
# 6 0.000000 0.000000 0.000000 0.000000 0.000000 -0.025149
#
#
# Mechanical properties :
#
#
# Convention : Reuss Voigt Hill
#
# Bulk Modulus (GPa) = 27.25360 37.57271 32.41316
# Shear Modulus (GPa) = 34.36601 13.58032 23.97316
#
# Velocity S-wave (km/s) = 4.21165 2.64754 3.51763
# Velocity P-wave (km/s) = 6.14147 5.36089 5.76440
#
# Compressibility (1/GPa) = 0.03669240
#
# Stress axis : x y z
#
# Youngs Moduli (GPa) = 41.95028 71.14247 91.26172
#
# Poissons Ratio (x) = 0.13714 -0.12594
# Poissons Ratio (y) = 0.08086 0.50485
# Poissons Ratio (z) = -0.05789 0.39356
#
# Static dielectric constant tensor:
#      x y z
#    x 1.739150 0.000000 0.000000 
#    y 0.000000 1.683500 0.000000 
#    z 0.000000 0.000000 1.713250 
# 
# From -- ./inp_files/30623.got.cif
#   From: 2010.05.17/outbox.cif.g08.bks.cpg/sg47_16_cif.got.tgz:30623.got - 2010.06.03 20:15:42.
