data_PCOD9388509
_publ_section_title
;
Structure prediction by ZEFSAII (Michael W. Deem and Ramdas Pophale) SiO2 
 PCOD9388509
Probable space group: P M M M
;
_chemical_formula_sum "Si O2"
_cell_formula_units_Z 52
_cell_length_a 20.011695
_cell_length_b 9.820976
_cell_length_c 16.174790
_cell_angle_alpha 90.000000
_cell_angle_beta 90.000000
_cell_angle_gamma 90.000000
_cell_volume 3178.902265
_symmetry_space_group_name_H-M "P M M M"
_symmetry_group_IT_number 47
_symmetry_cell_setting 'orthorhombic'
loop_
_space_group_symop_operation_xyz
x,y,z
-x,-y,z
x,-y,-z
-x,y,-z
-x,-y,-z
x,y,-z
-x,y,z
x,-y,z
loop_
_atom_site_type_symbol
_atom_site_label
_atom_site_fract_x
_atom_site_fract_y
_atom_site_fract_z
Si Si1 0.313539 0.163605 0.090571
Si Si2 0.925386 0.342011 0.599363
Si Si3 0.419772 0.659966 0.595318
Si Si4 0.818929 0.843826 0.686557
Si Si5 0.156796 0.156116 0.121421
Si Si6 0.663768 0.164358 0.276346
Si Si7 0.079567 0.342883 0.000000
O O1 0.233670 0.185252 0.096552
O O2 0.342656 0.208916 0.179524
O O3 0.322936 0.000000 0.089892
O O4 0.336841 0.215602 0.000000
O O5 0.924546 0.337973 0.500000
O O6 0.918368 0.500000 0.624530
O O7 0.864685 0.254146 0.633196
O O8 0.000000 0.295008 0.626086
O O9 0.401064 0.694030 0.500000
O O10 0.500000 0.673167 0.601417
O O11 0.403424 0.500000 0.608623
O O12 0.384231 0.755036 0.662097
O O13 0.845994 0.837595 0.780117
O O14 0.740283 0.810154 0.694517
O O15 0.823972 0.000000 0.657175
O O16 0.142105 0.000000 0.096631
O O17 0.109074 0.262443 0.077939
O O18 0.653578 0.000000 0.279714
O O19 0.101018 0.500000 0.000000
O O20 0.000000 0.337781 0.000000
#
# Coordination Sequence:
#
# PCOD9388509 Si02
#       7
#     8   8   8   8   8   8   4
#     4   8  13  26  51  74  94 125 161 197 240 288
#     4   9  19  35  51  66  88 124 168 206 245 300
#     4   9  19  36  55  74 101 140 178 206 240 293
#     4   9  19  33  50  75 101 123 156 204 254 298
#     4   9  17  32  51  66  85 120 160 193 233 291
#     4   9  18  31  50  80 108 128 161 209 254 296
#     4  11  23  33  41  61  93 123 154 199 250 291
#
# _framework density 16.357847
#
# number of rings (size 3 to 8) (size 9 to 14) (size 15 to 20)
#    0.000    3.000    0.769    3.000    0.000    4.308 
#    0.000   10.000    0.000    0.462    0.000    3.231 
#    0.000    0.000    0.000    0.000    0.000    0.000 
#
# Total GULP energy -289479.294004 kJ/mol
# GULP energy per Si atom -5566.909500 kJ/mol
# Density = 1.632062 g / cm^3
# Si number density = 16.357847 Si / 1000 Ang^3
#
#
#
# Elastic Constant Matrix: (Units=GPa)
#
#
# Indices 1 2 3 4 5 6 
#
# 1 48.6263 42.4488 49.2907 0.0000 0.0000 0.0000
# 2 42.4488 60.8206 50.3652 0.0000 0.0000 0.0000
# 3 49.2907 50.3652 103.5071 0.0000 0.0000 0.0000
# 4 0.0000 0.0000 0.0000 86.4751 0.0000 0.0000
# 5 0.0000 0.0000 0.0000 0.0000 53.2508 0.0000
# 6 0.0000 0.0000 0.0000 0.0000 0.0000 31.0367
#
#
#
# Elastic Compliance Matrix: (Units=1/GPa)
#
#
# Indices 1 2 3 4 5 6 
#
# 1 0.063432 -0.032254 -0.014512 0.000000 0.000000 0.000000
# 2 -0.032254 0.043938 -0.006020 0.000000 0.000000 0.000000
# 3 -0.014512 -0.006020 0.019501 0.000000 0.000000 0.000000
# 4 0.000000 0.000000 0.000000 0.011564 0.000000 0.000000
# 5 0.000000 0.000000 0.000000 0.000000 0.018779 0.000000
# 6 0.000000 0.000000 0.000000 0.000000 0.000000 0.032220
#
#
# Mechanical properties :
#
#
# Convention : Reuss Voigt Hill
#
# Bulk Modulus (GPa) = 46.95131 55.24038 51.09585
# Shear Modulus (GPa) = 16.55046 38.87582 27.71314
#
# Velocity S-wave (km/s) = 3.18429 4.88031 4.12051
# Velocity P-wave (km/s) = 6.50266 8.09937 7.34454
#
# Compressibility (1/GPa) = 0.02129866
#
# Stress axis : x y z
#
# Youngs Moduli (GPa) = 15.76500 22.75927 51.27813
#
# Poissons Ratio (x) = 0.73407 0.74417
# Poissons Ratio (y) = 0.50848 0.30871
# Poissons Ratio (z) = 0.22879 0.13702
#
# Static dielectric constant tensor:
#      x y z
#    x 1.530110 0.000000 0.000000 
#    y 0.000000 1.536310 0.000000 
#    z 0.000000 0.000000 1.574890 
# 
# From -- ./inp_files/21373.got.cif
#   From: 2010.05.17/outbox.cif.g08.bks.cpg/sg47_11_cif.got.tgz:21373.got - 2010.06.03 20:15:42.
