data_PCOD9388151
_publ_section_title
;
Structure prediction by ZEFSAII (Michael W. Deem and Ramdas Pophale) SiO2 
 PCOD9388151
Probable space group: P M M M
;
_chemical_formula_sum "Si O2"
_cell_formula_units_Z 29
_cell_length_a 7.438658
_cell_length_b 14.367482
_cell_length_c 14.797381
_cell_angle_alpha 90.000000
_cell_angle_beta 90.000000
_cell_angle_gamma 90.000000
_cell_volume 1581.466912
_symmetry_space_group_name_H-M "P M M M"
_symmetry_group_IT_number 47
_symmetry_cell_setting 'orthorhombic'
loop_
_space_group_symop_operation_xyz
x,y,z
-x,-y,z
x,-y,-z
-x,y,-z
-x,-y,-z
x,y,-z
-x,y,z
x,-y,z
loop_
_atom_site_type_symbol
_atom_site_label
_atom_site_fract_x
_atom_site_fract_y
_atom_site_fract_z
Si Si1 0.796465 0.253757 0.251085
Si Si2 0.781259 0.896035 0.604887
Si Si3 0.500000 0.397480 0.190297
Si Si4 0.282749 0.895689 0.105028
Si Si5 0.500000 0.500000 0.000000
O O1 0.722924 0.189221 0.332649
O O2 0.670971 0.338373 0.222148
O O3 0.798384 0.182464 0.167391
O O4 0.000000 0.283760 0.271997
O O5 0.730806 0.884630 0.500000
O O6 0.000000 0.896392 0.609068
O O7 0.722117 0.000000 0.634387
O O8 0.500000 0.500000 0.233158
O O9 0.500000 0.419747 0.082256
O O10 0.500000 0.890105 0.111828
O O11 0.228668 0.000000 0.132836
O O12 0.236116 0.883829 0.000000
#
# Coordination Sequence:
#
# PCOD9388151 Si02
#       5
#     8   8   4   8   1
#     4  11  21  34  59  85 107 143 189 231 278 332
#     4   8  15  30  53  84 123 159 187 221 267 323
#     4  10  24  44  60  77 107 138 180 242 294 344
#     4   9  18  31  48  73 111 151 179 211 262 326
#     4   8  24  48  66  72 108 150 176 244 310 352
#
# _framework density 18.337405
#
# number of rings (size 3 to 8) (size 9 to 14) (size 15 to 20)
#    0.414    2.207    1.379    2.483    1.931    2.759 
#    0.000    2.759    0.000    3.310    0.000    3.862 
#    0.000    0.000    0.000    0.000    0.000    0.000 
#
# Total GULP energy -161476.782125 kJ/mol
# GULP energy per Si atom -5568.164901 kJ/mol
# Density = 1.829567 g / cm^3
# Si number density = 18.337405 Si / 1000 Ang^3
#
#
#
# Elastic Constant Matrix: (Units=GPa)
#
#
# Indices 1 2 3 4 5 6 
#
# 1 81.1843 49.6431 24.8737 0.0000 0.0000 0.0000
# 2 49.6431 148.7009 69.0993 0.0000 0.0000 0.0000
# 3 24.8737 69.0993 87.7660 0.0000 0.0000 0.0000
# 4 0.0000 0.0000 0.0000 49.4937 0.0000 0.0000
# 5 0.0000 0.0000 0.0000 0.0000 21.7271 0.0000
# 6 0.0000 0.0000 0.0000 0.0000 0.0000 -18.0891
#
#
#
# Elastic Compliance Matrix: (Units=1/GPa)
#
#
# Indices 1 2 3 4 5 6 
#
# 1 0.015491 -0.004938 -0.000502 0.000000 0.000000 0.000000
# 2 -0.004938 0.012179 -0.008189 0.000000 0.000000 0.000000
# 3 -0.000502 -0.008189 0.017984 0.000000 0.000000 0.000000
# 4 0.000000 0.000000 0.000000 0.020205 0.000000 0.000000
# 5 0.000000 0.000000 0.000000 0.000000 0.046026 0.000000
# 6 0.000000 0.000000 0.000000 0.000000 0.000000 -0.055282
#
#
# Mechanical properties :
#
#
# Convention : Reuss Voigt Hill
#
# Bulk Modulus (GPa) = 54.36442 67.20925 60.78684
# Shear Modulus (GPa) = 55.56007 22.22868 38.89438
#
# Velocity S-wave (km/s) = 5.51040 3.48545 4.61047
# Velocity P-wave (km/s) = 8.37837 7.27522 7.84621
#
# Compressibility (1/GPa) = 0.01839438
#
# Stress axis : x y z
#
# Youngs Moduli (GPa) = 64.55269 82.10976 55.60604
#
# Poissons Ratio (x) = 0.40547 0.02794
# Poissons Ratio (y) = 0.31877 0.45536
# Poissons Ratio (z) = 0.03244 0.67240
#
# Static dielectric constant tensor:
#      x y z
#    x 1.724020 0.000000 0.000000 
#    y 0.000000 1.604040 0.000000 
#    z 0.000000 0.000000 1.634840 
# 
# From -- ./inp_files/20441.got.cif
#   From: 2010.05.17/outbox.cif.g08.bks.cpg/sg47_11_cif.got.tgz:20441.got - 2010.06.03 20:15:42.
