data_PCOD9388155
_publ_section_title
;
Structure prediction by ZEFSAII (Michael W. Deem and Ramdas Pophale) SiO2 
 PCOD9388155
Probable space group: P M M M
;
_chemical_formula_sum "Si O2"
_cell_formula_units_Z 41
_cell_length_a 8.135823
_cell_length_b 15.831848
_cell_length_c 15.508557
_cell_angle_alpha 90.000000
_cell_angle_beta 90.000000
_cell_angle_gamma 90.000000
_cell_volume 1997.581438
_symmetry_space_group_name_H-M "P M M M"
_symmetry_group_IT_number 47
_symmetry_cell_setting 'orthorhombic'
loop_
_space_group_symop_operation_xyz
x,y,z
-x,-y,z
x,-y,-z
-x,y,-z
-x,-y,-z
x,y,-z
-x,y,z
x,-y,z
loop_
_atom_site_type_symbol
_atom_site_label
_atom_site_fract_x
_atom_site_fract_y
_atom_site_fract_z
Si Si1 0.801774 0.594939 0.899159
Si Si2 0.806355 0.591974 0.395830
Si Si3 0.810786 0.776775 0.355840
Si Si4 0.694096 0.095414 0.500000
Si Si5 0.312180 0.235258 0.822908
Si Si6 0.000000 0.000000 0.000000
Si Si7 0.305825 0.133099 0.000000
O O1 0.753938 0.500000 0.874493
O O2 0.726131 0.667124 0.841263
O O3 0.000000 0.600671 0.894209
O O4 0.756559 0.607349 0.000000
O O5 0.800832 0.593290 0.500000
O O6 0.737307 0.500000 0.368027
O O7 0.735399 0.682219 0.366538
O O8 0.000000 0.591075 0.369849
O O9 0.739171 0.848497 0.416921
O O10 0.796146 0.798395 0.255373
O O11 0.000000 0.768808 0.382263
O O12 0.500000 0.086877 0.500000
O O13 0.766308 0.000000 0.500000
O O14 0.500000 0.224027 0.795906
O O15 0.288920 0.188354 0.913432
O O16 0.149836 0.928534 0.000000
O O17 0.500000 0.101791 0.000000
#
# Coordination Sequence:
#
# PCOD9388155 Si02
#       7
#     8   8   8   4   8   1   4
#     4   9  18  33  57  89 126 170 222 270 308 364
#     4   8  14  28  53  85 120 156 195 245 303 360
#     4  11  22  38  65  96 124 159 213 263 312 377
#     4  11  25  47  68  89 122 164 201 253 330 394
#     4  11  23  40  62  91 131 173 210 264 324 385
#     4  12  26  44  84  94 122 170 210 264 352 402
#     4  10  25  47  68  99 134 166 214 270 333 401
#
# _framework density 20.524819000000001
#
# number of rings (size 3 to 8) (size 9 to 14) (size 15 to 20)
#    0.000    2.049    1.951    2.780    2.732    1.951 
#    1.756    2.927    0.000    2.341    0.000    0.000 
#    0.000    0.000    0.000    0.000    0.000    0.000 
#
# Total GULP energy -228439.179395 kJ/mol
# GULP energy per Si atom -5571.687302 kJ/mol
# Density = 2.047810 g / cm^3
# Si number density = 20.524819 Si / 1000 Ang^3
#
#
#
# Elastic Constant Matrix: (Units=GPa)
#
#
# Indices 1 2 3 4 5 6 
#
# 1 52.7294 44.7171 14.6523 0.0000 0.0000 0.0000
# 2 44.7171 151.0227 56.5777 0.0000 0.0000 0.0000
# 3 14.6523 56.5777 90.9270 0.0000 0.0000 0.0000
# 4 0.0000 0.0000 0.0000 -0.6912 0.0000 0.0000
# 5 0.0000 0.0000 0.0000 0.0000 11.8298 0.0000
# 6 0.0000 0.0000 0.0000 0.0000 0.0000 34.2954
#
#
#
# Elastic Compliance Matrix: (Units=1/GPa)
#
#
# Indices 1 2 3 4 5 6 
#
# 1 0.025364 -0.007796 0.000764 0.000000 0.000000 0.000000
# 2 -0.007796 0.011031 -0.005607 0.000000 0.000000 0.000000
# 3 0.000764 -0.005607 0.014364 0.000000 0.000000 0.000000
# 4 0.000000 0.000000 0.000000 -1.446757 0.000000 0.000000
# 5 0.000000 0.000000 0.000000 0.000000 0.084532 0.000000
# 6 0.000000 0.000000 0.000000 0.000000 0.000000 0.029158
#
#
# Mechanical properties :
#
#
# Convention : Reuss Voigt Hill
#
# Bulk Modulus (GPa) = 39.24796 58.50816 48.87806
# Shear Modulus (GPa) = -4.00469 21.00227 8.49879
#
# Velocity S-wave (km/s) = -1.39835 3.20232 2.03709
# Velocity P-wave (km/s) = 4.06897 6.49931 5.42207
#
# Compressibility (1/GPa) = 0.02547903
#
# Stress axis : x y z
#
# Youngs Moduli (GPa) = 39.42565 90.65641 69.61962
#
# Poissons Ratio (x) = 0.70679 -0.05318
# Poissons Ratio (y) = 0.30738 0.39038
# Poissons Ratio (z) = -0.03012 0.50834
#
# Static dielectric constant tensor:
#      x y z
#    x 1.753300 0.000000 0.000000 
#    y 0.000000 1.763380 0.000000 
#    z 0.000000 0.000000 1.723700 
# 
# From -- ./inp_files/20747.got.cif
#   From: 2010.05.17/outbox.cif.g08.bks.cpg/sg47_11_cif.got.tgz:20747.got - 2010.06.03 20:15:42.
