data_PCOD9388805
_publ_section_title
;
Structure prediction by ZEFSAII (Michael W. Deem and Ramdas Pophale) SiO2 
 PCOD9388805
Probable space group: P M M M
;
_chemical_formula_sum "Si O2"
_cell_formula_units_Z 44
_cell_length_a 7.398359
_cell_length_b 14.294714
_cell_length_c 22.378641
_cell_angle_alpha 90.000000
_cell_angle_beta 90.000000
_cell_angle_gamma 90.000000
_cell_volume 2366.707469
_symmetry_space_group_name_H-M "P M M M"
_symmetry_group_IT_number 47
_symmetry_cell_setting 'orthorhombic'
loop_
_space_group_symop_operation_xyz
x,y,z
-x,-y,z
x,-y,-z
-x,y,-z
-x,-y,-z
x,y,-z
-x,y,z
x,-y,z
loop_
_atom_site_type_symbol
_atom_site_label
_atom_site_fract_x
_atom_site_fract_y
_atom_site_fract_z
Si Si1 0.279556 0.895201 0.869413
Si Si2 0.720109 0.707251 0.933450
Si Si3 0.216029 0.106029 0.629328
Si Si4 0.715752 0.790689 0.751254
Si Si5 0.791317 0.113913 0.500000
Si Si6 0.279315 0.395177 0.813506
O O1 0.500000 0.896779 0.869973
O O2 0.225617 0.812350 0.914218
O O3 0.221283 0.861831 0.803180
O O4 0.218216 0.000000 0.883070
O O5 0.500000 0.706064 0.933805
O O6 0.774898 0.638495 0.879954
O O7 0.781305 0.683477 0.000000
O O8 0.246928 0.172020 0.685531
O O9 0.287596 0.139777 0.564677
O O10 0.000000 0.099007 0.622176
O O11 0.282949 0.000000 0.641472
O O12 0.500000 0.787996 0.757492
O O13 0.780584 0.686852 0.768533
O O14 0.000000 0.146128 0.500000
O O15 0.791071 0.000000 0.500000
O O16 0.500000 0.396244 0.812723
O O17 0.218212 0.500000 0.800277
#
# Coordination Sequence:
#
# PCOD9388805 Si02
#       6
#     8   8   8   8   4   8
#     4   8  13  20  29  43  67  98 126 152 187 229
#     4   8  13  19  27  43  67  95 128 160 188 225
#     4   9  16  26  41  60  82 107 131 153 180 218
#     4   9  16  25  38  56  77 102 132 163 193 227
#     4   7  12  24  39  55  78 107 132 150 175 217
#     4   8  14  24  36  50  70  97 128 162 202 242
#
# _framework density 18.591228999999998
#
# number of rings (size 3 to 8) (size 9 to 14) (size 15 to 20)
#    0.000    3.727    0.000    3.818    0.000    1.818 
#    0.000    4.091    0.000    2.182    0.000    0.636 
#    0.000   16.727    0.000   46.545    0.000   40.727 
#
# Total GULP energy -245084.343523 kJ/mol
# GULP energy per Si atom -5570.098716 kJ/mol
# Density = 1.854891 g / cm^3
# Si number density = 18.591229 Si / 1000 Ang^3
#
#
#
# Elastic Constant Matrix: (Units=GPa)
#
#
# Indices 1 2 3 4 5 6 
#
# 1 59.6874 2.5643 -0.9721 0.0000 0.0000 0.0000
# 2 2.5643 102.7482 48.9700 0.0000 0.0000 0.0000
# 3 -0.9721 48.9700 141.7014 0.0000 0.0000 0.0000
# 4 0.0000 0.0000 0.0000 14.0581 0.0000 0.0000
# 5 0.0000 0.0000 0.0000 0.0000 14.0614 0.0000
# 6 0.0000 0.0000 0.0000 0.0000 0.0000 -0.8476
#
#
#
# Elastic Compliance Matrix: (Units=1/GPa)
#
#
# Indices 1 2 3 4 5 6 
#
# 1 0.016783 -0.000567 0.000311 0.000000 0.000000 0.000000
# 2 -0.000567 0.011671 -0.004037 0.000000 0.000000 0.000000
# 3 0.000311 -0.004037 0.008454 0.000000 0.000000 0.000000
# 4 0.000000 0.000000 0.000000 0.071134 0.000000 0.000000
# 5 0.000000 0.000000 0.000000 0.000000 0.071117 0.000000
# 6 0.000000 0.000000 0.000000 0.000000 0.000000 -1.179809
#
#
# Mechanical properties :
#
#
# Convention : Reuss Voigt Hill
#
# Bulk Modulus (GPa) = 35.30792 45.02905 40.16849
# Shear Modulus (GPa) = -5.08842 22.35936 8.63547
#
# Velocity S-wave (km/s) = -1.65618 3.47173 2.15754
# Velocity P-wave (km/s) = 3.92118 6.35167 5.27823
#
# Compressibility (1/GPa) = 0.02832225
#
# Stress axis : x y z
#
# Youngs Moduli (GPa) = 59.58274 85.68385 118.28143
#
# Poissons Ratio (x) = 0.04860 -0.03680
# Poissons Ratio (y) = 0.03379 0.47752
# Poissons Ratio (z) = -0.01854 0.34592
#
# Static dielectric constant tensor:
#      x y z
#    x 1.739090 0.000000 0.000000 
#    y 0.000000 1.623360 0.000000 
#    z 0.000000 0.000000 1.660490 
# 
# From -- ./inp_files/29452.got.cif
#   From: 2010.05.17/outbox.cif.g08.bks.cpg/sg47_15_cif.got.tgz:29452.got - 2010.06.03 20:15:42.
