data_PCOD9388735
_publ_section_title
;
Structure prediction by ZEFSAII (Michael W. Deem and Ramdas Pophale) SiO2 
 PCOD9388735
Probable space group: P M M M
;
_chemical_formula_sum "Si O2"
_cell_formula_units_Z 60
_cell_length_a 15.484663
_cell_length_b 7.344749
_cell_length_c 26.196635
_cell_angle_alpha 90.000000
_cell_angle_beta 90.000000
_cell_angle_gamma 90.000000
_cell_volume 2979.368528
_symmetry_space_group_name_H-M "P M M M"
_symmetry_group_IT_number 47
_symmetry_cell_setting 'orthorhombic'
loop_
_space_group_symop_operation_xyz
x,y,z
-x,-y,z
x,-y,-z
-x,y,-z
-x,-y,-z
x,y,-z
-x,y,z
x,-y,z
loop_
_atom_site_type_symbol
_atom_site_label
_atom_site_fract_x
_atom_site_fract_y
_atom_site_fract_z
Si Si1 0.604791 0.790097 0.000000
Si Si2 0.903396 0.212015 0.765046
Si Si3 0.403047 0.219659 0.296312
Si Si4 0.219855 0.722614 0.444347
Si Si5 0.599819 0.777269 0.111926
Si Si6 0.719987 0.777036 0.794485
Si Si7 0.901927 0.719741 0.646779
Si Si8 0.594766 0.710753 0.584493
O O1 0.628123 0.713532 0.944587
O O2 0.500000 0.791019 0.000000
O O3 0.634299 0.000000 0.000000
O O4 0.818949 0.286887 0.793089
O O5 0.883423 0.220603 0.704472
O O6 0.000000 0.290516 0.772464
O O7 0.908931 0.000000 0.779146
O O8 0.500000 0.271636 0.279152
O O9 0.330995 0.280739 0.256566
O O10 0.392286 0.284502 0.354215
O O11 0.400407 0.000000 0.298034
O O12 0.184623 0.772757 0.500000
O O13 0.221124 0.500000 0.442167
O O14 0.163983 0.784077 0.396209
O O15 0.318456 0.787456 0.439372
O O16 0.500000 0.723242 0.121278
O O17 0.664024 0.721470 0.156665
O O18 0.599189 0.000000 0.110763
O O19 0.720945 0.000000 0.793919
O O20 0.899558 0.500000 0.647254
O O21 0.000000 0.775615 0.634606
O O22 0.500000 0.791012 0.573696
O O23 0.590906 0.500000 0.568524
#
# Coordination Sequence:
#
# PCOD9388735 Si02
#       8
#     4   8   8   8   8   8   8   8
#     4   7  10  16  26  42  67  99 130 159 191 223
#     4   9  17  28  41  57  77 101 127 152 180 218
#     4   9  16  25  38  56  76  97 121 149 182 220
#     4   9  17  28  42  60  78  94 117 151 185 216
#     4   8  12  18  29  47  72 100 130 162 192 221
#     4   9  15  22  34  52  73  98 127 156 185 219
#     4   9  17  29  45  62  77  95 120 150 186 226
#     4   9  17  28  41  56  74  98 125 149 176 213
#
# _framework density 20.138496
#
# number of rings (size 3 to 8) (size 9 to 14) (size 15 to 20)
#    0.000    3.267    0.000    2.000    0.000    2.133 
#    0.000    2.667    0.000    1.600    0.000    4.200 
#    0.000    3.733    0.000    2.400    0.000   34.533 
#
# Total GULP energy -334670.256893 kJ/mol
# GULP energy per Si atom -5577.837615 kJ/mol
# Density = 2.009266 g / cm^3
# Si number density = 20.138496 Si / 1000 Ang^3
#
#
#
# Elastic Constant Matrix: (Units=GPa)
#
#
# Indices 1 2 3 4 5 6 
#
# 1 129.5453 5.2583 68.7118 0.0000 0.0000 0.0000
# 2 5.2583 76.2498 -3.1809 0.0000 0.0000 0.0000
# 3 68.7118 -3.1809 77.9029 0.0000 0.0000 0.0000
# 4 0.0000 0.0000 0.0000 -0.5663 0.0000 0.0000
# 5 0.0000 0.0000 0.0000 0.0000 24.3330 0.0000
# 6 0.0000 0.0000 0.0000 0.0000 0.0000 -5.8560
#
#
#
# Elastic Compliance Matrix: (Units=1/GPa)
#
#
# Indices 1 2 3 4 5 6 
#
# 1 0.014687 -0.001556 -0.013018 0.000000 0.000000 0.000000
# 2 -0.001556 0.013302 0.001916 0.000000 0.000000 0.000000
# 3 -0.013018 0.001916 0.024397 0.000000 0.000000 0.000000
# 4 0.000000 0.000000 0.000000 -1.765892 0.000000 0.000000
# 5 0.000000 0.000000 0.000000 0.000000 0.041096 0.000000
# 6 0.000000 0.000000 0.000000 0.000000 0.000000 -0.170765
#
#
# Mechanical properties :
#
#
# Convention : Reuss Voigt Hill
#
# Bulk Modulus (GPa) = 36.94225 47.25293 42.09759
# Shear Modulus (GPa) = -2.76421 17.77606 7.50592
#
# Velocity S-wave (km/s) = -1.17285 2.97423 1.93268
# Velocity P-wave (km/s) = 4.06815 5.94219 5.09213
#
# Compressibility (1/GPa) = 0.02706928
#
# Stress axis : x y z
#
# Youngs Moduli (GPa) = 68.08588 75.17665 40.98887
#
# Poissons Ratio (x) = 0.11697 0.53359
# Poissons Ratio (y) = 0.10594 -0.07851
# Poissons Ratio (z) = 0.88634 -0.14400
#
# Static dielectric constant tensor:
#      x y z
#    x 1.718580 0.000000 0.000000 
#    y 0.000000 1.816200 0.000000 
#    z 0.000000 0.000000 1.691700 
# 
# From -- ./inp_files/32849.got.cif
#   From: 2010.05.17/outbox.cif.g08.bks.cpg/sg47_17_cif.got.tgz:32849.got - 2010.06.03 20:15:42.
