data_PCOD9388405
_publ_section_title
;
Structure prediction by ZEFSAII (Michael W. Deem and Ramdas Pophale) SiO2 
 PCOD9388405
Probable space group: P M M M
;
_chemical_formula_sum "Si O2"
_cell_formula_units_Z 52
_cell_length_a 8.511512
_cell_length_b 14.062388
_cell_length_c 27.584504
_cell_angle_alpha 90.000000
_cell_angle_beta 90.000000
_cell_angle_gamma 90.000000
_cell_volume 3301.649534
_symmetry_space_group_name_H-M "P M M M"
_symmetry_group_IT_number 47
_symmetry_cell_setting 'orthorhombic'
loop_
_space_group_symop_operation_xyz
x,y,z
-x,-y,z
x,-y,-z
-x,y,-z
-x,-y,-z
x,y,-z
-x,y,z
x,-y,z
loop_
_atom_site_type_symbol
_atom_site_label
_atom_site_fract_x
_atom_site_fract_y
_atom_site_fract_z
Si Si1 0.310636 0.889705 0.845193
Si Si2 0.690113 0.108228 0.354126
Si Si3 0.691190 0.205361 0.253541
Si Si4 0.186990 0.295086 0.597880
Si Si5 0.688489 0.389438 0.500000
Si Si6 0.690182 0.606917 0.305449
Si Si7 0.811632 0.886855 0.052628
O O1 0.500000 0.890152 0.844442
O O2 0.253123 0.833117 0.798049
O O3 0.257691 0.849419 0.897169
O O4 0.258061 0.000000 0.841355
O O5 0.500000 0.112482 0.356278
O O6 0.736047 0.139367 0.299334
O O7 0.756520 0.188078 0.389979
O O8 0.739014 0.000000 0.364034
O O9 0.500000 0.204059 0.252127
O O10 0.740755 0.312089 0.267467
O O11 0.251730 0.336016 0.547782
O O12 0.250607 0.359403 0.642119
O O13 0.000000 0.297858 0.597542
O O14 0.741099 0.500000 0.500000
O O15 0.500000 0.388919 0.500000
O O16 0.500000 0.608070 0.306824
O O17 0.742181 0.500000 0.294447
O O18 0.000000 0.878105 0.054317
O O19 0.774710 0.000000 0.052356
O O20 0.757554 0.848757 0.000000
#
# Coordination Sequence:
#
# PCOD9388405 Si02
#       7
#     8   8   8   8   4   8   8
#     4   9  15  22  35  56  81 108 138 173 211 250
#     4   9  17  32  53  71  91 124 160 186 210 251
#     4   8  14  25  42  65  89 112 143 181 217 253
#     4  11  22  34  50  74 101 122 143 179 225 267
#     4  11  23  39  58  75  92 117 151 188 222 263
#     4   9  17  31  50  68  88 118 153 182 211 257
#     4   8  14  24  35  47  69 104 141 173 207 249
#
# _framework density 15.749703999999999
#
# number of rings (size 3 to 8) (size 9 to 14) (size 15 to 20)
#    0.000    2.846    0.000    3.923    0.000    5.231 
#    0.000    5.000    0.000    6.000    0.000    0.000 
#    0.000    0.615    0.000    7.692    0.000    1.538 
#
# Total GULP energy -289657.987890 kJ/mol
# GULP energy per Si atom -5570.345921 kJ/mol
# Density = 1.571386 g / cm^3
# Si number density = 15.749704 Si / 1000 Ang^3
#
#
#
# Elastic Constant Matrix: (Units=GPa)
#
#
# Indices 1 2 3 4 5 6 
#
# 1 12.1999 20.3690 19.8071 0.0000 0.0000 0.0000
# 2 20.3690 113.7745 72.4457 0.0000 0.0000 0.0000
# 3 19.8071 72.4457 156.3321 0.0000 0.0000 0.0000
# 4 0.0000 0.0000 0.0000 15.9647 0.0000 0.0000
# 5 0.0000 0.0000 0.0000 0.0000 506.7263 0.0000
# 6 0.0000 0.0000 0.0000 0.0000 0.0000 4.1300
#
#
#
# Elastic Compliance Matrix: (Units=1/GPa)
#
#
# Indices 1 2 3 4 5 6 
#
# 1 0.123015 -0.017164 -0.007632 0.000000 0.000000 0.000000
# 2 -0.017164 0.014863 -0.004713 0.000000 0.000000 0.000000
# 3 -0.007632 -0.004713 0.009548 0.000000 0.000000 0.000000
# 4 0.000000 0.000000 0.000000 0.062638 0.000000 0.000000
# 5 0.000000 0.000000 0.000000 0.000000 0.001973 0.000000
# 6 0.000000 0.000000 0.000000 0.000000 0.000000 0.242134
#
#
# Mechanical properties :
#
#
# Convention : Reuss Voigt Hill
#
# Bulk Modulus (GPa) = 11.31116 56.39445 33.85280
# Shear Modulus (GPa) = 9.21390 116.67650 62.94520
#
# Velocity S-wave (km/s) = 2.42134 8.61641 6.32872
# Velocity P-wave (km/s) = 3.87487 11.61355 8.65705
#
# Compressibility (1/GPa) = 0.08840827
#
# Stress axis : x y z
#
# Youngs Moduli (GPa) = 8.12909 67.28046 104.73699
#
# Poissons Ratio (x) = 1.15477 0.79937
# Poissons Ratio (y) = 0.13952 0.49364
# Poissons Ratio (z) = 0.06204 0.31710
#
# Static dielectric constant tensor:
#      x y z
#    x 1.534040 0.000000 0.000000 
#    y 0.000000 1.523900 0.000000 
#    z 0.000000 0.000000 1.532520 
# 
# From -- ./inp_files/33416.got.cif
#   From: 2010.05.17/outbox.cif.g08.bks.cpg/sg47_17_cif.got.tgz:33416.got - 2010.06.03 20:15:42.
