data_PCOD9388539
_publ_section_title
;
Structure prediction by ZEFSAII (Michael W. Deem and Ramdas Pophale) SiO2 
 PCOD9388539
Probable space group: P M M M
;
_chemical_formula_sum "Si O2"
_cell_formula_units_Z 44
_cell_length_a 30.576341
_cell_length_b 7.917941
_cell_length_c 9.279298
_cell_angle_alpha 90.000000
_cell_angle_beta 90.000000
_cell_angle_gamma 90.000000
_cell_volume 2246.533487
_symmetry_space_group_name_H-M "P M M M"
_symmetry_group_IT_number 47
_symmetry_cell_setting 'orthorhombic'
loop_
_space_group_symop_operation_xyz
x,y,z
-x,-y,z
x,-y,-z
-x,y,-z
-x,-y,-z
x,y,-z
-x,y,z
x,-y,z
loop_
_atom_site_type_symbol
_atom_site_label
_atom_site_fract_x
_atom_site_fract_y
_atom_site_fract_z
Si Si1 0.552386 0.500000 0.831752
Si Si2 0.683259 0.698790 0.166597
Si Si3 0.230344 0.795918 0.330220
Si Si4 0.133647 0.797279 0.336950
Si Si5 0.401243 0.191827 0.328396
Si Si6 0.952484 0.296697 0.165679
O O1 0.500000 0.500000 0.826170
O O2 0.570710 0.333902 0.752436
O O3 0.566204 0.500000 0.000000
O O4 0.672282 0.500000 0.170493
O O5 0.730994 0.723458 0.234457
O O6 0.647445 0.792747 0.263119
O O7 0.682021 0.754956 0.000000
O O8 0.235554 0.752035 0.500000
O O9 0.181512 0.739968 0.283514
O O10 0.232646 0.000000 0.320947
O O11 0.128403 0.733034 0.500000
O O12 0.090895 0.754718 0.247832
O O13 0.136519 0.000000 0.343186
O O14 0.400426 0.223558 0.500000
O O15 0.417283 0.000000 0.304791
O O16 0.953407 0.500000 0.165191
O O17 0.000000 0.238911 0.224691
O O18 0.949805 0.239260 0.000000
#
# Coordination Sequence:
#
# PCOD9388539 Si02
#       6
#     4   8   8   8   8   8
#     4  11  25  45  69  99 135 173 215 265 318 373
#     4  11  23  37  56  86 122 158 199 248 301 357
#     4   9  19  36  55  76 106 145 187 230 282 345
#     4   9  19  35  53  75 104 136 174 224 278 334
#     4  11  24  42  67  97 129 170 217 264 316 372
#     4   9  19  35  52  71  98 132 170 215 269 331
#
# _framework density 19.585730000000002
#
# number of rings (size 3 to 8) (size 9 to 14) (size 15 to 20)
#    0.000    2.091    0.909    3.545    0.000    9.091 
#    0.000   10.000    0.000    0.000    0.000    0.000 
#    0.000    0.000    0.000    0.000    0.000    0.000 
#
# Total GULP energy -245630.270140 kJ/mol
# GULP energy per Si atom -5582.506140 kJ/mol
# Density = 1.954115 g / cm^3
# Si number density = 19.585730 Si / 1000 Ang^3
#
#
#
# Elastic Constant Matrix: (Units=GPa)
#
#
# Indices 1 2 3 4 5 6 
#
# 1 133.0327 42.4736 69.1441 0.0000 0.0000 0.0000
# 2 42.4736 73.8053 53.9847 0.0000 0.0000 0.0000
# 3 69.1441 53.9847 110.0199 0.0000 0.0000 0.0000
# 4 0.0000 0.0000 0.0000 26.2926 0.0000 0.0000
# 5 0.0000 0.0000 0.0000 0.0000 39.1763 0.0000
# 6 0.0000 0.0000 0.0000 0.0000 0.0000 48.0322
#
#
#
# Elastic Compliance Matrix: (Units=1/GPa)
#
#
# Indices 1 2 3 4 5 6 
#
# 1 0.011359 -0.002052 -0.006132 0.000000 0.000000 0.000000
# 2 -0.002052 0.021505 -0.009263 0.000000 0.000000 0.000000
# 3 -0.006132 -0.009263 0.017488 0.000000 0.000000 0.000000
# 4 0.000000 0.000000 0.000000 0.038034 0.000000 0.000000
# 5 0.000000 0.000000 0.000000 0.000000 0.025526 0.000000
# 6 0.000000 0.000000 0.000000 0.000000 0.000000 0.020819
#
#
# Mechanical properties :
#
#
# Convention : Reuss Voigt Hill
#
# Bulk Modulus (GPa) = 64.68589 72.00697 68.34643
# Shear Modulus (GPa) = 28.60782 32.78390 30.69586
#
# Velocity S-wave (km/s) = 3.82599 4.09573 3.96315
# Velocity P-wave (km/s) = 7.25371 7.69490 7.47756
#
# Compressibility (1/GPa) = 0.01545932
#
# Stress axis : x y z
#
# Youngs Moduli (GPa) = 88.03422 46.50070 57.18129
#
# Poissons Ratio (x) = 0.09540 0.35065
# Poissons Ratio (y) = 0.18061 0.52966
# Poissons Ratio (z) = 0.53985 0.43072
#
# Static dielectric constant tensor:
#      x y z
#    x 1.695190 0.000000 0.000000 
#    y 0.000000 1.704830 0.000000 
#    z 0.000000 0.000000 1.662770 
# 
# From -- ./inp_files/13645.got.cif
#   From: 2010.05.17/outbox.cif.g08.bks.cpg/sg47_7_cif.got.tgz:13645.got - 2010.06.03 20:15:42.
