data_PCOD9388920
_publ_section_title
;
Structure prediction by ZEFSAII (Michael W. Deem and Ramdas Pophale) SiO2 
 PCOD9388920
Probable space group: P M M M
;
_chemical_formula_sum "Si O2"
_cell_formula_units_Z 48
_cell_length_a 9.409723
_cell_length_b 7.382535
_cell_length_c 33.073544
_cell_angle_alpha 90.000000
_cell_angle_beta 90.000000
_cell_angle_gamma 90.000000
_cell_volume 2297.540036
_symmetry_space_group_name_H-M "P M M M"
_symmetry_group_IT_number 47
_symmetry_cell_setting 'orthorhombic'
loop_
_space_group_symop_operation_xyz
x,y,z
-x,-y,z
x,-y,-z
-x,y,-z
-x,-y,-z
x,y,-z
-x,y,z
x,-y,z
loop_
_atom_site_type_symbol
_atom_site_label
_atom_site_fract_x
_atom_site_fract_y
_atom_site_fract_z
Si Si1 0.163450 0.278616 0.702557
Si Si2 0.336870 0.721293 0.376600
Si Si3 0.164340 0.279417 0.454785
Si Si4 0.664304 0.216372 0.956599
Si Si5 0.333733 0.720583 0.218718
Si Si6 0.337355 0.284400 0.130725
O O1 0.164531 0.500000 0.702716
O O2 0.248358 0.221765 0.662647
O O3 0.242075 0.217838 0.743346
O O4 0.000000 0.221830 0.701307
O O5 0.500000 0.778431 0.374132
O O6 0.335832 0.500000 0.376761
O O7 0.262312 0.780929 0.418050
O O8 0.208051 0.222478 0.500000
O O9 0.166363 0.500000 0.454631
O O10 0.000000 0.226246 0.448469
O O11 0.500000 0.284048 0.955068
O O12 0.732669 0.253698 0.912972
O O13 0.657854 0.000000 0.958593
O O14 0.724987 0.279534 0.000000
O O15 0.500000 0.771720 0.222492
O O16 0.330672 0.500000 0.219731
O O17 0.279940 0.779045 0.174123
O O18 0.500000 0.212975 0.128173
O O19 0.346639 0.500000 0.134237
#
# Coordination Sequence:
#
# PCOD9388920 Si02
#       6
#     8   8   8   8   8   8
#     4   9  15  21  29  40  54  72  94 121 156 200
#     4   9  15  20  26  36  49  66  90 120 155 198
#     4   8  13  20  27  33  43  61  86 119 160 202
#     4   8  13  20  29  43  66  94 119 143 174 211
#     4   8  13  21  31  42  58  79 102 129 162 200
#     4   8  13  20  30  44  62  87 117 144 172 210
#
# _framework density 20.891909999999999
#
# number of rings (size 3 to 8) (size 9 to 14) (size 15 to 20)
#    0.000    3.667    0.000    3.000    0.000    4.667 
#    0.000    3.333    0.000    0.000    0.000    0.000 
#    0.000    1.333    0.000    8.333    0.000    9.667 
#
# Total GULP energy -267375.391961 kJ/mol
# GULP energy per Si atom -5570.320666 kJ/mol
# Density = 2.084436 g / cm^3
# Si number density = 20.891910 Si / 1000 Ang^3
#
#
#
# Elastic Constant Matrix: (Units=GPa)
#
#
# Indices 1 2 3 4 5 6 
#
# 1 95.7088 2.8574 115.9985 0.0000 0.0000 0.0000
# 2 2.8574 70.6485 7.7565 0.0000 0.0000 0.0000
# 3 115.9985 7.7565 285.7811 0.0000 0.0000 0.0000
# 4 0.0000 0.0000 0.0000 58.0579 0.0000 0.0000
# 5 0.0000 0.0000 0.0000 0.0000 -11.3496 0.0000
# 6 0.0000 0.0000 0.0000 0.0000 0.0000 -10.2753
#
#
#
# Elastic Compliance Matrix: (Units=1/GPa)
#
#
# Indices 1 2 3 4 5 6 
#
# 1 0.020566 0.000085 -0.008350 0.000000 0.000000 0.000000
# 2 0.000085 0.014197 -0.000420 0.000000 0.000000 0.000000
# 3 -0.008350 -0.000420 0.006900 0.000000 0.000000 0.000000
# 4 0.000000 0.000000 0.000000 0.017224 0.000000 0.000000
# 5 0.000000 0.000000 0.000000 0.000000 -0.088109 0.000000
# 6 0.000000 0.000000 0.000000 0.000000 0.000000 -0.097320
#
#
# Mechanical properties :
#
#
# Convention : Reuss Voigt Hill
#
# Bulk Modulus (GPa) = 41.16362 78.37369 59.76865
# Shear Modulus (GPa) = -49.46863 28.98832 -10.24015
#
# Velocity S-wave (km/s) = -4.87132 3.72901 -2.21633
# Velocity P-wave (km/s) = 3.44874 7.49240 4.70331
#
# Compressibility (1/GPa) = 0.02429330
#
# Stress axis : x y z
#
# Youngs Moduli (GPa) = 48.62382 70.43625 144.93041
#
# Poissons Ratio (x) = -0.00598 1.21018
# Poissons Ratio (y) = -0.00413 0.06084
# Poissons Ratio (z) = 0.40601 0.02957
#
# Static dielectric constant tensor:
#      x y z
#    x 1.686660 0.000000 0.000000 
#    y 0.000000 1.813740 0.000000 
#    z 0.000000 0.000000 1.793680 
# 
# From -- ./inp_files/4700.got.cif
#   From: 2010.05.17/outbox.cif.g08.bks.cpg/sg47_3_cif.got.tgz:4700.got - 2010.06.03 20:15:42.
