data_PCOD9388890
_publ_section_title
;
Structure prediction by ZEFSAII (Michael W. Deem and Ramdas Pophale) SiO2 
 PCOD9388890
Probable space group: P M M M
;
_chemical_formula_sum "Si O2"
_cell_formula_units_Z 56
_cell_length_a 7.413522
_cell_length_b 19.380827
_cell_length_c 19.787883
_cell_angle_alpha 90.000000
_cell_angle_beta 90.000000
_cell_angle_gamma 90.000000
_cell_volume 2843.126737
_symmetry_space_group_name_H-M "P M M M"
_symmetry_group_IT_number 47
_symmetry_cell_setting 'orthorhombic'
loop_
_space_group_symop_operation_xyz
x,y,z
-x,-y,z
x,-y,-z
-x,y,-z
-x,-y,-z
x,y,-z
-x,y,z
x,-y,z
loop_
_atom_site_type_symbol
_atom_site_label
_atom_site_fract_x
_atom_site_fract_y
_atom_site_fract_z
Si Si1 0.219613 0.688573 0.925089
Si Si2 0.781782 0.348711 0.218936
Si Si3 0.220740 0.077685 0.211711
Si Si4 0.282786 0.714127 0.423873
Si Si5 0.219263 0.150462 0.074954
Si Si6 0.288130 0.424428 0.647751
Si Si7 0.786784 0.790896 0.708517
O O1 0.278246 0.647155 0.858731
O O2 0.270557 0.769195 0.915883
O O3 0.000000 0.687184 0.925719
O O4 0.279438 0.666382 0.000000
O O5 0.727042 0.406124 0.272922
O O6 0.716583 0.275392 0.249849
O O7 0.000000 0.347992 0.219060
O O8 0.277090 0.103971 0.137412
O O9 0.281865 0.136287 0.264329
O O10 0.000000 0.076522 0.212232
O O11 0.280982 0.000000 0.225436
O O12 0.218455 0.725236 0.500000
O O13 0.500000 0.710061 0.425651
O O14 0.213856 0.641390 0.393005
O O15 0.238772 0.773239 0.369849
O O16 0.000000 0.149723 0.075283
O O17 0.277425 0.128230 0.000000
O O18 0.500000 0.427170 0.631216
O O19 0.211047 0.500000 0.633303
O O20 0.000000 0.791514 0.722141
#
# Coordination Sequence:
#
# PCOD9388890 Si02
#       7
#     8   8   8   8   8   8   8
#     4   8  12  19  34  56  81 109 143 183 220 248
#     4   9  15  25  43  63  84 113 148 181 210 243
#     4   9  15  22  34  55  86 121 151 179 214 255
#     4   9  18  32  50  70  88 108 135 167 204 248
#     4   8  12  18  29  49  81 117 148 178 215 256
#     4   9  18  31  46  66  91 114 133 159 202 255
#     4   9  16  27  43  64  89 115 144 176 211 250
#
# _framework density 19.696625000000001
#
# number of rings (size 3 to 8) (size 9 to 14) (size 15 to 20)
#    0.000    3.286    1.429    0.857    0.000    1.143 
#    0.000    2.857    0.000    1.714    0.000   10.000 
#    0.000    0.571    0.000    1.286    0.000    1.429 
#
# Total GULP energy -312136.952080 kJ/mol
# GULP energy per Si atom -5573.874144 kJ/mol
# Density = 1.965180 g / cm^3
# Si number density = 19.696625 Si / 1000 Ang^3
#
#
#
# Elastic Constant Matrix: (Units=GPa)
#
#
# Indices 1 2 3 4 5 6 
#
# 1 61.2952 -0.9926 -11.1100 0.0000 0.0000 0.0000
# 2 -0.9926 76.2315 45.6683 0.0000 0.0000 0.0000
# 3 -11.1100 45.6683 121.7010 0.0000 0.0000 0.0000
# 4 0.0000 0.0000 0.0000 15.2750 0.0000 0.0000
# 5 0.0000 0.0000 0.0000 0.0000 26.2659 0.0000
# 6 0.0000 0.0000 0.0000 0.0000 0.0000 8.8315
#
#
#
# Elastic Compliance Matrix: (Units=1/GPa)
#
#
# Indices 1 2 3 4 5 6 
#
# 1 0.016636 -0.000894 0.001854 0.000000 0.000000 0.000000
# 2 -0.000894 0.016970 -0.006450 0.000000 0.000000 0.000000
# 3 0.001854 -0.006450 0.010806 0.000000 0.000000 0.000000
# 4 0.000000 0.000000 0.000000 0.065466 0.000000 0.000000
# 5 0.000000 0.000000 0.000000 0.000000 0.038072 0.000000
# 6 0.000000 0.000000 0.000000 0.000000 0.000000 0.113231
#
#
# Mechanical properties :
#
#
# Convention : Reuss Voigt Hill
#
# Bulk Modulus (GPa) = 29.91027 36.26211 33.08619
# Shear Modulus (GPa) = 17.64875 25.11860 21.38367
#
# Velocity S-wave (km/s) = 2.99662 3.57497 3.29850
# Velocity P-wave (km/s) = 5.21454 5.95742 5.59832
#
# Compressibility (1/GPa) = 0.03343333
#
# Stress axis : x y z
#
# Youngs Moduli (GPa) = 60.11019 58.92709 92.53803
#
# Poissons Ratio (x) = 0.05269 -0.17159
# Poissons Ratio (y) = 0.05375 0.59684
# Poissons Ratio (z) = -0.11146 0.38006
#
# Static dielectric constant tensor:
#      x y z
#    x 1.848700 0.000000 0.000000 
#    y 0.000000 1.669450 0.000000 
#    z 0.000000 0.000000 1.699700 
# 
# From -- ./inp_files/9805.got.cif
#   From: 2010.05.17/outbox.cif.g08.bks.cpg/sg47_5_cif.got.tgz:9805.got - 2010.06.03 20:15:42.
