data_PCOD9388682
_publ_section_title
;
Structure prediction by ZEFSAII (Michael W. Deem and Ramdas Pophale) SiO2 
 PCOD9388682
Probable space group: P M M M
;
_chemical_formula_sum "Si O2"
_cell_formula_units_Z 28
_cell_length_a 21.729784
_cell_length_b 7.534013
_cell_length_c 7.383917
_cell_angle_alpha 90.000000
_cell_angle_beta 90.000000
_cell_angle_gamma 90.000000
_cell_volume 1208.839328
_symmetry_space_group_name_H-M "P M M M"
_symmetry_group_IT_number 47
_symmetry_cell_setting 'orthorhombic'
loop_
_space_group_symop_operation_xyz
x,y,z
-x,-y,z
x,-y,-z
-x,y,-z
-x,-y,-z
x,y,-z
-x,y,z
x,-y,z
loop_
_atom_site_type_symbol
_atom_site_label
_atom_site_fract_x
_atom_site_fract_y
_atom_site_fract_z
Si Si1 0.568817 0.709810 0.000000
Si Si2 0.933770 0.785999 0.281944
Si Si3 0.331179 0.212556 0.295992
Si Si4 0.198642 0.209156 0.720749
O O1 0.610441 0.756291 0.827983
O O2 0.562810 0.500000 0.000000
O O3 0.500000 0.787406 0.000000
O O4 0.934061 0.760544 0.500000
O O5 0.867399 0.716516 0.218034
O O6 0.000000 0.719206 0.214085
O O7 0.933590 0.000000 0.252520
O O8 0.340566 0.279610 0.500000
O O9 0.265221 0.281499 0.222395
O O10 0.323435 0.000000 0.306059
O O11 0.199709 0.218894 0.500000
O O12 0.197083 0.000000 0.768896
#
# Coordination Sequence:
#
# PCOD9388682 Si02
#       4
#     4   8   8   8
#     4  11  25  41  55  75 104 135 166 204 253 309
#     4   7   8  10  20  44  82 124 157 185 225 279
#     4   9  18  34  57  82 106 134 169 210 254 299
#     4   7  10  18  34  59  91 124 158 196 238 284
#
# _framework density 23.162714000000001
#
# number of rings (size 3 to 8) (size 9 to 14) (size 15 to 20)
#    0.000    3.857    0.000    4.714    0.000    2.286 
#    0.000    2.857    0.000    0.000    0.000    1.000 
#    0.000    9.143    0.000   12.000    0.000    9.143 
#
# Total GULP energy -155993.448927 kJ/mol
# GULP energy per Si atom -5571.194605 kJ/mol
# Density = 2.310999 g / cm^3
# Si number density = 23.162714 Si / 1000 Ang^3
#
#
#
# Elastic Constant Matrix: (Units=GPa)
#
#
# Indices 1 2 3 4 5 6 
#
# 1 327.5625 14.2018 77.7920 0.0000 0.0000 0.0000
# 2 14.2018 56.1822 2.1694 0.0000 0.0000 0.0000
# 3 77.7920 2.1694 94.7870 0.0000 0.0000 0.0000
# 4 0.0000 0.0000 0.0000 4.7631 0.0000 0.0000
# 5 0.0000 0.0000 0.0000 0.0000 61.6378 0.0000
# 6 0.0000 0.0000 0.0000 0.0000 0.0000 96.1362
#
#
#
# Elastic Compliance Matrix: (Units=1/GPa)
#
#
# Indices 1 2 3 4 5 6 
#
# 1 0.003832 -0.000848 -0.003125 0.000000 0.000000 0.000000
# 2 -0.000848 0.018003 0.000284 0.000000 0.000000 0.000000
# 3 -0.003125 0.000284 0.013109 0.000000 0.000000 0.000000
# 4 0.000000 0.000000 0.000000 0.209946 0.000000 0.000000
# 5 0.000000 0.000000 0.000000 0.000000 0.016224 0.000000
# 6 0.000000 0.000000 0.000000 0.000000 0.000000 0.010402
#
#
# Mechanical properties :
#
#
# Convention : Reuss Voigt Hill
#
# Bulk Modulus (GPa) = 36.27913 74.09536 55.18724
# Shear Modulus (GPa) = 17.35616 58.13200 37.74408
#
# Velocity S-wave (km/s) = 2.74033 5.01515 4.04111
# Velocity P-wave (km/s) = 5.07043 8.09902 6.75660
#
# Compressibility (1/GPa) = 0.02756406
#
# Stress axis : x y z
#
# Youngs Moduli (GPa) = 260.96961 55.54745 76.28631
#
# Poissons Ratio (x) = 0.04710 0.23843
# Poissons Ratio (y) = 0.22129 -0.02166
# Poissons Ratio (z) = 0.81564 -0.01577
#
# Static dielectric constant tensor:
#      x y z
#    x 1.944990 0.000000 0.000000 
#    y 0.000000 1.889960 0.000000 
#    z 0.000000 0.000000 1.898470 
# 
# From -- ./inp_files/864.got.cif
#   From: 2010.05.17/outbox.cif.g08.bks.cpg/sg47_1_cif.got.tgz:864.got - 2010.06.03 20:15:42.
