data_PCOD9388165
_publ_section_title
;
Structure prediction by ZEFSAII (Michael W. Deem and Ramdas Pophale) SiO2 
 PCOD9388165
Probable space group: P M M M
;
_chemical_formula_sum "Si O2"
_cell_formula_units_Z 36
_cell_length_a 12.639757
_cell_length_b 13.384350
_cell_length_c 15.923358
_cell_angle_alpha 90.000000
_cell_angle_beta 90.000000
_cell_angle_gamma 90.000000
_cell_volume 2693.833001
_symmetry_space_group_name_H-M "P M M M"
_symmetry_group_IT_number 47
_symmetry_cell_setting 'orthorhombic'
loop_
_space_group_symop_operation_xyz
x,y,z
-x,-y,z
x,-y,-z
-x,y,-z
-x,-y,-z
x,y,-z
-x,y,z
x,-y,z
loop_
_atom_site_type_symbol
_atom_site_label
_atom_site_fract_x
_atom_site_fract_y
_atom_site_fract_z
Si Si1 0.627444 0.382015 0.000000
Si Si2 0.500000 0.117906 0.898678
Si Si3 0.371235 0.382251 0.314737
Si Si4 0.125531 0.884555 0.099936
Si Si5 0.378456 0.621089 0.500000
Si Si6 0.693471 0.747416 0.842596
O O1 0.676802 0.331175 0.081874
O O2 0.645023 0.500000 0.000000
O O3 0.500000 0.365698 0.000000
O O4 0.397894 0.170760 0.859300
O O5 0.500000 0.000000 0.883503
O O6 0.500000 0.132702 0.000000
O O7 0.500000 0.375297 0.312328
O O8 0.346459 0.500000 0.300796
O O9 0.333811 0.351996 0.408711
O O10 0.324511 0.311653 0.243468
O O11 0.196359 0.805396 0.148735
O O12 0.000000 0.870841 0.111985
O O13 0.151452 0.000000 0.121542
O O14 0.147613 0.873207 0.000000
O O15 0.381802 0.500000 0.500000
O O16 0.500000 0.656551 0.500000
#
# Coordination Sequence:
#
# PCOD9388165 Si02
#       6
#     4   4   8   8   4   8
#     4  11  20  28  37  58  93 123 144 160 198 260
#     4  11  20  28  38  59  88 115 139 176 217 253
#     4   9  16  26  42  64  91 118 147 173 205 253
#     4   9  18  32  48  62  79 110 151 190 220 248
#     4   7  12  24  40  60  85 114 145 181 206 234
#     4  12  17  28  42  64  87 115 142 174 215 255
#
# _framework density 13.363856
#
# number of rings (size 3 to 8) (size 9 to 14) (size 15 to 20)
#    0.000    2.111    4.444    3.333    0.000    3.556 
#    0.000    0.000    0.000    3.333    0.000    4.667 
#    0.000    4.444    0.000    0.000    0.000    0.000 
#
# Total GULP energy -200526.884117 kJ/mol
# GULP energy per Si atom -5570.191225 kJ/mol
# Density = 1.333344 g / cm^3
# Si number density = 13.363856 Si / 1000 Ang^3
#
#
#
# Elastic Constant Matrix: (Units=GPa)
#
#
# Indices 1 2 3 4 5 6 
#
# 1 39.6998 37.0391 32.2703 0.0000 0.0000 0.0000
# 2 37.0391 99.8486 62.7894 0.0000 0.0000 0.0000
# 3 32.2703 62.7894 127.2680 0.0000 0.0000 0.0000
# 4 0.0000 0.0000 0.0000 1.1898 0.0000 0.0000
# 5 0.0000 0.0000 0.0000 0.0000 10.4174 0.0000
# 6 0.0000 0.0000 0.0000 0.0000 0.0000 22.1338
#
#
#
# Elastic Compliance Matrix: (Units=1/GPa)
#
#
# Indices 1 2 3 4 5 6 
#
# 1 0.039933 -0.012245 -0.004084 0.000000 0.000000 0.000000
# 2 -0.012245 0.018275 -0.005911 0.000000 0.000000 0.000000
# 3 -0.004084 -0.005911 0.011809 0.000000 0.000000 0.000000
# 4 0.000000 0.000000 0.000000 0.840469 0.000000 0.000000
# 5 0.000000 0.000000 0.000000 0.000000 0.095993 0.000000
# 6 0.000000 0.000000 0.000000 0.000000 0.000000 0.045180
#
#
# Mechanical properties :
#
#
# Convention : Reuss Voigt Hill
#
# Bulk Modulus (GPa) = 39.15972 59.00156 49.08064
# Shear Modulus (GPa) = 4.52631 15.72938 10.12784
#
# Velocity S-wave (km/s) = 1.84237 3.43448 2.75590
# Velocity P-wave (km/s) = 5.82169 7.74425 6.85075
#
# Compressibility (1/GPa) = 0.02553644
#
# Stress axis : x y z
#
# Youngs Moduli (GPa) = 25.04172 54.72045 84.67786
#
# Poissons Ratio (x) = 0.67005 0.34586
# Poissons Ratio (y) = 0.30663 0.50055
# Poissons Ratio (z) = 0.10228 0.32346
#
# Static dielectric constant tensor:
#      x y z
#    x 1.429700 0.000000 0.000000 
#    y 0.000000 1.429750 0.000000 
#    z 0.000000 0.000000 1.444870 
# 
# From -- ./inp_files/27387.got.cif
#   From: 2010.05.17/outbox.cif.g08.bks.cpg/sg47_14_cif.got.tgz:27387.got - 2010.06.03 20:15:42.
