data_PCOD9388940
_publ_section_title
;
Structure prediction by ZEFSAII (Michael W. Deem and Ramdas Pophale) SiO2 
 PCOD9388940
Probable space group: P M M M
;
_chemical_formula_sum "Si O2"
_cell_formula_units_Z 44
_cell_length_a 7.339298
_cell_length_b 29.190925
_cell_length_c 9.614989
_cell_angle_alpha 90.000000
_cell_angle_beta 90.000000
_cell_angle_gamma 90.000000
_cell_volume 2059.923873
_symmetry_space_group_name_H-M "P M M M"
_symmetry_group_IT_number 47
_symmetry_cell_setting 'orthorhombic'
loop_
_space_group_symop_operation_xyz
x,y,z
-x,-y,z
x,-y,-z
-x,y,-z
-x,-y,-z
x,y,-z
-x,y,z
x,-y,z
loop_
_atom_site_type_symbol
_atom_site_label
_atom_site_fract_x
_atom_site_fract_y
_atom_site_fract_z
Si Si1 0.717081 0.689206 0.158454
Si Si2 0.721784 0.051823 0.659714
Si Si3 0.776920 0.500000 0.659402
Si Si4 0.217432 0.585255 0.158123
Si Si5 0.277359 0.774381 0.659902
Si Si6 0.722371 0.137802 0.840128
O O1 0.500000 0.695353 0.149964
O O2 0.748688 0.637158 0.206141
O O3 0.784067 0.728309 0.261902
O O4 0.788397 0.693630 0.000000
O O5 0.775879 0.061562 0.500000
O O6 0.500000 0.051978 0.660864
O O7 0.781504 0.091136 0.764650
O O8 0.778808 0.000000 0.695071
O O9 0.718678 0.500000 0.500000
O O10 0.716186 0.545340 0.741434
O O11 0.000000 0.500000 0.659081
O O12 0.000000 0.579798 0.150318
O O13 0.288463 0.580914 0.000000
O O14 0.218511 0.776672 0.500000
O O15 0.500000 0.774295 0.658227
O O16 0.221645 0.818500 0.749198
O O17 0.500000 0.137703 0.840868
O O18 0.780886 0.140880 0.000000
#
# Coordination Sequence:
#
# PCOD9388940 Si02
#       6
#     8   8   4   8   8   8
#     4   9  17  29  44  62  84 108 135 169 206 241
#     4   8  13  20  28  38  55  81 114 154 199 243
#     4   9  17  29  46  67  88 110 138 171 202 234
#     4   9  17  30  48  67  86 110 139 168 200 241
#     4   9  16  25  37  52  71  97 128 161 198 241
#     4   9  15  21  30  44  62  86 119 159 199 239
#
# _framework density 21.360012999999999
#
# number of rings (size 3 to 8) (size 9 to 14) (size 15 to 20)
#    0.000    3.182    0.000    1.909    0.000    6.545 
#    0.000    2.273    0.000    2.727    0.000    0.000 
#    0.000    0.000    0.000    0.000    0.000    0.909 
#
# Total GULP energy -245682.855806 kJ/mol
# GULP energy per Si atom -5583.701268 kJ/mol
# Density = 2.131140 g / cm^3
# Si number density = 21.360013 Si / 1000 Ang^3
#
#
#
# Elastic Constant Matrix: (Units=GPa)
#
#
# Indices 1 2 3 4 5 6 
#
# 1 81.9566 1.9953 6.7957 0.0000 0.0000 0.0000
# 2 1.9953 234.8894 171.1503 0.0000 0.0000 0.0000
# 3 6.7957 171.1503 192.2111 0.0000 0.0000 0.0000
# 4 0.0000 0.0000 0.0000 37.8021 0.0000 0.0000
# 5 0.0000 0.0000 0.0000 0.0000 -9.6806 0.0000
# 6 0.0000 0.0000 0.0000 0.0000 0.0000 18.4560
#
#
#
# Elastic Compliance Matrix: (Units=1/GPa)
#
#
# Indices 1 2 3 4 5 6 
#
# 1 0.012267 0.000603 -0.000971 0.000000 0.000000 0.000000
# 2 0.000603 0.012152 -0.010842 0.000000 0.000000 0.000000
# 3 -0.000971 -0.010842 0.014891 0.000000 0.000000 0.000000
# 4 0.000000 0.000000 0.000000 0.026454 0.000000 0.000000
# 5 0.000000 0.000000 0.000000 0.000000 -0.103299 0.000000
# 6 0.000000 0.000000 0.000000 0.000000 0.000000 0.054183
#
#
# Mechanical properties :
#
#
# Convention : Reuss Voigt Hill
#
# Bulk Modulus (GPa) = 59.20205 96.54884 77.87545
# Shear Modulus (GPa) = 111.86432 31.25655 71.56043
#
# Velocity S-wave (km/s) = 7.24463 3.82949 5.79438
# Velocity P-wave (km/s) = 9.88716 8.05308 9.01688
#
# Compressibility (1/GPa) = 0.01689131
#
# Stress axis : x y z
#
# Youngs Moduli (GPa) = 81.51689 82.29093 67.15551
#
# Poissons Ratio (x) = -0.04963 0.06519
# Poissons Ratio (y) = -0.04917 0.72809
# Poissons Ratio (z) = 0.07913 0.89218
#
# Static dielectric constant tensor:
#      x y z
#    x 1.852300 0.000000 0.000000 
#    y 0.000000 1.731010 0.000000 
#    z 0.000000 0.000000 1.723800 
# 
# From -- ./inp_files/2263.got.cif
#   From: 2010.05.17/outbox.cif.g08.bks.cpg/sg47_2_cif.got.tgz:2263.got - 2010.06.03 20:15:42.
