data_PCOD9388496
_publ_section_title
;
Structure prediction by ZEFSAII (Michael W. Deem and Ramdas Pophale) SiO2 
 PCOD9388496
Probable space group: P M M M
;
_chemical_formula_sum "Si O2"
_cell_formula_units_Z 44
_cell_length_a 9.808527
_cell_length_b 14.761105
_cell_length_c 16.390899
_cell_angle_alpha 90.000000
_cell_angle_beta 90.000000
_cell_angle_gamma 90.000000
_cell_volume 2373.151344
_symmetry_space_group_name_H-M "P M M M"
_symmetry_group_IT_number 47
_symmetry_cell_setting 'orthorhombic'
loop_
_space_group_symop_operation_xyz
x,y,z
-x,-y,z
x,-y,-z
-x,y,-z
-x,-y,-z
x,y,-z
-x,y,z
x,-y,z
loop_
_atom_site_type_symbol
_atom_site_label
_atom_site_fract_x
_atom_site_fract_y
_atom_site_fract_z
Si Si1 0.654193 0.500000 0.403579
Si Si2 0.500000 0.390728 0.901247
Si Si3 0.000000 0.602920 0.904764
Si Si4 0.658870 0.163151 0.410119
Si Si5 0.662827 0.100393 0.773233
Si Si6 0.240051 0.291954 0.825105
Si Si7 0.161694 0.671324 0.361314
O O1 0.500000 0.500000 0.367054
O O2 0.637627 0.500000 0.500000
O O3 0.746203 0.414382 0.382201
O O4 0.500000 0.500000 0.892233
O O5 0.373671 0.344842 0.854830
O O6 0.500000 0.372384 0.000000
O O7 0.126917 0.664737 0.881870
O O8 0.000000 0.500000 0.866891
O O9 0.000000 0.589550 0.000000
O O10 0.670802 0.118254 0.500000
O O11 0.500000 0.196075 0.405039
O O12 0.681559 0.109702 0.325424
O O13 0.767437 0.244054 0.406015
O O14 0.500000 0.107500 0.786640
O O15 0.731814 0.184219 0.820005
O O16 0.708713 0.000000 0.798204
O O17 0.187390 0.313991 0.734469
O O18 0.000000 0.662017 0.378368
#
# Coordination Sequence:
#
# PCOD9388496 Si02
#       7
#     4   4   4   8   8   8   8
#     4  11  25  39  53  77 110 153 204 255 298 343
#     4  11  24  40  63  95 125 154 194 244 303 364
#     4  11  24  42  65  91 125 160 190 238 305 368
#     4   9  18  33  54  81 113 150 198 253 303 349
#     4   9  18  35  60  89 119 158 204 251 304 351
#     4  11  22  39  62  91 122 159 198 246 295 359
#     4  11  23  35  54  80 112 158 199 243 295 359
#
# _framework density 18.540748000000001
#
# number of rings (size 3 to 8) (size 9 to 14) (size 15 to 20)
#    0.000    1.727    1.818    2.455    5.091    5.091 
#    0.000    2.273    0.000    3.273    0.000    2.545 
#    0.000    0.000    0.000    0.000    0.000    0.000 
#
# Total GULP energy -245119.279801 kJ/mol
# GULP energy per Si atom -5570.892723 kJ/mol
# Density = 1.849855 g / cm^3
# Si number density = 18.540748 Si / 1000 Ang^3
#
#
#
# Elastic Constant Matrix: (Units=GPa)
#
#
# Indices 1 2 3 4 5 6 
#
# 1 148.1497 68.2093 19.9729 0.0000 0.0000 0.0000
# 2 68.2093 156.9754 33.0057 0.0000 0.0000 0.0000
# 3 19.9729 33.0057 61.1497 0.0000 0.0000 0.0000
# 4 0.0000 0.0000 0.0000 -31.7146 0.0000 0.0000
# 5 0.0000 0.0000 0.0000 0.0000 32.0221 0.0000
# 6 0.0000 0.0000 0.0000 0.0000 0.0000 9.2015
#
#
#
# Elastic Compliance Matrix: (Units=1/GPa)
#
#
# Indices 1 2 3 4 5 6 
#
# 1 0.008480 -0.003499 -0.000881 0.000000 0.000000 0.000000
# 2 -0.003499 0.008630 -0.003515 0.000000 0.000000 0.000000
# 3 -0.000881 -0.003515 0.018538 0.000000 0.000000 0.000000
# 4 0.000000 0.000000 0.000000 -0.031531 0.000000 0.000000
# 5 0.000000 0.000000 0.000000 0.000000 0.031228 0.000000
# 6 0.000000 0.000000 0.000000 0.000000 0.000000 0.108677
#
#
# Mechanical properties :
#
#
# Convention : Reuss Voigt Hill
#
# Bulk Modulus (GPa) = 50.35912 67.62784 58.99348
# Shear Modulus (GPa) = 30.04211 18.24094 24.14152
#
# Velocity S-wave (km/s) = 4.02970 3.14001 3.61235
# Velocity P-wave (km/s) = 6.99082 7.04987 7.02041
#
# Compressibility (1/GPa) = 0.01985738
#
# Stress axis : x y z
#
# Youngs Moduli (GPa) = 117.92636 115.87338 53.94235
#
# Poissons Ratio (x) = 0.40550 0.04752
# Poissons Ratio (y) = 0.41268 0.18961
# Poissons Ratio (z) = 0.10388 0.40731
#
# Static dielectric constant tensor:
#      x y z
#    x 1.714040 0.000000 0.000000 
#    y 0.000000 1.646280 0.000000 
#    z 0.000000 0.000000 1.643250 
# 
# From -- ./inp_files/9034.got.cif
#   From: 2010.05.17/outbox.cif.g08.bks.cpg/sg47_5_cif.got.tgz:9034.got - 2010.06.03 20:15:42.
