data_PCOD9388364
_publ_section_title
;
Structure prediction by ZEFSAII (Michael W. Deem and Ramdas Pophale) SiO2 
 PCOD9388364
Probable space group: P M M M
;
_chemical_formula_sum "Si O2"
_cell_formula_units_Z 48
_cell_length_a 8.539036
_cell_length_b 21.091100
_cell_length_c 14.535320
_cell_angle_alpha 90.000000
_cell_angle_beta 90.000000
_cell_angle_gamma 90.000000
_cell_volume 2617.777151
_symmetry_space_group_name_H-M "P M M M"
_symmetry_group_IT_number 47
_symmetry_cell_setting 'orthorhombic'
loop_
_space_group_symop_operation_xyz
x,y,z
-x,-y,z
x,-y,-z
-x,y,-z
-x,-y,-z
x,y,-z
-x,y,z
x,-y,z
loop_
_atom_site_type_symbol
_atom_site_label
_atom_site_fract_x
_atom_site_fract_y
_atom_site_fract_z
Si Si1 0.312537 0.250887 0.393811
Si Si2 0.809374 0.073654 0.897191
Si Si3 0.812170 0.126044 0.706012
Si Si4 0.809088 0.500000 0.394165
Si Si5 0.686522 0.000000 0.390770
Si Si6 0.311137 0.573614 0.104733
Si Si7 0.812569 0.626650 0.288128
O O1 0.256448 0.252646 0.500000
O O2 0.500000 0.251611 0.395061
O O3 0.256577 0.187148 0.343866
O O4 0.252700 0.311552 0.337929
O O5 0.758436 0.116559 0.811954
O O6 0.000000 0.074078 0.897383
O O7 0.763207 0.000000 0.881582
O O8 0.757734 0.092292 0.000000
O O9 0.000000 0.130498 0.705274
O O10 0.760686 0.062567 0.653332
O O11 0.758239 0.500000 0.500000
O O12 0.757546 0.563470 0.342164
O O13 0.000000 0.500000 0.393364
O O14 0.500000 0.000000 0.374316
O O15 0.712977 0.000000 0.500000
O O16 0.500000 0.575667 0.109506
O O17 0.263566 0.500000 0.121279
O O18 0.240997 0.617690 0.183173
O O19 0.265279 0.589888 0.000000
O O20 0.000000 0.628630 0.291707
#
# Coordination Sequence:
#
# PCOD9388364 Si02
#       7
#     8   8   8   4   4   8   8
#     4  11  25  43  59  78 112 158 198 235 289 353
#     4   8  14  28  53  85 117 144 174 220 278 334
#     4  11  21  36  60  88 112 144 192 241 287 335
#     4   9  18  32  52  81 114 142 177 233 294 343
#     4  11  23  37  54  79 114 152 187 231 288 347
#     4   9  18  34  57  85 119 157 192 231 284 344
#     4  11  21  36  59  87 116 149 190 241 294 342
#
# _framework density 18.336165999999999
#
# number of rings (size 3 to 8) (size 9 to 14) (size 15 to 20)
#    0.000    2.000    1.667    3.750    0.000    5.000 
#    0.000    1.667    0.000    7.500    0.000    0.000 
#    0.000    0.000    0.000    0.000    0.000    0.000 
#
# Total GULP energy -267991.865810 kJ/mol
# GULP energy per Si atom -5583.163871 kJ/mol
# Density = 1.829443 g / cm^3
# Si number density = 18.336166 Si / 1000 Ang^3
#
#
#
# Elastic Constant Matrix: (Units=GPa)
#
#
# Indices 1 2 3 4 5 6 
#
# 1 34.6804 32.8061 41.9371 0.0000 0.0000 0.0000
# 2 32.8061 153.7237 99.5780 0.0000 0.0000 0.0000
# 3 41.9371 99.5780 183.5908 0.0000 0.0000 0.0000
# 4 0.0000 0.0000 0.0000 28.3310 0.0000 0.0000
# 5 0.0000 0.0000 0.0000 0.0000 24.1866 0.0000
# 6 0.0000 0.0000 0.0000 0.0000 0.0000 23.1027
#
#
#
# Elastic Compliance Matrix: (Units=1/GPa)
#
#
# Indices 1 2 3 4 5 6 
#
# 1 0.041518 -0.004189 -0.007212 0.000000 0.000000 0.000000
# 2 -0.004189 0.010451 -0.004712 0.000000 0.000000 0.000000
# 3 -0.007212 -0.004712 0.009650 0.000000 0.000000 0.000000
# 4 0.000000 0.000000 0.000000 0.035297 0.000000 0.000000
# 5 0.000000 0.000000 0.000000 0.000000 0.041345 0.000000
# 6 0.000000 0.000000 0.000000 0.000000 0.000000 0.043285
#
#
# Mechanical properties :
#
#
# Convention : Reuss Voigt Hill
#
# Bulk Modulus (GPa) = 34.02012 80.07083 57.04547
# Shear Modulus (GPa) = 22.36438 28.30230 25.33334
#
# Velocity S-wave (km/s) = 3.49619 3.93303 3.72103
# Velocity P-wave (km/s) = 5.90691 8.02422 7.04555
#
# Compressibility (1/GPa) = 0.02939437
#
# Stress axis : x y z
#
# Youngs Moduli (GPa) = 24.08589 95.68177 103.62689
#
# Poissons Ratio (x) = 0.40078 0.74736
# Poissons Ratio (y) = 0.10089 0.48828
# Poissons Ratio (z) = 0.17371 0.45084
#
# Static dielectric constant tensor:
#      x y z
#    x 1.629200 0.000000 0.000000 
#    y 0.000000 1.598140 0.000000 
#    z 0.000000 0.000000 1.644890 
# 
# From -- ./inp_files/21067.got.cif
#   From: 2010.05.17/outbox.cif.g08.bks.cpg/sg47_11_cif.got.tgz:21067.got - 2010.06.03 20:15:42.
