data_PCOD9388251
_publ_section_title
;
Structure prediction by ZEFSAII (Michael W. Deem and Ramdas Pophale) SiO2 
 PCOD9388251
Probable space group: P M M M
;
_chemical_formula_sum "Si O2"
_cell_formula_units_Z 48
_cell_length_a 9.275415
_cell_length_b 23.976919
_cell_length_c 17.330718
_cell_angle_alpha 90.000000
_cell_angle_beta 90.000000
_cell_angle_gamma 90.000000
_cell_volume 3854.280179
_symmetry_space_group_name_H-M "P M M M"
_symmetry_group_IT_number 47
_symmetry_cell_setting 'orthorhombic'
loop_
_space_group_symop_operation_xyz
x,y,z
-x,-y,z
x,-y,-z
-x,y,-z
-x,-y,-z
x,y,-z
-x,y,z
x,-y,z
loop_
_atom_site_type_symbol
_atom_site_label
_atom_site_fract_x
_atom_site_fract_y
_atom_site_fract_z
Si Si1 0.165790 0.828216 0.093978
Si Si2 0.327071 0.601338 0.823065
Si Si3 0.328130 0.283998 0.909755
Si Si4 0.331681 0.061825 0.906249
Si Si5 0.824987 0.435551 0.500000
Si Si6 0.830983 0.500000 0.907551
Si Si7 0.828792 0.567664 0.669933
O O1 0.248036 0.771908 0.116708
O O2 0.241851 0.885068 0.120959
O O3 0.000000 0.826567 0.117721
O O4 0.170265 0.829217 0.000000
O O5 0.500000 0.593214 0.824355
O O6 0.294422 0.661592 0.859743
O O7 0.248773 0.553888 0.873398
O O8 0.264272 0.594548 0.737338
O O9 0.500000 0.274505 0.906601
O O10 0.290834 0.294499 0.000000
O O11 0.500000 0.067914 0.885773
O O12 0.281755 0.000000 0.881358
O O13 0.325428 0.061975 0.000000
O O14 0.777086 0.500000 0.500000
O O15 0.783863 0.412559 0.416145
O O16 0.000000 0.436318 0.500000
O O17 0.000000 0.500000 0.884363
O O18 0.823281 0.500000 0.000000
O O19 0.812414 0.500000 0.673334
O O20 0.000000 0.578635 0.680596
#
# Coordination Sequence:
#
# PCOD9388251 Si02
#       7
#     8   8   8   8   4   4   8
#     4   9  16  24  35  51  68  86 112 150 189 218
#     4  11  21  31  44  60  77  95 119 153 192 229
#     4   9  18  31  42  50  65  94 127 154 184 224
#     4   8  13  21  33  48  66  89 114 139 173 219
#     4   7  12  24  43  63  79  99 120 136 163 214
#     4  11  23  35  45  56  71  94 123 155 192 231
#     4   9  16  28  45  62  80  99 119 142 175 220
#
# _framework density 12.453687
#
# number of rings (size 3 to 8) (size 9 to 14) (size 15 to 20)
#    0.000    2.833    0.833    3.250    0.000    5.000 
#    0.000    3.750    0.000    1.500    0.000    0.000 
#    0.000    0.000    0.000    0.000    0.000    0.000 
#
# Total GULP energy -267204.023287 kJ/mol
# GULP energy per Si atom -5566.750485 kJ/mol
# Density = 1.242534 g / cm^3
# Si number density = 12.453687 Si / 1000 Ang^3
#
#
#
# Elastic Constant Matrix: (Units=GPa)
#
#
# Indices 1 2 3 4 5 6 
#
# 1 58.4871 62.3425 34.0284 0.0000 0.0000 0.0000
# 2 62.3425 112.7512 39.4447 0.0000 0.0000 0.0000
# 3 34.0284 39.4447 62.6899 0.0000 0.0000 0.0000
# 4 0.0000 0.0000 0.0000 0.7117 0.0000 0.0000
# 5 0.0000 0.0000 0.0000 0.0000 10.6700 0.0000
# 6 0.0000 0.0000 0.0000 0.0000 0.0000 -1.0083
#
#
#
# Elastic Compliance Matrix: (Units=1/GPa)
#
#
# Indices 1 2 3 4 5 6 
#
# 1 0.047703 -0.022205 -0.011922 0.000000 0.000000 0.000000
# 2 -0.022205 0.021709 -0.001606 0.000000 0.000000 0.000000
# 3 -0.011922 -0.001606 0.023433 0.000000 0.000000 0.000000
# 4 0.000000 0.000000 0.000000 1.405164 0.000000 0.000000
# 5 0.000000 0.000000 0.000000 0.000000 0.093721 0.000000
# 6 0.000000 0.000000 0.000000 0.000000 0.000000 -0.991768
#
#
# Mechanical properties :
#
#
# Convention : Reuss Voigt Hill
#
# Bulk Modulus (GPa) = 46.77546 56.17327 51.47437
# Shear Modulus (GPa) = 7.36861 8.61551 7.99206
#
# Velocity S-wave (km/s) = 2.43509 2.63307 2.53601
# Velocity P-wave (km/s) = 6.74887 7.37887 7.07089
#
# Compressibility (1/GPa) = 0.02137873
#
# Stress axis : x y z
#
# Youngs Moduli (GPa) = 20.96299 46.06449 42.67429
#
# Poissons Ratio (x) = 1.02288 0.50876
# Poissons Ratio (y) = 0.46549 0.06854
# Poissons Ratio (z) = 0.24992 0.07398
#
# Static dielectric constant tensor:
#      x y z
#    x 1.414080 0.000000 0.000000 
#    y 0.000000 1.398150 0.000000 
#    z 0.000000 0.000000 1.396600 
# 
# From -- ./inp_files/26914.got.cif
#   From: 2010.05.17/outbox.cif.g08.bks.cpg/sg47_14_cif.got.tgz:26914.got - 2010.06.03 20:15:42.
