data_PCOD9388931
_publ_section_title
;
Structure prediction by ZEFSAII (Michael W. Deem and Ramdas Pophale) SiO2 
 PCOD9388931
Probable space group: P M M M
;
_chemical_formula_sum "Si O2"
_cell_formula_units_Z 52
_cell_length_a 7.317419
_cell_length_b 34.299459
_cell_length_c 9.899914
_cell_angle_alpha 90.000000
_cell_angle_beta 90.000000
_cell_angle_gamma 90.000000
_cell_volume 2484.715194
_symmetry_space_group_name_H-M "P M M M"
_symmetry_group_IT_number 47
_symmetry_cell_setting 'orthorhombic'
loop_
_space_group_symop_operation_xyz
x,y,z
-x,-y,z
x,-y,-z
-x,y,-z
-x,-y,-z
x,y,-z
-x,y,z
x,-y,z
loop_
_atom_site_type_symbol
_atom_site_label
_atom_site_fract_x
_atom_site_fract_y
_atom_site_fract_z
Si Si1 0.716989 0.201359 0.346195
Si Si2 0.218742 0.887285 0.346632
Si Si3 0.276724 0.500000 0.844757
Si Si4 0.722376 0.570021 0.653784
Si Si5 0.723474 0.729074 0.155374
Si Si6 0.222663 0.956399 0.844287
Si Si7 0.722260 0.658939 0.653808
O O1 0.789570 0.205215 0.500000
O O2 0.500000 0.207565 0.355486
O O3 0.744870 0.156853 0.300398
O O4 0.784963 0.233367 0.241113
O O5 0.288450 0.890835 0.500000
O O6 0.286993 0.921395 0.249909
O O7 0.000000 0.891325 0.352144
O O8 0.500000 0.500000 0.844963
O O9 0.218166 0.461796 0.761886
O O10 0.218183 0.500000 0.000000
O O11 0.777150 0.560088 0.500000
O O12 0.500000 0.569859 0.654577
O O13 0.779174 0.614485 0.682388
O O14 0.500000 0.729206 0.153866
O O15 0.780999 0.690574 0.237220
O O16 0.782422 0.729585 0.000000
O O17 0.000000 0.955950 0.843058
O O18 0.277625 0.000000 0.800329
O O19 0.277813 0.951053 0.000000
O O20 0.777419 0.669052 0.500000
O O21 0.500000 0.659090 0.654085
#
# Coordination Sequence:
#
# PCOD9388931 Si02
#       7
#     8   8   4   8   8   8   8
#     4   9  17  29  43  57  77 106 133 156 190 237
#     4   9  17  28  43  64  85 103 129 166 199 224
#     4   9  15  19  23  33  49  69  95 131 176 221
#     4   8  13  20  28  36  48  70 100 133 171 218
#     4   9  16  24  35  52  71  90 116 152 189 223
#     4   8  14  25  41  61  84 108 132 158 191 231
#     4   8  13  21  32  44  58  79 108 142 182 226
#
# _framework density 20.927952999999999
#
# number of rings (size 3 to 8) (size 9 to 14) (size 15 to 20)
#    0.000    3.462    0.000    2.077    0.000    4.308 
#    0.000    4.615    0.000    0.462    0.000    3.231 
#    0.000    0.000    0.000    0.000    0.000    0.000 
#
# Total GULP energy -290177.417154 kJ/mol
# GULP energy per Si atom -5580.334945 kJ/mol
# Density = 2.088032 g / cm^3
# Si number density = 20.927953 Si / 1000 Ang^3
#
#
#
# Elastic Constant Matrix: (Units=GPa)
#
#
# Indices 1 2 3 4 5 6 
#
# 1 83.8648 2.3707 6.6263 0.0000 0.0000 0.0000
# 2 2.3707 212.3242 164.4732 0.0000 0.0000 0.0000
# 3 6.6263 164.4732 174.5857 0.0000 0.0000 0.0000
# 4 0.0000 0.0000 0.0000 44.1734 0.0000 0.0000
# 5 0.0000 0.0000 0.0000 0.0000 -12.0187 0.0000
# 6 0.0000 0.0000 0.0000 0.0000 0.0000 5.6231
#
#
#
# Elastic Compliance Matrix: (Units=1/GPa)
#
#
# Indices 1 2 3 4 5 6 
#
# 1 0.011997 0.000810 -0.001218 0.000000 0.000000 0.000000
# 2 0.000810 0.017483 -0.016501 0.000000 0.000000 0.000000
# 3 -0.001218 -0.016501 0.021319 0.000000 0.000000 0.000000
# 4 0.000000 0.000000 0.000000 0.022638 0.000000 0.000000
# 5 0.000000 0.000000 0.000000 0.000000 -0.083203 0.000000
# 6 0.000000 0.000000 0.000000 0.000000 0.000000 0.177838
#
#
# Mechanical properties :
#
#
# Convention : Reuss Voigt Hill
#
# Bulk Modulus (GPa) = 58.89066 90.85722 74.87394
# Shear Modulus (GPa) = 24.09042 27.37585 25.73313
#
# Velocity S-wave (km/s) = 3.39648 3.62069 3.51038
# Velocity P-wave (km/s) = 6.60169 7.80946 7.23084
#
# Compressibility (1/GPa) = 0.01698062
#
# Stress axis : x y z
#
# Youngs Moduli (GPa) = 83.35201 57.19840 46.90573
#
# Poissons Ratio (x) = -0.04631 0.05713
# Poissons Ratio (y) = -0.06748 0.77399
# Poissons Ratio (z) = 0.10152 0.94383
#
# Static dielectric constant tensor:
#      x y z
#    x 1.926280 0.000000 0.000000 
#    y 0.000000 1.717320 0.000000 
#    z 0.000000 0.000000 1.707140 
# 
# From -- ./inp_files/4836.got.cif
#   From: 2010.05.17/outbox.cif.g08.bks.cpg/sg47_3_cif.got.tgz:4836.got - 2010.06.03 20:15:42.
