data_PCOD9388044
_publ_section_title
;
Structure prediction by ZEFSAII (Michael W. Deem and Ramdas Pophale) SiO2 
 PCOD9388044
Probable space group: P M M M
;
_chemical_formula_sum "Si O2"
_cell_formula_units_Z 40
_cell_length_a 7.740506
_cell_length_b 30.795670
_cell_length_c 8.828778
_cell_angle_alpha 90.000000
_cell_angle_beta 90.000000
_cell_angle_gamma 90.000000
_cell_volume 2104.551731
_symmetry_space_group_name_H-M "P M M M"
_symmetry_group_IT_number 47
_symmetry_cell_setting 'orthorhombic'
loop_
_space_group_symop_operation_xyz
x,y,z
-x,-y,z
x,-y,-z
-x,y,-z
-x,-y,-z
x,y,-z
-x,y,z
x,-y,z
loop_
_atom_site_type_symbol
_atom_site_label
_atom_site_fract_x
_atom_site_fract_y
_atom_site_fract_z
Si Si1 0.500000 0.108629 0.820088
Si Si2 0.793451 0.640249 0.827644
Si Si3 0.800143 0.269788 0.682132
Si Si4 0.201047 0.050442 0.318011
Si Si5 0.500000 0.204439 0.316559
Si Si6 0.707461 0.453319 0.823550
O O1 0.667119 0.082361 0.762062
O O2 0.500000 0.156778 0.751826
O O3 0.500000 0.110584 0.000000
O O4 0.736693 0.683453 0.741900
O O5 0.755715 0.593184 0.755657
O O6 0.000000 0.643086 0.835651
O O7 0.723470 0.640538 0.000000
O O8 0.799894 0.271285 0.500000
O O9 0.669241 0.232025 0.729563
O O10 0.000000 0.262676 0.731070
O O11 0.220151 0.054510 0.500000
O O12 0.000000 0.059155 0.281500
O O13 0.237581 0.000000 0.279441
O O14 0.500000 0.201311 0.500000
O O15 0.500000 0.454425 0.825440
O O16 0.767171 0.500000 0.759112
O O17 0.767290 0.452272 0.000000
#
# Coordination Sequence:
#
# PCOD9388044 Si02
#       6
#     4   8   8   8   4   8
#     4  12  25  37  54  87 126 157 187 234 295 347
#     4   9  17  28  45  70  94 119 155 199 248 302
#     4   9  19  36  55  74  97 126 165 216 268 316
#     4   9  19  38  64  90 117 157 206 245 276 320
#     4  10  22  39  57  76  99 138 188 225 263 324
#     4   8  14  24  38  60  91 124 155 188 231 288
#
# _framework density 19.006422000000001
#
# number of rings (size 3 to 8) (size 9 to 14) (size 15 to 20)
#    0.000    2.800    0.000    2.400    1.400    4.000 
#    0.000    5.000    0.000    0.600    0.000    4.200 
#    0.000    0.000    0.000    0.000    0.000    0.000 
#
# Total GULP energy -222946.591534 kJ/mol
# GULP energy per Si atom -5573.664788 kJ/mol
# Density = 1.896316 g / cm^3
# Si number density = 19.006422 Si / 1000 Ang^3
#
#
#
# Elastic Constant Matrix: (Units=GPa)
#
#
# Indices 1 2 3 4 5 6 
#
# 1 87.7305 96.6193 33.2318 0.0000 0.0000 0.0000
# 2 96.6193 214.5101 52.3732 0.0000 0.0000 0.0000
# 3 33.2318 52.3732 18.5241 0.0000 0.0000 0.0000
# 4 0.0000 0.0000 0.0000 27.1346 0.0000 0.0000
# 5 0.0000 0.0000 0.0000 0.0000 -0.3162 0.0000
# 6 0.0000 0.0000 0.0000 0.0000 0.0000 -110.7170
#
#
#
# Elastic Compliance Matrix: (Units=1/GPa)
#
#
# Indices 1 2 3 4 5 6 
#
# 1 0.035705 -0.001431 -0.060008 0.000000 0.000000 0.000000
# 2 -0.001431 0.015110 -0.040152 0.000000 0.000000 0.000000
# 3 -0.060008 -0.040152 0.275156 0.000000 0.000000 0.000000
# 4 0.000000 0.000000 0.000000 0.036853 0.000000 0.000000
# 5 0.000000 0.000000 0.000000 0.000000 -3.163040 0.000000
# 6 0.000000 0.000000 0.000000 0.000000 0.000000 -0.009032
#
#
# Mechanical properties :
#
#
# Convention : Reuss Voigt Hill
#
# Bulk Modulus (GPa) = 8.14399 76.13482 42.13941
# Shear Modulus (GPa) = -1.94921 -7.54368 -4.74645
#
# Velocity S-wave (km/s) = -1.01380 -1.99440 -1.58199
# Velocity P-wave (km/s) = 1.70991 5.90262 4.34538
#
# Compressibility (1/GPa) = 0.12278991
#
# Stress axis : x y z
#
# Youngs Moduli (GPa) = 28.00691 66.18312 3.63430
#
# Poissons Ratio (x) = 0.09473 0.21809
# Poissons Ratio (y) = 0.04009 0.14592
# Poissons Ratio (z) = 1.68063 2.65735
#
# Static dielectric constant tensor:
#      x y z
#    x 1.673180 0.000000 0.000000 
#    y 0.000000 1.667050 0.000000 
#    z 0.000000 0.000000 1.654910 
# 
# From -- ./inp_files/1719.got.cif
#   From: 2010.05.17/outbox.cif.g08.bks.cpg/sg47_1_cif.got.tgz:1719.got - 2010.06.03 20:15:42.
