data_PCOD9388855
_publ_section_title
;
Structure prediction by ZEFSAII (Michael W. Deem and Ramdas Pophale) SiO2 
 PCOD9388855
Probable space group: P M M M
;
_chemical_formula_sum "Si O2"
_cell_formula_units_Z 44
_cell_length_a 32.008364
_cell_length_b 9.711080
_cell_length_c 7.456330
_cell_angle_alpha 90.000000
_cell_angle_beta 90.000000
_cell_angle_gamma 90.000000
_cell_volume 2317.694177
_symmetry_space_group_name_H-M "P M M M"
_symmetry_group_IT_number 47
_symmetry_cell_setting 'orthorhombic'
loop_
_space_group_symop_operation_xyz
x,y,z
-x,-y,z
x,-y,-z
-x,y,-z
-x,-y,-z
x,y,-z
-x,y,z
x,-y,z
loop_
_atom_site_type_symbol
_atom_site_label
_atom_site_fract_x
_atom_site_fract_y
_atom_site_fract_z
Si Si1 0.384679 0.836570 0.212941
Si Si2 0.787355 0.656487 0.285883
Si Si3 0.547396 0.832898 0.500000
Si Si4 0.306061 0.657069 0.785361
Si Si5 0.863966 0.159923 0.280444
Si Si6 0.044913 0.835034 0.284030
O O1 0.425154 0.794288 0.326761
O O2 0.344002 0.752506 0.275330
O O3 0.377799 0.000000 0.240547
O O4 0.390903 0.814848 0.000000
O O5 0.792535 0.649004 0.500000
O O6 0.789203 0.500000 0.214902
O O7 0.740513 0.710265 0.254048
O O8 0.824865 0.750789 0.217766
O O9 0.500000 0.780562 0.500000
O O10 0.545128 0.000000 0.500000
O O11 0.309014 0.500000 0.715674
O O12 0.309454 0.650716 0.000000
O O13 0.864234 0.161123 0.500000
O O14 0.909667 0.214554 0.221383
O O15 0.859785 0.000000 0.227753
O O16 0.044427 0.817351 0.500000
O O17 0.000000 0.781524 0.216284
O O18 0.045201 0.000000 0.251733
#
# Coordination Sequence:
#
# PCOD9388855 Si02
#       6
#     8   8   4   8   8   8
#     4   9  18  32  50  73  99 126 158 197 236 271
#     4   9  17  27  39  57  81 109 138 170 213 263
#     4   9  18  32  51  77 105 131 161 195 232 277
#     4   9  18  32  48  65  87 118 153 186 223 269
#     4   8  13  21  33  51  75 102 134 170 208 253
#     4   7   9  14  26  44  66  94 128 164 201 245
#
# _framework density 18.984386000000001
#
# number of rings (size 3 to 8) (size 9 to 14) (size 15 to 20)
#    0.000    3.545    0.000    1.636    1.273    1.091 
#    0.000    1.818    0.000    1.636    0.000    6.364 
#    0.000    0.727    0.000    9.091    0.000    8.364 
#
# Total GULP energy -244987.672633 kJ/mol
# GULP energy per Si atom -5567.901651 kJ/mol
# Density = 1.894118 g / cm^3
# Si number density = 18.984386 Si / 1000 Ang^3
#
#
#
# Elastic Constant Matrix: (Units=GPa)
#
#
# Indices 1 2 3 4 5 6 
#
# 1 245.5490 72.4861 34.9758 0.0000 0.0000 0.0000
# 2 72.4861 35.7876 16.4128 0.0000 0.0000 0.0000
# 3 34.9758 16.4128 59.9816 0.0000 0.0000 0.0000
# 4 0.0000 0.0000 0.0000 -0.9186 0.0000 0.0000
# 5 0.0000 0.0000 0.0000 0.0000 199.0964 0.0000
# 6 0.0000 0.0000 0.0000 0.0000 0.0000 -15.0673
#
#
#
# Elastic Compliance Matrix: (Units=1/GPa)
#
#
# Indices 1 2 3 4 5 6 
#
# 1 0.010134 -0.020373 -0.000335 0.000000 0.000000 0.000000
# 2 -0.020373 0.072909 -0.008070 0.000000 0.000000 0.000000
# 3 -0.000335 -0.008070 0.019075 0.000000 0.000000 0.000000
# 4 0.000000 0.000000 0.000000 -1.088653 0.000000 0.000000
# 5 0.000000 0.000000 0.000000 0.000000 0.005023 0.000000
# 6 0.000000 0.000000 0.000000 0.000000 0.000000 -0.066369
#
#
# Mechanical properties :
#
#
# Convention : Reuss Voigt Hill
#
# Bulk Modulus (GPa) = 22.44068 65.45194 43.94631
# Shear Modulus (GPa) = -5.12573 51.11834 22.99631
#
# Velocity S-wave (km/s) = -1.64494 5.19471 3.48419
# Velocity P-wave (km/s) = 2.87028 8.39831 6.27575
#
# Compressibility (1/GPa) = 0.04456193
#
# Stress axis : x y z
#
# Youngs Moduli (GPa) = 98.67466 13.71581 52.42404
#
# Poissons Ratio (x) = 0.27943 0.01755
# Poissons Ratio (y) = 2.01031 0.42308
# Poissons Ratio (z) = 0.03303 0.11069
#
# Static dielectric constant tensor:
#      x y z
#    x 1.678010 0.000000 0.000000 
#    y 0.000000 1.637380 0.000000 
#    z 0.000000 0.000000 1.762270 
# 
# From -- ./inp_files/13647.got.cif
#   From: 2010.05.17/outbox.cif.g08.bks.cpg/sg47_7_cif.got.tgz:13647.got - 2010.06.03 20:15:42.
