data_PCOD9388131
_publ_section_title
;
Structure prediction by ZEFSAII (Michael W. Deem and Ramdas Pophale) SiO2 
 PCOD9388131
Probable space group: P M M M
;
_chemical_formula_sum "Si O2"
_cell_formula_units_Z 48
_cell_length_a 19.227226
_cell_length_b 7.709278
_cell_length_c 14.718972
_cell_angle_alpha 90.000000
_cell_angle_beta 90.000000
_cell_angle_gamma 90.000000
_cell_volume 2181.764229
_symmetry_space_group_name_H-M "P M M M"
_symmetry_group_IT_number 47
_symmetry_cell_setting 'orthorhombic'
loop_
_space_group_symop_operation_xyz
x,y,z
-x,-y,z
x,-y,-z
-x,y,-z
-x,-y,-z
x,y,-z
-x,y,z
x,-y,z
loop_
_atom_site_type_symbol
_atom_site_label
_atom_site_fract_x
_atom_site_fract_y
_atom_site_fract_z
Si Si1 0.922942 0.792554 0.896630
Si Si2 0.712466 0.294342 0.601026
Si Si3 0.419869 0.789500 0.703330
Si Si4 0.814228 0.309215 0.251191
Si Si5 0.918142 0.206785 0.397709
Si Si6 0.584182 0.793678 0.902303
O O1 0.854970 0.757521 0.836676
O O2 0.000000 0.731605 0.862119
O O3 0.927789 0.000000 0.899673
O O4 0.915364 0.728004 0.000000
O O5 0.727588 0.223360 0.500000
O O6 0.728889 0.500000 0.598433
O O7 0.632014 0.271863 0.626035
O O8 0.754870 0.217909 0.687419
O O9 0.500000 0.735458 0.690758
O O10 0.394143 0.726528 0.803425
O O11 0.419392 0.000000 0.705133
O O12 0.788026 0.500000 0.227339
O O13 0.876006 0.310869 0.324769
O O14 0.895714 0.248297 0.500000
O O15 0.000000 0.238203 0.391244
O O16 0.907617 0.000000 0.382527
O O17 0.500000 0.778467 0.901941
O O18 0.599642 0.000000 0.903191
O O19 0.608900 0.721883 0.000000
#
# Coordination Sequence:
#
# PCOD9388131 Si02
#       6
#     8   8   8   8   8   8
#     4   9  19  37  60  85 114 148 184 221 262 313
#     4  10  23  41  55  70 100 143 184 220 268 332
#     4   9  18  33  55  83 108 130 169 228 282 326
#     4  11  22  35  53  77 106 140 179 224 269 314
#     4   9  18  32  50  74 104 137 173 213 259 313
#     4   7  10  20  42  72 103 129 150 181 235 300
#
# _framework density 22.000543
#
# number of rings (size 3 to 8) (size 9 to 14) (size 15 to 20)
#    0.000    2.833    0.000    4.000    0.000    6.333 
#    0.000    4.167    0.000    3.500    0.000    2.333 
#    0.000    0.000    0.000    0.000    0.000    0.000 
#
# Total GULP energy -267391.300966 kJ/mol
# GULP energy per Si atom -5570.652103 kJ/mol
# Density = 2.195047 g / cm^3
# Si number density = 22.000543 Si / 1000 Ang^3
#
#
#
# Elastic Constant Matrix: (Units=GPa)
#
#
# Indices 1 2 3 4 5 6 
#
# 1 81.6038 2.3365 59.6604 0.0000 0.0000 0.0000
# 2 2.3365 26.4427 7.3949 0.0000 0.0000 0.0000
# 3 59.6604 7.3949 94.8142 0.0000 0.0000 0.0000
# 4 0.0000 0.0000 0.0000 18.2109 0.0000 0.0000
# 5 0.0000 0.0000 0.0000 0.0000 44.9221 0.0000
# 6 0.0000 0.0000 0.0000 0.0000 0.0000 18.1930
#
#
#
# Elastic Compliance Matrix: (Units=1/GPa)
#
#
# Indices 1 2 3 4 5 6 
#
# 1 0.022802 0.002042 -0.014507 0.000000 0.000000 0.000000
# 2 0.002042 0.038844 -0.004315 0.000000 0.000000 0.000000
# 3 -0.014507 -0.004315 0.020012 0.000000 0.000000 0.000000
# 4 0.000000 0.000000 0.000000 0.054912 0.000000 0.000000
# 5 0.000000 0.000000 0.000000 0.000000 0.022261 0.000000
# 6 0.000000 0.000000 0.000000 0.000000 0.000000 0.054966
#
#
# Mechanical properties :
#
#
# Convention : Reuss Voigt Hill
#
# Bulk Modulus (GPa) = 20.79061 37.96046 29.37554
# Shear Modulus (GPa) = 18.98336 25.16311 22.07324
#
# Velocity S-wave (km/s) = 2.94063 3.38561 3.17093
# Velocity P-wave (km/s) = 4.58261 5.70744 5.17567
#
# Compressibility (1/GPa) = 0.04809863
#
# Stress axis : x y z
#
# Youngs Moduli (GPa) = 43.85589 25.74417 49.97052
#
# Poissons Ratio (x) = -0.05257 0.72493
# Poissons Ratio (y) = -0.08956 0.21560
# Poissons Ratio (z) = 0.63622 0.11108
#
# Static dielectric constant tensor:
#      x y z
#    x 1.816410 0.000000 0.000000 
#    y 0.000000 1.850720 0.000000 
#    z 0.000000 0.000000 1.856100 
# 
# From -- ./inp_files/24425.got.cif
#   From: 2010.05.17/outbox.cif.g08.bks.cpg/sg47_13_cif.got.tgz:24425.got - 2010.06.03 20:15:42.
