data_PCOD9388119
_publ_section_title
;
Structure prediction by ZEFSAII (Michael W. Deem and Ramdas Pophale) SiO2 
 PCOD9388119
Probable space group: P M M M
;
_chemical_formula_sum "Si O2"
_cell_formula_units_Z 56
_cell_length_a 21.685635
_cell_length_b 8.837875
_cell_length_c 15.658548
_cell_angle_alpha 90.000000
_cell_angle_beta 90.000000
_cell_angle_gamma 90.000000
_cell_volume 3001.037943
_symmetry_space_group_name_H-M "P M M M"
_symmetry_group_IT_number 47
_symmetry_cell_setting 'orthorhombic'
loop_
_space_group_symop_operation_xyz
x,y,z
-x,-y,z
x,-y,-z
-x,y,-z
-x,-y,-z
x,y,-z
-x,y,z
x,-y,z
loop_
_atom_site_type_symbol
_atom_site_label
_atom_site_fract_x
_atom_site_fract_y
_atom_site_fract_z
Si Si1 0.847998 0.679863 0.250015
Si Si2 0.927647 0.181595 0.901213
Si Si3 0.072315 0.181615 0.401121
Si Si4 0.624204 0.819836 0.596327
Si Si5 0.370717 0.680012 0.097037
Si Si6 0.500000 0.819185 0.149359
Si Si7 0.712130 0.181368 0.245968
Si Si8 0.500000 0.320676 0.337936
O O1 0.843598 0.500000 0.249837
O O2 0.885300 0.735981 0.166923
O O3 0.885125 0.736217 0.333132
O O4 0.780239 0.751676 0.249371
O O5 0.000000 0.216389 0.886478
O O6 0.920685 0.000000 0.891681
O O7 0.913280 0.219552 0.000000
O O8 0.086424 0.219347 0.500000
O O9 0.000000 0.216446 0.386042
O O10 0.079331 0.000000 0.391624
O O11 0.646591 0.792843 0.500000
O O12 0.673820 0.779818 0.668419
O O13 0.561323 0.730075 0.612899
O O14 0.611042 0.000000 0.604786
O O15 0.375076 0.500000 0.111649
O O16 0.438279 0.752036 0.108181
O O17 0.325535 0.753003 0.166021
O O18 0.349231 0.705548 0.000000
O O19 0.500000 0.766551 0.247802
O O20 0.500000 0.000000 0.143699
O O21 0.714928 0.000000 0.239575
O O22 0.500000 0.500000 0.323241
#
# Coordination Sequence:
#
# PCOD9388119 Si02
#       8
#     8   8   8   8   8   4   8   4
#     4  12  25  38  57  87 125 163 198 243 301 357
#     4   9  19  38  64  91 118 152 198 249 296 349
#     4   9  19  38  64  91 119 155 201 250 297 350
#     4  10  22  41  64  89 117 151 195 247 300 356
#     4  11  24  42  64  91 123 156 192 245 309 360
#     4  12  23  38  63  92 122 158 199 245 294 349
#     4  11  24  42  63  85 115 161 208 248 291 349
#     4  12  23  36  61  92 124 156 191 243 302 353
#
# _framework density 18.660211
#
# number of rings (size 3 to 8) (size 9 to 14) (size 15 to 20)
#    0.000    1.429    1.429    5.143    0.000    7.714 
#    0.000    2.857    0.000    0.000    0.000    0.000 
#    0.000    0.000    0.000    0.000    0.000    0.000 
#
# Total GULP energy -313120.341437 kJ/mol
# GULP energy per Si atom -5591.434669 kJ/mol
# Density = 1.861774 g / cm^3
# Si number density = 18.660211 Si / 1000 Ang^3
#
#
#
# Elastic Constant Matrix: (Units=GPa)
#
#
# Indices 1 2 3 4 5 6 
#
# 1 151.7165 83.9605 109.6430 0.0000 0.0000 0.0000
# 2 83.9605 96.7164 88.7160 0.0000 0.0000 0.0000
# 3 109.6430 88.7160 162.0322 0.0000 0.0000 0.0000
# 4 0.0000 0.0000 0.0000 -14.0604 0.0000 0.0000
# 5 0.0000 0.0000 0.0000 0.0000 -10.2195 0.0000
# 6 0.0000 0.0000 0.0000 0.0000 0.0000 63.9336
#
#
#
# Elastic Compliance Matrix: (Units=1/GPa)
#
#
# Indices 1 2 3 4 5 6 
#
# 1 0.015237 -0.007573 -0.006164 0.000000 0.000000 0.000000
# 2 -0.007573 0.024536 -0.008309 0.000000 0.000000 0.000000
# 3 -0.006164 -0.008309 0.014892 0.000000 0.000000 0.000000
# 4 0.000000 0.000000 0.000000 -0.071122 0.000000 0.000000
# 5 0.000000 0.000000 0.000000 0.000000 -0.097852 0.000000
# 6 0.000000 0.000000 0.000000 0.000000 0.000000 0.015641
#
#
# Mechanical properties :
#
#
# Convention : Reuss Voigt Hill
#
# Bulk Modulus (GPa) = 94.58984 108.34490 101.46737
# Shear Modulus (GPa) = -97.94033 16.47378 -40.73327
#
# Velocity S-wave (km/s) = -7.25259 2.97447 -4.67721
# Velocity P-wave (km/s) = 4.39691 8.36568 5.03249
#
# Compressibility (1/GPa) = 0.01057196
#
# Stress axis : x y z
#
# Youngs Moduli (GPa) = 65.63038 40.75664 67.15004
#
# Poissons Ratio (x) = 0.30866 0.41390
# Poissons Ratio (y) = 0.49704 0.55797
# Poissons Ratio (z) = 0.40454 0.33866
#
# Static dielectric constant tensor:
#      x y z
#    x 1.607900 0.000000 0.000000 
#    y 0.000000 1.619380 0.000000 
#    z 0.000000 0.000000 1.643970 
# 
# From -- ./inp_files/25212.got.cif
#   From: 2010.05.17/outbox.cif.g08.bks.cpg/sg47_13_cif.got.tgz:25212.got - 2010.06.03 20:15:42.
