data_PCOD9388391
_publ_section_title
;
Structure prediction by ZEFSAII (Michael W. Deem and Ramdas Pophale) SiO2 
 PCOD9388391
Probable space group: P M M M
;
_chemical_formula_sum "Si O2"
_cell_formula_units_Z 48
_cell_length_a 35.212088
_cell_length_b 7.901060
_cell_length_c 9.451182
_cell_angle_alpha 90.000000
_cell_angle_beta 90.000000
_cell_angle_gamma 90.000000
_cell_volume 2629.439997
_symmetry_space_group_name_H-M "P M M M"
_symmetry_group_IT_number 47
_symmetry_cell_setting 'orthorhombic'
loop_
_space_group_symop_operation_xyz
x,y,z
-x,-y,z
x,-y,-z
-x,y,-z
-x,-y,-z
x,y,-z
-x,y,z
x,-y,z
loop_
_atom_site_type_symbol
_atom_site_label
_atom_site_fract_x
_atom_site_fract_y
_atom_site_fract_z
Si Si1 0.545543 0.195982 0.666987
Si Si2 0.115353 0.701001 0.658216
Si Si3 0.957742 0.795941 0.162089
Si Si4 0.414218 0.500000 0.170600
Si Si5 0.811978 0.202821 0.840280
Si Si6 0.272117 0.804801 0.827353
Si Si7 0.325512 0.500000 0.171845
O O1 0.553712 0.224577 0.500000
O O2 0.500000 0.212895 0.684266
O O3 0.566338 0.333843 0.762486
O O4 0.555501 0.000000 0.700231
O O5 0.115086 0.773965 0.500000
O O6 0.117230 0.500000 0.648917
O O7 0.076762 0.744382 0.739732
O O8 0.152394 0.756920 0.743802
O O9 0.000000 0.738505 0.207207
O O10 0.958388 0.000000 0.159281
O O11 0.951574 0.738213 0.000000
O O12 0.369645 0.500000 0.209317
O O13 0.417882 0.500000 0.000000
O O14 0.770331 0.255833 0.786399
O O15 0.809262 0.000000 0.850215
O O16 0.817904 0.269808 0.000000
O O17 0.303333 0.669087 0.780852
O O18 0.278590 0.000000 0.781691
O O19 0.271779 0.807690 0.000000
O O20 0.323761 0.500000 0.000000
#
# Coordination Sequence:
#
# PCOD9388391 Si02
#       7
#     8   8   8   4   8   8   4
#     4   9  19  37  59  79 103 145 199 245 283 331
#     4  11  24  36  47  72 108 139 165 196 242 302
#     4   9  19  37  59  79  98 124 163 208 247 288
#     4  11  22  32  49  84 122 150 180 227 291 352
#     4   9  18  33  55  80  99 121 164 218 260 295
#     4   8  15  29  49  73 100 132 174 220 261 310
#     4   9  18  30  46  73 110 148 177 209 268 334
#
# _framework density 18.254836999999998
#
# number of rings (size 3 to 8) (size 9 to 14) (size 15 to 20)
#    0.000    2.667    0.000    3.500    1.167    7.000 
#    0.000    5.000    0.000    2.000    0.000    0.000 
#    0.000    0.000    0.000    0.000    0.000    0.000 
#
# Total GULP energy -267631.433302 kJ/mol
# GULP energy per Si atom -5575.654860 kJ/mol
# Density = 1.821329 g / cm^3
# Si number density = 18.254837 Si / 1000 Ang^3
#
#
#
# Elastic Constant Matrix: (Units=GPa)
#
#
# Indices 1 2 3 4 5 6 
#
# 1 147.5236 74.5305 73.5730 0.0000 0.0000 0.0000
# 2 74.5305 86.7887 45.8562 0.0000 0.0000 0.0000
# 3 73.5730 45.8562 72.4332 0.0000 0.0000 0.0000
# 4 0.0000 0.0000 0.0000 22.2132 0.0000 0.0000
# 5 0.0000 0.0000 0.0000 0.0000 -13.8940 0.0000
# 6 0.0000 0.0000 0.0000 0.0000 0.0000 15.2267
#
#
#
# Elastic Compliance Matrix: (Units=1/GPa)
#
#
# Indices 1 2 3 4 5 6 
#
# 1 0.016873 -0.008166 -0.011969 0.000000 0.000000 0.000000
# 2 -0.008166 0.021266 -0.005168 0.000000 0.000000 0.000000
# 3 -0.011969 -0.005168 0.029235 0.000000 0.000000 0.000000
# 4 0.000000 0.000000 0.000000 0.045018 0.000000 0.000000
# 5 0.000000 0.000000 0.000000 0.000000 -0.071973 0.000000
# 6 0.000000 0.000000 0.000000 0.000000 0.000000 0.065674
#
#
# Mechanical properties :
#
#
# Convention : Reuss Voigt Hill
#
# Bulk Modulus (GPa) = 59.64000 77.18499 68.41249
# Shear Modulus (GPa) = 30.80906 12.22822 21.51864
#
# Velocity S-wave (km/s) = 4.11264 2.59098 3.43708
# Velocity P-wave (km/s) = 7.43596 7.16412 7.30131
#
# Compressibility (1/GPa) = 0.01676727
#
# Stress axis : x y z
#
# Youngs Moduli (GPa) = 59.26479 47.02403 34.20527
#
# Poissons Ratio (x) = 0.38400 0.40941
# Poissons Ratio (y) = 0.48396 0.17678
# Poissons Ratio (z) = 0.70935 0.24304
#
# Static dielectric constant tensor:
#      x y z
#    x 1.631350 0.000000 0.000000 
#    y 0.000000 1.640340 0.000000 
#    z 0.000000 0.000000 1.563940 
# 
# From -- ./inp_files/13996.got.cif
#   From: 2010.05.17/outbox.cif.g08.bks.cpg/sg47_7_cif.got.tgz:13996.got - 2010.06.03 20:15:42.
