data_PCOD9388130
_publ_section_title
;
Structure prediction by ZEFSAII (Michael W. Deem and Ramdas Pophale) SiO2 
 PCOD9388130
Probable space group: P M M M
;
_chemical_formula_sum "Si O2"
_cell_formula_units_Z 29
_cell_length_a 15.553154
_cell_length_b 12.432587
_cell_length_c 7.146466
_cell_angle_alpha 90.000000
_cell_angle_beta 90.000000
_cell_angle_gamma 90.000000
_cell_volume 1381.883117
_symmetry_space_group_name_H-M "P M M M"
_symmetry_group_IT_number 47
_symmetry_cell_setting 'orthorhombic'
loop_
_space_group_symop_operation_xyz
x,y,z
-x,-y,z
x,-y,-z
-x,y,-z
-x,-y,-z
x,y,-z
-x,y,z
x,-y,z
loop_
_atom_site_type_symbol
_atom_site_label
_atom_site_fract_x
_atom_site_fract_y
_atom_site_fract_z
Si Si1 0.832164 0.000000 0.227372
Si Si2 0.750303 0.774223 0.226717
Si Si3 0.000000 0.000000 0.500000
Si Si4 0.094913 0.623621 0.773088
Si Si5 0.598994 0.378471 0.772835
O O1 0.775801 0.105094 0.276776
O O2 0.922520 0.000000 0.336849
O O3 0.846642 0.000000 0.000000
O O4 0.829112 0.699228 0.288507
O O5 0.663045 0.715498 0.288586
O O6 0.747970 0.772283 0.000000
O O7 0.106197 0.500000 0.715941
O O8 0.000000 0.660974 0.715283
O O9 0.095684 0.623692 0.000000
O O10 0.500000 0.363300 0.715799
O O11 0.626642 0.500000 0.717903
O O12 0.599749 0.378378 0.000000
#
# Coordination Sequence:
#
# PCOD9388130 Si02
#       5
#     4   8   1   8   8
#     4  10  23  39  58  82 107 142 190 232 277 329
#     4   9  16  27  44  69 103 139 181 228 269 321
#     4  12  26  44  60  78 108 148 190 236 276 320
#     4   8  13  20  33  58  90 123 163 212 263 316
#     4   8  13  22  40  71 111 149 183 224 274 326
#
# _framework density 20.985855000000001
#
# number of rings (size 3 to 8) (size 9 to 14) (size 15 to 20)
#    0.000    3.310    0.000    2.690    1.931    3.310 
#    0.000    0.690    0.000    4.138    0.000    9.655 
#    0.000    2.207    0.000    0.276    0.000    0.552 
#
# Total GULP energy -161585.641679 kJ/mol
# GULP energy per Si atom -5571.918679 kJ/mol
# Density = 2.093809 g / cm^3
# Si number density = 20.985855 Si / 1000 Ang^3
#
#
#
# Elastic Constant Matrix: (Units=GPa)
#
#
# Indices 1 2 3 4 5 6 
#
# 1 167.1662 133.8155 15.7845 0.0000 0.0000 0.0000
# 2 133.8155 155.0682 15.5583 0.0000 0.0000 0.0000
# 3 15.7845 15.5583 130.9141 0.0000 0.0000 0.0000
# 4 0.0000 0.0000 0.0000 -46.5777 0.0000 0.0000
# 5 0.0000 0.0000 0.0000 0.0000 -18.8590 0.0000
# 6 0.0000 0.0000 0.0000 0.0000 0.0000 -31.3530
#
#
#
# Elastic Compliance Matrix: (Units=1/GPa)
#
#
# Indices 1 2 3 4 5 6 
#
# 1 0.019362 -0.016673 -0.000353 0.000000 0.000000 0.000000
# 2 -0.016673 0.020884 -0.000472 0.000000 0.000000 0.000000
# 3 -0.000353 -0.000472 0.007737 0.000000 0.000000 0.000000
# 4 0.000000 0.000000 0.000000 -0.021470 0.000000 0.000000
# 5 0.000000 0.000000 0.000000 0.000000 -0.053025 0.000000
# 6 0.000000 0.000000 0.000000 0.000000 0.000000 -0.031895
#
#
# Mechanical properties :
#
#
# Convention : Reuss Voigt Hill
#
# Bulk Modulus (GPa) = 76.99457 87.05167 82.02312
# Shear Modulus (GPa) = -262.02800 -0.15858 -131.09329
#
# Velocity S-wave (km/s) = -11.18617 -0.27519 -7.91221
# Velocity P-wave (km/s) = 11.40491 6.43974 6.65590
#
# Compressibility (1/GPa) = 0.01298793
#
# Stress axis : x y z
#
# Youngs Moduli (GPa) = 51.64761 47.88369 129.24547
#
# Poissons Ratio (x) = 0.79836 0.04563
# Poissons Ratio (y) = 0.86112 0.06096
# Poissons Ratio (z) = 0.01823 0.02258
#
# Static dielectric constant tensor:
#      x y z
#    x 1.714870 0.000000 0.000000 
#    y 0.000000 1.761670 0.000000 
#    z 0.000000 0.000000 1.822690 
# 
# From -- ./inp_files/3239.got.cif
#   From: 2010.05.17/outbox.cif.g08.bks.cpg/sg47_2_cif.got.tgz:3239.got - 2010.06.03 20:15:42.
