data_PCOD9388631
_publ_section_title
;
Structure prediction by ZEFSAII (Michael W. Deem and Ramdas Pophale) SiO2 
 PCOD9388631
Probable space group: P M M M
;
_chemical_formula_sum "Si O2"
_cell_formula_units_Z 44
_cell_length_a 28.982779
_cell_length_b 9.679662
_cell_length_c 9.036370
_cell_angle_alpha 90.000000
_cell_angle_beta 90.000000
_cell_angle_gamma 90.000000
_cell_volume 2535.094908
_symmetry_space_group_name_H-M "P M M M"
_symmetry_group_IT_number 47
_symmetry_cell_setting 'orthorhombic'
loop_
_space_group_symop_operation_xyz
x,y,z
-x,-y,z
x,-y,-z
-x,y,-z
-x,-y,-z
x,y,-z
-x,y,z
x,-y,z
loop_
_atom_site_type_symbol
_atom_site_label
_atom_site_fract_x
_atom_site_fract_y
_atom_site_fract_z
Si Si1 0.905306 0.837443 0.322148
Si Si2 0.000000 0.831861 0.828739
Si Si3 0.445892 0.340024 0.677246
Si Si4 0.286051 0.663489 0.322115
Si Si5 0.367126 0.838751 0.177166
Si Si6 0.818459 0.658543 0.319938
O O1 0.909072 0.824266 0.500000
O O2 0.952922 0.786536 0.250274
O O3 0.860200 0.755012 0.270604
O O4 0.899846 0.000000 0.288426
O O5 0.000000 0.000000 0.820021
O O6 0.000000 0.792385 0.000000
O O7 0.439728 0.326197 0.500000
O O8 0.500000 0.317048 0.709569
O O9 0.434901 0.500000 0.715116
O O10 0.412557 0.235975 0.760248
O O11 0.289907 0.679866 0.500000
O O12 0.293093 0.500000 0.291084
O O13 0.323570 0.757113 0.243224
O O14 0.233504 0.699677 0.276616
O O15 0.366029 0.000000 0.219995
O O16 0.366606 0.829979 0.000000
O O17 0.818484 0.660351 0.500000
O O18 0.826042 0.500000 0.274163
#
# Coordination Sequence:
#
# PCOD9388631 Si02
#       6
#     8   4   8   8   8   8
#     4   9  16  27  46  70  92 117 154 196 233 276
#     4   9  17  29  44  63  90 124 158 191 232 280
#     4   9  19  37  60  83 104 129 167 212 253 297
#     4   9  18  34  56  78  99 128 168 210 250 297
#     4  11  24  37  49  73 109 142 171 206 248 294
#     4   8  15  29  49  73  98 121 150 194 245 291
#
# _framework density 17.356352999999999
#
# number of rings (size 3 to 8) (size 9 to 14) (size 15 to 20)
#    0.000    2.818    0.000    3.000    0.000    6.909 
#    0.000    5.909    0.000    6.545    0.000    0.000 
#    0.000    0.000    0.000    0.000    0.000    0.000 
#
# Total GULP energy -245328.581373 kJ/mol
# GULP energy per Si atom -5575.649577 kJ/mol
# Density = 1.731685 g / cm^3
# Si number density = 17.356353 Si / 1000 Ang^3
#
#
#
# Elastic Constant Matrix: (Units=GPa)
#
#
# Indices 1 2 3 4 5 6 
#
# 1 161.4674 106.8789 56.2315 0.0000 0.0000 0.0000
# 2 106.8789 99.8629 48.8581 0.0000 0.0000 0.0000
# 3 56.2315 48.8581 29.5580 0.0000 0.0000 0.0000
# 4 0.0000 0.0000 0.0000 19.6910 0.0000 0.0000
# 5 0.0000 0.0000 0.0000 0.0000 -15.1479 0.0000
# 6 0.0000 0.0000 0.0000 0.0000 0.0000 38.3242
#
#
#
# Elastic Compliance Matrix: (Units=1/GPa)
#
#
# Indices 1 2 3 4 5 6 
#
# 1 0.022557 -0.016450 -0.015722 0.000000 0.000000 0.000000
# 2 -0.016450 0.064345 -0.075066 0.000000 0.000000 0.000000
# 3 -0.015722 -0.075066 0.187822 0.000000 0.000000 0.000000
# 4 0.000000 0.000000 0.000000 0.050785 0.000000 0.000000
# 5 0.000000 0.000000 0.000000 0.000000 -0.066016 0.000000
# 6 0.000000 0.000000 0.000000 0.000000 0.000000 0.026093
#
#
# Mechanical properties :
#
#
# Convention : Reuss Voigt Hill
#
# Bulk Modulus (GPa) = 16.59774 79.42505 48.01140
# Shear Modulus (GPa) = 9.61274 13.83477 11.72375
#
# Velocity S-wave (km/s) = 2.35595 2.82636 2.60181
# Velocity P-wave (km/s) = 4.12120 7.51743 6.06202
#
# Compressibility (1/GPa) = 0.06024916
#
# Stress axis : x y z
#
# Youngs Moduli (GPa) = 44.33285 15.54116 5.32420
#
# Poissons Ratio (x) = 0.25565 0.08370
# Poissons Ratio (y) = 0.72926 0.39967
# Poissons Ratio (z) = 0.69698 1.16661
#
# Static dielectric constant tensor:
#      x y z
#    x 1.585740 0.000000 0.000000 
#    y 0.000000 1.575390 0.000000 
#    z 0.000000 0.000000 1.574600 
# 
# From -- ./inp_files/2221.got.cif
#   From: 2010.05.17/outbox.cif.g08.bks.cpg/sg47_2_cif.got.tgz:2221.got - 2010.06.03 20:15:42.
