data_PCOD9389556
_publ_section_title
;
Structure prediction by ZEFSAII (Michael W. Deem and Ramdas Pophale) SiO2 
 PCOD9389556
Probable space group: P N N N
;
_chemical_formula_sum "Si O2"
_cell_formula_units_Z 42
_cell_length_a 11.831989
_cell_length_b 8.804852
_cell_length_c 23.114184
_cell_angle_alpha 90.000000
_cell_angle_beta 90.000000
_cell_angle_gamma 90.000000
_cell_volume 2408.010541
_symmetry_space_group_name_H-M "P N N N"
_symmetry_group_IT_number 48
_space_group.IT_coordinate_system_code '2'
_symmetry_cell_setting 'orthorhombic'
loop_
_space_group_symop_operation_xyz
x,y,z
1/2-x,1/2-y,z
x,1/2-y,1/2-z
1/2-x,y,1/2-z
-x,-y,-z
1/2+x,1/2+y,-z
-x,1/2+y,1/2+z
1/2+x,-y,1/2+z
loop_
_atom_site_type_symbol
_atom_site_label
_atom_site_fract_x
_atom_site_fract_y
_atom_site_fract_z
Si Si1 0.108717 0.186383 0.641894
Si Si2 0.555505 0.161980 0.483945
Si Si3 0.866652 0.185474 0.603342
Si Si4 0.838926 0.639222 0.948816
Si Si5 0.250000 0.250000 0.750000
Si Si6 0.271193 0.464146 0.929431
O O1 0.166059 0.171722 0.704298
O O2 0.154557 0.040623 0.606355
O O3 0.154940 0.334515 0.604797
O O4 0.975938 0.205749 0.642760
O O5 0.609319 0.230862 0.541946
O O6 0.455555 0.274311 0.463791
O O7 0.500000 0.000000 0.500000
O O8 0.653172 0.113156 0.438655
O O9 0.750000 0.250000 0.627056
O O10 0.858899 0.009450 0.587906
O O11 0.750000 0.750000 0.918359
O O12 0.771382 0.587816 0.007164
#
# Coordination Sequence:
#
# PCOD9389556 Si02
#       6
#     8   8   8   8   2   8
#     4  10  19  37  54  82  99 146 184 237 262 319
#     4  12  18  30  46  73 116 159 175 208 256 328
#     4  12  22  30  51  80 121 143 178 213 271 335
#     4  12  20  31  44  74 122 158 177 206 256 341
#     4   8  20  40  66  68 102 128 188 242 290 274
#     4  10  17  31  50  71 112 143 182 213 254 315
#
# _framework density 17.441783000000001
#
# number of rings (size 3 to 8) (size 9 to 14) (size 15 to 20)
#    0.000    1.143    9.524    0.571    0.000    0.000 
#    0.000    0.476    0.000    0.000    0.000   10.667 
#    0.000    0.000    0.000    0.000    0.000    0.000 
#
# Total GULP energy -233933.280624 kJ/mol
# GULP energy per Si atom -5569.840015 kJ/mol
# Density = 1.740209 g / cm^3
# Si number density = 17.441783 Si / 1000 Ang^3
#
#
#
# Elastic Constant Matrix: (Units=GPa)
#
#
# Indices 1 2 3 4 5 6 
#
# 1 154.1379 34.5998 26.7411 0.0000 0.0000 0.0000
# 2 34.5998 66.0965 12.5124 0.0000 0.0000 0.0000
# 3 26.7411 12.5124 41.8274 0.0000 0.0000 0.0000
# 4 0.0000 0.0000 0.0000 4.9100 0.0000 0.0000
# 5 0.0000 0.0000 0.0000 0.0000 16.4814 0.0000
# 6 0.0000 0.0000 0.0000 0.0000 0.0000 37.8636
#
#
#
# Elastic Compliance Matrix: (Units=1/GPa)
#
#
# Indices 1 2 3 4 5 6 
#
# 1 0.007956 -0.003394 -0.004071 0.000000 0.000000 0.000000
# 2 -0.003394 0.017486 -0.003061 0.000000 0.000000 0.000000
# 3 -0.004071 -0.003061 0.027426 0.000000 0.000000 0.000000
# 4 0.000000 0.000000 0.000000 0.203666 0.000000 0.000000
# 5 0.000000 0.000000 0.000000 0.000000 0.060674 0.000000
# 6 0.000000 0.000000 0.000000 0.000000 0.000000 0.026411
#
#
# Mechanical properties :
#
#
# Convention : Reuss Voigt Hill
#
# Bulk Modulus (GPa) = 31.43102 45.52984 38.48043
# Shear Modulus (GPa) = 13.32357 24.39824 18.86090
#
# Velocity S-wave (km/s) = 2.76685 3.74416 3.29198
# Velocity P-wave (km/s) = 5.31667 6.69718 6.04645
#
# Compressibility (1/GPa) = 0.03181570
#
# Stress axis : x y z
#
# Youngs Moduli (GPa) = 125.69379 57.19024 36.46167
#
# Poissons Ratio (x) = 0.19410 0.14844
# Poissons Ratio (y) = 0.42661 0.11160
# Poissons Ratio (z) = 0.51170 0.17505
#
# Static dielectric constant tensor:
#      x y z
#    x 1.694160 0.000000 0.000000 
#    y 0.000000 1.645620 0.000000 
#    z 0.000000 0.000000 1.571910 
# 
# From -- ./inp_files/11162.got.cif
#   From: 2010.05.17/outbox.cif.g08.bks.cpg/sg48_6_cif.got.tgz:11162.got - 2010.06.03 20:39:00.
