data_PCOD9389497
_publ_section_title
;
Structure prediction by ZEFSAII (Michael W. Deem and Ramdas Pophale) SiO2 
 PCOD9389497
Probable space group: P N N N
;
_chemical_formula_sum "Si O2"
_cell_formula_units_Z 48
_cell_length_a 17.048669
_cell_length_b 27.587560
_cell_length_c 5.384867
_cell_angle_alpha 90.000000
_cell_angle_beta 90.000000
_cell_angle_gamma 90.000000
_cell_volume 2532.670845
_symmetry_space_group_name_H-M "P N N N"
_symmetry_group_IT_number 48
_space_group.IT_coordinate_system_code '2'
_symmetry_cell_setting 'orthorhombic'
loop_
_space_group_symop_operation_xyz
x,y,z
1/2-x,1/2-y,z
x,1/2-y,1/2-z
1/2-x,y,1/2-z
-x,-y,-z
1/2+x,1/2+y,-z
-x,1/2+y,1/2+z
1/2+x,-y,1/2+z
loop_
_atom_site_type_symbol
_atom_site_label
_atom_site_fract_x
_atom_site_fract_y
_atom_site_fract_z
Si Si1 0.660536 0.270496 0.504021
Si Si2 0.300166 0.616864 0.500895
Si Si3 0.921236 0.502108 0.763302
Si Si4 0.517334 0.598677 0.201005
Si Si5 0.157730 0.465683 0.724599
Si Si6 0.466122 0.596024 0.692347
O O1 0.750000 0.250000 0.502236
O O2 0.624897 0.250000 0.250000
O O3 0.670595 0.327879 0.527378
O O4 0.620971 0.250000 0.750000
O O5 0.250000 0.614674 0.750000
O O6 0.378371 0.589120 0.590891
O O7 0.250000 0.603526 0.250000
O O8 0.971336 0.452965 0.744629
O O9 0.865784 0.503653 0.520654
O O10 0.983898 0.546628 0.759486
O O11 0.873255 0.512545 0.014592
O O12 0.607829 0.583519 0.176154
O O13 0.506523 0.624265 0.464802
O O14 0.475431 0.620950 0.960840
O O15 0.250000 0.459415 0.750000
#
# Coordination Sequence:
#
# PCOD9389497 Si02
#       6
#     8   8   8   8   8   8
#     4  10  16  30  48  66  84 123 159 183 224 268
#     4  12  21  32  47  68  97 118 158 208 223 269
#     4  10  19  35  50  59  87 121 148 179 238 308
#     4  10  19  36  49  58  86 124 149 176 237 311
#     4  10  18  29  48  70  78  98 150 199 221 255
#     4  10  20  32  46  63  83 120 150 183 242 272
#
# _framework density 18.952324000000001
#
# number of rings (size 3 to 8) (size 9 to 14) (size 15 to 20)
#    0.000    1.667    3.333    6.500    0.000    0.000 
#    0.000   14.167    0.000    0.000    0.000    0.000 
#    0.000    0.000    0.000    0.000    0.000  200.000 
#
# Total GULP energy -267383.061807 kJ/mol
# GULP energy per Si atom -5570.480454 kJ/mol
# Density = 1.890919 g / cm^3
# Si number density = 18.952324 Si / 1000 Ang^3
#
#
#
# Elastic Constant Matrix: (Units=GPa)
#
#
# Indices 1 2 3 4 5 6 
#
# 1 125.2200 21.7394 54.6940 0.0000 0.0000 0.0000
# 2 21.7394 30.4504 11.7389 0.0000 0.0000 0.0000
# 3 54.6940 11.7389 211.8599 0.0000 0.0000 0.0000
# 4 0.0000 0.0000 0.0000 10.9974 0.0000 0.0000
# 5 0.0000 0.0000 0.0000 0.0000 34.7313 0.0000
# 6 0.0000 0.0000 0.0000 0.0000 0.0000 2.5316
#
#
#
# Elastic Compliance Matrix: (Units=1/GPa)
#
#
# Indices 1 2 3 4 5 6 
#
# 1 0.010065 -0.006319 -0.002248 0.000000 0.000000 0.000000
# 2 -0.006319 0.037524 -0.000448 0.000000 0.000000 0.000000
# 3 -0.002248 -0.000448 0.005325 0.000000 0.000000 0.000000
# 4 0.000000 0.000000 0.000000 0.090931 0.000000 0.000000
# 5 0.000000 0.000000 0.000000 0.000000 0.028793 0.000000
# 6 0.000000 0.000000 0.000000 0.000000 0.000000 0.395000
#
#
# Mechanical properties :
#
#
# Convention : Reuss Voigt Hill
#
# Bulk Modulus (GPa) = 28.66611 60.43054 44.54833
# Shear Modulus (GPa) = 8.37105 28.27592 18.32348
#
# Velocity S-wave (km/s) = 2.10392 3.86677 3.11275
# Velocity P-wave (km/s) = 4.58914 7.20351 6.03949
#
# Compressibility (1/GPa) = 0.03488440
#
# Stress axis : x y z
#
# Youngs Moduli (GPa) = 99.35438 26.64944 187.78177
#
# Poissons Ratio (x) = 0.16840 0.42218
# Poissons Ratio (y) = 0.62782 0.08410
# Poissons Ratio (z) = 0.22337 0.01194
#
# Static dielectric constant tensor:
#      x y z
#    x 1.735970 0.000000 0.000000 
#    y 0.000000 1.649320 0.000000 
#    z 0.000000 0.000000 -28.418950 
# 
# From -- ./inp_files/4592.got.cif
#   From: 2010.05.17/outbox.cif.g08.bks.cpg/sg48_3_cif.got.tgz:4592.got - 2010.06.03 20:39:00.
