data_PCOD9389666
_publ_section_title
;
Structure prediction by ZEFSAII (Michael W. Deem and Ramdas Pophale) SiO2 
 PCOD9389666
Probable space group: P N N N
;
_chemical_formula_sum "Si O2"
_cell_formula_units_Z 60
_cell_length_a 13.154116
_cell_length_b 12.304069
_cell_length_c 19.629955
_cell_angle_alpha 90.000000
_cell_angle_beta 90.000000
_cell_angle_gamma 90.000000
_cell_volume 3177.091549
_symmetry_space_group_name_H-M "P N N N"
_symmetry_group_IT_number 48
_space_group.IT_coordinate_system_code '2'
_symmetry_cell_setting 'orthorhombic'
loop_
_space_group_symop_operation_xyz
x,y,z
1/2-x,1/2-y,z
x,1/2-y,1/2-z
1/2-x,y,1/2-z
-x,-y,-z
1/2+x,1/2+y,-z
-x,1/2+y,1/2+z
1/2+x,-y,1/2+z
loop_
_atom_site_type_symbol
_atom_site_label
_atom_site_fract_x
_atom_site_fract_y
_atom_site_fract_z
Si Si1 0.562751 0.649744 0.196570
Si Si2 0.297898 0.868544 0.879169
Si Si3 0.660614 0.461882 0.997226
Si Si4 0.250000 0.490292 0.750000
Si Si5 0.364005 0.880436 0.239171
Si Si6 0.470557 0.876786 0.980886
Si Si7 0.188801 0.639724 0.096813
Si Si8 0.953713 0.671585 0.465054
O O1 0.565849 0.750000 0.250000
O O2 0.662323 0.581014 0.214196
O O3 0.458416 0.584918 0.214930
O O4 0.554813 0.683405 0.117240
O O5 0.250000 0.750000 0.867766
O O6 0.225823 0.921189 0.937892
O O7 0.412140 0.867580 0.909521
O O8 0.295235 0.936508 0.810198
O O9 0.629126 0.584621 0.011049
O O10 0.729387 0.445532 0.930351
O O11 0.560306 0.387837 0.985758
O O12 0.358312 0.750000 0.250000
O O13 0.250000 0.924041 0.250000
O O14 0.379860 0.897480 0.159259
O O15 0.384757 0.838668 0.034562
O O16 0.555303 0.786447 0.996092
O O17 0.500000 0.000000 0.000000
O O18 0.250000 0.750000 0.114297
#
# Coordination Sequence:
#
# PCOD9389666 Si02
#       8
#     8   8   8   4   8   8   8   8
#     4  11  24  38  60  92 132 168 200 259 332 399
#     4  11  22  44  60  87 121 169 225 263 308 380
#     4  10  20  36  62  87 118 162 206 258 314 368
#     4  12  26  42  58  88 130 184 216 252 316 396
#     4  10  18  31  56  90 120 154 195 252 321 376
#     4  11  23  36  62  90 120 158 206 269 319 373
#     4  11  18  35  55  86 123 157 193 256 314 366
#     4  11  20  39  62  90 122 157 211 263 319 373
#
# _framework density 18.885197999999999
#
# number of rings (size 3 to 8) (size 9 to 14) (size 15 to 20)
#    0.000    1.200    5.333    3.600    3.733    0.000 
#    0.000    2.667    0.000    0.000    0.000    0.000 
#    0.000    0.000    0.000    0.000    0.000    0.000 
#
# Total GULP energy -334560.199245 kJ/mol
# GULP energy per Si atom -5576.003321 kJ/mol
# Density = 1.884221 g / cm^3
# Si number density = 18.885198 Si / 1000 Ang^3
#
#
#
# Elastic Constant Matrix: (Units=GPa)
#
#
# Indices 1 2 3 4 5 6 
#
# 1 55.1124 22.9152 17.4779 0.0000 0.0000 0.0000
# 2 22.9152 108.7255 33.2412 0.0000 0.0000 0.0000
# 3 17.4779 33.2412 116.6585 0.0000 0.0000 0.0000
# 4 0.0000 0.0000 0.0000 13.0424 0.0000 0.0000
# 5 0.0000 0.0000 0.0000 0.0000 10.0988 0.0000
# 6 0.0000 0.0000 0.0000 0.0000 0.0000 18.9386
#
#
#
# Elastic Compliance Matrix: (Units=1/GPa)
#
#
# Indices 1 2 3 4 5 6 
#
# 1 0.020303 -0.003669 -0.001996 0.000000 0.000000 0.000000
# 2 -0.003669 0.010738 -0.002510 0.000000 0.000000 0.000000
# 3 -0.001996 -0.002510 0.009586 0.000000 0.000000 0.000000
# 4 0.000000 0.000000 0.000000 0.076673 0.000000 0.000000
# 5 0.000000 0.000000 0.000000 0.000000 0.099022 0.000000
# 6 0.000000 0.000000 0.000000 0.000000 0.000000 0.052802
#
#
# Mechanical properties :
#
#
# Convention : Reuss Voigt Hill
#
# Bulk Modulus (GPa) = 41.19105 47.52946 44.36025
# Shear Modulus (GPa) = 17.03180 22.20674 19.61927
#
# Velocity S-wave (km/s) = 3.00636 3.43283 3.22665
# Velocity P-wave (km/s) = 5.82319 6.39802 6.11736
#
# Compressibility (1/GPa) = 0.02427712
#
# Stress axis : x y z
#
# Youngs Moduli (GPa) = 49.25305 93.12594 104.31459
#
# Poissons Ratio (x) = 0.34166 0.20826
# Poissons Ratio (y) = 0.18070 0.26184
# Poissons Ratio (z) = 0.09833 0.23376
#
# Static dielectric constant tensor:
#      x y z
#    x 1.735880 0.000000 0.000000 
#    y 0.000000 1.663770 0.000000 
#    z 0.000000 0.000000 1.692000 
# 
# From -- ./inp_files/34563.got.cif
#   From: 2010.05.17/outbox.cif.g08.bks.cpg/sg48_18_cif.got.tgz:34563.got - 2010.06.03 20:39:00.
