data_PCOD9389980
_publ_section_title
;
Structure prediction by ZEFSAII (Michael W. Deem and Ramdas Pophale) SiO2 
 PCOD9389980
Probable space group: P N N N
;
_chemical_formula_sum "Si O2"
_cell_formula_units_Z 56
_cell_length_a 10.134219
_cell_length_b 11.184264
_cell_length_c 25.468344
_cell_angle_alpha 90.000000
_cell_angle_beta 90.000000
_cell_angle_gamma 90.000000
_cell_volume 2886.678398
_symmetry_space_group_name_H-M "P N N N"
_symmetry_group_IT_number 48
_space_group.IT_coordinate_system_code '2'
_symmetry_cell_setting 'orthorhombic'
loop_
_space_group_symop_operation_xyz
x,y,z
1/2-x,1/2-y,z
x,1/2-y,1/2-z
1/2-x,y,1/2-z
-x,-y,-z
1/2+x,1/2+y,-z
-x,1/2+y,1/2+z
1/2+x,-y,1/2+z
loop_
_atom_site_type_symbol
_atom_site_label
_atom_site_fract_x
_atom_site_fract_y
_atom_site_fract_z
Si Si1 0.431234 0.712880 0.062200
Si Si2 0.715482 0.385952 0.311073
Si Si3 0.485774 0.353390 0.055122
Si Si4 0.151534 0.054221 0.894287
Si Si5 0.903261 0.561720 0.049025
Si Si6 0.223729 0.991953 0.438972
Si Si7 0.519770 0.621543 0.621794
O O1 0.527144 0.643880 0.103592
O O2 0.473390 0.853397 0.065869
O O3 0.292309 0.639329 0.064775
O O4 0.480590 0.694568 0.002281
O O5 0.750000 0.250000 0.329744
O O6 0.750000 0.392486 0.250000
O O7 0.795526 0.490886 0.341336
O O8 0.559185 0.394468 0.324302
O O9 0.602143 0.442323 0.071088
O O10 0.352907 0.427751 0.051090
O O11 0.464820 0.254674 0.100099
O O12 0.272551 0.115487 0.924455
O O13 0.919070 0.437788 0.079945
O O14 0.868490 0.530817 0.988966
O O15 0.153294 0.047154 0.387284
#
# Coordination Sequence:
#
# PCOD9389980 Si02
#       7
#     8   8   8   8   8   8   8
#     4  11  21  33  52  76 119 165 197 232 281 360
#     4  10  21  39  62  85 109 141 187 257 313 349
#     4  11  19  33  53  78 116 162 194 229 289 366
#     4  10  19  35  55  80 109 153 196 238 291 356
#     4  11  21  33  49  79 117 159 202 235 276 351
#     4  11  21  34  49  77 117 164 194 230 287 352
#     4  11  23  34  53  82 113 153 194 245 296 352
#
# _framework density 19.399459
#
# number of rings (size 3 to 8) (size 9 to 14) (size 15 to 20)
#    0.000    1.286    5.714    2.143    0.000    0.571 
#    0.000    0.000    0.000   10.286    0.000    0.000 
#    0.000    9.143    0.000    0.000    0.000    0.000 
#
# Total GULP energy -311828.288591 kJ/mol
# GULP energy per Si atom -5568.362296 kJ/mol
# Density = 1.935531 g / cm^3
# Si number density = 19.399459 Si / 1000 Ang^3
#
#
#
# Elastic Constant Matrix: (Units=GPa)
#
#
# Indices 1 2 3 4 5 6 
#
# 1 98.0618 13.6084 11.0617 0.0000 0.0000 0.0000
# 2 13.6084 105.6811 17.1897 0.0000 0.0000 0.0000
# 3 11.0617 17.1897 62.1229 0.0000 0.0000 0.0000
# 4 0.0000 0.0000 0.0000 15.6981 0.0000 0.0000
# 5 0.0000 0.0000 0.0000 0.0000 26.6357 0.0000
# 6 0.0000 0.0000 0.0000 0.0000 0.0000 12.5663
#
#
#
# Elastic Compliance Matrix: (Units=1/GPa)
#
#
# Indices 1 2 3 4 5 6 
#
# 1 0.010527 -0.001100 -0.001570 0.000000 0.000000 0.000000
# 2 -0.001100 0.010023 -0.002578 0.000000 0.000000 0.000000
# 3 -0.001570 -0.002578 0.017090 0.000000 0.000000 0.000000
# 4 0.000000 0.000000 0.000000 0.063702 0.000000 0.000000
# 5 0.000000 0.000000 0.000000 0.000000 0.037544 0.000000
# 6 0.000000 0.000000 0.000000 0.000000 0.000000 0.079578
#
#
# Mechanical properties :
#
#
# Convention : Reuss Voigt Hill
#
# Bulk Modulus (GPa) = 36.83933 38.84282 37.84108
# Shear Modulus (GPa) = 21.00768 25.91375 23.46072
#
# Velocity S-wave (km/s) = 3.29432 3.65882 3.48134
# Velocity P-wave (km/s) = 5.78801 6.15755 5.97564
#
# Compressibility (1/GPa) = 0.02714490
#
# Stress axis : x y z
#
# Youngs Moduli (GPa) = 94.98986 99.76681 58.51393
#
# Poissons Ratio (x) = 0.10976 0.09187
# Poissons Ratio (y) = 0.10451 0.15083
# Poissons Ratio (z) = 0.14914 0.25716
#
# Static dielectric constant tensor:
#      x y z
#    x 1.817080 0.000000 0.000000 
#    y 0.000000 1.759120 0.000000 
#    z 0.000000 0.000000 1.646080 
# 
# From -- ./inp_files/36356.got.cif
#   From: 2010.05.17/outbox.cif.g08.bks.cpg/sg48_19_cif.got.tgz:36356.got - 2010.06.03 20:39:00.
