data_PCOD9389390
_publ_section_title
;
Structure prediction by ZEFSAII (Michael W. Deem and Ramdas Pophale) SiO2 
 PCOD9389390
Probable space group: P M M M
;
_chemical_formula_sum "Si O2"
_cell_formula_units_Z 64
_cell_length_a 15.000000
_cell_length_b 9.000000
_cell_length_c 24.000000
_cell_angle_alpha 90.000000
_cell_angle_beta 90.000000
_cell_angle_gamma 90.000000
_cell_volume 3240.000000
_symmetry_space_group_name_H-M "P M M M"
_symmetry_group_IT_number 47
_symmetry_cell_setting 'orthorhombic'
loop_
_space_group_symop_operation_xyz
x,y,z
-x,-y,z
x,-y,-z
-x,y,-z
-x,-y,-z
x,y,-z
-x,y,z
x,-y,z
loop_
_atom_site_type_symbol
_atom_site_label
_atom_site_fract_x
_atom_site_fract_y
_atom_site_fract_z
Si Si1 0.101339 0.181053 0.563366
Si Si2 0.400005 0.335632 0.433791
Si Si3 0.280263 0.171115 0.062602
Si Si4 0.600498 0.678903 0.846107
Si Si5 0.904488 0.323424 0.219794
Si Si6 0.714391 0.321085 0.741739
Si Si7 0.900345 0.325810 0.085672
Si Si8 0.733165 0.172163 0.369233
O O1 0.124489 0.227552 0.500000
O O2 0.171863 0.231610 0.609026
O O3 0.000000 0.226878 0.574871
O O4 0.103587 0.000000 0.563366
O O5 0.405575 0.341860 0.500000
O O6 0.500000 0.315094 0.411429
O O7 0.367217 0.500000 0.415145
O O8 0.335304 0.203225 0.418378
O O9 0.337383 0.268697 0.104180
O O10 0.178963 0.227794 0.063132
O O11 0.283148 0.000000 0.080095
O O12 0.315512 0.183479 0.000000
O O13 0.500000 0.734089 0.851889
O O14 0.598911 0.500000 0.845676
O O15 0.646177 0.728995 0.788878
O O16 0.906231 0.500000 0.232121
O O17 0.813961 0.262358 0.244962
O O18 0.898393 0.312700 0.152886
O O19 0.000000 0.259038 0.237846
O O20 0.716296 0.500000 0.743123
O O21 0.692716 0.262072 0.681596
O O22 0.886077 0.500000 0.072260
O O23 0.000000 0.284832 0.067333
O O24 0.741486 0.000000 0.355315
#
# Coordination Sequence:
#
# PCOD9389390 Si02
#       8
#     8   8   8   8   8   8   8   8
#     4   8  15  30  51  74 106 151 195 230 268 316
#     4   9  19  37  59  80 104 138 179 223 276 336
#     4  11  24  39  57  85 122 156 183 222 282 350
#     4  10  22  42  66  86 104 137 191 246 290 338
#     4   8  14  28  53  80 104 135 178 226 271 315
#     4  10  20  36  56  79 110 147 185 227 279 335
#     4   9  17  33  59  87 114 148 191 233 270 315
#     4  11  22  33  51  83 117 146 183 229 275 328
#
# _framework density 19.753086
#
# number of rings (size 3 to 8) (size 9 to 14) (size 15 to 20)
#    0.000    2.500    1.250    2.625    0.000    4.500 
#    0.000    4.375    0.000    1.125    0.000    4.375 
#    0.000    0.000    0.000    0.000    0.000    0.000 
#
# Total GULP energy -356622.588474 kJ/mol
# GULP energy per Si atom -5572.227945 kJ/mol
# Density = 1.970813 g / cm^3
# Si number density = 19.753086 Si / 1000 Ang^3
#
#
#
# Elastic Constant Matrix: (Units=GPa)
#
#
# Indices 1 2 3 4 5 6 
#
# 1 75.8809 16.8123 28.8680 0.0000 0.0000 0.0000
# 2 16.8123 -0.0885 11.8231 0.0000 0.0000 0.0000
# 3 28.8680 11.8231 37.1437 0.0000 0.0000 0.0000
# 4 0.0000 0.0000 0.0000 16.3920 0.0000 0.0000
# 5 0.0000 0.0000 0.0000 0.0000 231.6194 0.0000
# 6 0.0000 0.0000 0.0000 0.0000 0.0000 10.5846
#
#
#
# Elastic Compliance Matrix: (Units=1/GPa)
#
#
# Indices 1 2 3 4 5 6 
#
# 1 0.014592 0.028879 -0.020533 0.000000 0.000000 0.000000
# 2 0.028879 -0.202456 0.041999 0.000000 0.000000 0.000000
# 3 -0.020533 0.041999 0.029512 0.000000 0.000000 0.000000
# 4 0.000000 0.000000 0.000000 0.061005 0.000000 0.000000
# 5 0.000000 0.000000 0.000000 0.000000 0.004317 0.000000
# 6 0.000000 0.000000 0.000000 0.000000 0.000000 0.094477
#
#
# Mechanical properties :
#
#
# Convention : Reuss Voigt Hill
#
# Bulk Modulus (GPa) = -17.34210 25.32700 3.99245
# Shear Modulus (GPa) = -42.20703 55.41470 6.60384
#
# Velocity S-wave (km/s) = -4.62749 5.30232 1.83042
# Velocity P-wave (km/s) = 6.11147 7.09477 2.54810
#
# Compressibility (1/GPa) = -0.05766315
#
# Stress axis : x y z
#
# Youngs Moduli (GPa) = 68.53224 -4.93934 33.88451
#
# Poissons Ratio (x) = 0.14264 0.69575
# Poissons Ratio (y) = -1.97911 -1.42312
# Poissons Ratio (z) = 1.40717 0.20745
#
# Static dielectric constant tensor:
#      x y z
#    x 1.706420 0.000000 0.000000 
#    y 0.000000 1.683050 0.000000 
#    z 0.000000 0.000000 1.728590 
# 
# From -- ./inp_files/32793.got.cif
#   From: 2010.05.17/outbox.ucp.g08.bks.cvg/sg47_17_cif.got.tgz:32793.got - 2010.06.11 16:36:43.
