data_PCOD9389162
_publ_section_title
;
Structure prediction by ZEFSAII (Michael W. Deem and Ramdas Pophale) SiO2 
 PCOD9389162
Probable space group: P M M M
;
_chemical_formula_sum "Si O2"
_cell_formula_units_Z 40
_cell_length_a 12.868098
_cell_length_b 9.325898
_cell_length_c 23.559809
_cell_angle_alpha 90.000000
_cell_angle_beta 90.000000
_cell_angle_gamma 90.000000
_cell_volume 2827.331854
_symmetry_space_group_name_H-M "P M M M"
_symmetry_group_IT_number 47
_symmetry_cell_setting 'orthorhombic'
loop_
_space_group_symop_operation_xyz
x,y,z
-x,-y,z
x,-y,-z
-x,y,-z
-x,-y,-z
x,y,-z
-x,y,z
x,-y,z
loop_
_atom_site_type_symbol
_atom_site_label
_atom_site_fract_x
_atom_site_fract_y
_atom_site_fract_z
Si Si1 0.626404 0.165130 0.274304
Si Si2 0.378525 0.328771 0.159679
Si Si3 0.626614 0.165765 0.500000
Si Si4 0.791424 0.671405 0.933790
Si Si5 0.373295 0.334218 0.613195
Si Si6 0.000000 0.164534 0.931050
O O1 0.500000 0.164781 0.275655
O O2 0.654996 0.243850 0.215942
O O3 0.660645 0.252817 0.329782
O O4 0.660653 0.000000 0.275902
O O5 0.500000 0.296290 0.148157
O O6 0.371580 0.500000 0.170337
O O7 0.305279 0.293870 0.106603
O O8 0.500000 0.165314 0.500000
O O9 0.659275 0.249225 0.443240
O O10 0.659787 0.000000 0.500000
O O11 0.809330 0.500000 0.930998
O O12 0.895149 0.753143 0.914442
O O13 0.770850 0.706944 0.000000
O O14 0.500000 0.334167 0.613377
O O15 0.340462 0.500000 0.612312
O O16 0.000000 0.000000 0.911948
O O17 0.000000 0.165190 0.000000
#
# Coordination Sequence:
#
# PCOD9389162 Si02
#       6
#     8   8   4   8   8   4
#     4   9  16  25  36  49  67  94 127 160 193 230
#     4   9  17  28  41  58  80 105 133 164 198 238
#     4   9  15  21  29  43  63  85 113 152 195 234
#     4   9  17  29  45  63  82 104 130 162 200 241
#     4   9  15  22  32  45  62  86 118 156 195 231
#     4   9  17  29  45  63  81 101 127 160 197 238
#
# _framework density 14.147614000000001
#
# number of rings (size 3 to 8) (size 9 to 14) (size 15 to 20)
#    0.000    3.000    0.000    1.800    0.000    8.400 
#    0.000    2.000    0.000    0.000    0.000    5.600 
#    0.000    0.000    0.000    0.000    0.000    1.000 
#
# Total GULP energy -222687.532331 kJ/mol
# GULP energy per Si atom -5567.188308 kJ/mol
# Density = 1.411541 g / cm^3
# Si number density = 14.147614 Si / 1000 Ang^3
#
#
#
# Elastic Constant Matrix: (Units=GPa)
#
#
# Indices 1 2 3 4 5 6 
#
# 1 44.1369 38.3271 46.7030 0.0000 0.0000 0.0000
# 2 38.3271 98.5303 76.1073 0.0000 0.0000 0.0000
# 3 46.7030 76.1073 122.9029 0.0000 0.0000 0.0000
# 4 0.0000 0.0000 0.0000 19.1420 0.0000 0.0000
# 5 0.0000 0.0000 0.0000 0.0000 -0.1723 0.0000
# 6 0.0000 0.0000 0.0000 0.0000 0.0000 8.5970
#
#
#
# Elastic Compliance Matrix: (Units=1/GPa)
#
#
# Indices 1 2 3 4 5 6 
#
# 1 0.040538 -0.007418 -0.010811 0.000000 0.000000 0.000000
# 2 -0.007418 0.020812 -0.010069 0.000000 0.000000 0.000000
# 3 -0.010811 -0.010069 0.018480 0.000000 0.000000 0.000000
# 4 0.000000 0.000000 0.000000 0.052241 0.000000 0.000000
# 5 0.000000 0.000000 0.000000 0.000000 -5.802980 0.000000
# 6 0.000000 0.000000 0.000000 0.000000 0.000000 0.116319
#
#
# Mechanical properties :
#
#
# Convention : Reuss Voigt Hill
#
# Bulk Modulus (GPa) = 43.04037 65.31610 54.17824
# Shear Modulus (GPa) = -0.91071 12.47552 5.78241
#
# Velocity S-wave (km/s) = -0.80319 2.97275 2.02387
# Velocity P-wave (km/s) = 5.44318 7.61911 6.62114
#
# Compressibility (1/GPa) = 0.02323400
#
# Stress axis : x y z
#
# Youngs Moduli (GPa) = 24.66838 48.04824 54.11333
#
# Poissons Ratio (x) = 0.35644 0.58499
# Poissons Ratio (y) = 0.18300 0.54487
# Poissons Ratio (z) = 0.26668 0.48380
#
# Static dielectric constant tensor:
#      x y z
#    x 1.426450 0.000000 0.000000 
#    y 0.000000 1.476240 0.000000 
#    z 0.000000 0.000000 1.461270 
# 
# From -- ./inp_files/4087.got.cif
#   From: 2010.05.17/outbox.cif.g08.bks.cpg/sg47_3_cif.got.tgz:4087.got - 2010.06.03 20:15:42.
