data_PCOD9389063
_publ_section_title
;
Structure prediction by ZEFSAII (Michael W. Deem and Ramdas Pophale) SiO2 
 PCOD9389063
Probable space group: P M M M
;
_chemical_formula_sum "Si O2"
_cell_formula_units_Z 44
_cell_length_a 7.500059
_cell_length_b 31.630327
_cell_length_c 8.355658
_cell_angle_alpha 90.000000
_cell_angle_beta 90.000000
_cell_angle_gamma 90.000000
_cell_volume 1982.207055
_symmetry_space_group_name_H-M "P M M M"
_symmetry_group_IT_number 47
_symmetry_cell_setting 'orthorhombic'
loop_
_space_group_symop_operation_xyz
x,y,z
-x,-y,z
x,-y,-z
-x,y,-z
-x,-y,-z
x,y,-z
-x,y,z
x,-y,z
loop_
_atom_site_type_symbol
_atom_site_label
_atom_site_fract_x
_atom_site_fract_y
_atom_site_fract_z
Si Si1 0.718498 0.726887 0.813137
Si Si2 0.717108 0.816129 0.319264
Si Si3 0.700686 0.363462 0.192149
Si Si4 0.212000 0.545340 0.681567
Si Si5 0.717728 0.096951 0.176844
Si Si6 0.282332 0.048987 0.500000
O O1 0.500000 0.725558 0.805903
O O2 0.777980 0.769150 0.725050
O O3 0.784457 0.681022 0.751769
O O4 0.765406 0.731216 0.000000
O O5 0.768980 0.826945 0.500000
O O6 0.500000 0.815010 0.314291
O O7 0.771173 0.854166 0.203909
O O8 0.500000 0.362732 0.254716
O O9 0.762564 0.410336 0.231813
O O10 0.700356 0.359824 0.000000
O O11 0.281990 0.548749 0.500000
O O12 0.277587 0.500000 0.750415
O O13 0.000000 0.541681 0.671644
O O14 0.500000 0.095582 0.177568
O O15 0.775837 0.071308 0.334572
O O16 0.774870 0.082180 0.000000
O O17 0.500000 0.051252 0.500000
O O18 0.231249 0.000000 0.500000
#
# Coordination Sequence:
#
# PCOD9389063 Si02
#       6
#     8   8   8   8   8   4
#     4   8  14  24  36  52  76 103 125 149 192 247
#     4   9  14  20  31  47  66  87 116 151 185 233
#     4   9  18  31  46  67  94 117 140 176 221 269
#     4   9  19  35  51  66  86 114 149 186 221 261
#     4   9  15  22  31  41  55  78 108 146 195 245
#     4   9  16  24  30  38  54  74 106 154 198 243
#
# _framework density 22.197482000000001
#
# number of rings (size 3 to 8) (size 9 to 14) (size 15 to 20)
#    0.000    3.182    0.909    2.182    0.000    4.727 
#    0.000    6.364    0.000    0.000    0.000    0.000 
#    0.000    0.000    0.000    0.000    0.000    0.000 
#
# Total GULP energy -245117.259762 kJ/mol
# GULP energy per Si atom -5570.846813 kJ/mol
# Density = 2.214696 g / cm^3
# Si number density = 22.197482 Si / 1000 Ang^3
#
#
#
# Elastic Constant Matrix: (Units=GPa)
#
#
# Indices 1 2 3 4 5 6 
#
# 1 50.5700 7.0413 2.0895 0.0000 0.0000 0.0000
# 2 7.0413 182.5105 73.5215 0.0000 0.0000 0.0000
# 3 2.0895 73.5215 106.4457 0.0000 0.0000 0.0000
# 4 0.0000 0.0000 0.0000 20.6666 0.0000 0.0000
# 5 0.0000 0.0000 0.0000 0.0000 -1.6471 0.0000
# 6 0.0000 0.0000 0.0000 0.0000 0.0000 16.5302
#
#
#
# Elastic Compliance Matrix: (Units=1/GPa)
#
#
# Indices 1 2 3 4 5 6 
#
# 1 0.019884 -0.000845 0.000193 0.000000 0.000000 0.000000
# 2 -0.000845 0.007627 -0.005251 0.000000 0.000000 0.000000
# 3 0.000193 -0.005251 0.013018 0.000000 0.000000 0.000000
# 4 0.000000 0.000000 0.000000 0.048387 0.000000 0.000000
# 5 0.000000 0.000000 0.000000 0.000000 -0.607139 0.000000
# 6 0.000000 0.000000 0.000000 0.000000 0.000000 0.060495
#
#
# Mechanical properties :
#
#
# Convention : Reuss Voigt Hill
#
# Bulk Modulus (GPa) = 34.81537 56.09231 45.45384
# Shear Modulus (GPa) = -11.45879 24.23486 6.38803
#
# Velocity S-wave (km/s) = -2.27451 3.30780 1.69825
# Velocity P-wave (km/s) = 2.96994 6.31769 4.93628
#
# Compressibility (1/GPa) = 0.02872295
#
# Stress axis : x y z
#
# Youngs Moduli (GPa) = 50.29105 131.10941 76.81767
#
# Poissons Ratio (x) = 0.11079 -0.01485
# Poissons Ratio (y) = 0.04250 0.40341
# Poissons Ratio (z) = -0.00972 0.68852
#
# Static dielectric constant tensor:
#      x y z
#    x 1.858400 0.000000 0.000000 
#    y 0.000000 1.855960 0.000000 
#    z 0.000000 0.000000 1.793910 
# 
# From -- ./inp_files/2110.got.cif
#   From: 2010.05.17/outbox.cif.g08.bks.cpg/sg47_2_cif.got.tgz:2110.got - 2010.06.03 20:15:42.
