data_PCOD9389842
_publ_section_title
;
Structure prediction by ZEFSAII (Michael W. Deem and Ramdas Pophale) SiO2 
 PCOD9389842
Probable space group: P N N N
;
_chemical_formula_sum "Si O2"
_cell_formula_units_Z 40
_cell_length_a 8.773068
_cell_length_b 9.920382
_cell_length_c 21.068893
_cell_angle_alpha 90.000000
_cell_angle_beta 90.000000
_cell_angle_gamma 90.000000
_cell_volume 1833.671812
_symmetry_space_group_name_H-M "P N N N"
_symmetry_group_IT_number 48
_space_group.IT_coordinate_system_code '2'
_symmetry_cell_setting 'orthorhombic'
loop_
_space_group_symop_operation_xyz
x,y,z
1/2-x,1/2-y,z
x,1/2-y,1/2-z
1/2-x,y,1/2-z
-x,-y,-z
1/2+x,1/2+y,-z
-x,1/2+y,1/2+z
1/2+x,-y,1/2+z
loop_
_atom_site_type_symbol
_atom_site_label
_atom_site_fract_x
_atom_site_fract_y
_atom_site_fract_z
Si Si1 0.676678 0.900579 0.185653
Si Si2 0.310583 0.897793 0.179574
Si Si3 0.133945 0.032289 0.071107
Si Si4 0.573182 0.277655 0.000055
Si Si5 0.174056 0.103391 0.548551
O O1 0.750000 0.750000 0.183968
O O2 0.750000 0.962183 0.250000
O O3 0.493260 0.892791 0.186220
O O4 0.702806 0.966414 0.116176
O O5 0.250000 0.750000 0.158267
O O6 0.250000 0.920182 0.250000
O O7 0.233666 0.008543 0.133591
O O8 0.020472 0.159225 0.060040
O O9 0.246767 0.041473 0.011741
O O10 0.050504 0.892085 0.054498
O O11 0.750000 0.250000 0.012989
O O12 0.496932 0.144037 0.970974
O O13 0.250000 0.250000 0.554046
#
# Coordination Sequence:
#
# PCOD9389842 Si02
#       5
#     8   8   8   8   8
#     4  10  19  31  50  76 109 147 183 226 284 346
#     4  11  22  36  55  81 118 152 183 234 300 366
#     4  10  21  36  57  83 115 156 194 234 300 361
#     4  10  20  34  56  86 117 149 195 247 290 348
#     4   9  19  35  53  79 114 147 185 236 286 338
#
# _framework density 21.814153999999998
#
# number of rings (size 3 to 8) (size 9 to 14) (size 15 to 20)
#    0.000    2.000    0.000    5.400    0.000    9.600 
#    0.000    0.000    0.000    5.400    0.000    7.000 
#    0.000    2.400    0.000    0.000    0.000    0.000 
#
# Total GULP energy -223009.188792 kJ/mol
# GULP energy per Si atom -5575.229720 kJ/mol
# Density = 2.176450 g / cm^3
# Si number density = 21.814154 Si / 1000 Ang^3
#
#
#
# Elastic Constant Matrix: (Units=GPa)
#
#
# Indices 1 2 3 4 5 6 
#
# 1 161.6372 16.8604 56.3433 0.0000 0.0000 0.0000
# 2 16.8604 37.1631 28.1640 0.0000 0.0000 0.0000
# 3 56.3433 28.1640 150.0494 0.0000 0.0000 0.0000
# 4 0.0000 0.0000 0.0000 26.2090 0.0000 0.0000
# 5 0.0000 0.0000 0.0000 0.0000 26.5277 0.0000
# 6 0.0000 0.0000 0.0000 0.0000 0.0000 31.7130
#
#
#
# Elastic Compliance Matrix: (Units=1/GPa)
#
#
# Indices 1 2 3 4 5 6 
#
# 1 0.007182 -0.001416 -0.002431 0.000000 0.000000 0.000000
# 2 -0.001416 0.031650 -0.005409 0.000000 0.000000 0.000000
# 3 -0.002431 -0.005409 0.008593 0.000000 0.000000 0.000000
# 4 0.000000 0.000000 0.000000 0.038155 0.000000 0.000000
# 5 0.000000 0.000000 0.000000 0.000000 0.037696 0.000000
# 6 0.000000 0.000000 0.000000 0.000000 0.000000 0.031533
#
#
# Mechanical properties :
#
#
# Convention : Reuss Voigt Hill
#
# Bulk Modulus (GPa) = 34.58705 61.28722 47.93714
# Shear Modulus (GPa) = 27.32871 33.38874 30.35872
#
# Velocity S-wave (km/s) = 3.54333 3.91653 3.73459
# Velocity P-wave (km/s) = 5.71227 6.97198 6.37332
#
# Compressibility (1/GPa) = 0.02891255
#
# Stress axis : x y z
#
# Youngs Moduli (GPa) = 139.24124 31.59556 116.37987
#
# Poissons Ratio (x) = 0.04474 0.28292
# Poissons Ratio (y) = 0.19716 0.62949
# Poissons Ratio (z) = 0.33849 0.17090
#
# Static dielectric constant tensor:
#      x y z
#    x 2.602550 0.000000 0.000000 
#    y 0.000000 1.896940 0.000000 
#    z 0.000000 0.000000 1.846750 
# 
# From -- ./inp_files/33398.got.cif
#   From: 2010.05.17/outbox.cif.g08.bks.cpg/sg48_17_cif.got.tgz:33398.got - 2010.06.03 20:39:00.
