data_PCOD9389957
_publ_section_title
;
Structure prediction by ZEFSAII (Michael W. Deem and Ramdas Pophale) SiO2 
 PCOD9389957
Probable space group: P N N N
;
_chemical_formula_sum "Si O2"
_cell_formula_units_Z 32
_cell_length_a 5.286427
_cell_length_b 35.308795
_cell_length_c 7.079528
_cell_angle_alpha 90.000000
_cell_angle_beta 90.000000
_cell_angle_gamma 90.000000
_cell_volume 1321.446058
_symmetry_space_group_name_H-M "P N N N"
_symmetry_group_IT_number 48
_space_group.IT_coordinate_system_code '2'
_symmetry_cell_setting 'orthorhombic'
loop_
_space_group_symop_operation_xyz
x,y,z
1/2-x,1/2-y,z
x,1/2-y,1/2-z
1/2-x,y,1/2-z
-x,-y,-z
1/2+x,1/2+y,-z
-x,1/2+y,1/2+z
1/2+x,-y,1/2+z
loop_
_atom_site_type_symbol
_atom_site_label
_atom_site_fract_x
_atom_site_fract_y
_atom_site_fract_z
Si Si1 0.497781 0.962219 0.377806
Si Si2 0.304220 0.883485 0.475245
Si Si3 0.002802 0.233129 0.462961
Si Si4 0.306030 0.350082 0.523911
O O1 0.250000 0.965363 0.250000
O O2 0.441925 0.923864 0.494020
O O3 0.750000 0.958212 0.250000
O O4 0.500000 0.000000 0.500000
O O5 0.250000 0.877255 0.250000
O O6 0.517694 0.854212 0.549493
O O7 0.014484 0.880911 0.543970
O O8 0.750000 0.250000 0.548159
O O9 0.001256 0.250000 0.250000
O O10 0.250000 0.250000 0.555086
O O11 0.049698 0.188585 0.473538
O O12 0.250000 0.352268 0.750000
#
# Coordination Sequence:
#
# PCOD9389957 Si02
#       4
#     8   8   8   8
#     4  11  22  39  66  93 133 172 212 259 316 382
#     4   9  18  34  58  88 114 155 197 248 309 351
#     4  10  21  37  57  77 114 156 195 234 315 373
#     4  10  19  34  58  84 112 145 206 257 292 355
#
# _framework density 24.215896999999998
#
# number of rings (size 3 to 8) (size 9 to 14) (size 15 to 20)
#    0.000    2.000    0.000    6.000    0.000    0.500 
#    0.000    1.250   33.000    0.000    0.000    0.000 
#    0.000    0.000    0.000    0.000    0.000    0.000 
#
# Total GULP energy -178532.309864 kJ/mol
# GULP energy per Si atom -5579.134683 kJ/mol
# Density = 2.416078 g / cm^3
# Si number density = 24.215897 Si / 1000 Ang^3
#
#
#
# Elastic Constant Matrix: (Units=GPa)
#
#
# Indices 1 2 3 4 5 6 
#
# 1 239.7727 87.7391 34.1597 0.0000 0.0000 0.0000
# 2 87.7391 128.7301 7.4653 0.0000 0.0000 0.0000
# 3 34.1597 7.4653 92.6712 0.0000 0.0000 0.0000
# 4 0.0000 0.0000 0.0000 33.3246 0.0000 0.0000
# 5 0.0000 0.0000 0.0000 0.0000 -83.6056 0.0000
# 6 0.0000 0.0000 0.0000 0.0000 0.0000 44.4306
#
#
#
# Elastic Compliance Matrix: (Units=1/GPa)
#
#
# Indices 1 2 3 4 5 6 
#
# 1 0.005854 -0.003883 -0.001845 0.000000 0.000000 0.000000
# 2 -0.003883 0.010380 0.000595 0.000000 0.000000 0.000000
# 3 -0.001845 0.000595 0.011423 0.000000 0.000000 0.000000
# 4 0.000000 0.000000 0.000000 0.030008 0.000000 0.000000
# 5 0.000000 0.000000 0.000000 0.000000 -0.011961 0.000000
# 6 0.000000 0.000000 0.000000 0.000000 0.000000 0.022507
#
#
# Mechanical properties :
#
#
# Convention : Reuss Voigt Hill
#
# Bulk Modulus (GPa) = 57.49965 79.98914 68.74439
# Shear Modulus (GPa) = 59.32920 20.95058 40.13989
#
# Velocity S-wave (km/s) = 4.95513 2.94455 4.07576
# Velocity P-wave (km/s) = 7.51890 6.68310 7.11329
#
# Compressibility (1/GPa) = 0.01739141
#
# Stress axis : x y z
#
# Youngs Moduli (GPa) = 170.80932 96.33541 87.54222
#
# Poissons Ratio (x) = 0.37409 0.16153
# Poissons Ratio (y) = 0.66330 -0.05211
# Poissons Ratio (z) = 0.31518 -0.05734
#
# Static dielectric constant tensor:
#      x y z
#    x 1.936410 0.000000 0.000000 
#    y 0.000000 2.114090 0.000000 
#    z 0.000000 0.000000 1.906830 
# 
# From -- ./inp_files/7561.got.cif
#   From: 2010.05.17/outbox.cif.g08.bks.cpg/sg48_4_cif.got.tgz:7561.got - 2010.06.03 20:39:00.
