data_PCOD9389612
_publ_section_title
;
Structure prediction by ZEFSAII (Michael W. Deem and Ramdas Pophale) SiO2 
 PCOD9389612
Probable space group: P N N N
;
_chemical_formula_sum "Si O2"
_cell_formula_units_Z 64
_cell_length_a 20.439914
_cell_length_b 8.540608
_cell_length_c 21.655198
_cell_angle_alpha 90.000000
_cell_angle_beta 90.000000
_cell_angle_gamma 90.000000
_cell_volume 3780.332605
_symmetry_space_group_name_H-M "P N N N"
_symmetry_group_IT_number 48
_space_group.IT_coordinate_system_code '2'
_symmetry_cell_setting 'orthorhombic'
loop_
_space_group_symop_operation_xyz
x,y,z
1/2-x,1/2-y,z
x,1/2-y,1/2-z
1/2-x,y,1/2-z
-x,-y,-z
1/2+x,1/2+y,-z
-x,1/2+y,1/2+z
1/2+x,-y,1/2+z
loop_
_atom_site_type_symbol
_atom_site_label
_atom_site_fract_x
_atom_site_fract_y
_atom_site_fract_z
Si Si1 0.561696 0.608197 0.878709
Si Si2 0.680623 0.790027 0.467830
Si Si3 0.953849 0.662402 0.073053
Si Si4 0.361175 0.898292 0.476037
Si Si5 0.042375 0.797761 0.183504
Si Si6 0.540719 0.301665 0.449173
Si Si7 0.681807 0.306519 0.638334
Si Si8 0.681240 0.829146 0.894066
O O1 0.547466 0.484303 0.825442
O O2 0.497965 0.702042 0.898722
O O3 0.620764 0.729479 0.867140
O O4 0.585885 0.500061 0.936586
O O5 0.750000 0.750000 0.437828
O O6 0.615456 0.750662 0.430187
O O7 0.675482 0.689675 0.531598
O O8 0.681067 0.969826 0.490308
O O9 0.944851 0.475324 0.074899
O O10 0.998691 0.725805 0.128417
O O11 0.992106 0.689554 0.008466
O O12 0.396480 0.787776 0.524930
O O13 0.324851 0.793805 0.425158
O O14 0.016490 0.750000 0.250000
O O15 0.116257 0.733720 0.175444
O O16 0.750000 0.250000 0.667529
O O17 0.681410 0.490539 0.624348
O O18 0.750000 0.750000 0.876361
#
# Coordination Sequence:
#
# PCOD9389612 Si02
#       8
#     8   8   8   8   8   8   8   8
#     4  10  18  31  51  75 104 136 176 219 265 318
#     4  10  19  31  50  81 115 141 169 211 269 334
#     4  11  20  33  55  78 111 138 175 223 269 325
#     4  10  18  28  48  76 109 139 170 209 264 324
#     4  11  24  39  54  74 102 143 188 226 265 314
#     4  11  18  30  54  85 107 135 173 215 278 324
#     4  11  20  33  51  73 105 145 187 224 263 303
#     4  10  18  30  48  76 109 140 172 214 271 323
#
# _framework density 16.929728000000001
#
# number of rings (size 3 to 8) (size 9 to 14) (size 15 to 20)
#    0.000    1.500    5.000    5.625    0.000    0.250 
#    0.000    2.500    0.000    1.125    0.000    0.000 
#    0.000    2.000    0.000    0.000    0.000    0.000 
#
# Total GULP energy -357225.433932 kJ/mol
# GULP energy per Si atom -5581.647405 kJ/mol
# Density = 1.689120 g / cm^3
# Si number density = 16.929728 Si / 1000 Ang^3
#
#
#
# Elastic Constant Matrix: (Units=GPa)
#
#
# Indices 1 2 3 4 5 6 
#
# 1 63.6447 17.9494 25.2200 0.0000 0.0000 0.0000
# 2 17.9494 111.6017 25.9704 0.0000 0.0000 0.0000
# 3 25.2200 25.9704 37.9037 0.0000 0.0000 0.0000
# 4 0.0000 0.0000 0.0000 9.1216 0.0000 0.0000
# 5 0.0000 0.0000 0.0000 0.0000 1.6331 0.0000
# 6 0.0000 0.0000 0.0000 0.0000 0.0000 26.9310
#
#
#
# Elastic Compliance Matrix: (Units=1/GPa)
#
#
# Indices 1 2 3 4 5 6 
#
# 1 0.021341 -0.000152 -0.014095 0.000000 0.000000 0.000000
# 2 -0.000152 0.010661 -0.007203 0.000000 0.000000 0.000000
# 3 -0.014095 -0.007203 0.040697 0.000000 0.000000 0.000000
# 4 0.000000 0.000000 0.000000 0.109629 0.000000 0.000000
# 5 0.000000 0.000000 0.000000 0.000000 0.612342 0.000000
# 6 0.000000 0.000000 0.000000 0.000000 0.000000 0.037132
#
#
# Mechanical properties :
#
#
# Convention : Reuss Voigt Hill
#
# Bulk Modulus (GPa) = 33.56050 39.04776 36.30413
# Shear Modulus (GPa) = 5.65205 17.13782 11.39494
#
# Velocity S-wave (km/s) = 1.82915 3.18510 2.59718
# Velocity P-wave (km/s) = 4.93229 6.05320 5.52126
#
# Compressibility (1/GPa) = 0.02979694
#
# Stress axis : x y z
#
# Youngs Moduli (GPa) = 46.85924 93.79802 24.57206
#
# Poissons Ratio (x) = 0.01428 0.34634
# Poissons Ratio (y) = 0.00714 0.17700
# Poissons Ratio (z) = 0.66048 0.67566
#
# Static dielectric constant tensor:
#      x y z
#    x 1.594010 0.000000 0.000000 
#    y 0.000000 1.589480 0.000000 
#    z 0.000000 0.000000 1.547140 
# 
# From -- ./inp_files/34894.got.cif
#   From: 2010.05.17/outbox.cif.g08.bks.cpg/sg48_18_cif.got.tgz:34894.got - 2010.06.03 20:39:00.
