data_PCOD9389679
_publ_section_title
;
Structure prediction by ZEFSAII (Michael W. Deem and Ramdas Pophale) SiO2 
 PCOD9389679
Probable space group: P N N N
;
_chemical_formula_sum "Si O2"
_cell_formula_units_Z 38
_cell_length_a 13.258669
_cell_length_b 5.130282
_cell_length_c 27.839845
_cell_angle_alpha 90.000000
_cell_angle_beta 90.000000
_cell_angle_gamma 90.000000
_cell_volume 1893.686049
_symmetry_space_group_name_H-M "P N N N"
_symmetry_group_IT_number 48
_space_group.IT_coordinate_system_code '2'
_symmetry_cell_setting 'orthorhombic'
loop_
_space_group_symop_operation_xyz
x,y,z
1/2-x,1/2-y,z
x,1/2-y,1/2-z
1/2-x,y,1/2-z
-x,-y,-z
1/2+x,1/2+y,-z
-x,1/2+y,1/2+z
1/2+x,-y,1/2+z
loop_
_atom_site_type_symbol
_atom_site_label
_atom_site_fract_x
_atom_site_fract_y
_atom_site_fract_z
Si Si1 0.319764 0.003974 0.427429
Si Si2 0.484615 0.380368 0.875659
Si Si3 0.138731 0.384117 0.531510
Si Si4 0.118154 0.912482 0.663928
Si Si5 0.250000 0.750000 0.750000
Si Si6 0.250000 0.750000 0.587207
O O1 0.250000 0.250000 0.415331
O O2 0.382338 0.092505 0.475334
O O3 0.250000 0.750000 0.437879
O O4 0.399665 0.939959 0.386380
O O5 0.439157 0.291022 0.928193
O O6 0.429834 0.635270 0.852885
O O7 0.462306 0.139474 0.841023
O O8 0.250000 0.250000 0.533907
O O9 0.161013 0.671478 0.551990
O O10 0.175398 0.903182 0.714322
O O11 0.206517 0.959958 0.624406
#
# Coordination Sequence:
#
# PCOD9389679 Si02
#       6
#     8   8   8   8   2   4
#     4  11  23  37  55  81 117 166 222 261 283 326
#     4  11  22  37  57  85 120 164 203 244 308 354
#     4  10  18  32  51  80 117 160 208 248 289 347
#     4  10  22  36  60  86 123 153 187 239 308 389
#     4  10  24  42  68 102 126 150 184 242 324 412
#     4   9  16  31  48  78 116 156 190 223 298 347
#
# _framework density 20.066686000000001
#
# number of rings (size 3 to 8) (size 9 to 14) (size 15 to 20)
#    0.000    1.684    3.158    1.895    0.000    1.684 
#    0.000    6.316    0.000    0.000    0.000   11.053 
#    0.000    0.000    0.000    0.000    0.000    0.000 
#
# Total GULP energy -211645.923985 kJ/mol
# GULP energy per Si atom -5569.629579 kJ/mol
# Density = 2.002101 g / cm^3
# Si number density = 20.066686 Si / 1000 Ang^3
#
#
#
# Elastic Constant Matrix: (Units=GPa)
#
#
# Indices 1 2 3 4 5 6 
#
# 1 70.8404 34.8861 47.5025 0.0000 0.0000 0.0000
# 2 34.8861 104.6358 35.6795 0.0000 0.0000 0.0000
# 3 47.5025 35.6795 98.2220 0.0000 0.0000 0.0000
# 4 0.0000 0.0000 0.0000 14.8938 0.0000 0.0000
# 5 0.0000 0.0000 0.0000 0.0000 28.2873 0.0000
# 6 0.0000 0.0000 0.0000 0.0000 0.0000 26.1076
#
#
#
# Elastic Compliance Matrix: (Units=1/GPa)
#
#
# Indices 1 2 3 4 5 6 
#
# 1 0.022484 -0.004324 -0.009303 0.000000 0.000000 0.000000
# 2 -0.004324 0.011740 -0.002173 0.000000 0.000000 0.000000
# 3 -0.009303 -0.002173 0.015470 0.000000 0.000000 0.000000
# 4 0.000000 0.000000 0.000000 0.067142 0.000000 0.000000
# 5 0.000000 0.000000 0.000000 0.000000 0.035352 0.000000
# 6 0.000000 0.000000 0.000000 0.000000 0.000000 0.038303
#
#
# Mechanical properties :
#
#
# Convention : Reuss Voigt Hill
#
# Bulk Modulus (GPa) = 55.27144 56.64828 55.95986
# Shear Modulus (GPa) = 21.91817 24.23308 23.07563
#
# Velocity S-wave (km/s) = 3.30853 3.47886 3.39477
# Velocity P-wave (km/s) = 6.49606 6.66543 6.58129
#
# Compressibility (1/GPa) = 0.01809253
#
# Stress axis : x y z
#
# Youngs Moduli (GPa) = 44.47646 85.18127 64.64284
#
# Poissons Ratio (x) = 0.36832 0.60137
# Poissons Ratio (y) = 0.19232 0.14049
# Poissons Ratio (z) = 0.41376 0.18512
#
# Static dielectric constant tensor:
#      x y z
#    x 1.773590 0.000000 0.000000 
#    y 0.000000 1.827480 0.000000 
#    z 0.000000 0.000000 1.710730 
# 
# From -- ./inp_files/3458.got.cif
#   From: 2010.05.17/outbox.cif.g08.bks.cpg/sg48_2_cif.got.tgz:3458.got - 2010.06.03 20:39:00.
