data_PCOD9389032
_publ_section_title
;
Structure prediction by ZEFSAII (Michael W. Deem and Ramdas Pophale) SiO2 
 PCOD9389032
Probable space group: P M M M
;
_chemical_formula_sum "Si O2"
_cell_formula_units_Z 52
_cell_length_a 7.565905
_cell_length_b 29.512306
_cell_length_c 14.204617
_cell_angle_alpha 90.000000
_cell_angle_beta 90.000000
_cell_angle_gamma 90.000000
_cell_volume 3171.710628
_symmetry_space_group_name_H-M "P M M M"
_symmetry_group_IT_number 47
_symmetry_cell_setting 'orthorhombic'
loop_
_space_group_symop_operation_xyz
x,y,z
-x,-y,z
x,-y,-z
-x,y,-z
-x,-y,-z
x,y,-z
-x,y,z
x,-y,z
loop_
_atom_site_type_symbol
_atom_site_label
_atom_site_fract_x
_atom_site_fract_y
_atom_site_fract_z
Si Si1 0.297395 0.621547 0.885376
Si Si2 0.214113 0.050620 0.297428
Si Si3 0.000000 0.448083 0.114802
Si Si4 0.210070 0.905936 0.895892
Si Si5 0.713913 0.186466 0.204782
Si Si6 0.290717 0.142710 0.603667
Si Si7 0.284160 0.721997 0.891412
O O1 0.500000 0.615209 0.854985
O O2 0.232050 0.671800 0.857735
O O3 0.170374 0.581033 0.855764
O O4 0.298056 0.622463 0.000000
O O5 0.278003 0.065227 0.192899
O O6 0.269071 0.090093 0.368342
O O7 0.000000 0.050833 0.295685
O O8 0.272926 0.000000 0.321225
O O9 0.000000 0.500000 0.146791
O O10 0.000000 0.448925 0.000000
O O11 0.237114 0.853500 0.867545
O O12 0.000000 0.914266 0.899632
O O13 0.282753 0.915334 0.000000
O O14 0.500000 0.187419 0.207682
O O15 0.780598 0.171114 0.307581
O O16 0.775013 0.235404 0.169785
O O17 0.216275 0.151686 0.500000
O O18 0.500000 0.151979 0.600052
O O19 0.500000 0.721557 0.891844
O O20 0.228349 0.728075 0.000000
#
# Coordination Sequence:
#
# PCOD9389032 Si02
#       7
#     8   8   4   8   8   8   8
#     4   8  14  24  35  49  72 100 133 174 212 243
#     4   9  18  31  45  60  76  97 127 157 187 230
#     4   9  16  24  34  50  72 102 143 181 210 241
#     4   9  17  28  40  57  81 101 120 152 191 231
#     4   9  16  27  43  59  76 101 131 158 188 234
#     4   9  18  31  45  61  80 100 123 156 197 237
#     4   8  13  22  37  55  74  97 126 159 193 230
#
# _framework density 16.394939000000001
#
# number of rings (size 3 to 8) (size 9 to 14) (size 15 to 20)
#    0.000    3.308    0.000    1.385    0.000    2.462 
#    1.385    4.615    0.000    0.000    0.000    4.308 
#    0.000    0.000    0.000    0.000    0.000    1.538 
#
# Total GULP energy -289684.796617 kJ/mol
# GULP energy per Si atom -5570.861473 kJ/mol
# Density = 1.635762 g / cm^3
# Si number density = 16.394939 Si / 1000 Ang^3
#
#
#
# Elastic Constant Matrix: (Units=GPa)
#
#
# Indices 1 2 3 4 5 6 
#
# 1 42.6793 11.1289 1.5125 0.0000 0.0000 0.0000
# 2 11.1289 105.1826 14.0863 0.0000 0.0000 0.0000
# 3 1.5125 14.0863 59.5658 0.0000 0.0000 0.0000
# 4 0.0000 0.0000 0.0000 7.4713 0.0000 0.0000
# 5 0.0000 0.0000 0.0000 0.0000 7.3940 0.0000
# 6 0.0000 0.0000 0.0000 0.0000 0.0000 20.2132
#
#
#
# Elastic Compliance Matrix: (Units=1/GPa)
#
#
# Indices 1 2 3 4 5 6 
#
# 1 0.024095 -0.002548 -0.000009 0.000000 0.000000 0.000000
# 2 -0.002548 0.010088 -0.002321 0.000000 0.000000 0.000000
# 3 -0.000009 -0.002321 0.017337 0.000000 0.000000 0.000000
# 4 0.000000 0.000000 0.000000 0.133846 0.000000 0.000000
# 5 0.000000 0.000000 0.000000 0.000000 0.135245 0.000000
# 6 0.000000 0.000000 0.000000 0.000000 0.000000 0.049473
#
#
# Mechanical properties :
#
#
# Convention : Reuss Voigt Hill
#
# Bulk Modulus (GPa) = 23.94425 28.98703 26.46564
# Shear Modulus (GPa) = 12.69802 19.06235 15.88019
#
# Velocity S-wave (km/s) = 2.78602 3.41353 3.11562
# Velocity P-wave (km/s) = 4.99856 5.76673 5.39633
#
# Compressibility (1/GPa) = 0.04176368
#
# Stress axis : x y z
#
# Youngs Moduli (GPa) = 41.50182 99.13057 57.67929
#
# Poissons Ratio (x) = 0.25260 0.00053
# Poissons Ratio (y) = 0.10575 0.13387
# Poissons Ratio (z) = 0.00038 0.23007
#
# Static dielectric constant tensor:
#      x y z
#    x 1.622880 0.000000 0.000000 
#    y 0.000000 1.546330 0.000000 
#    z 0.000000 0.000000 1.547970 
# 
# From -- ./inp_files/21996.got.cif
#   From: 2010.05.17/outbox.cif.g08.bks.cpg/sg47_11_cif.got.tgz:21996.got - 2010.06.03 20:15:42.
