data_PCOD9389776
_publ_section_title
;
Structure prediction by ZEFSAII (Michael W. Deem and Ramdas Pophale) SiO2 
 PCOD9389776
Probable space group: P N N N
;
_chemical_formula_sum "Si O2"
_cell_formula_units_Z 56
_cell_length_a 9.666086
_cell_length_b 13.677753
_cell_length_c 20.106347
_cell_angle_alpha 90.000000
_cell_angle_beta 90.000000
_cell_angle_gamma 90.000000
_cell_volume 2658.266908
_symmetry_space_group_name_H-M "P N N N"
_symmetry_group_IT_number 48
_space_group.IT_coordinate_system_code '2'
_symmetry_cell_setting 'orthorhombic'
loop_
_space_group_symop_operation_xyz
x,y,z
1/2-x,1/2-y,z
x,1/2-y,1/2-z
1/2-x,y,1/2-z
-x,-y,-z
1/2+x,1/2+y,-z
-x,1/2+y,1/2+z
1/2+x,-y,1/2+z
loop_
_atom_site_type_symbol
_atom_site_label
_atom_site_fract_x
_atom_site_fract_y
_atom_site_fract_z
Si Si1 0.033203 0.327967 0.383848
Si Si2 0.022650 0.613610 0.901405
Si Si3 0.688638 0.013051 0.429941
Si Si4 0.368914 0.104801 0.698047
Si Si5 0.413157 0.612880 0.750685
Si Si6 0.242280 0.027403 0.079330
Si Si7 0.323661 0.850703 0.320444
O O1 0.007680 0.225842 0.420238
O O2 0.935335 0.413064 0.413365
O O3 0.986939 0.324426 0.307074
O O4 0.185417 0.372313 0.388726
O O5 0.172365 0.576091 0.921887
O O6 0.022736 0.614547 0.821546
O O7 0.906252 0.539575 0.925843
O O8 0.688531 0.925896 0.375051
O O9 0.681868 0.979403 0.505479
O O10 0.250000 0.138979 0.750000
O O11 0.511328 0.164375 0.690253
O O12 0.417788 0.000168 0.727039
O O13 0.250000 0.638406 0.750000
O O14 0.199263 0.936719 0.125927
O O15 0.250000 0.750000 0.342158
O O16 0.250000 0.877103 0.250000
#
# Coordination Sequence:
#
# PCOD9389776 Si02
#       7
#     8   8   8   8   8   8   8
#     4  11  23  39  67  98 133 173 205 264 330 406
#     4  12  23  39  66 100 136 167 214 261 333 407
#     4  11  23  42  66  96 129 179 223 262 321 401
#     4  10  19  42  74  95 128 176 215 276 339 385
#     4  10  18  36  64 101 129 161 204 257 321 401
#     4  12  26  43  63  95 141 172 216 275 332 389
#     4  11  25  45  70  96 128 174 236 283 325 382
#
# _framework density 21.066357
#
# number of rings (size 3 to 8) (size 9 to 14) (size 15 to 20)
#    0.000    1.000    7.143    3.000    0.000    1.714 
#    0.000    2.857    0.000    0.000    0.000    0.000 
#    0.000    0.000    0.000    0.000    0.000    0.000 
#
# Total GULP energy -312862.904598 kJ/mol
# GULP energy per Si atom -5586.837582 kJ/mol
# Density = 2.101841 g / cm^3
# Si number density = 21.066357 Si / 1000 Ang^3
#
#
#
# Elastic Constant Matrix: (Units=GPa)
#
#
# Indices 1 2 3 4 5 6 
#
# 1 99.6592 29.4088 16.6150 0.0000 0.0000 0.0000
# 2 29.4088 78.3920 26.6290 0.0000 0.0000 0.0000
# 3 16.6150 26.6290 118.1234 0.0000 0.0000 0.0000
# 4 0.0000 0.0000 0.0000 9.7427 0.0000 0.0000
# 5 0.0000 0.0000 0.0000 0.0000 10.6660 0.0000
# 6 0.0000 0.0000 0.0000 0.0000 0.0000 5.9309
#
#
#
# Elastic Compliance Matrix: (Units=1/GPa)
#
#
# Indices 1 2 3 4 5 6 
#
# 1 0.011335 -0.004018 -0.000688 0.000000 0.000000 0.000000
# 2 -0.004018 0.015239 -0.002870 0.000000 0.000000 0.000000
# 3 -0.000688 -0.002870 0.009210 0.000000 0.000000 0.000000
# 4 0.000000 0.000000 0.000000 0.102641 0.000000 0.000000
# 5 0.000000 0.000000 0.000000 0.000000 0.093756 0.000000
# 6 0.000000 0.000000 0.000000 0.000000 0.000000 0.168607
#
#
# Mechanical properties :
#
#
# Convention : Reuss Voigt Hill
#
# Bulk Modulus (GPa) = 48.47476 49.05333 48.76405
# Shear Modulus (GPa) = 11.82545 20.16940 15.99742
#
# Velocity S-wave (km/s) = 2.37184 3.09758 2.75868
# Velocity P-wave (km/s) = 5.52823 6.01074 5.77453
#
# Compressibility (1/GPa) = 0.02062929
#
# Stress axis : x y z
#
# Youngs Moduli (GPa) = 88.22415 65.62175 108.58252
#
# Poissons Ratio (x) = 0.26369 0.07475
# Poissons Ratio (y) = 0.35452 0.31165
# Poissons Ratio (z) = 0.06074 0.18834
#
# Static dielectric constant tensor:
#      x y z
#    x 1.780310 0.000000 0.000000 
#    y 0.000000 1.756310 0.000000 
#    z 0.000000 0.000000 1.749800 
# 
# From -- ./inp_files/33595.got.cif
#   From: 2010.05.17/outbox.cif.g08.bks.cpg/sg48_17_cif.got.tgz:33595.got - 2010.06.03 20:39:00.
