data_PCOD9389489
_publ_section_title
;
Structure prediction by ZEFSAII (Michael W. Deem and Ramdas Pophale) SiO2 
 PCOD9389489
Probable space group: P N N N
;
_chemical_formula_sum "Si O2"
_cell_formula_units_Z 40
_cell_length_a 12.846529
_cell_length_b 24.122831
_cell_length_c 5.102283
_cell_angle_alpha 90.000000
_cell_angle_beta 90.000000
_cell_angle_gamma 90.000000
_cell_volume 1581.170194
_symmetry_space_group_name_H-M "P N N N"
_symmetry_group_IT_number 48
_space_group.IT_coordinate_system_code '2'
_symmetry_cell_setting 'orthorhombic'
loop_
_space_group_symop_operation_xyz
x,y,z
1/2-x,1/2-y,z
x,1/2-y,1/2-z
1/2-x,y,1/2-z
-x,-y,-z
1/2+x,1/2+y,-z
-x,1/2+y,1/2+z
1/2+x,-y,1/2+z
loop_
_atom_site_type_symbol
_atom_site_label
_atom_site_fract_x
_atom_site_fract_y
_atom_site_fract_z
Si Si1 0.582990 0.713599 0.492604
Si Si2 0.617478 0.982245 0.421333
Si Si3 0.623876 0.100971 0.318207
Si Si4 0.859720 0.329555 0.832691
Si Si5 0.390169 0.088583 0.101866
O O1 0.597081 0.750000 0.750000
O O2 0.457928 0.704220 0.443498
O O3 0.632621 0.652405 0.526760
O O4 0.621780 0.750000 0.250000
O O5 0.655332 0.937602 0.632340
O O6 0.500000 0.000000 0.500000
O O7 0.668082 0.042669 0.420433
O O8 0.623607 0.952896 0.140739
O O9 0.600885 0.138639 0.572493
O O10 0.512991 0.089726 0.174138
O O11 0.676784 0.130663 0.070158
O O12 0.750000 0.303587 0.750000
#
# Coordination Sequence:
#
# PCOD9389489 Si02
#       5
#     8   8   8   8   8
#     4  11  21  34  47  61  86 122 164 203 231 257
#     4  10  16  27  47  69  87 105 133 181 238 290
#     4  10  18  31  48  67  87 110 144 190 239 284
#     4  11  22  35  47  63  88 122 164 205 233 258
#     4  10  18  29  45  66  87 109 143 188 233 278
#
# _framework density 25.297716999999999
#
# number of rings (size 3 to 8) (size 9 to 14) (size 15 to 20)
#    0.000    1.600    0.000   12.600    0.000    0.400 
#    0.000    3.000    0.000    0.000    0.000    0.000 
#    0.000    0.000    0.000    0.000    0.000  210.000 
#
# Total GULP energy -223618.126053 kJ/mol
# GULP energy per Si atom -5590.453151 kJ/mol
# Density = 2.524014 g / cm^3
# Si number density = 25.297717 Si / 1000 Ang^3
#
#
#
# Elastic Constant Matrix: (Units=GPa)
#
#
# Indices 1 2 3 4 5 6 
#
# 1 37.5430 -18.2947 -3.2064 0.0000 0.0000 0.0000
# 2 -18.2947 194.2418 93.0314 0.0000 0.0000 0.0000
# 3 -3.2064 93.0314 222.1342 0.0000 0.0000 0.0000
# 4 0.0000 0.0000 0.0000 33.1797 0.0000 0.0000
# 5 0.0000 0.0000 0.0000 0.0000 18.6901 0.0000
# 6 0.0000 0.0000 0.0000 0.0000 0.0000 5.6491
#
#
#
# Elastic Compliance Matrix: (Units=1/GPa)
#
#
# Indices 1 2 3 4 5 6 
#
# 1 0.028054 0.003063 -0.000878 0.000000 0.000000 0.000000
# 2 0.003063 0.006774 -0.002793 0.000000 0.000000 0.000000
# 3 -0.000878 -0.002793 0.005659 0.000000 0.000000 0.000000
# 4 0.000000 0.000000 0.000000 0.030139 0.000000 0.000000
# 5 0.000000 0.000000 0.000000 0.000000 0.053504 0.000000
# 6 0.000000 0.000000 0.000000 0.000000 0.000000 0.177020
#
#
# Mechanical properties :
#
#
# Convention : Reuss Voigt Hill
#
# Bulk Modulus (GPa) = 25.46432 66.33107 45.89770
# Shear Modulus (GPa) = 15.85006 36.99635 26.42321
#
# Velocity S-wave (km/s) = 2.50580 3.82833 3.23536
# Velocity P-wave (km/s) = 4.29648 6.76894 5.66914
#
# Compressibility (1/GPa) = 0.03927064
#
# Stress axis : x y z
#
# Youngs Moduli (GPa) = 35.64611 147.61577 176.71540
#
# Poissons Ratio (x) = -0.45209 0.15510
# Poissons Ratio (y) = -0.10917 0.49356
# Poissons Ratio (z) = 0.03129 0.41228
#
# Static dielectric constant tensor:
#      x y z
#    x 2.250960 0.000000 0.000000 
#    y 0.000000 2.050400 0.000000 
#    z 0.000000 0.000000 1.993180 
# 
# From -- ./inp_files/4568.got.cif
#   From: 2010.05.17/outbox.cif.g08.bks.cpg/sg48_3_cif.got.tgz:4568.got - 2010.06.03 20:39:00.
