data_PCOD9389002
_publ_section_title
;
Structure prediction by ZEFSAII (Michael W. Deem and Ramdas Pophale) SiO2 
 PCOD9389002
Probable space group: P M M M
;
_chemical_formula_sum "Si O2"
_cell_formula_units_Z 52
_cell_length_a 7.446118
_cell_length_b 34.361802
_cell_length_c 9.849997
_cell_angle_alpha 90.000000
_cell_angle_beta 90.000000
_cell_angle_gamma 90.000000
_cell_volume 2520.240251
_symmetry_space_group_name_H-M "P M M M"
_symmetry_group_IT_number 47
_symmetry_cell_setting 'orthorhombic'
loop_
_space_group_symop_operation_xyz
x,y,z
-x,-y,z
x,-y,-z
-x,y,-z
-x,-y,-z
x,y,-z
-x,y,z
x,-y,z
loop_
_atom_site_type_symbol
_atom_site_label
_atom_site_fract_x
_atom_site_fract_y
_atom_site_fract_z
Si Si1 0.215404 0.841503 0.346026
Si Si2 0.718732 0.544326 0.845259
Si Si3 0.280069 0.385146 0.343885
Si Si4 0.279895 0.000000 0.843636
Si Si5 0.215402 0.773050 0.845951
Si Si6 0.285701 0.314925 0.154822
Si Si7 0.285786 0.070350 0.654896
O O1 0.284722 0.838066 0.500000
O O2 0.284311 0.807347 0.249735
O O3 0.252568 0.885448 0.298971
O O4 0.000000 0.837610 0.351856
O O5 0.500000 0.544422 0.844610
O O6 0.775205 0.500000 0.815991
O O7 0.777073 0.576243 0.737093
O O8 0.772772 0.554203 0.000000
O O9 0.222101 0.384478 0.500000
O O10 0.500000 0.385019 0.344826
O O11 0.219597 0.347625 0.257980
O O12 0.220223 0.037929 0.759359
O O13 0.500000 0.000000 0.845514
O O14 0.221810 0.000000 0.000000
O O15 0.252662 0.729193 0.797898
O O16 0.000000 0.776921 0.851891
O O17 0.284746 0.776266 0.000000
O O18 0.500000 0.320066 0.146506
O O19 0.215244 0.318851 0.000000
O O20 0.215354 0.066033 0.500000
O O21 0.500000 0.065206 0.646494
#
# Coordination Sequence:
#
# PCOD9389002 Si02
#       7
#     8   8   8   4   8   8   8
#     4   9  18  32  48  66  89 116 144 175 214 258
#     4   8  13  21  33  49  72 106 144 175 206 251
#     4   9  16  24  35  54  80 108 138 175 217 254
#     4   9  17  29  46  69  94 118 146 181 218 252
#     4   9  18  32  48  65  86 113 144 178 216 256
#     4   9  17  29  44  61  83 112 143 174 211 256
#     4   9  17  30  48  68  90 118 150 180 211 251
#
# _framework density 20.632954000000002
#
# number of rings (size 3 to 8) (size 9 to 14) (size 15 to 20)
#    0.000    3.154    0.000    1.154    0.000    4.923 
#    0.000    1.923    0.000    2.308    0.000    0.000 
#    0.000    0.615    0.000    7.077    0.000    9.077 
#
# Total GULP energy -290148.464121 kJ/mol
# GULP energy per Si atom -5579.778156 kJ/mol
# Density = 2.058599 g / cm^3
# Si number density = 20.632954 Si / 1000 Ang^3
#
#
#
# Elastic Constant Matrix: (Units=GPa)
#
#
# Indices 1 2 3 4 5 6 
#
# 1 62.9454 -0.7689 5.6979 0.0000 0.0000 0.0000
# 2 -0.7689 218.8506 152.6432 0.0000 0.0000 0.0000
# 3 5.6979 152.6432 149.5472 0.0000 0.0000 0.0000
# 4 0.0000 0.0000 0.0000 36.9385 0.0000 0.0000
# 5 0.0000 0.0000 0.0000 0.0000 -3.3713 0.0000
# 6 0.0000 0.0000 0.0000 0.0000 0.0000 26.0293
#
#
#
# Elastic Compliance Matrix: (Units=1/GPa)
#
#
# Indices 1 2 3 4 5 6 
#
# 1 0.016118 0.001683 -0.002332 0.000000 0.000000 0.000000
# 2 0.001683 0.016037 -0.016433 0.000000 0.000000 0.000000
# 3 -0.002332 -0.016433 0.023549 0.000000 0.000000 0.000000
# 4 0.000000 0.000000 0.000000 0.027072 0.000000 0.000000
# 5 0.000000 0.000000 0.000000 0.000000 -0.296617 0.000000
# 6 0.000000 0.000000 0.000000 0.000000 0.000000 0.038418
#
#
# Mechanical properties :
#
#
# Convention : Reuss Voigt Hill
#
# Bulk Modulus (GPa) = 46.42462 82.94307 64.68384
# Shear Modulus (GPa) = -37.29158 30.17070 -3.56044
#
# Velocity S-wave (km/s) = -4.25594 3.82810 -1.31505
# Velocity P-wave (km/s) = 1.26556 7.73471 5.39556
#
# Compressibility (1/GPa) = 0.02154030
#
# Stress axis : x y z
#
# Youngs Moduli (GPa) = 62.04059 62.35615 42.46469
#
# Poissons Ratio (x) = -0.10497 0.09905
# Poissons Ratio (y) = -0.10444 0.69782
# Poissons Ratio (z) = 0.14470 1.02470
#
# Static dielectric constant tensor:
#      x y z
#    x 1.789550 0.000000 0.000000 
#    y 0.000000 1.705310 0.000000 
#    z 0.000000 0.000000 1.714270 
# 
# From -- ./inp_files/4519.got.cif
#   From: 2010.05.17/outbox.cif.g08.bks.cpg/sg47_3_cif.got.tgz:4519.got - 2010.06.03 20:15:42.
