data_PCOD9389595
_publ_section_title
;
Structure prediction by ZEFSAII (Michael W. Deem and Ramdas Pophale) SiO2 
 PCOD9389595
Probable space group: P N N N
;
_chemical_formula_sum "Si O2"
_cell_formula_units_Z 46
_cell_length_a 11.117249
_cell_length_b 11.571260
_cell_length_c 16.632213
_cell_angle_alpha 90.000000
_cell_angle_beta 90.000000
_cell_angle_gamma 90.000000
_cell_volume 2139.577505
_symmetry_space_group_name_H-M "P N N N"
_symmetry_group_IT_number 48
_space_group.IT_coordinate_system_code '2'
_symmetry_cell_setting 'orthorhombic'
loop_
_space_group_symop_operation_xyz
x,y,z
1/2-x,1/2-y,z
x,1/2-y,1/2-z
1/2-x,y,1/2-z
-x,-y,-z
1/2+x,1/2+y,-z
-x,1/2+y,1/2+z
1/2+x,-y,1/2+z
loop_
_atom_site_type_symbol
_atom_site_label
_atom_site_fract_x
_atom_site_fract_y
_atom_site_fract_z
Si Si1 0.250000 0.250000 0.391284
Si Si2 0.567076 0.165049 0.349134
Si Si3 0.448493 0.106192 0.198282
Si Si4 0.750000 0.750000 0.250000
Si Si5 0.184166 0.446682 0.633290
Si Si6 0.956927 0.928975 0.421867
Si Si7 0.037662 0.178550 0.988627
O O1 0.326330 0.340336 0.337858
O O2 0.152003 0.303371 0.451952
O O3 0.457603 0.111193 0.294674
O O4 0.552748 0.300289 0.327844
O O5 0.564857 0.162317 0.445632
O O6 0.669672 0.072904 0.328298
O O7 0.479975 0.986742 0.155424
O O8 0.822400 0.660351 0.305013
O O9 0.313637 0.437961 0.591248
O O10 0.075398 0.421251 0.571903
O O11 0.984073 0.795758 0.439475
O O12 0.000000 0.000000 0.500000
#
# Coordination Sequence:
#
# PCOD9389595 Si02
#       7
#     4   8   8   2   8   8   8
#     4  10  17  37  61  87 120 156 212 253 303 376
#     4  10  23  37  59  89 129 159 209 268 328 376
#     4  10  22  38  59  95 125 167 211 266 323 386
#     4  12  22  40  62  90 120 168 220 244 328 408
#     4  12  23  39  61  91 124 169 208 268 324 392
#     4  12  20  39  64  88 128 164 216 258 324 400
#     4  11  20  39  60  91 122 163 217 259 316 388
#
# _framework density 21.499573000000002
#
# number of rings (size 3 to 8) (size 9 to 14) (size 15 to 20)
#    0.000    1.043    6.957    1.565    0.000    6.261 
#    0.000    1.739    0.000    0.000    0.000    0.000 
#    0.000    0.000    0.000    0.000    0.000    0.000 
#
# Total GULP energy -256398.942205 kJ/mol
# GULP energy per Si atom -5573.890048 kJ/mol
# Density = 2.145064 g / cm^3
# Si number density = 21.499573 Si / 1000 Ang^3
#
#
#
# Elastic Constant Matrix: (Units=GPa)
#
#
# Indices 1 2 3 4 5 6 
#
# 1 28.6924 34.2263 12.0707 0.0000 0.0000 0.0000
# 2 34.2263 130.9688 36.1326 0.0000 0.0000 0.0000
# 3 12.0707 36.1326 94.9723 0.0000 0.0000 0.0000
# 4 0.0000 0.0000 0.0000 35.7078 0.0000 0.0000
# 5 0.0000 0.0000 0.0000 0.0000 21.3402 0.0000
# 6 0.0000 0.0000 0.0000 0.0000 0.0000 33.2676
#
#
#
# Elastic Compliance Matrix: (Units=1/GPa)
#
#
# Indices 1 2 3 4 5 6 
#
# 1 0.050847 -0.012854 -0.001572 0.000000 0.000000 0.000000
# 2 -0.012854 0.011780 -0.002848 0.000000 0.000000 0.000000
# 3 -0.001572 -0.002848 0.011813 0.000000 0.000000 0.000000
# 4 0.000000 0.000000 0.000000 0.028005 0.000000 0.000000
# 5 0.000000 0.000000 0.000000 0.000000 0.046860 0.000000
# 6 0.000000 0.000000 0.000000 0.000000 0.000000 0.030059
#
#
# Mechanical properties :
#
#
# Convention : Reuss Voigt Hill
#
# Bulk Modulus (GPa) = 25.06807 46.61028 35.83917
# Shear Modulus (GPa) = 22.00602 29.54340 25.77471
#
# Velocity S-wave (km/s) = 3.20278 3.71096 3.46619
# Velocity P-wave (km/s) = 5.03608 6.33153 5.72060
#
# Compressibility (1/GPa) = 0.03989139
#
# Stress axis : x y z
#
# Youngs Moduli (GPa) = 19.66679 84.88676 84.65409
#
# Poissons Ratio (x) = 1.09116 0.13308
# Poissons Ratio (y) = 0.25280 0.24111
# Poissons Ratio (z) = 0.03092 0.24177
#
# Static dielectric constant tensor:
#      x y z
#    x 1.855880 0.000000 0.000000 
#    y 0.000000 1.776400 0.000000 
#    z 0.000000 0.000000 1.870260 
# 
# From -- ./inp_files/31043.got.cif
#   From: 2010.05.17/outbox.cif.g08.bks.cpg/sg48_16_cif.got.tgz:31043.got - 2010.06.03 20:39:00.
