data_PCOD9389334
_publ_section_title
;
Structure prediction by ZEFSAII (Michael W. Deem and Ramdas Pophale) SiO2 
 PCOD9389334
Probable space group: P M M M
;
_chemical_formula_sum "Si O2"
_cell_formula_units_Z 40
_cell_length_a 27.000000
_cell_length_b 9.000000
_cell_length_c 9.000000
_cell_angle_alpha 90.000000
_cell_angle_beta 90.000000
_cell_angle_gamma 90.000000
_cell_volume 2187.000000
_symmetry_space_group_name_H-M "P M M M"
_symmetry_group_IT_number 47
_symmetry_cell_setting 'orthorhombic'
loop_
_space_group_symop_operation_xyz
x,y,z
-x,-y,z
x,-y,-z
-x,y,-z
-x,-y,-z
x,y,-z
-x,y,z
x,-y,z
loop_
_atom_site_type_symbol
_atom_site_label
_atom_site_fract_x
_atom_site_fract_y
_atom_site_fract_z
Si Si1 0.000000 0.318645 0.170912
Si Si2 0.692743 0.179255 0.672265
Si Si3 0.900266 0.677917 0.325894
Si Si4 0.500000 0.319037 0.671372
Si Si5 0.199226 0.172175 0.318802
Si Si6 0.399625 0.674300 0.175938
O O1 0.949692 0.266369 0.247288
O O2 0.000000 0.500000 0.181840
O O3 0.000000 0.278215 0.000000
O O4 0.686342 0.225011 0.500000
O O5 0.746890 0.230260 0.727563
O O6 0.648019 0.240210 0.766907
O O7 0.693631 0.000000 0.674712
O O8 0.903714 0.715710 0.500000
O O9 0.898754 0.500000 0.313813
O O10 0.848894 0.741654 0.265926
O O11 0.500000 0.500000 0.681493
O O12 0.500000 0.277193 0.500000
O O13 0.449856 0.267959 0.749238
O O14 0.200132 0.178195 0.500000
O O15 0.194743 0.000000 0.276915
O O16 0.394078 0.500000 0.215523
O O17 0.404579 0.684952 0.000000
#
# Coordination Sequence:
#
# PCOD9389334 Si02
#       6
#     4   8   8   4   8   8
#     4   9  17  29  44  63  90 122 150 181 228 278
#     4   9  18  33  52  73  98 129 164 201 241 286
#     4   9  16  27  46  70  91 114 150 192 228 268
#     4   9  17  31  52  75  98 127 162 200 244 289
#     4   8  15  29  48  69  93 120 151 190 235 278
#     4  10  20  33  50  74 103 132 162 198 240 287
#
# _framework density 18.289895000000001
#
# number of rings (size 3 to 8) (size 9 to 14) (size 15 to 20)
#    0.000    3.000    0.000    2.400    0.000    4.800 
#    0.000    4.000    0.000   10.200    0.000    0.000 
#    0.000    0.000    0.000    0.000    0.000    0.000 
#
# Total GULP energy -222832.422419 kJ/mol
# GULP energy per Si atom -5570.810560 kJ/mol
# Density = 1.824827 g / cm^3
# Si number density = 18.289895 Si / 1000 Ang^3
#
#
#
# Elastic Constant Matrix: (Units=GPa)
#
#
# Indices 1 2 3 4 5 6 
#
# 1 206.0424 35.8045 60.8761 0.0000 0.0000 0.0000
# 2 35.8045 -2.4904 26.1054 0.0000 0.0000 0.0000
# 3 60.8761 26.1054 19.1802 0.0000 0.0000 0.0000
# 4 0.0000 0.0000 0.0000 13.5900 0.0000 0.0000
# 5 0.0000 0.0000 0.0000 0.0000 -267.5947 0.0000
# 6 0.0000 0.0000 0.0000 0.0000 0.0000 42.0237
#
#
#
# Elastic Compliance Matrix: (Units=1/GPa)
#
#
# Indices 1 2 3 4 5 6 
#
# 1 0.014074 -0.017416 -0.020964 0.000000 0.000000 0.000000
# 2 -0.017416 -0.004748 0.061740 0.000000 0.000000 0.000000
# 3 -0.020964 0.061740 0.034643 0.000000 0.000000 0.000000
# 4 0.000000 0.000000 0.000000 0.073583 0.000000 0.000000
# 5 0.000000 0.000000 0.000000 0.000000 -0.003737 0.000000
# 6 0.000000 0.000000 0.000000 0.000000 0.000000 0.023796
#
#
# Mechanical properties :
#
#
# Convention : Reuss Voigt Hill
#
# Bulk Modulus (GPa) = 11.02677 52.03379 31.53028
# Shear Modulus (GPa) = 41.28101 -35.73311 2.77395
#
# Velocity S-wave (km/s) = 4.75598 -4.42487 1.23286
# Velocity P-wave (km/s) = 6.01674 1.55089 4.39354
#
# Compressibility (1/GPa) = 0.09068840
#
# Stress axis : x y z
#
# Youngs Moduli (GPa) = 71.05390 -210.60446 28.86574
#
# Poissons Ratio (x) = -3.66796 0.60515
# Poissons Ratio (y) = 1.23750 -1.78218
# Poissons Ratio (z) = 1.48959 13.00281
#
# Static dielectric constant tensor:
#      x y z
#    x 1.637630 0.000000 0.000000 
#    y 0.000000 1.621010 0.000000 
#    z 0.000000 0.000000 1.608980 
# 
# From -- ./inp_files/1748.got.cif
#   From: 2010.05.17/outbox.ucp.g08.bks.cvg/sg47_1_cif.got.tgz:1748.got - 2010.06.11 16:36:43.
