data_PCOD9389633
_publ_section_title
;
Structure prediction by ZEFSAII (Michael W. Deem and Ramdas Pophale) SiO2 
 PCOD9389633
Probable space group: P N N N
;
_chemical_formula_sum "Si O2"
_cell_formula_units_Z 64
_cell_length_a 12.917882
_cell_length_b 17.044807
_cell_length_c 14.275349
_cell_angle_alpha 90.000000
_cell_angle_beta 90.000000
_cell_angle_gamma 90.000000
_cell_volume 3143.186393
_symmetry_space_group_name_H-M "P N N N"
_symmetry_group_IT_number 48
_space_group.IT_coordinate_system_code '2'
_symmetry_cell_setting 'orthorhombic'
loop_
_space_group_symop_operation_xyz
x,y,z
1/2-x,1/2-y,z
x,1/2-y,1/2-z
1/2-x,y,1/2-z
-x,-y,-z
1/2+x,1/2+y,-z
-x,1/2+y,1/2+z
1/2+x,-y,1/2+z
loop_
_atom_site_type_symbol
_atom_site_label
_atom_site_fract_x
_atom_site_fract_y
_atom_site_fract_z
Si Si1 0.859367 0.043694 0.429733
Si Si2 0.375629 0.373055 0.028573
Si Si3 0.839398 0.991478 0.118994
Si Si4 0.592900 0.772775 0.856312
Si Si5 0.077660 0.991179 0.179441
Si Si6 0.854625 0.227114 0.416918
Si Si7 0.109800 0.627530 0.467397
Si Si8 0.099372 0.043375 0.383484
O O1 0.849540 0.136629 0.444403
O O2 0.976518 0.030829 0.397710
O O3 0.776878 0.015568 0.351611
O O4 0.847398 0.999070 0.528981
O O5 0.353610 0.289863 0.075147
O O6 0.387349 0.436909 0.112066
O O7 0.318998 0.411781 0.940298
O O8 0.488342 0.364711 0.983607
O O9 0.949753 0.988192 0.173449
O O10 0.858653 0.061790 0.043709
O O11 0.618571 0.750000 0.750000
O O12 0.466965 0.762342 0.868125
O O13 0.618877 0.863012 0.879618
O O14 0.122649 0.912229 0.133059
O O15 0.119948 0.007290 0.282144
O O16 0.750000 0.250000 0.360889
O O17 0.849702 0.287924 0.503454
#
# Coordination Sequence:
#
# PCOD9389633 Si02
#       8
#     8   8   8   8   8   8   8   8
#     4  10  21  34  48  72 108 140 160 196 259 315
#     4   8  15  28  48  73  96 126 166 204 239 281
#     4   9  16  30  52  73  96 129 172 208 238 290
#     4  10  18  30  50  74 102 132 165 202 249 307
#     4   9  16  30  52  73  96 129 172 208 238 290
#     4  10  18  30  50  74 102 132 165 202 249 307
#     4   8  15  28  48  73  96 126 166 204 239 281
#     4  10  21  34  48  72 108 140 160 196 259 315
#
# _framework density 20.361504
#
# number of rings (size 3 to 8) (size 9 to 14) (size 15 to 20)
#    0.000    2.750    2.500    1.500    0.000    0.750 
#    0.000    6.250    0.000    1.500    0.000    0.000 
#    0.000   10.000    0.000    0.000    0.000    0.000 
#
# Total GULP energy -356343.134556 kJ/mol
# GULP energy per Si atom -5567.861477 kJ/mol
# Density = 2.031516 g / cm^3
# Si number density = 20.361504 Si / 1000 Ang^3
#
#
#
# Elastic Constant Matrix: (Units=GPa)
#
#
# Indices 1 2 3 4 5 6 
#
# 1 68.8870 9.6588 -3.7381 0.0000 0.0000 0.0000
# 2 9.6588 101.2078 49.7361 0.0000 0.0000 0.0000
# 3 -3.7381 49.7361 74.7415 0.0000 0.0000 0.0000
# 4 0.0000 0.0000 0.0000 21.6440 0.0000 0.0000
# 5 0.0000 0.0000 0.0000 0.0000 7.3258 0.0000
# 6 0.0000 0.0000 0.0000 0.0000 0.0000 27.9738
#
#
#
# Elastic Compliance Matrix: (Units=1/GPa)
#
#
# Indices 1 2 3 4 5 6 
#
# 1 0.015030 -0.002680 0.002535 0.000000 0.000000 0.000000
# 2 -0.002680 0.015160 -0.010222 0.000000 0.000000 0.000000
# 3 0.002535 -0.010222 0.020308 0.000000 0.000000 0.000000
# 4 0.000000 0.000000 0.000000 0.046202 0.000000 0.000000
# 5 0.000000 0.000000 0.000000 0.000000 0.136504 0.000000
# 6 0.000000 0.000000 0.000000 0.000000 0.000000 0.035748
#
#
# Mechanical properties :
#
#
# Convention : Reuss Voigt Hill
#
# Bulk Modulus (GPa) = 33.59755 39.57219 36.58487
# Shear Modulus (GPa) = 16.68853 24.00069 20.34461
#
# Velocity S-wave (km/s) = 2.86599 3.43699 3.16439
# Velocity P-wave (km/s) = 5.24292 5.93528 5.59981
#
# Compressibility (1/GPa) = 0.02976408
#
# Stress axis : x y z
#
# Youngs Moduli (GPa) = 66.53399 65.96393 49.24073
#
# Poissons Ratio (x) = 0.17680 -0.12484
# Poissons Ratio (y) = 0.17833 0.50334
# Poissons Ratio (z) = -0.16868 0.67428
#
# Static dielectric constant tensor:
#      x y z
#    x 1.946870 0.000000 0.000000 
#    y 0.000000 1.736770 0.000000 
#    z 0.000000 0.000000 1.734060 
# 
# From -- ./inp_files/27506.got.cif
#   From: 2010.05.17/outbox.cif.g08.bks.cpg/sg48_14_cif.got.tgz:27506.got - 2010.06.03 20:39:00.
