data_PCOD9389811
_publ_section_title
;
Structure prediction by ZEFSAII (Michael W. Deem and Ramdas Pophale) SiO2 
 PCOD9389811
Probable space group: P N N N
;
_chemical_formula_sum "Si O2"
_cell_formula_units_Z 58
_cell_length_a 5.548962
_cell_length_b 15.433513
_cell_length_c 24.521558
_cell_angle_alpha 90.000000
_cell_angle_beta 90.000000
_cell_angle_gamma 90.000000
_cell_volume 2100.025667
_symmetry_space_group_name_H-M "P N N N"
_symmetry_group_IT_number 48
_space_group.IT_coordinate_system_code '2'
_symmetry_cell_setting 'orthorhombic'
loop_
_space_group_symop_operation_xyz
x,y,z
1/2-x,1/2-y,z
x,1/2-y,1/2-z
1/2-x,y,1/2-z
-x,-y,-z
1/2+x,1/2+y,-z
-x,1/2+y,1/2+z
1/2+x,-y,1/2+z
loop_
_atom_site_type_symbol
_atom_site_label
_atom_site_fract_x
_atom_site_fract_y
_atom_site_fract_z
Si Si1 0.008194 0.146416 0.340752
Si Si2 0.506398 0.593184 0.192243
Si Si3 0.001090 0.787544 0.429948
Si Si4 0.498423 0.171297 0.044825
Si Si5 0.250000 0.250000 0.750000
Si Si6 0.006535 0.592107 0.680397
Si Si7 0.491603 0.557155 0.366448
Si Si8 0.501554 0.070750 0.451244
O O1 0.002940 0.207845 0.393736
O O2 0.265502 0.147776 0.311879
O O3 0.750672 0.145866 0.312007
O O4 0.012171 0.045846 0.363656
O O5 0.562560 0.680858 0.223764
O O6 0.504397 0.495053 0.217355
O O7 0.242582 0.593515 0.165068
O O8 0.754575 0.586953 0.157996
O O9 0.750000 0.750000 0.406840
O O10 0.999955 0.765752 0.493540
O O11 0.250000 0.750000 0.406553
O O12 0.012850 0.891512 0.423404
O O13 0.744347 0.118050 0.040917
O O14 0.251583 0.118613 0.040338
O O15 0.002194 0.557943 0.615860
O O16 0.500000 0.000000 0.500000
#
# Coordination Sequence:
#
# PCOD9389811 Si02
#       8
#     8   8   8   8   2   8   8   8
#     4   8  16  31  51  74  87 115 148 202 263 302
#     4  10  23  38  54  72  90 120 160 223 258 313
#     4  12  26  37  48  69 101 141 173 196 252 324
#     4  10  21  32  48  70  98 122 158 203 240 310
#     4  12  28  42  60  74  92 134 192 214 258 314
#     4   8  16  30  46  70  98 110 138 192 268 304
#     4  10  22  38  56  71  94 117 159 218 279 311
#     4  10  19  27  49  77  96 114 146 198 262 318
#
# _framework density 27.618708000000002
#
# number of rings (size 3 to 8) (size 9 to 14) (size 15 to 20)
#    0.000    2.207    0.000    2.069   14.483    1.103 
#    0.000    0.000    0.000    0.000    0.000    0.000 
#    0.000    0.000    0.000    0.000    0.000    0.000 
#
# Total GULP energy -323872.602458 kJ/mol
# GULP energy per Si atom -5584.010387 kJ/mol
# Density = 2.755585 g / cm^3
# Si number density = 27.618708 Si / 1000 Ang^3
#
#
#
# Elastic Constant Matrix: (Units=GPa)
#
#
# Indices 1 2 3 4 5 6 
#
# 1 306.4014 43.2200 32.1444 0.0000 0.0000 0.0000
# 2 43.2200 101.2243 25.7396 0.0000 0.0000 0.0000
# 3 32.1444 25.7396 67.9810 0.0000 0.0000 0.0000
# 4 0.0000 0.0000 0.0000 41.0542 0.0000 0.0000
# 5 0.0000 0.0000 0.0000 0.0000 30.9592 0.0000
# 6 0.0000 0.0000 0.0000 0.0000 0.0000 29.9408
#
#
#
# Elastic Compliance Matrix: (Units=1/GPa)
#
#
# Indices 1 2 3 4 5 6 
#
# 1 0.003563 -0.001209 -0.001227 0.000000 0.000000 0.000000
# 2 -0.001209 0.011342 -0.003723 0.000000 0.000000 0.000000
# 3 -0.001227 -0.003723 0.016700 0.000000 0.000000 0.000000
# 4 0.000000 0.000000 0.000000 0.024358 0.000000 0.000000
# 5 0.000000 0.000000 0.000000 0.000000 0.032301 0.000000
# 6 0.000000 0.000000 0.000000 0.000000 0.000000 0.033399
#
#
# Mechanical properties :
#
#
# Convention : Reuss Voigt Hill
#
# Bulk Modulus (GPa) = 51.84831 75.31276 63.58053
# Shear Modulus (GPa) = 35.61027 45.35769 40.48398
#
# Velocity S-wave (km/s) = 3.59465 4.05690 3.83275
# Velocity P-wave (km/s) = 6.00353 7.01944 6.53127
#
# Compressibility (1/GPa) = 0.01928703
#
# Stress axis : x y z
#
# Youngs Moduli (GPa) = 280.66353 88.16796 59.88176
#
# Poissons Ratio (x) = 0.10662 0.07347
# Poissons Ratio (y) = 0.33942 0.22291
# Poissons Ratio (z) = 0.34433 0.32821
#
# Static dielectric constant tensor:
#      x y z
#    x 2.114090 0.000000 0.000000 
#    y 0.000000 2.196240 0.000000 
#    z 0.000000 0.000000 2.242730 
# 
# From -- ./inp_files/37178.got.cif
#   From: 2010.05.17/outbox.cif.g08.bks.cpg/sg48_19_cif.got.tgz:37178.got - 2010.06.03 20:39:00.
