data_PCOD9390304
_publ_section_title
;
Structure prediction by ZEFSAII (Michael W. Deem and Ramdas Pophale) SiO2 
 PCOD9390304
Probable space group: P N N N
;
_chemical_formula_sum "Si O2"
_cell_formula_units_Z 54
_cell_length_a 5.764050
_cell_length_b 12.470656
_cell_length_c 26.825562
_cell_angle_alpha 90.000000
_cell_angle_beta 90.000000
_cell_angle_gamma 90.000000
_cell_volume 1928.261225
_symmetry_space_group_name_H-M "P N N N"
_symmetry_group_IT_number 48
_space_group.IT_coordinate_system_code '2'
_symmetry_cell_setting 'orthorhombic'
loop_
_space_group_symop_operation_xyz
x,y,z
1/2-x,1/2-y,z
x,1/2-y,1/2-z
1/2-x,y,1/2-z
-x,-y,-z
1/2+x,1/2+y,-z
-x,1/2+y,1/2+z
1/2+x,-y,1/2+z
loop_
_atom_site_type_symbol
_atom_site_label
_atom_site_fract_x
_atom_site_fract_y
_atom_site_fract_z
Si Si1 0.643451 0.632377 0.448692
Si Si2 0.250000 0.750000 0.750000
Si Si3 0.719654 0.879648 0.552240
Si Si4 0.854218 0.096227 0.831787
Si Si5 0.750000 0.250000 0.921600
Si Si6 0.849787 0.930268 0.332242
Si Si7 0.283701 0.878047 0.895957
Si Si8 0.647941 0.861281 0.695718
O O1 0.750000 0.750000 0.447991
O O2 0.761601 0.577658 0.495458
O O3 0.376173 0.664730 0.457025
O O4 0.655471 0.601520 0.390876
O O5 0.406667 0.820817 0.715449
O O6 0.750000 0.750000 0.551893
O O7 0.464652 0.905688 0.576173
O O8 0.975696 0.908022 0.575163
O O9 0.866517 0.167897 0.881534
O O10 0.592598 0.114691 0.810779
O O11 0.109286 0.108356 0.807477
O O12 0.839447 0.966742 0.837070
O O13 0.832302 0.057420 0.343894
O O14 0.250000 0.750000 0.889517
O O15 0.750000 0.750000 0.673700
O O16 0.750000 0.891957 0.750000
#
# Coordination Sequence:
#
# PCOD9390304 Si02
#       8
#     8   2   8   8   4   8   8   8
#     4  10  20  36  56  80 110 152 212 263 310 362
#     4   8  18  40  72  98 140 168 206 260 302 368
#     4   9  20  32  57  74 105 155 199 256 318 373
#     4  11  24  40  64  94 126 172 207 255 316 367
#     4  10  22  40  61  88 129 164 218 268 310 375
#     4  11  24  37  59  85 121 160 202 258 311 378
#     4  10  21  38  50  81 114 151 196 255 325 378
#     4   9  21  40  67 104 133 170 207 252 296 379
#
# _framework density 28.004508000000001
#
# number of rings (size 3 to 8) (size 9 to 14) (size 15 to 20)
#    0.000    2.222    1.481    0.889    9.333    2.370 
#    0.000    0.370    0.000    0.000    0.000    0.000 
#    0.000    0.000    0.000    0.000    0.000    0.000 
#
# Total GULP energy -300641.936701 kJ/mol
# GULP energy per Si atom -5567.443272 kJ/mol
# Density = 2.794077 g / cm^3
# Si number density = 28.004508 Si / 1000 Ang^3
#
#
#
# Elastic Constant Matrix: (Units=GPa)
#
#
# Indices 1 2 3 4 5 6 
#
# 1 242.7500 18.3905 32.2548 0.0000 0.0000 0.0000
# 2 18.3905 73.7698 31.6003 0.0000 0.0000 0.0000
# 3 32.2548 31.6003 73.1444 0.0000 0.0000 0.0000
# 4 0.0000 0.0000 0.0000 11.9066 0.0000 0.0000
# 5 0.0000 0.0000 0.0000 0.0000 20.7899 0.0000
# 6 0.0000 0.0000 0.0000 0.0000 0.0000 39.0557
#
#
#
# Elastic Compliance Matrix: (Units=1/GPa)
#
#
# Indices 1 2 3 4 5 6 
#
# 1 0.004382 -0.000325 -0.001792 0.000000 0.000000 0.000000
# 2 -0.000325 0.016658 -0.007054 0.000000 0.000000 0.000000
# 3 -0.001792 -0.007054 0.017509 0.000000 0.000000 0.000000
# 4 0.000000 0.000000 0.000000 0.083987 0.000000 0.000000
# 5 0.000000 0.000000 0.000000 0.000000 0.048100 0.000000
# 6 0.000000 0.000000 0.000000 0.000000 0.000000 0.025604
#
#
# Mechanical properties :
#
#
# Convention : Reuss Voigt Hill
#
# Bulk Modulus (GPa) = 49.48382 61.57283 55.52833
# Shear Modulus (GPa) = 22.59192 34.84503 28.71847
#
# Velocity S-wave (km/s) = 2.84337 3.53124 3.20581
# Velocity P-wave (km/s) = 5.33741 6.21777 5.79434
#
# Compressibility (1/GPa) = 0.02020863
#
# Stress axis : x y z
#
# Youngs Moduli (GPa) = 228.19619 60.03074 57.11288
#
# Poissons Ratio (x) = 0.01950 0.10235
# Poissons Ratio (y) = 0.07411 0.40285
# Poissons Ratio (z) = 0.40896 0.42343
#
# Static dielectric constant tensor:
#      x y z
#    x 2.034600 0.000000 0.000000 
#    y 0.000000 2.258460 0.000000 
#    z 0.000000 0.000000 2.165570 
# 
# From -- ./inp_files/38361.got.cif
#   From: 2010.05.17/outbox.cif.g08.bks.cpg/sg48_20_cif.got.tgz:38361.got - 2010.06.03 20:39:00.
