data_PCOD9390475
_publ_section_title
;
Structure prediction by ZEFSAII (Michael W. Deem and Ramdas Pophale) SiO2 
 PCOD9390475
Probable space group: P N N N
;
_chemical_formula_sum "Si O2"
_cell_formula_units_Z 56
_cell_length_a 20.265486
_cell_length_b 8.668574
_cell_length_c 15.931786
_cell_angle_alpha 90.000000
_cell_angle_beta 90.000000
_cell_angle_gamma 90.000000
_cell_volume 2798.782492
_symmetry_space_group_name_H-M "P N N N"
_symmetry_group_IT_number 48
_space_group.IT_coordinate_system_code '2'
_symmetry_cell_setting 'orthorhombic'
loop_
_space_group_symop_operation_xyz
x,y,z
1/2-x,1/2-y,z
x,1/2-y,1/2-z
1/2-x,y,1/2-z
-x,-y,-z
1/2+x,1/2+y,-z
-x,1/2+y,1/2+z
1/2+x,-y,1/2+z
loop_
_atom_site_type_symbol
_atom_site_label
_atom_site_fract_x
_atom_site_fract_y
_atom_site_fract_z
Si Si1 0.250000 0.750000 0.456281
Si Si2 0.039391 0.584942 0.072796
Si Si3 0.036561 0.347959 0.661562
Si Si4 0.250000 0.250000 0.089043
Si Si5 0.331455 0.011480 0.983727
Si Si6 0.444703 0.432928 0.248865
Si Si7 0.673179 0.737300 0.349971
Si Si8 0.806624 0.044225 0.817850
O O1 0.273553 0.612096 0.515219
O O2 0.198337 0.669929 0.391724
O O3 0.037314 0.486821 0.157953
O O4 0.008120 0.749626 0.097061
O O5 0.112607 0.574883 0.036016
O O6 0.000000 0.500000 0.000000
O O7 0.036953 0.250000 0.750000
O O8 0.112288 0.352319 0.628870
O O9 0.001778 0.507880 0.685740
O O10 0.285872 0.379495 0.143593
O O11 0.305378 0.159592 0.035629
O O12 0.350191 0.076809 0.892619
O O13 0.434440 0.250000 0.250000
O O14 0.377995 0.523929 0.223022
O O15 0.750000 0.750000 0.377604
O O16 0.676615 0.750000 0.250000
O O17 0.750000 0.079375 0.750000
#
# Coordination Sequence:
#
# PCOD9390475 Si02
#       8
#     4   8   8   4   8   8   8   8
#     4  10  23  34  56  93 126 156 196 258 317 366
#     4  11  21  36  60  88 119 162 205 248 306 372
#     4   9  20  38  61  87 116 159 209 252 309 385
#     4  10  21  34  59  88 118 160 204 246 301 378
#     4  11  20  37  59  88 124 154 198 258 313 369
#     4  11  22  38  60  89 129 166 206 259 315 378
#     4  10  20  38  66  86 107 153 212 258 308 372
#     4  11  20  35  56  87 128 169 205 240 302 381
#
# _framework density 20.008700999999999
#
# number of rings (size 3 to 8) (size 9 to 14) (size 15 to 20)
#    0.000    1.571    2.143    4.714    0.000    2.286 
#    0.000    2.143    0.000    0.857    0.000    0.000 
#    0.000    0.000    0.000    0.000    0.000    0.000 
#
# Total GULP energy -312145.269007 kJ/mol
# GULP energy per Si atom -5574.022661 kJ/mol
# Density = 1.996316 g / cm^3
# Si number density = 20.008701 Si / 1000 Ang^3
#
#
#
# Elastic Constant Matrix: (Units=GPa)
#
#
# Indices 1 2 3 4 5 6 
#
# 1 118.2731 25.6054 25.4394 0.0000 0.0000 0.0000
# 2 25.6054 79.8000 32.5771 0.0000 0.0000 0.0000
# 3 25.4394 32.5771 89.0254 0.0000 0.0000 0.0000
# 4 0.0000 0.0000 0.0000 21.7317 0.0000 0.0000
# 5 0.0000 0.0000 0.0000 0.0000 14.6028 0.0000
# 6 0.0000 0.0000 0.0000 0.0000 0.0000 4.4011
#
#
#
# Elastic Compliance Matrix: (Units=1/GPa)
#
#
# Indices 1 2 3 4 5 6 
#
# 1 0.009338 -0.002242 -0.001848 0.000000 0.000000 0.000000
# 2 -0.002242 0.015270 -0.004947 0.000000 0.000000 0.000000
# 3 -0.001848 -0.004947 0.013571 0.000000 0.000000 0.000000
# 4 0.000000 0.000000 0.000000 0.046016 0.000000 0.000000
# 5 0.000000 0.000000 0.000000 0.000000 0.068480 0.000000
# 6 0.000000 0.000000 0.000000 0.000000 0.000000 0.227217
#
#
# Mechanical properties :
#
#
# Convention : Reuss Voigt Hill
#
# Bulk Modulus (GPa) = 49.73840 50.48249 50.11044
# Shear Modulus (GPa) = 12.35582 21.71221 17.03402
#
# Velocity S-wave (km/s) = 2.48770 3.29772 2.92092
# Velocity P-wave (km/s) = 5.75881 6.30753 6.03940
#
# Compressibility (1/GPa) = 0.02010519
#
# Stress axis : x y z
#
# Youngs Moduli (GPa) = 107.09128 65.48654 73.68555
#
# Poissons Ratio (x) = 0.14681 0.13617
# Poissons Ratio (y) = 0.24008 0.36454
# Poissons Ratio (z) = 0.19790 0.32398
#
# Static dielectric constant tensor:
#      x y z
#    x 1.848970 0.000000 0.000000 
#    y 0.000000 1.656820 0.000000 
#    z 0.000000 0.000000 1.748500 
# 
# From -- ./inp_files/25648.got.cif
#   From: 2010.05.17/outbox.cif.g08.bks.cpg/sg48_13_cif.got.tgz:25648.got - 2010.06.03 20:39:00.
