data_PCOD9390473
_publ_section_title
;
Structure prediction by ZEFSAII (Michael W. Deem and Ramdas Pophale) SiO2 
 PCOD9390473
Probable space group: P N N N
;
_chemical_formula_sum "Si O2"
_cell_formula_units_Z 64
_cell_length_a 16.519140
_cell_length_b 11.964456
_cell_length_c 14.723022
_cell_angle_alpha 90.000000
_cell_angle_beta 90.000000
_cell_angle_gamma 90.000000
_cell_volume 2909.895224
_symmetry_space_group_name_H-M "P N N N"
_symmetry_group_IT_number 48
_space_group.IT_coordinate_system_code '2'
_symmetry_cell_setting 'orthorhombic'
loop_
_space_group_symop_operation_xyz
x,y,z
1/2-x,1/2-y,z
x,1/2-y,1/2-z
1/2-x,y,1/2-z
-x,-y,-z
1/2+x,1/2+y,-z
-x,1/2+y,1/2+z
1/2+x,-y,1/2+z
loop_
_atom_site_type_symbol
_atom_site_label
_atom_site_fract_x
_atom_site_fract_y
_atom_site_fract_z
Si Si1 0.596188 0.893061 0.520895
Si Si2 0.845782 0.059190 0.245815
Si Si3 0.877510 0.122200 0.774201
Si Si4 0.401842 0.469752 0.403243
Si Si5 0.569155 0.129362 0.070487
Si Si6 0.412708 0.872147 0.563732
Si Si7 0.443822 0.345477 0.824562
Si Si8 0.772241 0.579576 0.651792
O O1 0.508699 0.897307 0.568255
O O2 0.588008 0.824991 0.426720
O O3 0.620457 0.019035 0.487878
O O4 0.661474 0.856025 0.593642
O O5 0.750000 0.041752 0.250000
O O6 0.878313 0.103261 0.341058
O O7 0.870365 0.137107 0.161419
O O8 0.894337 0.947856 0.217749
O O9 0.852818 0.250000 0.750000
O O10 0.811627 0.043425 0.823913
O O11 0.960416 0.129502 0.831767
O O12 0.903529 0.054524 0.682949
O O13 0.474830 0.380424 0.398905
O O14 0.415525 0.536722 0.495319
O O15 0.310855 0.426005 0.402416
O O16 0.591672 0.247717 0.025515
O O17 0.436023 0.250000 0.750000
O O18 0.750000 0.626446 0.750000
#
# Coordination Sequence:
#
# PCOD9390473 Si02
#       8
#     8   8   8   8   8   8   8   8
#     4  10  22  41  68 102 124 166 226 280 336 408
#     4  11  24  43  63  93 129 166 217 280 334 399
#     4  10  20  38  65  99 134 172 225 280 343 400
#     4  10  24  39  61  90 133 176 213 269 333 406
#     4  11  24  42  60  88 128 178 217 264 339 406
#     4  10  23  40  69  90 124 168 220 278 330 403
#     4  10  22  40  73  97 131 174 219 282 343 407
#     4  10  22  40  64  97 137 173 215 281 335 396
#
# _framework density 21.993919000000002
#
# number of rings (size 3 to 8) (size 9 to 14) (size 15 to 20)
#    0.000    1.750    1.250    2.625   10.500    3.500 
#    0.000    0.625    8.250    2.250    0.000    0.000 
#    0.000    0.000    0.000    0.000    0.000    0.000 
#
# Total GULP energy -357532.600234 kJ/mol
# GULP energy per Si atom -5586.446879 kJ/mol
# Density = 2.194386 g / cm^3
# Si number density = 21.993919 Si / 1000 Ang^3
#
#
#
# Elastic Constant Matrix: (Units=GPa)
#
#
# Indices 1 2 3 4 5 6 
#
# 1 120.1653 15.0030 34.7200 0.0000 0.0000 0.0000
# 2 15.0030 68.4597 2.1435 0.0000 0.0000 0.0000
# 3 34.7200 2.1435 87.2847 0.0000 0.0000 0.0000
# 4 0.0000 0.0000 0.0000 16.8979 0.0000 0.0000
# 5 0.0000 0.0000 0.0000 0.0000 39.8599 0.0000
# 6 0.0000 0.0000 0.0000 0.0000 0.0000 -0.4720
#
#
#
# Elastic Compliance Matrix: (Units=1/GPa)
#
#
# Indices 1 2 3 4 5 6 
#
# 1 0.009669 -0.002000 -0.003797 0.000000 0.000000 0.000000
# 2 -0.002000 0.015032 0.000426 0.000000 0.000000 0.000000
# 3 -0.003797 0.000426 0.012957 0.000000 0.000000 0.000000
# 4 0.000000 0.000000 0.000000 0.059179 0.000000 0.000000
# 5 0.000000 0.000000 0.000000 0.000000 0.025088 0.000000
# 6 0.000000 0.000000 0.000000 0.000000 0.000000 -2.118619
#
#
# Mechanical properties :
#
#
# Convention : Reuss Voigt Hill
#
# Bulk Modulus (GPa) = 37.15207 42.18252 39.66730
# Shear Modulus (GPa) = -2.52911 26.19337 11.83213
#
# Velocity S-wave (km/s) = -1.07350 3.45474 2.32194
# Velocity P-wave (km/s) = 3.92328 5.92743 5.02626
#
# Compressibility (1/GPa) = 0.02691640
#
# Stress axis : x y z
#
# Youngs Moduli (GPa) = 103.42734 66.52434 77.18078
#
# Poissons Ratio (x) = 0.13305 0.29304
# Poissons Ratio (y) = 0.20686 -0.03291
# Poissons Ratio (z) = 0.39270 -0.02837
#
# Static dielectric constant tensor:
#      x y z
#    x 1.799830 0.000000 0.000000 
#    y 0.000000 1.877640 0.000000 
#    z 0.000000 0.000000 1.491910 
# 
# From -- ./inp_files/28079.got.cif
#   From: 2010.05.17/outbox.cif.g08.bks.cpg/sg48_15_cif.got.tgz:28079.got - 2010.06.03 20:39:00.
