data_PCOD9390531
_publ_section_title
;
Structure prediction by ZEFSAII (Michael W. Deem and Ramdas Pophale) SiO2 
 PCOD9390531
Probable space group: P N N N
;
_chemical_formula_sum "Si O2"
_cell_formula_units_Z 64
_cell_length_a 15.096427
_cell_length_b 8.293885
_cell_length_c 22.251166
_cell_angle_alpha 90.000000
_cell_angle_beta 90.000000
_cell_angle_gamma 90.000000
_cell_volume 2786.024648
_symmetry_space_group_name_H-M "P N N N"
_symmetry_group_IT_number 48
_space_group.IT_coordinate_system_code '2'
_symmetry_cell_setting 'orthorhombic'
loop_
_space_group_symop_operation_xyz
x,y,z
1/2-x,1/2-y,z
x,1/2-y,1/2-z
1/2-x,y,1/2-z
-x,-y,-z
1/2+x,1/2+y,-z
-x,1/2+y,1/2+z
1/2+x,-y,1/2+z
loop_
_atom_site_type_symbol
_atom_site_label
_atom_site_fract_x
_atom_site_fract_y
_atom_site_fract_z
Si Si1 0.717334 0.919315 0.317581
Si Si2 0.677378 0.527355 0.615127
Si Si3 0.741771 0.420615 0.501395
Si Si4 0.549649 0.119836 0.305875
Si Si5 0.497541 0.404569 0.565191
Si Si6 0.359831 0.621760 0.616697
Si Si7 0.587086 0.602595 0.002680
Si Si8 0.132997 0.379988 0.361592
O O1 0.750000 0.750000 0.346809
O O2 0.750000 0.913133 0.250000
O O3 0.614635 0.965678 0.308571
O O4 0.774633 0.063245 0.346787
O O5 0.703653 0.556463 0.545123
O O6 0.593714 0.408611 0.599603
O O7 0.777858 0.509933 0.642569
O O8 0.647662 0.688428 0.649590
O O9 0.750000 0.250000 0.537103
O O10 0.674370 0.367202 0.450804
O O11 0.829609 0.499053 0.474383
O O12 0.556006 0.250000 0.250000
O O13 0.590054 0.223464 0.360317
O O14 0.449266 0.070536 0.320425
O O15 0.500000 0.500000 0.500000
O O16 0.435024 0.487775 0.614005
O O17 0.443882 0.246781 0.545165
O O18 0.500000 0.500000 0.000000
O O19 0.607075 0.627927 0.932035
#
# Coordination Sequence:
#
# PCOD9390531 Si02
#       8
#     8   8   8   8   8   8   8   8
#     4  11  26  45  64  95 136 169 216 284 356 423
#     4  10  20  40  60  87 132 173 219 279 348 397
#     4  11  23  36  58  93 138 179 225 278 344 428
#     4  12  24  45  71  97 129 180 237 289 354 424
#     4  12  21  39  62  92 135 181 223 280 351 417
#     4  12  24  38  67  95 131 179 225 280 353 420
#     4  11  24  36  59  97 137 181 232 274 335 438
#     4  10  22  40  64  91 129 178 223 291 341 399
#
# _framework density 22.971800000000002
#
# number of rings (size 3 to 8) (size 9 to 14) (size 15 to 20)
#    0.000    0.875    5.000    1.875    5.250    0.000 
#    0.000    1.250    0.000    0.000    0.000    0.000 
#    0.000    3.250    0.000    0.000    0.000    0.000 
#
# Total GULP energy -356280.085774 kJ/mol
# GULP energy per Si atom -5566.876340 kJ/mol
# Density = 2.291952 g / cm^3
# Si number density = 22.971800 Si / 1000 Ang^3
#
#
#
# Elastic Constant Matrix: (Units=GPa)
#
#
# Indices 1 2 3 4 5 6 
#
# 1 192.6506 38.0870 14.4143 0.0000 0.0000 0.0000
# 2 38.0870 72.7883 -3.2318 0.0000 0.0000 0.0000
# 3 14.4143 -3.2318 20.6933 0.0000 0.0000 0.0000
# 4 0.0000 0.0000 0.0000 9.4523 0.0000 0.0000
# 5 0.0000 0.0000 0.0000 0.0000 32.1568 0.0000
# 6 0.0000 0.0000 0.0000 0.0000 0.0000 34.8719
#
#
#
# Elastic Compliance Matrix: (Units=1/GPa)
#
#
# Indices 1 2 3 4 5 6 
#
# 1 0.006246 -0.003486 -0.004895 0.000000 0.000000 0.000000
# 2 -0.003486 0.015780 0.004892 0.000000 0.000000 0.000000
# 3 -0.004895 0.004892 0.052499 0.000000 0.000000 0.000000
# 4 0.000000 0.000000 0.000000 0.105794 0.000000 0.000000
# 5 0.000000 0.000000 0.000000 0.000000 0.031098 0.000000
# 6 0.000000 0.000000 0.000000 0.000000 0.000000 0.028676
#
#
# Mechanical properties :
#
#
# Convention : Reuss Voigt Hill
#
# Bulk Modulus (GPa) = 14.80441 42.74126 28.77284
# Shear Modulus (GPa) = 18.54698 31.08706 24.81702
#
# Velocity S-wave (km/s) = 2.84453 3.68267 3.29040
# Velocity P-wave (km/s) = 4.15296 6.06046 5.19501
#
# Compressibility (1/GPa) = 0.06754742
#
# Stress axis : x y z
#
# Youngs Moduli (GPa) = 160.09919 63.37299 19.04809
#
# Poissons Ratio (x) = 0.22090 0.09324
# Poissons Ratio (y) = 0.55805 -0.09319
# Poissons Ratio (z) = 0.78372 -0.31005
#
# Static dielectric constant tensor:
#      x y z
#    x 1.946370 0.000000 0.000000 
#    y 0.000000 1.934500 0.000000 
#    z 0.000000 0.000000 1.977490 
# 
# From -- ./inp_files/36567.got.cif
#   From: 2010.05.17/outbox.cif.g08.bks.cpg/sg48_19_cif.got.tgz:36567.got - 2010.06.03 20:39:00.
