data_PCOD9390811
_publ_section_title
;
Structure prediction by ZEFSAII (Michael W. Deem and Ramdas Pophale) SiO2 
 PCOD9390811
Probable space group: P N N N
;
_chemical_formula_sum "Si O2"
_cell_formula_units_Z 48
_cell_length_a 13.409316
_cell_length_b 28.809155
_cell_length_c 5.755439
_cell_angle_alpha 90.000000
_cell_angle_beta 90.000000
_cell_angle_gamma 90.000000
_cell_volume 2223.389759
_symmetry_space_group_name_H-M "P N N N"
_symmetry_group_IT_number 48
_space_group.IT_coordinate_system_code '2'
_symmetry_cell_setting 'orthorhombic'
loop_
_space_group_symop_operation_xyz
x,y,z
1/2-x,1/2-y,z
x,1/2-y,1/2-z
1/2-x,y,1/2-z
-x,-y,-z
1/2+x,1/2+y,-z
-x,1/2+y,1/2+z
1/2+x,-y,1/2+z
loop_
_atom_site_type_symbol
_atom_site_label
_atom_site_fract_x
_atom_site_fract_y
_atom_site_fract_z
Si Si1 0.943285 0.030206 0.696852
Si Si2 0.285997 0.803736 0.495571
Si Si3 0.007080 0.616510 0.988397
Si Si4 0.394898 0.443442 0.092539
Si Si5 0.999175 0.198099 0.164469
Si Si6 0.154690 0.356693 0.625542
O O1 0.913219 0.079969 0.591720
O O2 0.866124 0.993503 0.805306
O O3 0.000000 0.000000 0.500000
O O4 0.024963 0.043724 0.892377
O O5 0.250000 0.750000 0.497470
O O6 0.250000 0.822531 0.750000
O O7 0.406058 0.803638 0.490266
O O8 0.250000 0.824750 0.250000
O O9 0.952379 0.586599 0.787169
O O10 0.036391 0.664611 0.872687
O O11 0.927271 0.630125 0.183091
O O12 0.316634 0.406400 0.991889
O O13 0.014111 0.250000 0.250000
O O14 0.099096 0.176736 0.054526
O O15 0.250000 0.335634 0.750000
#
# Coordination Sequence:
#
# PCOD9390811 Si02
#       6
#     8   8   8   8   8   8
#     4   8  13  27  52  84 113 144 194 259 328 397
#     4  10  21  39  66  96 123 152 221 291 353 415
#     4   9  19  33  55  84 122 160 213 269 330 389
#     4   8  15  29  52  84 116 149 209 263 326 389
#     4  11  23  39  60  90 125 172 224 282 339 411
#     4  10  22  38  57  87 131 176 224 276 327 398
#
# _framework density 21.588659
#
# number of rings (size 3 to 8) (size 9 to 14) (size 15 to 20)
#    0.000    2.667    1.667    0.000    2.333    3.333 
#    0.000    2.500    0.000    0.000    0.000  151.667 
#    0.000    0.000    0.000    0.000    0.000    0.000 
#
# Total GULP energy -267284.648530 kJ/mol
# GULP energy per Si atom -5568.430178 kJ/mol
# Density = 2.153952 g / cm^3
# Si number density = 21.588659 Si / 1000 Ang^3
#
#
#
# Elastic Constant Matrix: (Units=GPa)
#
#
# Indices 1 2 3 4 5 6 
#
# 1 65.6785 36.9944 13.0701 0.0000 0.0000 0.0000
# 2 36.9944 153.8424 50.2555 0.0000 0.0000 0.0000
# 3 13.0701 50.2555 107.8808 0.0000 0.0000 0.0000
# 4 0.0000 0.0000 0.0000 7.8018 0.0000 0.0000
# 5 0.0000 0.0000 0.0000 0.0000 27.0429 0.0000
# 6 0.0000 0.0000 0.0000 0.0000 0.0000 7.7707
#
#
#
# Elastic Compliance Matrix: (Units=1/GPa)
#
#
# Indices 1 2 3 4 5 6 
#
# 1 0.017614 -0.004174 -0.000190 0.000000 0.000000 0.000000
# 2 -0.004174 0.008656 -0.003527 0.000000 0.000000 0.000000
# 3 -0.000190 -0.003527 0.010935 0.000000 0.000000 0.000000
# 4 0.000000 0.000000 0.000000 0.128176 0.000000 0.000000
# 5 0.000000 0.000000 0.000000 0.000000 0.036978 0.000000
# 6 0.000000 0.000000 0.000000 0.000000 0.000000 0.128689
#
#
# Mechanical properties :
#
#
# Convention : Reuss Voigt Hill
#
# Bulk Modulus (GPa) = 46.67362 58.67130 52.67246
# Shear Modulus (GPa) = 14.12547 23.66185 18.89366
#
# Velocity S-wave (km/s) = 2.56071 3.31423 2.96153
# Velocity P-wave (km/s) = 5.51447 6.47158 6.01210
#
# Compressibility (1/GPa) = 0.02142538
#
# Stress axis : x y z
#
# Youngs Moduli (GPa) = 56.77188 115.52893 91.44682
#
# Poissons Ratio (x) = 0.48219 0.01735
# Poissons Ratio (y) = 0.23695 0.32250
# Poissons Ratio (z) = 0.01077 0.40742
#
# Static dielectric constant tensor:
#      x y z
#    x 1.813270 0.000000 0.000000 
#    y 0.000000 1.831660 0.000000 
#    z 0.000000 0.000000 1.878660 
# 
# From -- ./inp_files/3532.got.cif
#   From: 2010.05.17/outbox.cif.g08.bks.cpg/sg48_2_cif.got.tgz:3532.got - 2010.06.03 20:39:00.
