data_PCOD9390605
_publ_section_title
;
Structure prediction by ZEFSAII (Michael W. Deem and Ramdas Pophale) SiO2 
 PCOD9390605
Probable space group: P N N N
;
_chemical_formula_sum "Si O2"
_cell_formula_units_Z 34
_cell_length_a 16.757524
_cell_length_b 21.386428
_cell_length_c 5.173635
_cell_angle_alpha 90.000000
_cell_angle_beta 90.000000
_cell_angle_gamma 90.000000
_cell_volume 1854.145835
_symmetry_space_group_name_H-M "P N N N"
_symmetry_group_IT_number 48
_space_group.IT_coordinate_system_code '2'
_symmetry_cell_setting 'orthorhombic'
loop_
_space_group_symop_operation_xyz
x,y,z
1/2-x,1/2-y,z
x,1/2-y,1/2-z
1/2-x,y,1/2-z
-x,-y,-z
1/2+x,1/2+y,-z
-x,1/2+y,1/2+z
1/2+x,-y,1/2+z
loop_
_atom_site_type_symbol
_atom_site_label
_atom_site_fract_x
_atom_site_fract_y
_atom_site_fract_z
Si Si1 0.926018 0.063039 0.728935
Si Si2 0.250000 0.547604 0.250000
Si Si3 0.750000 0.750000 0.250000
Si Si4 0.175824 0.139799 0.442502
Si Si5 0.527609 0.580740 0.780330
Si Si6 0.250000 0.460832 0.750000
O O1 0.833896 0.083052 0.730068
O O2 0.964613 0.076409 0.452657
O O3 0.930158 0.987788 0.780354
O O4 0.980824 0.091149 0.954372
O O5 0.240097 0.504723 0.504043
O O6 0.804889 0.794533 0.425315
O O7 0.250000 0.127077 0.250000
O O8 0.094755 0.131256 0.287718
O O9 0.179381 0.086682 0.667353
#
# Coordination Sequence:
#
# PCOD9390605 Si02
#       6
#     8   4   2   8   8   4
#     4  10  21  32  49  78 105 148 186 229 258 334
#     4  12  20  34  50  77 112 147 192 220 276 328
#     4  10  26  36  60  82 104 152 196 234 286 358
#     4  11  22  38  55  77 109 148 189 233 280 335
#     4  10  21  33  51  75 108 141 193 224 270 318
#     4  11  20  29  54  74  98 158 180 223 267 320
#
# _framework density 18.337284
#
# number of rings (size 3 to 8) (size 9 to 14) (size 15 to 20)
#    0.000    1.412    3.529    1.765   13.176    0.000 
#    0.000    0.000    0.000    0.000    0.000    0.000 
#    0.000    0.941    1.882    0.000    0.000    0.000 
#
# Total GULP energy -189900.756981 kJ/mol
# GULP energy per Si atom -5585.316382 kJ/mol
# Density = 1.829555 g / cm^3
# Si number density = 18.337284 Si / 1000 Ang^3
#
#
#
# Elastic Constant Matrix: (Units=GPa)
#
#
# Indices 1 2 3 4 5 6 
#
# 1 123.3916 14.8329 13.7174 0.0000 0.0000 0.0000
# 2 14.8329 37.5105 8.9490 0.0000 0.0000 0.0000
# 3 13.7174 8.9490 88.3826 0.0000 0.0000 0.0000
# 4 0.0000 0.0000 0.0000 16.8808 0.0000 0.0000
# 5 0.0000 0.0000 0.0000 0.0000 22.7296 0.0000
# 6 0.0000 0.0000 0.0000 0.0000 0.0000 6.1833
#
#
#
# Elastic Compliance Matrix: (Units=1/GPa)
#
#
# Indices 1 2 3 4 5 6 
#
# 1 0.008597 -0.003157 -0.001015 0.000000 0.000000 0.000000
# 2 -0.003157 0.028479 -0.002394 0.000000 0.000000 0.000000
# 3 -0.001015 -0.002394 0.011714 0.000000 0.000000 0.000000
# 4 0.000000 0.000000 0.000000 0.059239 0.000000 0.000000
# 5 0.000000 0.000000 0.000000 0.000000 0.043995 0.000000
# 6 0.000000 0.000000 0.000000 0.000000 0.000000 0.161727
#
#
# Mechanical properties :
#
#
# Convention : Reuss Voigt Hill
#
# Bulk Modulus (GPa) = 28.04359 36.03149 32.03754
# Shear Modulus (GPa) = 14.75938 23.27777 19.01857
#
# Velocity S-wave (km/s) = 2.84012 3.56676 3.22398
# Velocity P-wave (km/s) = 5.10700 6.05428 5.60071
#
# Compressibility (1/GPa) = 0.03565877
#
# Stress axis : x y z
#
# Youngs Moduli (GPa) = 116.32498 35.11393 85.36604
#
# Poissons Ratio (x) = 0.11087 0.08661
# Poissons Ratio (y) = 0.36728 0.20433
# Poissons Ratio (z) = 0.11802 0.08405
#
# Static dielectric constant tensor:
#      x y z
#    x 1.667130 0.000000 0.000000 
#    y 0.000000 1.615460 0.000000 
#    z 0.000000 0.000000 1.685390 
# 
# From -- ./inp_files/3248.got.cif
#   From: 2010.05.17/outbox.cif.g08.bks.cpg/sg48_2_cif.got.tgz:3248.got - 2010.06.03 20:39:00.
