data_PCOD9390666
_publ_section_title
;
Structure prediction by ZEFSAII (Michael W. Deem and Ramdas Pophale) SiO2 
 PCOD9390666
Probable space group: P N N N
;
_chemical_formula_sum "Si O2"
_cell_formula_units_Z 48
_cell_length_a 15.943245
_cell_length_b 10.840711
_cell_length_c 14.325704
_cell_angle_alpha 90.000000
_cell_angle_beta 90.000000
_cell_angle_gamma 90.000000
_cell_volume 2475.998973
_symmetry_space_group_name_H-M "P N N N"
_symmetry_group_IT_number 48
_space_group.IT_coordinate_system_code '2'
_symmetry_cell_setting 'orthorhombic'
loop_
_space_group_symop_operation_xyz
x,y,z
1/2-x,1/2-y,z
x,1/2-y,1/2-z
1/2-x,y,1/2-z
-x,-y,-z
1/2+x,1/2+y,-z
-x,1/2+y,1/2+z
1/2+x,-y,1/2+z
loop_
_atom_site_type_symbol
_atom_site_label
_atom_site_fract_x
_atom_site_fract_y
_atom_site_fract_z
Si Si1 0.492314 0.196107 0.480739
Si Si2 0.949468 0.341148 0.837783
Si Si3 0.463825 0.941618 0.902201
Si Si4 0.141780 0.501443 0.510125
Si Si5 0.730405 0.109402 0.140060
Si Si6 0.264402 0.896255 0.145854
O O1 0.511629 0.258073 0.580773
O O2 0.497677 0.304264 0.404247
O O3 0.567326 0.098292 0.467499
O O4 0.404739 0.125345 0.487310
O O5 0.934995 0.250000 0.750000
O O6 0.862932 0.402011 0.873890
O O7 0.008074 0.460360 0.823475
O O8 0.364131 0.922983 0.890777
O O9 0.500000 0.000000 0.000000
O O10 0.206439 0.511331 0.594762
O O11 0.198533 0.544045 0.423354
O O12 0.750000 0.250000 0.105104
O O13 0.750000 0.110412 0.250000
O O14 0.250000 0.750000 0.144608
O O15 0.250000 0.943862 0.250000
#
# Coordination Sequence:
#
# PCOD9390666 Si02
#       6
#     8   8   8   8   8   8
#     4  10  21  36  59  94 121 169 205 259 335 381
#     4  11  21  37  64  90 122 161 214 271 316 389
#     4  10  22  41  62  89 127 168 217 269 333 384
#     4  11  20  36  65  88 130 158 217 267 318 391
#     4  11  23  40  62  93 126 177 225 269 329 410
#     4  11  19  36  62  96 113 154 217 267 311 371
#
# _framework density 19.386113999999999
#
# number of rings (size 3 to 8) (size 9 to 14) (size 15 to 20)
#    0.000    1.333    5.000    2.500    2.333    0.000 
#    0.000    7.500    0.000    1.000    0.000    0.000 
#    0.000    0.000    0.000    0.000    0.000    0.000 
#
# Total GULP energy -267642.464004 kJ/mol
# GULP energy per Si atom -5575.884667 kJ/mol
# Density = 1.934199 g / cm^3
# Si number density = 19.386114 Si / 1000 Ang^3
#
#
#
# Elastic Constant Matrix: (Units=GPa)
#
#
# Indices 1 2 3 4 5 6 
#
# 1 156.6376 61.2383 26.4036 0.0000 0.0000 0.0000
# 2 61.2383 78.3427 4.8068 0.0000 0.0000 0.0000
# 3 26.4036 4.8068 58.0391 0.0000 0.0000 0.0000
# 4 0.0000 0.0000 0.0000 17.0535 0.0000 0.0000
# 5 0.0000 0.0000 0.0000 0.0000 -29.5377 0.0000
# 6 0.0000 0.0000 0.0000 0.0000 0.0000 89.7815
#
#
#
# Elastic Compliance Matrix: (Units=1/GPa)
#
#
# Indices 1 2 3 4 5 6 
#
# 1 0.010011 -0.007585 -0.003926 0.000000 0.000000 0.000000
# 2 -0.007585 0.018576 0.001912 0.000000 0.000000 0.000000
# 3 -0.003926 0.001912 0.018858 0.000000 0.000000 0.000000
# 4 0.000000 0.000000 0.000000 0.058639 0.000000 0.000000
# 5 0.000000 0.000000 0.000000 0.000000 -0.033855 0.000000
# 6 0.000000 0.000000 0.000000 0.000000 0.000000 0.011138
#
#
# Mechanical properties :
#
#
# Convention : Reuss Voigt Hill
#
# Bulk Modulus (GPa) = 35.40209 53.10187 44.25198
# Shear Modulus (GPa) = 44.65089 28.83085 36.74087
#
# Velocity S-wave (km/s) = 4.80442 3.86060 4.35813
# Velocity P-wave (km/s) = 7.00555 6.87920 6.94266
#
# Compressibility (1/GPa) = 0.02824692
#
# Stress axis : x y z
#
# Youngs Moduli (GPa) = 99.88781 53.83352 53.02912
#
# Poissons Ratio (x) = 0.40831 0.20820
# Poissons Ratio (y) = 0.75761 -0.10139
# Poissons Ratio (z) = 0.39218 -0.10293
#
# Static dielectric constant tensor:
#      x y z
#    x 1.710980 0.000000 0.000000 
#    y 0.000000 1.702240 0.000000 
#    z 0.000000 0.000000 -2.926200 
# 
# From -- ./inp_files/27258.got.cif
#   From: 2010.05.17/outbox.cif.g08.bks.cpg/sg48_14_cif.got.tgz:27258.got - 2010.06.03 20:39:00.
