data_PCOD9390021
_publ_section_title
;
Structure prediction by ZEFSAII (Michael W. Deem and Ramdas Pophale) SiO2 
 PCOD9390021
Probable space group: P N N N
;
_chemical_formula_sum "Si O2"
_cell_formula_units_Z 64
_cell_length_a 32.519962
_cell_length_b 7.867444
_cell_length_c 11.545685
_cell_angle_alpha 90.000000
_cell_angle_beta 90.000000
_cell_angle_gamma 90.000000
_cell_volume 2953.951730
_symmetry_space_group_name_H-M "P N N N"
_symmetry_group_IT_number 48
_space_group.IT_coordinate_system_code '2'
_symmetry_cell_setting 'orthorhombic'
loop_
_space_group_symop_operation_xyz
x,y,z
1/2-x,1/2-y,z
x,1/2-y,1/2-z
1/2-x,y,1/2-z
-x,-y,-z
1/2+x,1/2+y,-z
-x,1/2+y,1/2+z
1/2+x,-y,1/2+z
loop_
_atom_site_type_symbol
_atom_site_label
_atom_site_fract_x
_atom_site_fract_y
_atom_site_fract_z
Si Si1 0.928196 0.037231 0.474569
Si Si2 0.468527 0.452060 0.759397
Si Si3 0.851907 0.550596 0.746155
Si Si4 0.442627 0.546029 0.260797
Si Si5 0.320211 0.490490 0.010043
Si Si6 0.394083 0.855988 0.631283
Si Si7 0.259050 0.454992 0.621271
Si Si8 0.341478 0.410062 0.504133
O O1 0.944117 0.001589 0.602421
O O2 0.911543 0.228545 0.465342
O O3 0.959799 0.017370 0.370427
O O4 0.887640 0.924336 0.448000
O O5 0.468810 0.250000 0.750000
O O6 0.514332 0.508545 0.796370
O O7 0.430947 0.515618 0.837391
O O8 0.841112 0.750000 0.750000
O O9 0.900310 0.534274 0.716831
O O10 0.828160 0.458958 0.642980
O O11 0.843788 0.497913 0.878688
O O12 0.438913 0.750000 0.250000
O O13 0.352923 0.565726 0.920023
O O14 0.274318 0.526018 0.967941
O O15 0.329191 0.287142 0.008048
O O16 0.386603 0.750000 0.750000
O O17 0.250000 0.250000 0.622374
O O18 0.250000 0.517497 0.750000
O O19 0.305730 0.487183 0.583164
#
# Coordination Sequence:
#
# PCOD9390021 Si02
#       8
#     8   8   8   8   8   8   8   8
#     4  10  20  36  56  77 111 142 180 225 276 324
#     4  10  21  36  54  79 107 143 185 225 273 325
#     4   9  19  34  56  83 111 144 184 228 274 327
#     4  10  20  36  56  79 105 145 185 224 269 328
#     4  10  19  36  56  80 113 146 183 228 277 324
#     4  10  22  35  53  81 109 146 180 225 280 326
#     4   9  19  32  54  85 110 143 182 225 272 326
#     4   9  19  35  57  83 109 146 187 225 274 330
#
# _framework density 21.665890000000001
#
# number of rings (size 3 to 8) (size 9 to 14) (size 15 to 20)
#    0.000    2.375    0.000    1.875    3.500    2.000 
#    0.000   10.000    0.000    0.000    0.000    2.625 
#    0.000    0.000    0.000    0.000    0.000    0.000 
#
# Total GULP energy -357269.429167 kJ/mol
# GULP energy per Si atom -5582.334831 kJ/mol
# Density = 2.161658 g / cm^3
# Si number density = 21.665890 Si / 1000 Ang^3
#
#
#
# Elastic Constant Matrix: (Units=GPa)
#
#
# Indices 1 2 3 4 5 6 
#
# 1 88.1443 1.4263 28.4450 0.0000 0.0000 0.0000
# 2 1.4263 25.1877 -3.1120 0.0000 0.0000 0.0000
# 3 28.4450 -3.1120 63.8382 0.0000 0.0000 0.0000
# 4 0.0000 0.0000 0.0000 14.7106 0.0000 0.0000
# 5 0.0000 0.0000 0.0000 0.0000 28.8063 0.0000
# 6 0.0000 0.0000 0.0000 0.0000 0.0000 35.4251
#
#
#
# Elastic Compliance Matrix: (Units=1/GPa)
#
#
# Indices 1 2 3 4 5 6 
#
# 1 0.013306 -0.001495 -0.006002 0.000000 0.000000 0.000000
# 2 -0.001495 0.040110 0.002621 0.000000 0.000000 0.000000
# 3 -0.006002 0.002621 0.018467 0.000000 0.000000 0.000000
# 4 0.000000 0.000000 0.000000 0.067978 0.000000 0.000000
# 5 0.000000 0.000000 0.000000 0.000000 0.034715 0.000000
# 6 0.000000 0.000000 0.000000 0.000000 0.000000 0.028229
#
#
# Mechanical properties :
#
#
# Convention : Reuss Voigt Hill
#
# Bulk Modulus (GPa) = 16.09464 25.63210 20.86337
# Shear Modulus (GPa) = 21.43474 25.81579 23.62526
#
# Velocity S-wave (km/s) = 3.14878 3.45561 3.30576
# Velocity P-wave (km/s) = 4.54581 5.27048 4.92150
#
# Compressibility (1/GPa) = 0.06213247
#
# Stress axis : x y z
#
# Youngs Moduli (GPa) = 75.15374 24.93116 54.15167
#
# Poissons Ratio (x) = 0.03727 0.32501
# Poissons Ratio (y) = 0.11235 -0.14196
# Poissons Ratio (z) = 0.45106 -0.06536
#
# Static dielectric constant tensor:
#      x y z
#    x 1.782940 0.000000 0.000000 
#    y 0.000000 1.856530 0.000000 
#    z 0.000000 0.000000 1.804120 
# 
# From -- ./inp_files/19058.got.cif
#   From: 2010.05.17/outbox.cif.g08.bks.cpg/sg48_10_cif.got.tgz:19058.got - 2010.06.03 20:39:00.
