data_PCOD9390704
_publ_section_title
;
Structure prediction by ZEFSAII (Michael W. Deem and Ramdas Pophale) SiO2 
 PCOD9390704
Probable space group: P N N N
;
_chemical_formula_sum "Si O2"
_cell_formula_units_Z 64
_cell_length_a 17.078494
_cell_length_b 10.195834
_cell_length_c 15.248014
_cell_angle_alpha 90.000000
_cell_angle_beta 90.000000
_cell_angle_gamma 90.000000
_cell_volume 2655.128898
_symmetry_space_group_name_H-M "P N N N"
_symmetry_group_IT_number 48
_space_group.IT_coordinate_system_code '2'
_symmetry_cell_setting 'orthorhombic'
loop_
_space_group_symop_operation_xyz
x,y,z
1/2-x,1/2-y,z
x,1/2-y,1/2-z
1/2-x,y,1/2-z
-x,-y,-z
1/2+x,1/2+y,-z
-x,1/2+y,1/2+z
1/2+x,-y,1/2+z
loop_
_atom_site_type_symbol
_atom_site_label
_atom_site_fract_x
_atom_site_fract_y
_atom_site_fract_z
Si Si1 0.621099 0.737863 0.852564
Si Si2 0.878328 0.745511 0.348846
Si Si3 0.564120 0.262244 0.630738
Si Si4 0.975475 0.361874 0.454347
Si Si5 0.835318 0.019107 0.570819
Si Si6 0.647744 0.455758 0.172587
Si Si7 0.191100 0.551263 0.332014
Si Si8 0.822558 0.483728 0.125578
O O1 0.596684 0.750000 0.750000
O O2 0.551313 0.712196 0.919957
O O3 0.665980 0.598899 0.847017
O O4 0.662275 0.868862 0.892141
O O5 0.849009 0.750000 0.250000
O O6 0.866121 0.596667 0.374467
O O7 0.826973 0.858514 0.390843
O O8 0.971838 0.770811 0.347699
O O9 0.565529 0.214167 0.531443
O O10 0.603475 0.403472 0.631589
O O11 0.617641 0.150073 0.676150
O O12 0.917692 0.369595 0.372083
O O13 0.000000 0.500000 0.500000
O O14 0.748963 0.079012 0.586715
O O15 0.855304 0.051776 0.469582
O O16 0.736792 0.426191 0.145909
O O17 0.636902 0.462658 0.278587
O O18 0.250000 0.562669 0.250000
#
# Coordination Sequence:
#
# PCOD9390704 Si02
#       8
#     8   8   8   8   8   8   8   8
#     4  12  27  49  75 111 148 201 258 318 386 463
#     4  10  21  37  65  98 142 183 241 304 368 446
#     4  12  27  45  70 112 148 198 253 300 391 461
#     4  12  24  45  77 105 147 203 255 311 378 465
#     4  12  28  43  72 107 152 191 246 319 377 459
#     4  10  21  42  69 102 140 190 250 307 370 456
#     4  12  26  49  74 107 154 200 254 312 385 470
#     4  10  23  41  67 104 144 189 244 313 381 435
#
# _framework density 24.104289000000001
#
# number of rings (size 3 to 8) (size 9 to 14) (size 15 to 20)
#    0.000    0.750    3.750    2.625    1.750    8.000 
#    0.000    0.000    0.000    1.500    0.000    0.000 
#    0.000    0.000    0.000    0.000    0.000    0.000 
#
# Total GULP energy -357189.404734 kJ/mol
# GULP energy per Si atom -5581.084449 kJ/mol
# Density = 2.404943 g / cm^3
# Si number density = 24.104289 Si / 1000 Ang^3
#
#
#
# Elastic Constant Matrix: (Units=GPa)
#
#
# Indices 1 2 3 4 5 6 
#
# 1 86.0285 26.5772 11.6371 0.0000 0.0000 0.0000
# 2 26.5772 72.7483 22.7103 0.0000 0.0000 0.0000
# 3 11.6371 22.7103 141.3242 0.0000 0.0000 0.0000
# 4 0.0000 0.0000 0.0000 25.0296 0.0000 0.0000
# 5 0.0000 0.0000 0.0000 0.0000 27.7000 0.0000
# 6 0.0000 0.0000 0.0000 0.0000 0.0000 26.2142
#
#
#
# Elastic Compliance Matrix: (Units=1/GPa)
#
#
# Indices 1 2 3 4 5 6 
#
# 1 0.013117 -0.004690 -0.000326 0.000000 0.000000 0.000000
# 2 -0.004690 0.016149 -0.002209 0.000000 0.000000 0.000000
# 3 -0.000326 -0.002209 0.007458 0.000000 0.000000 0.000000
# 4 0.000000 0.000000 0.000000 0.039953 0.000000 0.000000
# 5 0.000000 0.000000 0.000000 0.000000 0.036101 0.000000
# 6 0.000000 0.000000 0.000000 0.000000 0.000000 0.038147
#
#
# Mechanical properties :
#
#
# Convention : Reuss Voigt Hill
#
# Bulk Modulus (GPa) = 44.89746 46.88338 45.89042
# Shear Modulus (GPa) = 28.93511 31.73385 30.33448
#
# Velocity S-wave (km/s) = 3.46846 3.63233 3.55134
# Velocity P-wave (km/s) = 5.89127 6.08968 5.99129
#
# Compressibility (1/GPa) = 0.02227297
#
# Stress axis : x y z
#
# Youngs Moduli (GPa) = 76.23594 61.92312 134.08841
#
# Poissons Ratio (x) = 0.29043 0.04377
# Poissons Ratio (y) = 0.35756 0.29619
# Poissons Ratio (z) = 0.02488 0.13678
#
# Static dielectric constant tensor:
#      x y z
#    x 2.064780 0.000000 0.000000 
#    y 0.000000 2.056180 0.000000 
#    z 0.000000 0.000000 1.955190 
# 
# From -- ./inp_files/28065.got.cif
#   From: 2010.05.17/outbox.cif.g08.bks.cpg/sg48_15_cif.got.tgz:28065.got - 2010.06.03 20:39:00.
