data_PCOD9390800
_publ_section_title
;
Structure prediction by ZEFSAII (Michael W. Deem and Ramdas Pophale) SiO2 
 PCOD9390800
Probable space group: P N N N
;
_chemical_formula_sum "Si O2"
_cell_formula_units_Z 48
_cell_length_a 8.337478
_cell_length_b 22.528650
_cell_length_c 11.624914
_cell_angle_alpha 90.000000
_cell_angle_beta 90.000000
_cell_angle_gamma 90.000000
_cell_volume 2183.532285
_symmetry_space_group_name_H-M "P N N N"
_symmetry_group_IT_number 48
_space_group.IT_coordinate_system_code '2'
_symmetry_cell_setting 'orthorhombic'
loop_
_space_group_symop_operation_xyz
x,y,z
1/2-x,1/2-y,z
x,1/2-y,1/2-z
1/2-x,y,1/2-z
-x,-y,-z
1/2+x,1/2+y,-z
-x,1/2+y,1/2+z
1/2+x,-y,1/2+z
loop_
_atom_site_type_symbol
_atom_site_label
_atom_site_fract_x
_atom_site_fract_y
_atom_site_fract_z
Si Si1 0.575743 0.046711 0.410995
Si Si2 0.933386 0.320941 0.746852
Si Si3 0.419898 0.501015 0.311307
Si Si4 0.442889 0.305132 0.505962
Si Si5 0.929564 0.079127 0.481637
Si Si6 0.927894 0.668387 0.502629
O O1 0.543388 0.019004 0.286213
O O2 0.761728 0.052892 0.440971
O O3 0.497455 0.112459 0.427373
O O4 0.500000 0.000000 0.500000
O O5 0.910261 0.250000 0.750000
O O6 0.750000 0.345765 0.750000
O O7 0.044048 0.322494 0.859457
O O8 0.021412 0.342395 0.631126
O O9 0.250000 0.504587 0.250000
O O10 0.428670 0.450910 0.409546
O O11 0.451537 0.560012 0.385357
O O12 0.568303 0.351486 0.454818
O O13 0.261687 0.323065 0.475125
O O14 0.485488 0.237032 0.479402
#
# Coordination Sequence:
#
# PCOD9390800 Si02
#       6
#     8   8   8   8   8   8
#     4  12  25  43  68  99 135 181 227 281 342 408
#     4   9  17  31  54  88 130 170 215 274 335 397
#     4  11  24  46  67  97 140 178 229 284 341 413
#     4  10  21  39  64  94 133 176 227 281 346 410
#     4  11  25  43  71 101 135 184 228 286 345 413
#     4  10  22  39  62  96 134 177 224 284 343 413
#
# _framework density 21.982731000000001
#
# number of rings (size 3 to 8) (size 9 to 14) (size 15 to 20)
#    0.000    1.500    1.667    3.000    4.667    4.667 
#    0.000    0.833    0.000    5.000    0.000    0.000 
#    0.000    0.000    0.000    0.000    0.000    0.000 
#
# Total GULP energy -267665.505781 kJ/mol
# GULP energy per Si atom -5576.364704 kJ/mol
# Density = 2.193270 g / cm^3
# Si number density = 21.982731 Si / 1000 Ang^3
#
#
#
# Elastic Constant Matrix: (Units=GPa)
#
#
# Indices 1 2 3 4 5 6 
#
# 1 50.6800 49.0945 30.8380 0.0000 0.0000 0.0000
# 2 49.0945 160.2553 45.4397 0.0000 0.0000 0.0000
# 3 30.8380 45.4397 73.0093 0.0000 0.0000 0.0000
# 4 0.0000 0.0000 0.0000 3.2984 0.0000 0.0000
# 5 0.0000 0.0000 0.0000 0.0000 29.0349 0.0000
# 6 0.0000 0.0000 0.0000 0.0000 0.0000 29.5617
#
#
#
# Elastic Compliance Matrix: (Units=1/GPa)
#
#
# Indices 1 2 3 4 5 6 
#
# 1 0.032384 -0.007337 -0.009112 0.000000 0.000000 0.000000
# 2 -0.007337 0.009240 -0.002651 0.000000 0.000000 0.000000
# 3 -0.009112 -0.002651 0.019196 0.000000 0.000000 0.000000
# 4 0.000000 0.000000 0.000000 0.303180 0.000000 0.000000
# 5 0.000000 0.000000 0.000000 0.000000 0.034441 0.000000
# 6 0.000000 0.000000 0.000000 0.000000 0.000000 0.033828
#
#
# Mechanical properties :
#
#
# Convention : Reuss Voigt Hill
#
# Bulk Modulus (GPa) = 44.21230 59.40989 51.81109
# Shear Modulus (GPa) = 10.46006 22.95048 16.70527
#
# Velocity S-wave (km/s) = 2.18372 3.23464 2.75967
# Velocity P-wave (km/s) = 5.14919 6.40585 5.81159
#
# Compressibility (1/GPa) = 0.02261814
#
# Stress axis : x y z
#
# Youngs Moduli (GPa) = 30.87974 108.22964 52.09469
#
# Poissons Ratio (x) = 0.79410 0.47468
# Poissons Ratio (y) = 0.22657 0.13813
# Poissons Ratio (z) = 0.28137 0.28697
#
# Static dielectric constant tensor:
#      x y z
#    x 1.830250 0.000000 0.000000 
#    y 0.000000 1.962180 0.000000 
#    z 0.000000 0.000000 1.965050 
# 
# From -- ./inp_files/18827.got.cif
#   From: 2010.05.17/outbox.cif.g08.bks.cpg/sg48_10_cif.got.tgz:18827.got - 2010.06.03 20:39:00.
