data_PCOD9390696
_publ_section_title
;
Structure prediction by ZEFSAII (Michael W. Deem and Ramdas Pophale) SiO2 
 PCOD9390696
Probable space group: P N N N
;
_chemical_formula_sum "Si O2"
_cell_formula_units_Z 58
_cell_length_a 15.441754
_cell_length_b 11.741713
_cell_length_c 16.243857
_cell_angle_alpha 90.000000
_cell_angle_beta 90.000000
_cell_angle_gamma 90.000000
_cell_volume 2945.216656
_symmetry_space_group_name_H-M "P N N N"
_symmetry_group_IT_number 48
_space_group.IT_coordinate_system_code '2'
_symmetry_cell_setting 'orthorhombic'
loop_
_space_group_symop_operation_xyz
x,y,z
1/2-x,1/2-y,z
x,1/2-y,1/2-z
1/2-x,y,1/2-z
-x,-y,-z
1/2+x,1/2+y,-z
-x,1/2+y,1/2+z
1/2+x,-y,1/2+z
loop_
_atom_site_type_symbol
_atom_site_label
_atom_site_fract_x
_atom_site_fract_y
_atom_site_fract_z
Si Si1 0.501362 0.766587 0.621057
Si Si2 0.981493 0.059478 0.262173
Si Si3 0.665649 0.823887 0.520379
Si Si4 0.279742 0.548023 0.115347
Si Si5 0.183339 0.652798 0.555944
Si Si6 0.621526 0.381583 0.722860
Si Si7 0.655253 0.561596 0.145050
Si Si8 0.750000 0.750000 0.250000
O O1 0.471091 0.648807 0.663531
O O2 0.523926 0.858877 0.692234
O O3 0.588107 0.757626 0.566540
O O4 0.416204 0.816117 0.575783
O O5 0.035147 0.951385 0.292966
O O6 0.902977 0.003573 0.211860
O O7 0.750000 0.750000 0.495467
O O8 0.620783 0.883872 0.440776
O O9 0.706877 0.921226 0.579718
O O10 0.337986 0.561573 0.195726
O O11 0.186727 0.592234 0.147812
O O12 0.309306 0.627075 0.040453
O O13 0.250000 0.750000 0.579414
O O14 0.211907 0.540498 0.606768
O O15 0.611972 0.250000 0.750000
O O16 0.696461 0.665912 0.192393
#
# Coordination Sequence:
#
# PCOD9390696 Si02
#       8
#     8   8   8   8   8   8   8   2
#     4  10  22  40  66  92 135 160 225 269 327 379
#     4  10  22  41  58  99 124 173 211 275 321 386
#     4  11  21  41  65  97 127 173 212 273 321 392
#     4  10  21  37  61  91 129 163 213 251 325 389
#     4  10  22  41  64  95 121 171 216 275 317 380
#     4  11  21  36  60  92 129 172 203 254 321 401
#     4  10  25  40  69  86 129 168 223 262 330 388
#     4  12  24  48  58  88 120 168 216 266 320 388
#
# _framework density 19.692948999999999
#
# number of rings (size 3 to 8) (size 9 to 14) (size 15 to 20)
#    0.000    1.655    2.069    2.483    4.828    1.655 
#    0.000    0.000    0.000    4.138    0.000    0.000 
#    0.000    0.000    0.000    0.000    0.000    0.000 
#
# Total GULP energy -322966.978125 kJ/mol
# GULP energy per Si atom -5568.396175 kJ/mol
# Density = 1.964813 g / cm^3
# Si number density = 19.692949 Si / 1000 Ang^3
#
#
#
# Elastic Constant Matrix: (Units=GPa)
#
#
# Indices 1 2 3 4 5 6 
#
# 1 48.9633 43.5551 34.4409 0.0000 0.0000 0.0000
# 2 43.5551 94.4218 50.4868 0.0000 0.0000 0.0000
# 3 34.4409 50.4868 108.6414 0.0000 0.0000 0.0000
# 4 0.0000 0.0000 0.0000 28.3238 0.0000 0.0000
# 5 0.0000 0.0000 0.0000 0.0000 12.7955 0.0000
# 6 0.0000 0.0000 0.0000 0.0000 0.0000 31.2107
#
#
#
# Elastic Compliance Matrix: (Units=1/GPa)
#
#
# Indices 1 2 3 4 5 6 
#
# 1 0.036565 -0.014196 -0.004994 0.000000 0.000000 0.000000
# 2 -0.014196 0.019604 -0.004610 0.000000 0.000000 0.000000
# 3 -0.004994 -0.004610 0.012930 0.000000 0.000000 0.000000
# 4 0.000000 0.000000 0.000000 0.035306 0.000000 0.000000
# 5 0.000000 0.000000 0.000000 0.000000 0.078152 0.000000
# 6 0.000000 0.000000 0.000000 0.000000 0.000000 0.032040
#
#
# Mechanical properties :
#
#
# Convention : Reuss Voigt Hill
#
# Bulk Modulus (GPa) = 46.51582 56.55468 51.53525
# Shear Modulus (GPa) = 18.56223 22.70225 20.63224
#
# Velocity S-wave (km/s) = 3.07348 3.39899 3.24033
# Velocity P-wave (km/s) = 6.02220 6.64716 6.34238
#
# Compressibility (1/GPa) = 0.02149806
#
# Stress axis : x y z
#
# Youngs Moduli (GPa) = 27.34883 51.00993 77.33871
#
# Poissons Ratio (x) = 0.72414 0.38626
# Poissons Ratio (y) = 0.38825 0.35652
# Poissons Ratio (z) = 0.13659 0.23515
#
# Static dielectric constant tensor:
#      x y z
#    x 1.716030 0.000000 0.000000 
#    y 0.000000 1.727390 0.000000 
#    z 0.000000 0.000000 1.721920 
# 
# From -- ./inp_files/28037.got.cif
#   From: 2010.05.17/outbox.cif.g08.bks.cpg/sg48_15_cif.got.tgz:28037.got - 2010.06.03 20:39:00.
