data_PCOD9390616
_publ_section_title
;
Structure prediction by ZEFSAII (Michael W. Deem and Ramdas Pophale) SiO2 
 PCOD9390616
Probable space group: P N N N
;
_chemical_formula_sum "Si O2"
_cell_formula_units_Z 42
_cell_length_a 9.658817
_cell_length_b 26.390055
_cell_length_c 7.328352
_cell_angle_alpha 90.000000
_cell_angle_beta 90.000000
_cell_angle_gamma 90.000000
_cell_volume 1867.972828
_symmetry_space_group_name_H-M "P N N N"
_symmetry_group_IT_number 48
_space_group.IT_coordinate_system_code '2'
_symmetry_cell_setting 'orthorhombic'
loop_
_space_group_symop_operation_xyz
x,y,z
1/2-x,1/2-y,z
x,1/2-y,1/2-z
1/2-x,y,1/2-z
-x,-y,-z
1/2+x,1/2+y,-z
-x,1/2+y,1/2+z
1/2+x,-y,1/2+z
loop_
_atom_site_type_symbol
_atom_site_label
_atom_site_fract_x
_atom_site_fract_y
_atom_site_fract_z
Si Si1 0.921112 0.143040 0.964033
Si Si2 0.909629 0.950243 0.470227
Si Si3 0.893632 0.360302 0.981137
Si Si4 0.903181 0.951485 0.034437
Si Si5 0.517818 0.256211 0.551896
Si Si6 0.750000 0.750000 0.250000
O O1 0.765914 0.128497 0.022521
O O2 0.913404 0.142180 0.740786
O O3 0.971752 0.199291 0.021076
O O4 0.024891 0.100030 0.030531
O O5 0.896778 0.945091 0.252455
O O6 0.752750 0.956581 0.538326
O O7 0.996471 0.902202 0.542291
O O8 0.000000 0.000000 0.500000
O O9 0.918713 0.303240 0.051319
O O10 0.000000 0.000000 0.000000
O O11 0.591031 0.250000 0.750000
O O12 0.362144 0.274080 0.612199
#
# Coordination Sequence:
#
# PCOD9390616 Si02
#       6
#     8   8   8   8   8   2
#     4   9  16  26  42  64  93 124 157 195 239 289
#     4  10  21  34  51  72  98 130 166 203 245 290
#     4   9  16  26  42  64  93 124 157 195 239 289
#     4  10  21  34  51  72  98 130 166 203 245 290
#     4   8  15  22  38  59  92 123 153 189 240 286
#     4   8  16  20  34  60  96 120 156 192 240 286
#
# _framework density 22.484265000000001
#
# number of rings (size 3 to 8) (size 9 to 14) (size 15 to 20)
#    0.571    2.286    0.000    1.714    2.667    4.571 
#    0.000    0.000    0.000    0.000    0.000    1.333 
#    0.000    9.143    0.000    0.000    0.000    0.000 
#
# Total GULP energy -233988.069252 kJ/mol
# GULP energy per Si atom -5571.144506 kJ/mol
# Density = 2.243309 g / cm^3
# Si number density = 22.484265 Si / 1000 Ang^3
#
#
#
# Elastic Constant Matrix: (Units=GPa)
#
#
# Indices 1 2 3 4 5 6 
#
# 1 216.9819 111.0907 4.3445 0.0000 0.0000 0.0000
# 2 111.0907 211.3205 1.6109 0.0000 0.0000 0.0000
# 3 4.3445 1.6109 75.9680 0.0000 0.0000 0.0000
# 4 0.0000 0.0000 0.0000 9.1589 0.0000 0.0000
# 5 0.0000 0.0000 0.0000 0.0000 4.0346 0.0000
# 6 0.0000 0.0000 0.0000 0.0000 0.0000 24.8536
#
#
#
# Elastic Compliance Matrix: (Units=1/GPa)
#
#
# Indices 1 2 3 4 5 6 
#
# 1 0.006312 -0.003316 -0.000291 0.000000 0.000000 0.000000
# 2 -0.003316 0.006475 0.000052 0.000000 0.000000 0.000000
# 3 -0.000291 0.000052 0.013179 0.000000 0.000000 0.000000
# 4 0.000000 0.000000 0.000000 0.109183 0.000000 0.000000
# 5 0.000000 0.000000 0.000000 0.000000 0.247855 0.000000
# 6 0.000000 0.000000 0.000000 0.000000 0.000000 0.040236
#
#
# Mechanical properties :
#
#
# Convention : Reuss Voigt Hill
#
# Bulk Modulus (GPa) = 53.02976 82.04031 67.53503
# Shear Modulus (GPa) = 11.45121 33.42439 22.43780
#
# Velocity S-wave (km/s) = 2.25921 3.85979 3.16244
# Velocity P-wave (km/s) = 5.51742 7.51206 6.59063
#
# Compressibility (1/GPa) = 0.01885734
#
# Stress axis : x y z
#
# Youngs Moduli (GPa) = 158.42069 154.43917 75.87860
#
# Poissons Ratio (x) = 0.51214 0.02206
# Poissons Ratio (y) = 0.52535 -0.00397
# Poissons Ratio (z) = 0.04605 -0.00808
#
# Static dielectric constant tensor:
#      x y z
#    x 1.857700 0.000000 0.000000 
#    y 0.000000 1.818570 0.000000 
#    z 0.000000 0.000000 2.013530 
# 
# From -- ./inp_files/18763.got.cif
#   From: 2010.05.17/outbox.cif.g08.bks.cpg/sg48_10_cif.got.tgz:18763.got - 2010.06.03 20:39:00.
