data_PCOD9390040
_publ_section_title
;
Structure prediction by ZEFSAII (Michael W. Deem and Ramdas Pophale) SiO2 
 PCOD9390040
Probable space group: P N N N
;
_chemical_formula_sum "Si O2"
_cell_formula_units_Z 48
_cell_length_a 5.135902
_cell_length_b 16.439679
_cell_length_c 29.202019
_cell_angle_alpha 90.000000
_cell_angle_beta 90.000000
_cell_angle_gamma 90.000000
_cell_volume 2465.601813
_symmetry_space_group_name_H-M "P N N N"
_symmetry_group_IT_number 48
_space_group.IT_coordinate_system_code '2'
_symmetry_cell_setting 'orthorhombic'
loop_
_space_group_symop_operation_xyz
x,y,z
1/2-x,1/2-y,z
x,1/2-y,1/2-z
1/2-x,y,1/2-z
-x,-y,-z
1/2+x,1/2+y,-z
-x,1/2+y,1/2+z
1/2+x,-y,1/2+z
loop_
_atom_site_type_symbol
_atom_site_label
_atom_site_fract_x
_atom_site_fract_y
_atom_site_fract_z
Si Si1 0.219843 0.654074 0.886577
Si Si2 0.502841 0.448681 0.780947
Si Si3 0.097990 0.566517 0.431342
Si Si4 0.196761 0.561533 0.975181
Si Si5 0.236613 0.059909 0.139577
Si Si6 0.004441 0.193265 0.853014
O O1 0.250000 0.750000 0.880975
O O2 0.121842 0.627900 0.937496
O O3 0.506853 0.617695 0.878628
O O4 0.003426 0.610024 0.854579
O O5 0.750000 0.429170 0.750000
O O6 0.610581 0.517584 0.815857
O O7 0.450100 0.369482 0.811581
O O8 0.250000 0.469574 0.750000
O O9 0.189058 0.603528 0.479449
O O10 0.285486 0.511511 0.398477
O O11 0.888643 0.500022 0.448423
O O12 0.009848 0.637409 0.398097
O O13 0.000000 0.500000 0.000000
O O14 0.250000 0.250000 0.856591
O O15 0.750000 0.250000 0.847674
#
# Coordination Sequence:
#
# PCOD9390040 Si02
#       6
#     8   8   8   8   8   8
#     4  11  22  37  60  91 123 159 201 251 309 363
#     4  11  23  41  68  94 116 155 210 255 305 385
#     4   9  21  37  56  83 117 168 214 252 298 355
#     4  10  19  36  60  83 119 165 217 263 290 345
#     4  10  21  40  62  85 120 157 199 248 306 368
#     4  11  25  40  59  89 130 168 200 253 323 377
#
# _framework density 19.467863000000001
#
# number of rings (size 3 to 8) (size 9 to 14) (size 15 to 20)
#    0.000    1.667    1.667    2.500    2.333    5.333 
#    0.000    0.000    0.000    7.500    0.000    0.000 
#    0.000    0.000    0.000    0.000    0.000    0.000 
#
# Total GULP energy -267503.542404 kJ/mol
# GULP energy per Si atom -5572.990467 kJ/mol
# Density = 1.942355 g / cm^3
# Si number density = 19.467863 Si / 1000 Ang^3
#
#
#
# Elastic Constant Matrix: (Units=GPa)
#
#
# Indices 1 2 3 4 5 6 
#
# 1 73.3303 23.4124 7.2184 0.0000 0.0000 0.0000
# 2 23.4124 102.4346 39.9123 0.0000 0.0000 0.0000
# 3 7.2184 39.9123 80.6521 0.0000 0.0000 0.0000
# 4 0.0000 0.0000 0.0000 11.0090 0.0000 0.0000
# 5 0.0000 0.0000 0.0000 0.0000 10.9717 0.0000
# 6 0.0000 0.0000 0.0000 0.0000 0.0000 28.1917
#
#
#
# Elastic Compliance Matrix: (Units=1/GPa)
#
#
# Indices 1 2 3 4 5 6 
#
# 1 0.014722 -0.003533 0.000431 0.000000 0.000000 0.000000
# 2 -0.003533 0.012942 -0.006088 0.000000 0.000000 0.000000
# 3 0.000431 -0.006088 0.015373 0.000000 0.000000 0.000000
# 4 0.000000 0.000000 0.000000 0.090835 0.000000 0.000000
# 5 0.000000 0.000000 0.000000 0.000000 0.091144 0.000000
# 6 0.000000 0.000000 0.000000 0.000000 0.000000 0.035471
#
#
# Mechanical properties :
#
#
# Convention : Reuss Voigt Hill
#
# Bulk Modulus (GPa) = 40.55696 44.16703 42.36199
# Shear Modulus (GPa) = 17.41627 22.42607 19.92117
#
# Velocity S-wave (km/s) = 2.99426 3.39773 3.20235
# Velocity P-wave (km/s) = 5.72993 6.17488 5.95656
#
# Compressibility (1/GPa) = 0.02465668
#
# Stress axis : x y z
#
# Youngs Moduli (GPa) = 67.92346 77.26747 65.04746
#
# Poissons Ratio (x) = 0.27296 -0.02801
# Poissons Ratio (y) = 0.23995 0.39604
# Poissons Ratio (z) = -0.02925 0.47044
#
# Static dielectric constant tensor:
#      x y z
#    x 1.754400 0.000000 0.000000 
#    y 0.000000 1.658950 0.000000 
#    z 0.000000 0.000000 1.753330 
# 
# From -- ./inp_files/28760.got.cif
#   From: 2010.05.17/outbox.cif.g08.bks.cpg/sg48_15_cif.got.tgz:28760.got - 2010.06.03 20:39:00.
