data_PCOD9390886
_publ_section_title
;
Structure prediction by ZEFSAII (Michael W. Deem and Ramdas Pophale) SiO2 
 PCOD9390886
Probable space group: P N N N
;
_chemical_formula_sum "Si O2"
_cell_formula_units_Z 34
_cell_length_a 9.676387
_cell_length_b 17.599395
_cell_length_c 9.111626
_cell_angle_alpha 90.000000
_cell_angle_beta 90.000000
_cell_angle_gamma 90.000000
_cell_volume 1551.696760
_symmetry_space_group_name_H-M "P N N N"
_symmetry_group_IT_number 48
_space_group.IT_coordinate_system_code '2'
_symmetry_cell_setting 'orthorhombic'
loop_
_space_group_symop_operation_xyz
x,y,z
1/2-x,1/2-y,z
x,1/2-y,1/2-z
1/2-x,y,1/2-z
-x,-y,-z
1/2+x,1/2+y,-z
-x,1/2+y,1/2+z
1/2+x,-y,1/2+z
loop_
_atom_site_type_symbol
_atom_site_label
_atom_site_fract_x
_atom_site_fract_y
_atom_site_fract_z
Si Si1 0.486055 0.500289 0.252410
Si Si2 0.007487 0.275458 0.094137
Si Si3 0.750000 0.250000 0.250000
Si Si4 0.994520 0.609101 0.492666
Si Si5 0.331158 0.079195 0.991994
O O1 0.436159 0.566989 0.143838
O O2 0.372328 0.467232 0.362389
O O3 0.605206 0.534343 0.355315
O O4 0.535458 0.433233 0.143381
O O5 0.077088 0.250000 0.250000
O O6 0.853931 0.298352 0.149032
O O7 0.987580 0.198661 0.002933
O O8 0.090807 0.340250 0.013199
O O9 0.830604 0.592926 0.478660
#
# Coordination Sequence:
#
# PCOD9390886 Si02
#       5
#     8   8   2   8   8
#     4  10  23  39  56 100 128 157 198 248 324 357
#     4  10  21  41  64  91 119 163 209 254 308 364
#     4   8  20  40  54  94 120 164 192 242 320 368
#     4  11  22  42  65  95 121 164 210 256 303 364
#     4  11  22  42  65  95 121 164 210 256 303 364
#
# _framework density 21.911497000000001
#
# number of rings (size 3 to 8) (size 9 to 14) (size 15 to 20)
#    0.706    0.941    2.353    2.118    0.000    1.882 
#   42.353    2.353    0.000    1.412    0.000    0.000 
#    0.000    0.000    0.000    0.000    0.000    0.000 
#
# Total GULP energy -189972.788525 kJ/mol
# GULP energy per Si atom -5587.434957 kJ/mol
# Density = 2.186163 g / cm^3
# Si number density = 21.911497 Si / 1000 Ang^3
#
#
#
# Elastic Constant Matrix: (Units=GPa)
#
#
# Indices 1 2 3 4 5 6 
#
# 1 56.9946 42.4512 14.7079 0.0000 0.0000 0.0000
# 2 42.4512 140.5413 45.5870 0.0000 0.0000 0.0000
# 3 14.7079 45.5870 109.5671 0.0000 0.0000 0.0000
# 4 0.0000 0.0000 0.0000 29.5468 0.0000 0.0000
# 5 0.0000 0.0000 0.0000 0.0000 18.6103 0.0000
# 6 0.0000 0.0000 0.0000 0.0000 0.0000 19.3265
#
#
#
# Elastic Compliance Matrix: (Units=1/GPa)
#
#
# Indices 1 2 3 4 5 6 
#
# 1 0.022644 -0.006767 -0.000224 0.000000 0.000000 0.000000
# 2 -0.006767 0.010248 -0.003355 0.000000 0.000000 0.000000
# 3 -0.000224 -0.003355 0.010553 0.000000 0.000000 0.000000
# 4 0.000000 0.000000 0.000000 0.033845 0.000000 0.000000
# 5 0.000000 0.000000 0.000000 0.000000 0.053734 0.000000
# 6 0.000000 0.000000 0.000000 0.000000 0.000000 0.051742
#
#
# Mechanical properties :
#
#
# Convention : Reuss Voigt Hill
#
# Bulk Modulus (GPa) = 43.95321 56.95503 50.45412
# Shear Modulus (GPa) = 23.69203 27.12052 25.40628
#
# Velocity S-wave (km/s) = 3.29182 3.52196 3.40883
# Velocity P-wave (km/s) = 5.87802 6.52599 6.21046
#
# Compressibility (1/GPa) = 0.02275147
#
# Stress axis : x y z
#
# Youngs Moduli (GPa) = 44.16271 97.58310 94.76028
#
# Poissons Ratio (x) = 0.66033 0.02124
# Poissons Ratio (y) = 0.29884 0.31795
# Poissons Ratio (z) = 0.00990 0.32742
#
# Static dielectric constant tensor:
#      x y z
#    x 1.812890 0.000000 0.000000 
#    y 0.000000 1.798830 0.000000 
#    z 0.000000 0.000000 1.825030 
# 
# From -- ./inp_files/10601.got.cif
#   From: 2010.05.17/outbox.cif.g08.bks.cpg/sg48_6_cif.got.tgz:10601.got - 2010.06.03 20:39:00.
