data_PCOD9390156
_publ_section_title
;
Structure prediction by ZEFSAII (Michael W. Deem and Ramdas Pophale) SiO2 
 PCOD9390156
Probable space group: P N N N
;
_chemical_formula_sum "Si O2"
_cell_formula_units_Z 38
_cell_length_a 5.951092
_cell_length_b 17.258809
_cell_length_c 20.872032
_cell_angle_alpha 90.000000
_cell_angle_beta 90.000000
_cell_angle_gamma 90.000000
_cell_volume 2143.740529
_symmetry_space_group_name_H-M "P N N N"
_symmetry_group_IT_number 48
_space_group.IT_coordinate_system_code '2'
_symmetry_cell_setting 'orthorhombic'
loop_
_space_group_symop_operation_xyz
x,y,z
1/2-x,1/2-y,z
x,1/2-y,1/2-z
1/2-x,y,1/2-z
-x,-y,-z
1/2+x,1/2+y,-z
-x,1/2+y,1/2+z
1/2+x,-y,1/2+z
loop_
_atom_site_type_symbol
_atom_site_label
_atom_site_fract_x
_atom_site_fract_y
_atom_site_fract_z
Si Si1 0.051754 0.385119 0.979725
Si Si2 0.566980 0.628950 0.920340
Si Si3 0.909367 0.872042 0.690087
Si Si4 0.250000 0.750000 0.982363
Si Si5 0.821748 0.022577 0.403323
Si Si6 0.750000 0.250000 0.250000
O O1 0.102994 0.434704 0.916419
O O2 0.919577 0.303900 0.976662
O O3 0.290311 0.378436 0.015051
O O4 0.906516 0.434303 0.031566
O O5 0.738268 0.653371 0.865391
O O6 0.438251 0.549550 0.901062
O O7 0.388082 0.694501 0.935359
O O8 0.750000 0.892572 0.750000
O O9 0.051709 0.940983 0.657448
O O10 0.085076 0.805968 0.710155
#
# Coordination Sequence:
#
# PCOD9390156 Si02
#       6
#     8   8   8   4   8   2
#     4   9  18  32  50  73 100 130 163 206 257 307
#     4  10  20  33  50  72 101 137 172 207 252 304
#     4  11  24  36  49  70  99 138 176 213 252 297
#     4  10  20  31  50  79 105 130 165 208 256 310
#     4   9  19  34  50  70  98 132 170 208 251 303
#     4  12  26  38  48  70 104 140 182 216 246 298
#
# _framework density 17.726025
#
# number of rings (size 3 to 8) (size 9 to 14) (size 15 to 20)
#    0.000    2.105    0.000    2.842    0.000   21.895 
#    0.000    0.000    0.000    0.000    0.000    0.737 
#    0.000    0.000    0.000    0.000    0.000    0.000 
#
# Total GULP energy -211899.193110 kJ/mol
# GULP energy per Si atom -5576.294556 kJ/mol
# Density = 1.768568 g / cm^3
# Si number density = 17.726025 Si / 1000 Ang^3
#
#
#
# Elastic Constant Matrix: (Units=GPa)
#
#
# Indices 1 2 3 4 5 6 
#
# 1 102.3538 38.7118 38.3914 0.0000 0.0000 0.0000
# 2 38.7118 81.4781 48.2223 0.0000 0.0000 0.0000
# 3 38.3914 48.2223 79.5903 0.0000 0.0000 0.0000
# 4 0.0000 0.0000 0.0000 9.8032 0.0000 0.0000
# 5 0.0000 0.0000 0.0000 0.0000 10.9319 0.0000
# 6 0.0000 0.0000 0.0000 0.0000 0.0000 14.0083
#
#
#
# Elastic Compliance Matrix: (Units=1/GPa)
#
#
# Indices 1 2 3 4 5 6 
#
# 1 0.012616 -0.003730 -0.003825 0.000000 0.000000 0.000000
# 2 -0.003730 0.020237 -0.010462 0.000000 0.000000 0.000000
# 3 -0.003825 -0.010462 0.020749 0.000000 0.000000 0.000000
# 4 0.000000 0.000000 0.000000 0.102007 0.000000 0.000000
# 5 0.000000 0.000000 0.000000 0.000000 0.091476 0.000000
# 6 0.000000 0.000000 0.000000 0.000000 0.000000 0.071387
#
#
# Mechanical properties :
#
#
# Convention : Reuss Voigt Hill
#
# Bulk Modulus (GPa) = 56.92723 57.11924 57.02323
# Shear Modulus (GPa) = 13.87494 16.15511 15.01503
#
# Velocity S-wave (km/s) = 2.80079 3.02218 2.91359
# Velocity P-wave (km/s) = 6.53024 6.66869 6.59983
#
# Compressibility (1/GPa) = 0.01756629
#
# Stress axis : x y z
#
# Youngs Moduli (GPa) = 79.26699 49.41340 48.19616
#
# Poissons Ratio (x) = 0.18430 0.18437
# Poissons Ratio (y) = 0.29565 0.50424
# Poissons Ratio (z) = 0.30323 0.51698
#
# Static dielectric constant tensor:
#      x y z
#    x 1.698010 0.000000 0.000000 
#    y 0.000000 1.666250 0.000000 
#    z 0.000000 0.000000 1.605220 
# 
# From -- ./inp_files/4218.got.cif
#   From: 2010.05.17/outbox.cif.g08.bks.cpg/sg48_3_cif.got.tgz:4218.got - 2010.06.03 20:39:00.
