data_PCOD9390732
_publ_section_title
;
Structure prediction by ZEFSAII (Michael W. Deem and Ramdas Pophale) SiO2 
 PCOD9390732
Probable space group: P N N N
;
_chemical_formula_sum "Si O2"
_cell_formula_units_Z 28
_cell_length_a 9.868180
_cell_length_b 5.175699
_cell_length_c 24.559965
_cell_angle_alpha 90.000000
_cell_angle_beta 90.000000
_cell_angle_gamma 90.000000
_cell_volume 1254.393565
_symmetry_space_group_name_H-M "P N N N"
_symmetry_group_IT_number 48
_space_group.IT_coordinate_system_code '2'
_symmetry_cell_setting 'orthorhombic'
loop_
_space_group_symop_operation_xyz
x,y,z
1/2-x,1/2-y,z
x,1/2-y,1/2-z
1/2-x,y,1/2-z
-x,-y,-z
1/2+x,1/2+y,-z
-x,1/2+y,1/2+z
1/2+x,-y,1/2+z
loop_
_atom_site_type_symbol
_atom_site_label
_atom_site_fract_x
_atom_site_fract_y
_atom_site_fract_z
Si Si1 0.637064 0.559948 0.087057
Si Si2 0.597516 0.502897 0.725451
Si Si3 0.750000 0.750000 0.517409
Si Si4 0.030815 0.445101 0.102120
O O1 0.750000 0.750000 0.116076
O O2 0.585825 0.279666 0.106400
O O3 0.515652 0.766970 0.086451
O O4 0.693456 0.539685 0.025528
O O5 0.530139 0.250000 0.750000
O O6 0.750000 0.501561 0.750000
O O7 0.600099 0.525360 0.660969
O O8 0.525333 0.750000 0.750000
O O9 0.868211 0.848680 0.555890
#
# Coordination Sequence:
#
# PCOD9390732 Si02
#       4
#     8   8   4   8
#     4  10  25  39  63  93 140 174 224 248 316 399
#     4  10  21  38  61  94 123 154 209 271 333 381
#     4  10  24  38  67  98 139 172 228 254 326 390
#     4  12  22  42  65  95 132 175 208 279 328 372
#
# _framework density 22.321541
#
# number of rings (size 3 to 8) (size 9 to 14) (size 15 to 20)
#    0.857    0.571    0.000    6.000    0.000    5.714 
#    0.000    0.000    0.000   12.857    0.000    0.000 
#    0.000    0.000    0.000    0.000    0.000    0.000 
#
# Total GULP energy -156060.180258 kJ/mol
# GULP energy per Si atom -5573.577866 kJ/mol
# Density = 2.227074 g / cm^3
# Si number density = 22.321541 Si / 1000 Ang^3
#
#
#
# Elastic Constant Matrix: (Units=GPa)
#
#
# Indices 1 2 3 4 5 6 
#
# 1 43.3300 4.6878 32.1378 0.0000 0.0000 0.0000
# 2 4.6878 170.7418 39.4943 0.0000 0.0000 0.0000
# 3 32.1378 39.4943 127.7582 0.0000 0.0000 0.0000
# 4 0.0000 0.0000 0.0000 123.6850 0.0000 0.0000
# 5 0.0000 0.0000 0.0000 0.0000 -13.2768 0.0000
# 6 0.0000 0.0000 0.0000 0.0000 0.0000 -0.3482
#
#
#
# Elastic Compliance Matrix: (Units=1/GPa)
#
#
# Indices 1 2 3 4 5 6 
#
# 1 0.028513 0.000944 -0.007464 0.000000 0.000000 0.000000
# 2 0.000944 0.006339 -0.002197 0.000000 0.000000 0.000000
# 3 -0.007464 -0.002197 0.010384 0.000000 0.000000 0.000000
# 4 0.000000 0.000000 0.000000 0.008085 0.000000 0.000000
# 5 0.000000 0.000000 0.000000 0.000000 -0.075319 0.000000
# 6 0.000000 0.000000 0.000000 0.000000 0.000000 -2.872316
#
#
# Mechanical properties :
#
#
# Convention : Reuss Voigt Hill
#
# Bulk Modulus (GPa) = 35.96994 54.94109 45.45552
# Shear Modulus (GPa) = -1.74361 39.71268 18.98454
#
# Velocity S-wave (km/s) = -0.88478 4.22254 2.91950
# Velocity P-wave (km/s) = 3.88660 6.95989 5.63674
#
# Compressibility (1/GPa) = 0.02780099
#
# Stress axis : x y z
#
# Youngs Moduli (GPa) = 35.07201 157.75165 96.30128
#
# Poissons Ratio (x) = -0.14887 0.71881
# Poissons Ratio (y) = -0.03310 0.21158
# Poissons Ratio (z) = 0.26178 0.34658
#
# Static dielectric constant tensor:
#      x y z
#    x 1.920630 0.000000 0.000000 
#    y 0.000000 1.873940 0.000000 
#    z 0.000000 0.000000 1.789860 
# 
# From -- ./inp_files/37302.got.cif
#   From: 2010.05.17/outbox.cif.g08.bks.cpg/sg48_19_cif.got.tgz:37302.got - 2010.06.03 20:39:00.
