data_PCOD9390731
_publ_section_title
;
Structure prediction by ZEFSAII (Michael W. Deem and Ramdas Pophale) SiO2 
 PCOD9390731
Probable space group: P N N N
;
_chemical_formula_sum "Si O2"
_cell_formula_units_Z 56
_cell_length_a 16.537770
_cell_length_b 18.309828
_cell_length_c 9.680368
_cell_angle_alpha 90.000000
_cell_angle_beta 90.000000
_cell_angle_gamma 90.000000
_cell_volume 2931.251482
_symmetry_space_group_name_H-M "P N N N"
_symmetry_group_IT_number 48
_space_group.IT_coordinate_system_code '2'
_symmetry_cell_setting 'orthorhombic'
loop_
_space_group_symop_operation_xyz
x,y,z
1/2-x,1/2-y,z
x,1/2-y,1/2-z
1/2-x,y,1/2-z
-x,-y,-z
1/2+x,1/2+y,-z
-x,1/2+y,1/2+z
1/2+x,-y,1/2+z
loop_
_atom_site_type_symbol
_atom_site_label
_atom_site_fract_x
_atom_site_fract_y
_atom_site_fract_z
Si Si1 0.918973 0.595583 0.964906
Si Si2 0.596158 0.429620 0.919159
Si Si3 0.905686 0.428220 0.916304
Si Si4 0.250286 0.666587 0.417807
Si Si5 0.341099 0.335119 0.215087
Si Si6 0.413290 0.408861 0.965223
Si Si7 0.655673 0.831708 0.214786
O O1 0.862137 0.646367 0.058383
O O2 0.010087 0.600928 0.021657
O O3 0.894816 0.510592 0.971176
O O4 0.905160 0.621778 0.809212
O O5 0.590777 0.432330 0.751427
O O6 0.670152 0.377517 0.958563
O O7 0.509956 0.401856 0.974795
O O8 0.608746 0.510542 0.980609
O O9 0.830868 0.377265 0.957041
O O10 0.250000 0.750000 0.467166
O O11 0.250000 0.668439 0.250000
O O12 0.344917 0.250000 0.250000
O O13 0.250000 0.361105 0.250000
O O14 0.364688 0.351551 0.058536
O O15 0.388763 0.391623 0.808984
O O16 0.625573 0.750000 0.250000
O O17 0.750000 0.833830 0.250000
#
# Coordination Sequence:
#
# PCOD9390731 Si02
#       7
#     8   8   8   8   8   8   8
#     4  11  22  39  63  88 121 166 204 250 307 362
#     4  10  21  38  61  91 120 156 210 256 298 367
#     4  10  21  38  61  91 120 156 210 256 298 367
#     4   9  20  36  58  89 120 157 201 253 313 363
#     4  11  24  39  60  91 123 160 203 248 306 370
#     4  11  22  39  63  88 121 166 204 250 307 362
#     4  11  24  39  58  91 127 160 201 250 308 368
#
# _framework density 19.104468000000001
#
# number of rings (size 3 to 8) (size 9 to 14) (size 15 to 20)
#    0.000    1.571    2.857    1.714    4.000    4.571 
#    0.000    0.000    0.000    0.000    0.000    3.000 
#    0.000    0.000    0.000    0.000    0.000    0.000 
#
# Total GULP energy -312771.535394 kJ/mol
# GULP energy per Si atom -5585.205989 kJ/mol
# Density = 1.906099 g / cm^3
# Si number density = 19.104468 Si / 1000 Ang^3
#
#
#
# Elastic Constant Matrix: (Units=GPa)
#
#
# Indices 1 2 3 4 5 6 
#
# 1 107.3857 73.4445 5.1523 0.0000 0.0000 0.0000
# 2 73.4445 87.3520 2.0747 0.0000 0.0000 0.0000
# 3 5.1523 2.0747 34.0745 0.0000 0.0000 0.0000
# 4 0.0000 0.0000 0.0000 22.5820 0.0000 0.0000
# 5 0.0000 0.0000 0.0000 0.0000 27.8064 0.0000
# 6 0.0000 0.0000 0.0000 0.0000 0.0000 12.1456
#
#
#
# Elastic Compliance Matrix: (Units=1/GPa)
#
#
# Indices 1 2 3 4 5 6 
#
# 1 0.022078 -0.018511 -0.002211 0.000000 0.000000 0.000000
# 2 -0.018511 0.026984 0.001156 0.000000 0.000000 0.000000
# 3 -0.002211 0.001156 0.029611 0.000000 0.000000 0.000000
# 4 0.000000 0.000000 0.000000 0.044283 0.000000 0.000000
# 5 0.000000 0.000000 0.000000 0.000000 0.035963 0.000000
# 6 0.000000 0.000000 0.000000 0.000000 0.000000 0.082334
#
#
# Mechanical properties :
#
#
# Convention : Reuss Voigt Hill
#
# Bulk Modulus (GPa) = 25.28976 43.35058 34.32017
# Shear Modulus (GPa) = 17.03189 22.38285 19.70737
#
# Velocity S-wave (km/s) = 2.98906 3.42658 3.21527
# Velocity P-wave (km/s) = 5.01787 6.19644 5.63804
#
# Compressibility (1/GPa) = 0.03954170
#
# Stress axis : x y z
#
# Youngs Moduli (GPa) = 45.29312 37.05889 33.77074
#
# Poissons Ratio (x) = 0.68599 0.07468
# Poissons Ratio (y) = 0.83841 -0.03904
# Poissons Ratio (z) = 0.10016 -0.04284
#
# Static dielectric constant tensor:
#      x y z
#    x 1.648830 0.000000 0.000000 
#    y 0.000000 1.652090 0.000000 
#    z 0.000000 0.000000 1.631760 
# 
# From -- ./inp_files/13084.got.cif
#   From: 2010.05.17/outbox.cif.g08.bks.cpg/sg48_7_cif.got.tgz:13084.got - 2010.06.03 20:39:00.
