data_PCOD9390653
_publ_section_title
;
Structure prediction by ZEFSAII (Michael W. Deem and Ramdas Pophale) SiO2 
 PCOD9390653
Probable space group: P N N N
;
_chemical_formula_sum "Si O2"
_cell_formula_units_Z 48
_cell_length_a 8.931081
_cell_length_b 14.185075
_cell_length_c 19.087318
_cell_angle_alpha 90.000000
_cell_angle_beta 90.000000
_cell_angle_gamma 90.000000
_cell_volume 2418.135170
_symmetry_space_group_name_H-M "P N N N"
_symmetry_group_IT_number 48
_space_group.IT_coordinate_system_code '2'
_symmetry_cell_setting 'orthorhombic'
loop_
_space_group_symop_operation_xyz
x,y,z
1/2-x,1/2-y,z
x,1/2-y,1/2-z
1/2-x,y,1/2-z
-x,-y,-z
1/2+x,1/2+y,-z
-x,1/2+y,1/2+z
1/2+x,-y,1/2+z
loop_
_atom_site_type_symbol
_atom_site_label
_atom_site_fract_x
_atom_site_fract_y
_atom_site_fract_z
Si Si1 0.640281 0.836710 0.420754
Si Si2 0.093647 0.791440 0.492872
Si Si3 0.697810 0.640795 0.548662
Si Si4 0.170864 0.457235 0.315969
Si Si5 0.079180 0.075392 0.772740
Si Si6 0.658313 0.347354 0.662817
O O1 0.750000 0.750000 0.403327
O O2 0.501148 0.798587 0.465563
O O3 0.738019 0.899021 0.474685
O O4 0.583534 0.874723 0.347983
O O5 0.250000 0.750000 0.520695
O O6 0.118598 0.846548 0.419571
O O7 0.982615 0.851461 0.542612
O O8 0.750000 0.750000 0.551179
O O9 0.778936 0.591635 0.612980
O O10 0.250000 0.408705 0.250000
O O11 0.236771 0.563223 0.323398
O O12 0.002440 0.476605 0.290772
O O13 0.250000 0.064680 0.750000
O O14 0.984748 0.133295 0.713498
O O15 0.750000 0.250000 0.675041
#
# Coordination Sequence:
#
# PCOD9390653 Si02
#       6
#     8   8   8   8   8   8
#     4   9  19  32  51  78 109 147 186 220 274 339
#     4   9  17  32  55  83 108 141 186 227 273 338
#     4   9  20  40  57  75 106 140 184 238 286 335
#     4  10  23  38  54  79 106 143 190 228 283 350
#     4  11  21  33  52  82 118 152 188 231 275 335
#     4  10  21  36  54  80 119 154 179 219 276 343
#
# _framework density 19.850007000000002
#
# number of rings (size 3 to 8) (size 9 to 14) (size 15 to 20)
#    0.000    2.667    0.000    4.000    0.000   13.000 
#    0.000    6.667    0.000    0.000    0.000    9.333 
#    0.000    0.000    0.000    0.000    0.000    0.000 
#
# Total GULP energy -267309.803370 kJ/mol
# GULP energy per Si atom -5568.954237 kJ/mol
# Density = 1.980483 g / cm^3
# Si number density = 19.850007 Si / 1000 Ang^3
#
#
#
# Elastic Constant Matrix: (Units=GPa)
#
#
# Indices 1 2 3 4 5 6 
#
# 1 134.3859 13.5203 17.2013 0.0000 0.0000 0.0000
# 2 13.5203 28.9519 18.3748 0.0000 0.0000 0.0000
# 3 17.2013 18.3748 79.8403 0.0000 0.0000 0.0000
# 4 0.0000 0.0000 0.0000 3.8919 0.0000 0.0000
# 5 0.0000 0.0000 0.0000 0.0000 7.5495 0.0000
# 6 0.0000 0.0000 0.0000 0.0000 0.0000 5.0310
#
#
#
# Elastic Compliance Matrix: (Units=1/GPa)
#
#
# Indices 1 2 3 4 5 6 
#
# 1 0.007875 -0.003046 -0.000996 0.000000 0.000000 0.000000
# 2 -0.003046 0.041626 -0.008924 0.000000 0.000000 0.000000
# 3 -0.000996 -0.008924 0.014793 0.000000 0.000000 0.000000
# 4 0.000000 0.000000 0.000000 0.256942 0.000000 0.000000
# 5 0.000000 0.000000 0.000000 0.000000 0.132460 0.000000
# 6 0.000000 0.000000 0.000000 0.000000 0.000000 0.198767
#
#
# Mechanical properties :
#
#
# Convention : Reuss Voigt Hill
#
# Bulk Modulus (GPa) = 26.06612 37.93009 31.99810
# Shear Modulus (GPa) = 7.23399 16.23327 11.73363
#
# Velocity S-wave (km/s) = 1.91108 2.86282 2.43392
# Velocity P-wave (km/s) = 4.24614 5.48429 4.90444
#
# Compressibility (1/GPa) = 0.03836398
#
# Stress axis : x y z
#
# Youngs Moduli (GPa) = 126.98208 24.02352 67.59824
#
# Poissons Ratio (x) = 0.07317 0.06731
# Poissons Ratio (y) = 0.38674 0.60323
# Poissons Ratio (z) = 0.12644 0.21438
#
# Static dielectric constant tensor:
#      x y z
#    x 1.831440 0.000000 0.000000 
#    y 0.000000 1.724810 0.000000 
#    z 0.000000 0.000000 1.787120 
# 
# From -- ./inp_files/30361.got.cif
#   From: 2010.05.17/outbox.cif.g08.bks.cpg/sg48_16_cif.got.tgz:30361.got - 2010.06.03 20:39:00.
