data_PCOD9390680
_publ_section_title
;
Structure prediction by ZEFSAII (Michael W. Deem and Ramdas Pophale) SiO2 
 PCOD9390680
Probable space group: P N N N
;
_chemical_formula_sum "Si O2"
_cell_formula_units_Z 64
_cell_length_a 9.291545
_cell_length_b 18.274052
_cell_length_c 18.102569
_cell_angle_alpha 90.000000
_cell_angle_beta 90.000000
_cell_angle_gamma 90.000000
_cell_volume 3073.710796
_symmetry_space_group_name_H-M "P N N N"
_symmetry_group_IT_number 48
_space_group.IT_coordinate_system_code '2'
_symmetry_cell_setting 'orthorhombic'
loop_
_space_group_symop_operation_xyz
x,y,z
1/2-x,1/2-y,z
x,1/2-y,1/2-z
1/2-x,y,1/2-z
-x,-y,-z
1/2+x,1/2+y,-z
-x,1/2+y,1/2+z
1/2+x,-y,1/2+z
loop_
_atom_site_type_symbol
_atom_site_label
_atom_site_fract_x
_atom_site_fract_y
_atom_site_fract_z
Si Si1 0.837307 0.864085 0.528501
Si Si2 0.739768 0.555321 0.670017
Si Si3 0.533132 0.789080 0.497936
Si Si4 0.979614 0.463404 0.623044
Si Si5 0.480270 0.928786 0.207469
Si Si6 0.891282 0.212632 0.626776
Si Si7 0.224423 0.881150 0.005076
Si Si8 0.810607 0.513948 0.088052
O O1 0.841512 0.900462 0.608175
O O2 0.674611 0.837688 0.508767
O O3 0.874730 0.925661 0.468103
O O4 0.928963 0.790566 0.528463
O O5 0.750000 0.591278 0.750000
O O6 0.658061 0.477621 0.682927
O O7 0.899042 0.539479 0.640173
O O8 0.494926 0.772429 0.411365
O O9 0.391637 0.826665 0.531637
O O10 0.140922 0.471580 0.596183
O O11 0.985430 0.426887 0.704104
O O12 0.878607 0.427704 0.560596
O O13 0.467217 0.846345 0.178042
O O14 0.610059 0.971076 0.165692
O O15 0.750000 0.250000 0.661352
O O16 0.825340 0.166410 0.558117
O O17 0.311631 0.934381 0.950800
#
# Coordination Sequence:
#
# PCOD9390680 Si02
#       8
#     8   8   8   8   8   8   8   8
#     4  11  20  36  63  84 117 157 201 256 300 360
#     4  10  22  39  63  89 119 152 203 255 313 365
#     4  10  22  36  54  89 122 152 199 254 301 363
#     4  11  21  38  59  90 124 156 195 255 307 364
#     4  11  23  38  59  92 127 153 201 261 302 364
#     4  10  21  37  57  83 120 158 196 237 297 361
#     4  11  21  37  63  87 117 159 207 248 303 374
#     4  12  22  36  65  89 118 158 208 252 308 356
#
# _framework density 20.821738
#
# number of rings (size 3 to 8) (size 9 to 14) (size 15 to 20)
#    0.000    1.250    5.000    1.500    1.750    1.000 
#    0.000    5.625    0.000    1.500    0.000    0.000 
#    0.000    0.000    0.000    0.000    0.000    0.000 
#
# Total GULP energy -357505.585473 kJ/mol
# GULP energy per Si atom -5586.024773 kJ/mol
# Density = 2.077435 g / cm^3
# Si number density = 20.821738 Si / 1000 Ang^3
#
#
#
# Elastic Constant Matrix: (Units=GPa)
#
#
# Indices 1 2 3 4 5 6 
#
# 1 73.3544 7.8302 15.4127 0.0000 0.0000 0.0000
# 2 7.8302 71.8338 20.3499 0.0000 0.0000 0.0000
# 3 15.4127 20.3499 77.1801 0.0000 0.0000 0.0000
# 4 0.0000 0.0000 0.0000 23.2090 0.0000 0.0000
# 5 0.0000 0.0000 0.0000 0.0000 25.0758 0.0000
# 6 0.0000 0.0000 0.0000 0.0000 0.0000 27.4123
#
#
#
# Elastic Compliance Matrix: (Units=1/GPa)
#
#
# Indices 1 2 3 4 5 6 
#
# 1 0.014273 -0.000809 -0.002637 0.000000 0.000000 0.000000
# 2 -0.000809 0.015091 -0.003817 0.000000 0.000000 0.000000
# 3 -0.002637 -0.003817 0.014490 0.000000 0.000000 0.000000
# 4 0.000000 0.000000 0.000000 0.043087 0.000000 0.000000
# 5 0.000000 0.000000 0.000000 0.000000 0.039879 0.000000
# 6 0.000000 0.000000 0.000000 0.000000 0.000000 0.036480
#
#
# Mechanical properties :
#
#
# Convention : Reuss Voigt Hill
#
# Bulk Modulus (GPa) = 34.09831 34.39487 34.24659
# Shear Modulus (GPa) = 26.65233 27.05782 26.85508
#
# Velocity S-wave (km/s) = 3.58162 3.60877 3.59522
# Velocity P-wave (km/s) = 5.78929 5.82399 5.80667
#
# Compressibility (1/GPa) = 0.02932697
#
# Stress axis : x y z
#
# Youngs Moduli (GPa) = 70.06315 66.26632 69.01393
#
# Poissons Ratio (x) = 0.05359 0.18199
# Poissons Ratio (y) = 0.05666 0.26345
# Poissons Ratio (z) = 0.18476 0.25297
#
# Static dielectric constant tensor:
#      x y z
#    x 1.800100 0.000000 0.000000 
#    y 0.000000 1.784700 0.000000 
#    z 0.000000 0.000000 1.740050 
# 
# From -- ./inp_files/30591.got.cif
#   From: 2010.05.17/outbox.cif.g08.bks.cpg/sg48_16_cif.got.tgz:30591.got - 2010.06.03 20:39:00.
