data_PCOD9390859
_publ_section_title
;
Structure prediction by ZEFSAII (Michael W. Deem and Ramdas Pophale) SiO2 
 PCOD9390859
Probable space group: P N N N
;
_chemical_formula_sum "Si O2"
_cell_formula_units_Z 64
_cell_length_a 30.981484
_cell_length_b 11.850958
_cell_length_c 9.235682
_cell_angle_alpha 90.000000
_cell_angle_beta 90.000000
_cell_angle_gamma 90.000000
_cell_volume 3390.975457
_symmetry_space_group_name_H-M "P N N N"
_symmetry_group_IT_number 48
_space_group.IT_coordinate_system_code '2'
_symmetry_cell_setting 'orthorhombic'
loop_
_space_group_symop_operation_xyz
x,y,z
1/2-x,1/2-y,z
x,1/2-y,1/2-z
1/2-x,y,1/2-z
-x,-y,-z
1/2+x,1/2+y,-z
-x,1/2+y,1/2+z
1/2+x,-y,1/2+z
loop_
_atom_site_type_symbol
_atom_site_label
_atom_site_fract_x
_atom_site_fract_y
_atom_site_fract_z
Si Si1 0.543521 0.977254 0.414351
Si Si2 0.758797 0.617622 0.407110
Si Si3 0.892472 0.381829 0.583384
Si Si4 0.208747 0.999593 0.337280
Si Si5 0.337776 0.391010 0.088542
Si Si6 0.547588 0.974311 0.066980
Si Si7 0.382285 0.624080 0.408504
Si Si8 0.422383 0.242744 0.418005
O O1 0.542393 0.968603 0.241012
O O2 0.560112 0.861556 0.487755
O O3 0.500000 0.000000 0.500000
O O4 0.573066 0.081764 0.464851
O O5 0.750000 0.750000 0.411370
O O6 0.750000 0.570636 0.250000
O O7 0.729662 0.552719 0.521454
O O8 0.808455 0.611726 0.448776
O O9 0.859735 0.486097 0.581537
O O10 0.875982 0.255956 0.556730
O O11 0.906859 0.383448 0.752314
O O12 0.250000 0.944018 0.250000
O O13 0.165551 0.929641 0.381958
O O14 0.192007 0.098782 0.230450
O O15 0.371798 0.290102 0.091984
O O16 0.564987 0.857180 0.998468
O O17 0.500000 0.000000 0.000000
O O18 0.585206 0.063105 0.019816
O O19 0.437872 0.250000 0.250000
#
# Coordination Sequence:
#
# PCOD9390859 Si02
#       8
#     8   8   8   8   8   8   8   8
#     4  11  24  43  64  88 127 167 217 269 322 387
#     4  10  22  36  53  85 124 165 202 257 313 379
#     4   9  20  41  63  91 121 166 209 266 323 371
#     4   9  19  37  62  93 123 165 212 259 324 392
#     4   9  20  38  61  89 122 158 209 256 313 386
#     4  12  26  42  63  96 127 170 216 264 331 386
#     4  10  21  40  67  92 129 163 215 269 320 392
#     4  11  23  41  66  94 123 161 209 267 323 378
#
# _framework density 18.873626000000002
#
# number of rings (size 3 to 8) (size 9 to 14) (size 15 to 20)
#    0.000    1.875    0.000    4.125    5.250    4.250 
#    4.500   10.625    0.000    0.750    0.000    0.000 
#    0.000    0.000    0.000    0.000    0.000    0.000 
#
# Total GULP energy -356486.629311 kJ/mol
# GULP energy per Si atom -5570.103583 kJ/mol
# Density = 1.883067 g / cm^3
# Si number density = 18.873626 Si / 1000 Ang^3
#
#
#
# Elastic Constant Matrix: (Units=GPa)
#
#
# Indices 1 2 3 4 5 6 
#
# 1 103.4240 42.1771 63.6305 0.0000 0.0000 0.0000
# 2 42.1771 86.2230 47.0915 0.0000 0.0000 0.0000
# 3 63.6305 47.0915 170.4046 0.0000 0.0000 0.0000
# 4 0.0000 0.0000 0.0000 32.1752 0.0000 0.0000
# 5 0.0000 0.0000 0.0000 0.0000 43.0067 0.0000
# 6 0.0000 0.0000 0.0000 0.0000 0.0000 11.9769
#
#
#
# Elastic Compliance Matrix: (Units=1/GPa)
#
#
# Indices 1 2 3 4 5 6 
#
# 1 0.014005 -0.004705 -0.003929 0.000000 0.000000 0.000000
# 2 -0.004705 0.015240 -0.002455 0.000000 0.000000 0.000000
# 3 -0.003929 -0.002455 0.008014 0.000000 0.000000 0.000000
# 4 0.000000 0.000000 0.000000 0.031080 0.000000 0.000000
# 5 0.000000 0.000000 0.000000 0.000000 0.023252 0.000000
# 6 0.000000 0.000000 0.000000 0.000000 0.000000 0.083494
#
#
# Mechanical properties :
#
#
# Convention : Reuss Voigt Hill
#
# Bulk Modulus (GPa) = 66.30780 73.98333 70.14557
# Shear Modulus (GPa) = 24.71696 31.24192 27.97944
#
# Velocity S-wave (km/s) = 3.62277 4.07298 3.85445
# Velocity P-wave (km/s) = 7.26003 7.83602 7.55352
#
# Compressibility (1/GPa) = 0.01508118
#
# Stress axis : x y z
#
# Youngs Moduli (GPa) = 71.40255 65.61724 124.78041
#
# Poissons Ratio (x) = 0.30871 0.49032
# Poissons Ratio (y) = 0.33592 0.30631
# Poissons Ratio (z) = 0.28058 0.16108
#
# Static dielectric constant tensor:
#      x y z
#    x 1.747640 0.000000 0.000000 
#    y 0.000000 1.658370 0.000000 
#    z 0.000000 0.000000 1.611310 
# 
# From -- ./inp_files/11576.got.cif
#   From: 2010.05.17/outbox.cif.g08.bks.cpg/sg48_6_cif.got.tgz:11576.got - 2010.06.03 20:39:00.
