data_PCOD9390109
_publ_section_title
;
Structure prediction by ZEFSAII (Michael W. Deem and Ramdas Pophale) SiO2 
 PCOD9390109
Probable space group: P N N N
;
_chemical_formula_sum "Si O2"
_cell_formula_units_Z 46
_cell_length_a 12.140403
_cell_length_b 8.048402
_cell_length_c 20.488281
_cell_angle_alpha 90.000000
_cell_angle_beta 90.000000
_cell_angle_gamma 90.000000
_cell_volume 2001.927224
_symmetry_space_group_name_H-M "P N N N"
_symmetry_group_IT_number 48
_space_group.IT_coordinate_system_code '2'
_symmetry_cell_setting 'orthorhombic'
loop_
_space_group_symop_operation_xyz
x,y,z
1/2-x,1/2-y,z
x,1/2-y,1/2-z
1/2-x,y,1/2-z
-x,-y,-z
1/2+x,1/2+y,-z
-x,1/2+y,1/2+z
1/2+x,-y,1/2+z
loop_
_atom_site_type_symbol
_atom_site_label
_atom_site_fract_x
_atom_site_fract_y
_atom_site_fract_z
Si Si1 0.581418 0.997917 0.744479
Si Si2 0.842239 0.552272 0.303188
Si Si3 0.055451 0.711803 0.532879
Si Si4 0.750000 0.250000 0.750000
Si Si5 0.372963 0.284972 0.359295
Si Si6 0.369380 0.171371 0.556910
Si Si7 0.750000 0.250000 0.111139
O O1 0.454752 0.038257 0.736445
O O2 0.663417 0.133372 0.714434
O O3 0.604097 0.844142 0.698110
O O4 0.611906 0.957460 0.819689
O O5 0.750000 0.585050 0.250000
O O6 0.863699 0.672281 0.364515
O O7 0.806018 0.383305 0.340957
O O8 0.107483 0.522687 0.533518
O O9 0.156242 0.819189 0.561997
O O10 0.960434 0.739114 0.586306
O O11 0.984622 0.751965 0.468282
O O12 0.250000 0.250000 0.382776
O O13 0.250000 0.250000 0.536058
#
# Coordination Sequence:
#
# PCOD9390109 Si02
#       7
#     8   8   8   2   8   8   4
#     4  11  22  38  63  97 141 175 237 286 354 425
#     4  11  23  39  65  96 134 180 219 295 355 427
#     4  10  21  40  68  94 129 173 235 297 343 417
#     4  12  24  42  56  96 146 186 212 298 358 446
#     4  11  19  38  67 100 125 186 235 291 342 414
#     4  10  22  41  63  91 132 177 223 284 355 423
#     4  10  19  38  67 100 125 163 240 292 350 402
#
# _framework density 22.977858000000001
#
# number of rings (size 3 to 8) (size 9 to 14) (size 15 to 20)
#    0.000    1.391    5.217    2.348    2.435    1.739 
#    0.000    4.348    0.000    0.000    0.000    0.000 
#    0.000    0.000    0.000    0.000    0.000    0.000 
#
# Total GULP energy -256260.374664 kJ/mol
# GULP energy per Si atom -5570.877710 kJ/mol
# Density = 2.292556 g / cm^3
# Si number density = 22.977858 Si / 1000 Ang^3
#
#
#
# Elastic Constant Matrix: (Units=GPa)
#
#
# Indices 1 2 3 4 5 6 
#
# 1 251.6800 41.8184 65.0954 0.0000 0.0000 0.0000
# 2 41.8184 38.0051 21.8464 0.0000 0.0000 0.0000
# 3 65.0954 21.8464 117.0299 0.0000 0.0000 0.0000
# 4 0.0000 0.0000 0.0000 0.3020 0.0000 0.0000
# 5 0.0000 0.0000 0.0000 0.0000 47.9613 0.0000
# 6 0.0000 0.0000 0.0000 0.0000 0.0000 26.4796
#
#
#
# Elastic Compliance Matrix: (Units=1/GPa)
#
#
# Indices 1 2 3 4 5 6 
#
# 1 0.005276 -0.004614 -0.002074 0.000000 0.000000 0.000000
# 2 -0.004614 0.033509 -0.003689 0.000000 0.000000 0.000000
# 3 -0.002074 -0.003689 0.010387 0.000000 0.000000 0.000000
# 4 0.000000 0.000000 0.000000 3.311654 0.000000 0.000000
# 5 0.000000 0.000000 0.000000 0.000000 0.020850 0.000000
# 6 0.000000 0.000000 0.000000 0.000000 0.000000 0.037765
#
#
# Mechanical properties :
#
#
# Convention : Reuss Voigt Hill
#
# Bulk Modulus (GPa) = 35.18661 73.80394 54.49527
# Shear Modulus (GPa) = 1.44941 33.47889 17.46415
#
# Velocity S-wave (km/s) = 0.79508 3.82122 2.75988
# Velocity P-wave (km/s) = 4.02360 7.18737 5.82442
#
# Compressibility (1/GPa) = 0.02841990
#
# Stress axis : x y z
#
# Youngs Moduli (GPa) = 189.53042 29.84237 96.27577
#
# Poissons Ratio (x) = 0.13768 0.19963
# Poissons Ratio (y) = 0.87443 0.35517
# Poissons Ratio (z) = 0.39300 0.11009
#
# Static dielectric constant tensor:
#      x y z
#    x 2.174420 0.000000 0.000000 
#    y 0.000000 2.089360 0.000000 
#    z 0.000000 0.000000 1.934260 
# 
# From -- ./inp_files/36290.got.cif
#   From: 2010.05.17/outbox.cif.g08.bks.cpg/sg48_19_cif.got.tgz:36290.got - 2010.06.03 20:39:00.
