data_PCOD9390583
_publ_section_title
;
Structure prediction by ZEFSAII (Michael W. Deem and Ramdas Pophale) SiO2 
 PCOD9390583
Probable space group: P N N N
;
_chemical_formula_sum "Si O2"
_cell_formula_units_Z 56
_cell_length_a 15.793719
_cell_length_b 26.899582
_cell_length_c 6.181873
_cell_angle_alpha 90.000000
_cell_angle_beta 90.000000
_cell_angle_gamma 90.000000
_cell_volume 2626.334369
_symmetry_space_group_name_H-M "P N N N"
_symmetry_group_IT_number 48
_space_group.IT_coordinate_system_code '2'
_symmetry_cell_setting 'orthorhombic'
loop_
_space_group_symop_operation_xyz
x,y,z
1/2-x,1/2-y,z
x,1/2-y,1/2-z
1/2-x,y,1/2-z
-x,-y,-z
1/2+x,1/2+y,-z
-x,1/2+y,1/2+z
1/2+x,-y,1/2+z
loop_
_atom_site_type_symbol
_atom_site_label
_atom_site_fract_x
_atom_site_fract_y
_atom_site_fract_z
Si Si1 0.999003 0.698846 0.872686
Si Si2 0.054057 0.575014 0.532238
Si Si3 0.412353 0.438332 0.382249
Si Si4 0.157505 0.962017 0.344183
Si Si5 0.438199 0.355892 0.752556
Si Si6 0.163256 0.629238 0.832989
Si Si7 0.662965 0.851747 0.646345
O O1 0.016083 0.750000 0.750000
O O2 0.916359 0.677063 0.751360
O O3 0.084006 0.665890 0.856895
O O4 0.971557 0.692246 0.124209
O O5 0.085184 0.539975 0.341378
O O6 0.140930 0.593425 0.634232
O O7 0.996213 0.557018 0.731990
O O8 0.005496 0.621163 0.420831
O O9 0.373963 0.489287 0.472436
O O10 0.428177 0.399767 0.576386
O O11 0.348690 0.409066 0.221334
O O12 0.250000 0.972307 0.250000
O O13 0.163256 0.908900 0.464844
O O14 0.353012 0.347638 0.890393
O O15 0.250000 0.653964 0.750000
O O16 0.750000 0.833372 0.750000
#
# Coordination Sequence:
#
# PCOD9390583 Si02
#       7
#     8   8   8   8   8   8   8
#     4  11  24  44  70 102 128 175 236 291 353 425
#     4  11  20  41  62  91 129 180 224 279 339 408
#     4  10  22  38  62  97 130 181 232 266 332 421
#     4  12  24  38  62  96 135 183 229 282 341 406
#     4  10  20  42  69  93 138 180 217 282 349 404
#     4  12  24  43  65  96 135 181 234 290 349 407
#     4  10  22  43  66  99 141 176 218 282 345 415
#
# _framework density 21.322493999999999
#
# number of rings (size 3 to 8) (size 9 to 14) (size 15 to 20)
#    0.000    1.143    7.143    0.857    0.000    8.000 
#    2.571    0.000    0.000    3.429    0.000    0.000 
#    0.000    0.000    0.000    0.000    0.000    0.000 
#
# Total GULP energy -312100.357537 kJ/mol
# GULP energy per Si atom -5573.220670 kJ/mol
# Density = 2.127396 g / cm^3
# Si number density = 21.322494 Si / 1000 Ang^3
#
#
#
# Elastic Constant Matrix: (Units=GPa)
#
#
# Indices 1 2 3 4 5 6 
#
# 1 132.0656 41.9366 42.7069 0.0000 0.0000 0.0000
# 2 41.9366 70.2440 15.9733 0.0000 0.0000 0.0000
# 3 42.7069 15.9733 97.2791 0.0000 0.0000 0.0000
# 4 0.0000 0.0000 0.0000 16.7780 0.0000 0.0000
# 5 0.0000 0.0000 0.0000 0.0000 34.4476 0.0000
# 6 0.0000 0.0000 0.0000 0.0000 0.0000 14.0795
#
#
#
# Elastic Compliance Matrix: (Units=1/GPa)
#
#
# Indices 1 2 3 4 5 6 
#
# 1 0.010495 -0.005421 -0.003718 0.000000 0.000000 0.000000
# 2 -0.005421 0.017588 -0.000508 0.000000 0.000000 0.000000
# 3 -0.003718 -0.000508 0.011995 0.000000 0.000000 0.000000
# 4 0.000000 0.000000 0.000000 0.059602 0.000000 0.000000
# 5 0.000000 0.000000 0.000000 0.000000 0.029030 0.000000
# 6 0.000000 0.000000 0.000000 0.000000 0.000000 0.071025
#
#
# Mechanical properties :
#
#
# Convention : Reuss Voigt Hill
#
# Bulk Modulus (GPa) = 48.10992 55.64693 51.87842
# Shear Modulus (GPa) = 22.12819 26.32583 24.22701
#
# Velocity S-wave (km/s) = 3.22496 3.51757 3.37444
# Velocity P-wave (km/s) = 6.03980 6.53086 6.29012
#
# Compressibility (1/GPa) = 0.02078573
#
# Stress axis : x y z
#
# Youngs Moduli (GPa) = 95.27950 56.85756 83.36649
#
# Poissons Ratio (x) = 0.30820 0.30992
# Poissons Ratio (y) = 0.51647 0.04237
# Poissons Ratio (z) = 0.35421 0.02890
#
# Static dielectric constant tensor:
#      x y z
#    x 1.787980 0.000000 0.000000 
#    y 0.000000 1.792280 0.000000 
#    z 0.000000 0.000000 1.852210 
# 
# From -- ./inp_files/3715.got.cif
#   From: 2010.05.17/outbox.cif.g08.bks.cpg/sg48_2_cif.got.tgz:3715.got - 2010.06.03 20:39:00.
