data_PCOD9391685
_publ_section_title
;
Structure prediction by ZEFSAII (Michael W. Deem and Ramdas Pophale) SiO2 
 PCOD9391685
Probable space group: P N N N
;
_chemical_formula_sum "Si O2"
_cell_formula_units_Z 32
_cell_length_a 13.932703
_cell_length_b 7.542207
_cell_length_c 12.361906
_cell_angle_alpha 90.000000
_cell_angle_beta 90.000000
_cell_angle_gamma 90.000000
_cell_volume 1299.030249
_symmetry_space_group_name_H-M "P N N N"
_symmetry_group_IT_number 48
_space_group.IT_coordinate_system_code '2'
_symmetry_cell_setting 'orthorhombic'
loop_
_space_group_symop_operation_xyz
x,y,z
1/2-x,1/2-y,z
x,1/2-y,1/2-z
1/2-x,y,1/2-z
-x,-y,-z
1/2+x,1/2+y,-z
-x,1/2+y,1/2+z
1/2+x,-y,1/2+z
loop_
_atom_site_type_symbol
_atom_site_label
_atom_site_fract_x
_atom_site_fract_y
_atom_site_fract_z
Si Si1 0.846098 0.617917 0.996374
Si Si2 0.847982 0.452138 0.784166
Si Si3 0.863783 0.954492 0.263702
Si Si4 0.507724 0.611469 0.889461
O O1 0.750000 0.750000 0.008037
O O2 0.836323 0.459177 0.912318
O O3 0.931776 0.724420 0.936412
O O4 0.878620 0.529119 0.108256
O O5 0.850729 0.250000 0.750000
O O6 0.750000 0.545336 0.750000
O O7 0.929241 0.541064 0.711872
O O8 0.899525 0.750000 0.250000
O O9 0.750000 0.955292 0.250000
O O10 0.906351 0.087245 0.173473
O O11 0.500000 0.500000 0.000000
#
# Coordination Sequence:
#
# PCOD9391685 Si02
#       4
#     8   8   8   8
#     4  12  23  46  79 108 151 203 252 310 390 459
#     4  11  26  46  71 106 145 189 251 315 368 442
#     4  11  22  43  72 113 156 200 245 313 385 455
#     4  12  24  42  74 111 147 193 253 309 378 464
#
# _framework density 24.633762000000001
#
# number of rings (size 3 to 8) (size 9 to 14) (size 15 to 20)
#    0.000    0.500    7.500    1.500    0.000    1.000 
#    4.500    0.000    0.000    3.000    0.000    0.000 
#    0.000    0.000    0.000    0.000    0.000    0.000 
#
# Total GULP energy -178307.962470 kJ/mol
# GULP energy per Si atom -5572.123827 kJ/mol
# Density = 2.457769 g / cm^3
# Si number density = 24.633762 Si / 1000 Ang^3
#
#
#
# Elastic Constant Matrix: (Units=GPa)
#
#
# Indices 1 2 3 4 5 6 
#
# 1 101.1297 14.0510 22.4729 0.0000 0.0000 0.0000
# 2 14.0510 63.0910 26.4073 0.0000 0.0000 0.0000
# 3 22.4729 26.4073 247.1111 0.0000 0.0000 0.0000
# 4 0.0000 0.0000 0.0000 -244.0800 0.0000 0.0000
# 5 0.0000 0.0000 0.0000 0.0000 39.5635 0.0000
# 6 0.0000 0.0000 0.0000 0.0000 0.0000 112.1909
#
#
#
# Elastic Compliance Matrix: (Units=1/GPa)
#
#
# Indices 1 2 3 4 5 6 
#
# 1 0.010327 -0.001996 -0.000726 0.000000 0.000000 0.000000
# 2 -0.001996 0.016978 -0.001633 0.000000 0.000000 0.000000
# 3 -0.000726 -0.001633 0.004287 0.000000 0.000000 0.000000
# 4 0.000000 0.000000 0.000000 -0.004097 0.000000 0.000000
# 5 0.000000 0.000000 0.000000 0.000000 0.025276 0.000000
# 6 0.000000 0.000000 0.000000 0.000000 0.000000 0.008913
#
#
# Mechanical properties :
#
#
# Convention : Reuss Voigt Hill
#
# Bulk Modulus (GPa) = 43.70104 59.68825 51.69465
# Shear Modulus (GPa) = 64.08486 4.76159 34.42322
#
# Velocity S-wave (km/s) = 5.10603 1.39182 3.74224
# Velocity P-wave (km/s) = 7.24851 5.18322 6.30105
#
# Compressibility (1/GPa) = 0.02288275
#
# Stress axis : x y z
#
# Youngs Moduli (GPa) = 96.83423 58.89943 233.24904
#
# Poissons Ratio (x) = 0.11757 0.16930
# Poissons Ratio (y) = 0.19329 0.38085
# Poissons Ratio (z) = 0.07029 0.09617
#
# Static dielectric constant tensor:
#      x y z
#    x 2.152230 0.000000 0.000000 
#    y 0.000000 2.076970 0.000000 
#    z 0.000000 0.000000 2.340150 
# 
# From -- ./inp_files/10261.got.cif
#   From: 2010.05.17/outbox.cif.g08.bks.cpg/sg48_6_cif.got.tgz:10261.got - 2010.06.03 20:39:00.
