data_PCOD9391794
_publ_section_title
;
Structure prediction by ZEFSAII (Michael W. Deem and Ramdas Pophale) SiO2 
 PCOD9391794
Probable space group: P N N N
;
_chemical_formula_sum "Si O2"
_cell_formula_units_Z 34
_cell_length_a 11.988543
_cell_length_b 10.814967
_cell_length_c 10.920787
_cell_angle_alpha 90.000000
_cell_angle_beta 90.000000
_cell_angle_gamma 90.000000
_cell_volume 1415.942249
_symmetry_space_group_name_H-M "P N N N"
_symmetry_group_IT_number 48
_space_group.IT_coordinate_system_code '2'
_symmetry_cell_setting 'orthorhombic'
loop_
_space_group_symop_operation_xyz
x,y,z
1/2-x,1/2-y,z
x,1/2-y,1/2-z
1/2-x,y,1/2-z
-x,-y,-z
1/2+x,1/2+y,-z
-x,1/2+y,1/2+z
1/2+x,-y,1/2+z
loop_
_atom_site_type_symbol
_atom_site_label
_atom_site_fract_x
_atom_site_fract_y
_atom_site_fract_z
Si Si1 0.041145 0.336331 0.982863
Si Si2 0.884858 0.553853 0.453180
Si Si3 0.713309 0.111446 0.891378
Si Si4 0.750000 0.250000 0.250000
Si Si5 0.909840 0.451497 0.178417
O O1 0.020975 0.383661 0.122785
O O2 0.920610 0.366983 0.916572
O O3 0.095768 0.201949 0.968642
O O4 0.114431 0.433180 0.908198
O O5 0.789084 0.486320 0.532752
O O6 0.889924 0.506870 0.312639
O O7 0.000000 0.500000 0.500000
O O8 0.750000 0.250000 0.919399
O O9 0.750000 0.087925 0.750000
O O10 0.825939 0.337785 0.169893
#
# Coordination Sequence:
#
# PCOD9391794 Si02
#       5
#     8   8   8   2   8
#     4  11  25  48  70 117 156 200 258 328 387 471
#     4  12  23  42  75 109 148 205 253 316 391 462
#     4  11  24  43  73 111 152 201 259 312 392 470
#     4  12  24  48  74 108 140 208 258 324 388 464
#     4  11  26  43  74 108 150 192 263 316 386 472
#
# _framework density 24.012278999999999
#
# number of rings (size 3 to 8) (size 9 to 14) (size 15 to 20)
#    0.000    0.706    2.353    4.941    6.588    0.000 
#    0.000   14.118    0.000   11.294    0.000    0.000 
#    0.000    0.000    0.000    0.000    0.000    0.000 
#
# Total GULP energy -189459.779904 kJ/mol
# GULP energy per Si atom -5572.346468 kJ/mol
# Density = 2.395763 g / cm^3
# Si number density = 24.012279 Si / 1000 Ang^3
#
#
#
# Elastic Constant Matrix: (Units=GPa)
#
#
# Indices 1 2 3 4 5 6 
#
# 1 113.0645 80.1343 65.4566 0.0000 0.0000 0.0000
# 2 80.1343 271.0373 106.5656 0.0000 0.0000 0.0000
# 3 65.4566 106.5656 182.4278 0.0000 0.0000 0.0000
# 4 0.0000 0.0000 0.0000 -6.3519 0.0000 0.0000
# 5 0.0000 0.0000 0.0000 0.0000 31.4046 0.0000
# 6 0.0000 0.0000 0.0000 0.0000 0.0000 51.7601
#
#
#
# Elastic Compliance Matrix: (Units=1/GPa)
#
#
# Indices 1 2 3 4 5 6 
#
# 1 0.012320 -0.002472 -0.002976 0.000000 0.000000 0.000000
# 2 -0.002472 0.005286 -0.002201 0.000000 0.000000 0.000000
# 3 -0.002976 -0.002201 0.007835 0.000000 0.000000 0.000000
# 4 0.000000 0.000000 0.000000 -0.157432 0.000000 0.000000
# 5 0.000000 0.000000 0.000000 0.000000 0.031842 0.000000
# 6 0.000000 0.000000 0.000000 0.000000 0.000000 0.019320
#
#
# Mechanical properties :
#
#
# Convention : Reuss Voigt Hill
#
# Bulk Modulus (GPa) = 98.59725 118.98251 108.78988
# Shear Modulus (GPa) = -80.45016 36.32076 -22.06470
#
# Velocity S-wave (km/s) = -5.79452 3.89342 -3.03461
# Velocity P-wave (km/s) = 1.90219 8.35882 5.75550
#
# Compressibility (1/GPa) = 0.01014227
#
# Stress axis : x y z
#
# Youngs Moduli (GPa) = 81.17041 189.19031 127.63229
#
# Poissons Ratio (x) = 0.46772 0.37987
# Poissons Ratio (y) = 0.20067 0.28087
# Poissons Ratio (z) = 0.24159 0.41633
#
# Static dielectric constant tensor:
#      x y z
#    x 2.039480 0.000000 0.000000 
#    y 0.000000 1.889130 0.000000 
#    z 0.000000 0.000000 2.194350 
# 
# From -- ./inp_files/20904.got.cif
#   From: 2010.05.17/outbox.cif.g08.bks.cpg/sg48_11_cif.got.tgz:20904.got - 2010.06.03 20:39:00.
