data_PCOD9391123
_publ_section_title
;
Structure prediction by ZEFSAII (Michael W. Deem and Ramdas Pophale) SiO2 
 PCOD9391123
Probable space group: P N N N
;
_chemical_formula_sum "Si O2"
_cell_formula_units_Z 48
_cell_length_a 17.272834
_cell_length_b 9.173786
_cell_length_c 15.020243
_cell_angle_alpha 90.000000
_cell_angle_beta 90.000000
_cell_angle_gamma 90.000000
_cell_volume 2380.066892
_symmetry_space_group_name_H-M "P N N N"
_symmetry_group_IT_number 48
_space_group.IT_coordinate_system_code '2'
_symmetry_cell_setting 'orthorhombic'
loop_
_space_group_symop_operation_xyz
x,y,z
1/2-x,1/2-y,z
x,1/2-y,1/2-z
1/2-x,y,1/2-z
-x,-y,-z
1/2+x,1/2+y,-z
-x,1/2+y,1/2+z
1/2+x,-y,1/2+z
loop_
_atom_site_type_symbol
_atom_site_label
_atom_site_fract_x
_atom_site_fract_y
_atom_site_fract_z
Si Si1 0.934481 0.657728 0.339986
Si Si2 0.539671 0.409666 0.578497
Si Si3 0.786788 0.589593 0.658446
Si Si4 0.290211 0.900110 0.006415
Si Si5 0.956656 0.913176 0.762523
Si Si6 0.733896 0.579416 0.150305
O O1 0.913176 0.750000 0.250000
O O2 0.856680 0.581719 0.376132
O O3 0.983827 0.773428 0.397596
O O4 0.989350 0.524839 0.314073
O O5 0.500000 0.500000 0.500000
O O6 0.625165 0.368696 0.545255
O O7 0.552749 0.510580 0.665911
O O8 0.750000 0.750000 0.642660
O O9 0.750000 0.531274 0.750000
O O10 0.761387 0.485269 0.579323
O O11 0.877009 0.602599 0.681906
O O12 0.250000 0.750000 0.982425
O O13 0.289283 0.000461 0.919230
O O14 0.988338 0.750000 0.750000
O O15 0.750000 0.750000 0.149763
O O16 0.750000 0.522855 0.250000
#
# Coordination Sequence:
#
# PCOD9391123 Si02
#       6
#     8   8   8   8   8   8
#     4  10  22  42  64  95 124 171 220 266 325 389
#     4  11  24  42  66  96 134 169 218 273 336 395
#     4  11  20  41  65  95 131 169 221 258 326 403
#     4  12  26  41  65 102 134 171 213 279 335 387
#     4  11  22  40  66  97 130 171 213 272 332 389
#     4  11  23  45  71  90 126 181 229 264 316 397
#
# _framework density 20.167501000000001
#
# number of rings (size 3 to 8) (size 9 to 14) (size 15 to 20)
#    0.000    1.000    5.000    2.500    2.333    3.333 
#    0.000    2.500    0.000    0.000    0.000    0.000 
#    0.000    0.000    0.000    0.000    0.000    0.000 
#
# Total GULP energy -268131.293769 kJ/mol
# GULP energy per Si atom -5586.068620 kJ/mol
# Density = 2.012160 g / cm^3
# Si number density = 20.167501 Si / 1000 Ang^3
#
#
#
# Elastic Constant Matrix: (Units=GPa)
#
#
# Indices 1 2 3 4 5 6 
#
# 1 97.9458 17.5036 4.6112 0.0000 0.0000 0.0000
# 2 17.5036 58.6732 9.6444 0.0000 0.0000 0.0000
# 3 4.6112 9.6444 62.5557 0.0000 0.0000 0.0000
# 4 0.0000 0.0000 0.0000 7.6070 0.0000 0.0000
# 5 0.0000 0.0000 0.0000 0.0000 18.1465 0.0000
# 6 0.0000 0.0000 0.0000 0.0000 0.0000 14.7124
#
#
#
# Elastic Compliance Matrix: (Units=1/GPa)
#
#
# Indices 1 2 3 4 5 6 
#
# 1 0.010790 -0.003169 -0.000307 0.000000 0.000000 0.000000
# 2 -0.003169 0.018417 -0.002606 0.000000 0.000000 0.000000
# 3 -0.000307 -0.002606 0.016410 0.000000 0.000000 0.000000
# 4 0.000000 0.000000 0.000000 0.131457 0.000000 0.000000
# 5 0.000000 0.000000 0.000000 0.000000 0.055107 0.000000
# 6 0.000000 0.000000 0.000000 0.000000 0.000000 0.067970
#
#
# Mechanical properties :
#
#
# Convention : Reuss Voigt Hill
#
# Bulk Modulus (GPa) = 29.89088 31.41035 30.65061
# Shear Modulus (GPa) = 15.45756 20.58755 18.02256
#
# Velocity S-wave (km/s) = 2.77150 3.19851 2.99263
# Velocity P-wave (km/s) = 5.00950 5.40825 5.21269
#
# Compressibility (1/GPa) = 0.03345502
#
# Stress axis : x y z
#
# Youngs Moduli (GPa) = 92.67471 54.29713 60.93794
#
# Poissons Ratio (x) = 0.17205 0.01870
# Poissons Ratio (y) = 0.29365 0.15880
# Poissons Ratio (z) = 0.02844 0.14149
#
# Static dielectric constant tensor:
#      x y z
#    x 1.955410 0.000000 0.000000 
#    y 0.000000 1.684530 0.000000 
#    z 0.000000 0.000000 1.725730 
# 
# From -- ./inp_files/27875.got.cif
#   From: 2010.05.17/outbox.cif.g08.bks.cpg/sg48_14_cif.got.tgz:27875.got - 2010.06.03 20:39:00.
