data_PCOD9391502
_publ_section_title
;
Structure prediction by ZEFSAII (Michael W. Deem and Ramdas Pophale) SiO2 
 PCOD9391502
Probable space group: P N N N
;
_chemical_formula_sum "Si O2"
_cell_formula_units_Z 56
_cell_length_a 14.637635
_cell_length_b 11.166119
_cell_length_c 16.790615
_cell_angle_alpha 90.000000
_cell_angle_beta 90.000000
_cell_angle_gamma 90.000000
_cell_volume 2744.351711
_symmetry_space_group_name_H-M "P N N N"
_symmetry_group_IT_number 48
_space_group.IT_coordinate_system_code '2'
_symmetry_cell_setting 'orthorhombic'
loop_
_space_group_symop_operation_xyz
x,y,z
1/2-x,1/2-y,z
x,1/2-y,1/2-z
1/2-x,y,1/2-z
-x,-y,-z
1/2+x,1/2+y,-z
-x,1/2+y,1/2+z
1/2+x,-y,1/2+z
loop_
_atom_site_type_symbol
_atom_site_label
_atom_site_fract_x
_atom_site_fract_y
_atom_site_fract_z
Si Si1 0.899079 0.239043 0.606921
Si Si2 0.180105 0.142654 0.428181
Si Si3 0.514601 0.696810 0.969608
Si Si4 0.939056 0.869543 0.283369
Si Si5 0.261977 0.576270 0.156818
Si Si6 0.723060 0.606411 0.395674
Si Si7 0.077609 0.475597 0.615932
O O1 0.811856 0.157159 0.613339
O O2 0.860943 0.373143 0.628726
O O3 0.937605 0.234514 0.518597
O O4 0.974098 0.181559 0.667232
O O5 0.250000 0.250000 0.429917
O O6 0.081971 0.209380 0.426649
O O7 0.190567 0.082013 0.514383
O O8 0.223717 0.054807 0.363013
O O9 0.469387 0.596922 0.913916
O O10 0.560727 0.623469 0.044936
O O11 0.891782 0.750000 0.250000
O O12 0.862994 0.924021 0.340361
O O13 0.960018 0.943441 0.203806
O O14 0.250000 0.599491 0.250000
O O15 0.750000 0.750000 0.390347
O O16 0.812821 0.529597 0.376385
#
# Coordination Sequence:
#
# PCOD9391502 Si02
#       7
#     8   8   8   8   8   8   8
#     4  11  22  42  63  91 129 166 223 278 331 393
#     4  11  22  41  61  89 131 165 213 271 332 407
#     4  11  22  37  60  92 125 174 217 262 332 408
#     4  12  19  31  59  89 128 158 211 275 327 385
#     4  11  26  41  63  92 126 172 220 279 340 397
#     4  11  18  34  53  91 125 157 207 268 332 381
#     4  11  22  32  57  94 130 166 212 274 332 389
#
# _framework density 20.405548
#
# number of rings (size 3 to 8) (size 9 to 14) (size 15 to 20)
#    0.000    0.857    7.143    3.000    2.000    0.857 
#    0.000    0.000    0.000    0.000    0.000    0.000 
#    8.571    0.000    0.000    0.000    0.000    0.000 
#
# Total GULP energy -312128.809427 kJ/mol
# GULP energy per Si atom -5573.728740 kJ/mol
# Density = 2.035910 g / cm^3
# Si number density = 20.405548 Si / 1000 Ang^3
#
#
#
# Elastic Constant Matrix: (Units=GPa)
#
#
# Indices 1 2 3 4 5 6 
#
# 1 129.9792 38.4718 36.2613 0.0000 0.0000 0.0000
# 2 38.4718 52.6825 33.4037 0.0000 0.0000 0.0000
# 3 36.2613 33.4037 62.5354 0.0000 0.0000 0.0000
# 4 0.0000 0.0000 0.0000 20.8067 0.0000 0.0000
# 5 0.0000 0.0000 0.0000 0.0000 0.1423 0.0000
# 6 0.0000 0.0000 0.0000 0.0000 0.0000 22.5166
#
#
#
# Elastic Compliance Matrix: (Units=1/GPa)
#
#
# Indices 1 2 3 4 5 6 
#
# 1 0.010154 -0.005568 -0.002914 0.000000 0.000000 0.000000
# 2 -0.005568 0.031756 -0.013734 0.000000 0.000000 0.000000
# 3 -0.002914 -0.013734 0.025017 0.000000 0.000000 0.000000
# 4 0.000000 0.000000 0.000000 0.048062 0.000000 0.000000
# 5 0.000000 0.000000 0.000000 0.000000 7.028412 0.000000
# 6 0.000000 0.000000 0.000000 0.000000 0.000000 0.044412
#
#
# Mechanical properties :
#
#
# Convention : Reuss Voigt Hill
#
# Bulk Modulus (GPa) = 44.45376 51.27453 47.86414
# Shear Modulus (GPa) = 0.69063 17.83045 9.26054
#
# Velocity S-wave (km/s) = 0.58240 2.95922 2.13263
# Velocity P-wave (km/s) = 4.72067 6.07110 5.43797
#
# Compressibility (1/GPa) = 0.02249528
#
# Stress axis : x y z
#
# Youngs Moduli (GPa) = 98.47908 31.49044 39.97307
#
# Poissons Ratio (x) = 0.17533 0.11648
# Poissons Ratio (y) = 0.54830 0.54899
# Poissons Ratio (z) = 0.28697 0.43249
#
# Static dielectric constant tensor:
#      x y z
#    x 1.789070 0.000000 0.000000 
#    y 0.000000 1.471620 0.000000 
#    z 0.000000 0.000000 1.800850 
# 
# From -- ./inp_files/27302.got.cif
#   From: 2010.05.17/outbox.cif.g08.bks.cpg/sg48_14_cif.got.tgz:27302.got - 2010.06.03 20:39:00.
