data_PCOD9391733
_publ_section_title
;
Structure prediction by ZEFSAII (Michael W. Deem and Ramdas Pophale) SiO2 
 PCOD9391733
Probable space group: P N N N
;
_chemical_formula_sum "Si O2"
_cell_formula_units_Z 30
_cell_length_a 8.589213
_cell_length_b 17.427276
_cell_length_c 9.246669
_cell_angle_alpha 90.000000
_cell_angle_beta 90.000000
_cell_angle_gamma 90.000000
_cell_volume 1384.102311
_symmetry_space_group_name_H-M "P N N N"
_symmetry_group_IT_number 48
_space_group.IT_coordinate_system_code '2'
_symmetry_cell_setting 'orthorhombic'
loop_
_space_group_symop_operation_xyz
x,y,z
1/2-x,1/2-y,z
x,1/2-y,1/2-z
1/2-x,y,1/2-z
-x,-y,-z
1/2+x,1/2+y,-z
-x,1/2+y,1/2+z
1/2+x,-y,1/2+z
loop_
_atom_site_type_symbol
_atom_site_label
_atom_site_fract_x
_atom_site_fract_y
_atom_site_fract_z
Si Si1 0.983603 0.139366 0.077961
Si Si2 0.064339 0.396929 0.109255
Si Si3 0.250000 0.250000 0.036564
Si Si4 0.727048 0.446907 0.580615
Si Si5 0.750000 0.250000 0.250000
O O1 0.860085 0.198872 0.148388
O O2 0.036565 0.092462 0.220569
O O3 0.114093 0.188270 0.989001
O O4 0.888251 0.079891 0.984884
O O5 0.139644 0.312930 0.108915
O O6 0.178591 0.464500 0.058257
O O7 0.912792 0.402576 0.006060
O O8 0.750000 0.430848 0.750000
#
# Coordination Sequence:
#
# PCOD9391733 Si02
#       5
#     8   8   4   8   2
#     4  12  21  42  70  99 128 177 232 278 330 400
#     4  11  23  42  68  97 128 178 228 279 329 400
#     4  12  23  40  73  98 123 170 243 284 309 396
#     4  11  25  43  65  98 140 177 220 279 346 399
#     4  12  20  38  74  96 124 176 226 280 316 410
#
# _framework density 21.674697999999999
#
# number of rings (size 3 to 8) (size 9 to 14) (size 15 to 20)
#    0.000    0.533    5.333    3.200    0.000    4.267 
#    0.000   11.333    0.000    0.000    0.000    0.000 
#    0.000    0.000    0.000    0.000    0.000    0.000 
#
# Total GULP energy -167046.133250 kJ/mol
# GULP energy per Si atom -5568.204442 kJ/mol
# Density = 2.162537 g / cm^3
# Si number density = 21.674698 Si / 1000 Ang^3
#
#
#
# Elastic Constant Matrix: (Units=GPa)
#
#
# Indices 1 2 3 4 5 6 
#
# 1 130.7677 64.4478 36.6161 0.0000 0.0000 0.0000
# 2 64.4478 117.2721 49.8554 0.0000 0.0000 0.0000
# 3 36.6161 49.8554 52.1781 0.0000 0.0000 0.0000
# 4 0.0000 0.0000 0.0000 1.5330 0.0000 0.0000
# 5 0.0000 0.0000 0.0000 0.0000 20.5392 0.0000
# 6 0.0000 0.0000 0.0000 0.0000 0.0000 78.4029
#
#
#
# Elastic Compliance Matrix: (Units=1/GPa)
#
#
# Indices 1 2 3 4 5 6 
#
# 1 0.010798 -0.004569 -0.003213 0.000000 0.000000 0.000000
# 2 -0.004569 0.016293 -0.012362 0.000000 0.000000 0.000000
# 3 -0.003213 -0.012362 0.033231 0.000000 0.000000 0.000000
# 4 0.000000 0.000000 0.000000 0.652320 0.000000 0.000000
# 5 0.000000 0.000000 0.000000 0.000000 0.048687 0.000000
# 6 0.000000 0.000000 0.000000 0.000000 0.000000 0.012755
#
#
# Mechanical properties :
#
#
# Convention : Reuss Voigt Hill
#
# Bulk Modulus (GPa) = 49.90859 66.89516 58.40187
# Shear Modulus (GPa) = 6.08976 30.04825 18.06901
#
# Velocity S-wave (km/s) = 1.67801 3.72738 2.89042
# Velocity P-wave (km/s) = 5.17981 7.03241 6.17597
#
# Compressibility (1/GPa) = 0.02003663
#
# Stress axis : x y z
#
# Youngs Moduli (GPa) = 92.60758 61.37514 30.09215
#
# Poissons Ratio (x) = 0.28039 0.09667
# Poissons Ratio (y) = 0.42308 0.37200
# Poissons Ratio (z) = 0.29751 0.75872
#
# Static dielectric constant tensor:
#      x y z
#    x 1.894780 0.000000 0.000000 
#    y 0.000000 1.799630 0.000000 
#    z 0.000000 0.000000 1.775190 
# 
# From -- ./inp_files/8677.got.cif
#   From: 2010.05.17/outbox.cif.g08.bks.cpg/sg48_5_cif.got.tgz:8677.got - 2010.06.03 20:39:00.
