data_PCOD9391654
_publ_section_title
;
Structure prediction by ZEFSAII (Michael W. Deem and Ramdas Pophale) SiO2 
 PCOD9391654
Probable space group: P N N N
;
_chemical_formula_sum "Si O2"
_cell_formula_units_Z 38
_cell_length_a 7.850978
_cell_length_b 8.393053
_cell_length_c 25.509799
_cell_angle_alpha 90.000000
_cell_angle_beta 90.000000
_cell_angle_gamma 90.000000
_cell_volume 1680.934391
_symmetry_space_group_name_H-M "P N N N"
_symmetry_group_IT_number 48
_space_group.IT_coordinate_system_code '2'
_symmetry_cell_setting 'orthorhombic'
loop_
_space_group_symop_operation_xyz
x,y,z
1/2-x,1/2-y,z
x,1/2-y,1/2-z
1/2-x,y,1/2-z
-x,-y,-z
1/2+x,1/2+y,-z
-x,1/2+y,1/2+z
1/2+x,-y,1/2+z
loop_
_atom_site_type_symbol
_atom_site_label
_atom_site_fract_x
_atom_site_fract_y
_atom_site_fract_z
Si Si1 0.526069 0.681506 0.579831
Si Si2 0.250000 0.250000 0.516419
Si Si3 0.481596 0.308544 0.808971
Si Si4 0.825725 0.998385 0.670043
Si Si5 0.750000 0.750000 0.750000
Si Si6 0.827532 0.001226 0.100933
O O1 0.605134 0.680283 0.522008
O O2 0.665497 0.596108 0.616185
O O3 0.354296 0.581987 0.590296
O O4 0.467485 0.859513 0.595911
O O5 0.156717 0.374385 0.554371
O O6 0.440556 0.250000 0.750000
O O7 0.649095 0.422060 0.811203
O O8 0.544874 0.144672 0.834893
O O9 0.348318 0.407548 0.843878
O O10 0.863730 0.863325 0.713312
#
# Coordination Sequence:
#
# PCOD9391654 Si02
#       6
#     8   4   8   8   2   8
#     4  11  25  44  70 105 138 182 238 298 360 421
#     4  12  23  46  71  99 138 189 234 298 356 438
#     4  11  22  44  68 101 139 191 234 287 352 423
#     4  11  22  39  69 101 135 181 238 281 344 427
#     4  12  18  34  64  98 128 172 224 290 310 406
#     4  11  25  44  70 103 143 182 234 297 366 427
#
# _framework density 22.606473999999999
#
# number of rings (size 3 to 8) (size 9 to 14) (size 15 to 20)
#    0.000    0.842    2.105    6.316    0.000    0.000 
#    0.000   10.000    0.000    0.000    0.000    0.000 
#    0.000    0.000    0.000    0.000    0.000    0.000 
#
# Total GULP energy -212302.291155 kJ/mol
# GULP energy per Si atom -5586.902399 kJ/mol
# Density = 2.255502 g / cm^3
# Si number density = 22.606474 Si / 1000 Ang^3
#
#
#
# Elastic Constant Matrix: (Units=GPa)
#
#
# Indices 1 2 3 4 5 6 
#
# 1 133.4820 35.9493 47.5061 0.0000 0.0000 0.0000
# 2 35.9493 143.2225 85.6733 0.0000 0.0000 0.0000
# 3 47.5061 85.6733 170.5309 0.0000 0.0000 0.0000
# 4 0.0000 0.0000 0.0000 39.4662 0.0000 0.0000
# 5 0.0000 0.0000 0.0000 0.0000 33.3176 0.0000
# 6 0.0000 0.0000 0.0000 0.0000 0.0000 37.4460
#
#
#
# Elastic Compliance Matrix: (Units=1/GPa)
#
#
# Indices 1 2 3 4 5 6 
#
# 1 0.008418 -0.001015 -0.001835 0.000000 0.000000 0.000000
# 2 -0.001015 0.010104 -0.004794 0.000000 0.000000 0.000000
# 3 -0.001835 -0.004794 0.008783 0.000000 0.000000 0.000000
# 4 0.000000 0.000000 0.000000 0.025338 0.000000 0.000000
# 5 0.000000 0.000000 0.000000 0.000000 0.030014 0.000000
# 6 0.000000 0.000000 0.000000 0.000000 0.000000 0.026705
#
#
# Mechanical properties :
#
#
# Convention : Reuss Voigt Hill
#
# Bulk Modulus (GPa) = 83.20635 87.27699 85.24167
# Shear Modulus (GPa) = 38.86293 40.58640 39.72467
#
# Velocity S-wave (km/s) = 4.15071 4.24175 4.19647
# Velocity P-wave (km/s) = 7.73676 7.91712 7.82746
#
# Compressibility (1/GPa) = 0.01201831
#
# Stress axis : x y z
#
# Youngs Moduli (GPa) = 118.79054 98.96683 113.85019
#
# Poissons Ratio (x) = 0.10048 0.20892
# Poissons Ratio (y) = 0.12061 0.54574
# Poissons Ratio (z) = 0.21799 0.47440
#
# Static dielectric constant tensor:
#      x y z
#    x 1.915650 0.000000 0.000000 
#    y 0.000000 1.842740 0.000000 
#    z 0.000000 0.000000 1.823380 
# 
# From -- ./inp_files/9073.got.cif
#   From: 2010.05.17/outbox.cif.g08.bks.cpg/sg48_5_cif.got.tgz:9073.got - 2010.06.03 20:39:00.
