data_PCOD9391848
_publ_section_title
;
Structure prediction by ZEFSAII (Michael W. Deem and Ramdas Pophale) SiO2 
 PCOD9391848
Probable space group: P N N N
;
_chemical_formula_sum "Si O2"
_cell_formula_units_Z 32
_cell_length_a 11.066863
_cell_length_b 16.548394
_cell_length_c 7.288394
_cell_angle_alpha 90.000000
_cell_angle_beta 90.000000
_cell_angle_gamma 90.000000
_cell_volume 1334.787799
_symmetry_space_group_name_H-M "P N N N"
_symmetry_group_IT_number 48
_space_group.IT_coordinate_system_code '2'
_symmetry_cell_setting 'orthorhombic'
loop_
_space_group_symop_operation_xyz
x,y,z
1/2-x,1/2-y,z
x,1/2-y,1/2-z
1/2-x,y,1/2-z
-x,-y,-z
1/2+x,1/2+y,-z
-x,1/2+y,1/2+z
1/2+x,-y,1/2+z
loop_
_atom_site_type_symbol
_atom_site_label
_atom_site_fract_x
_atom_site_fract_y
_atom_site_fract_z
Si Si1 0.376056 0.038374 0.740018
Si Si2 0.360459 0.185894 0.026981
Si Si3 0.463046 0.404154 0.145330
Si Si4 0.883707 0.227940 0.966534
O O1 0.250000 0.992131 0.750000
O O2 0.364599 0.115754 0.872231
O O3 0.390583 0.066211 0.530592
O O4 0.486688 0.977718 0.768020
O O5 0.250000 0.250000 0.997431
O O6 0.493655 0.225635 0.017762
O O7 0.374654 0.147146 0.227872
O O8 0.577330 0.358860 0.049448
O O9 0.750000 0.250000 0.036857
O O10 0.877486 0.250000 0.750000
#
# Coordination Sequence:
#
# PCOD9391848 Si02
#       4
#     8   8   8   8
#     4  11  26  47  75 109 162 203 252 328 401 472
#     4  12  27  47  80 116 151 201 268 327 389 473
#     4  11  26  49  71 116 153 208 257 320 400 484
#     4  11  25  46  74 109 149 198 256 321 382 463
#
# _framework density 23.973848
#
# number of rings (size 3 to 8) (size 9 to 14) (size 15 to 20)
#    0.000    0.750    2.500    3.000    3.500    9.000 
#    0.000    0.000    0.000    0.000    0.000    0.000 
#    0.000    0.000    0.000    0.000    0.000    0.000 
#
# Total GULP energy -178592.763887 kJ/mol
# GULP energy per Si atom -5581.023871 kJ/mol
# Density = 2.391928 g / cm^3
# Si number density = 23.973848 Si / 1000 Ang^3
#
#
#
# Elastic Constant Matrix: (Units=GPa)
#
#
# Indices 1 2 3 4 5 6 
#
# 1 218.6734 73.9001 56.8328 0.0000 0.0000 0.0000
# 2 73.9001 110.8535 50.5282 0.0000 0.0000 0.0000
# 3 56.8328 50.5282 118.3140 0.0000 0.0000 0.0000
# 4 0.0000 0.0000 0.0000 49.7674 0.0000 0.0000
# 5 0.0000 0.0000 0.0000 0.0000 13.9379 0.0000
# 6 0.0000 0.0000 0.0000 0.0000 0.0000 49.1414
#
#
#
# Elastic Compliance Matrix: (Units=1/GPa)
#
#
# Indices 1 2 3 4 5 6 
#
# 1 0.006106 -0.003394 -0.001483 0.000000 0.000000 0.000000
# 2 -0.003394 0.013088 -0.003959 0.000000 0.000000 0.000000
# 3 -0.001483 -0.003959 0.010855 0.000000 0.000000 0.000000
# 4 0.000000 0.000000 0.000000 0.020093 0.000000 0.000000
# 5 0.000000 0.000000 0.000000 0.000000 0.071747 0.000000
# 6 0.000000 0.000000 0.000000 0.000000 0.000000 0.020349
#
#
# Mechanical properties :
#
#
# Convention : Reuss Voigt Hill
#
# Bulk Modulus (GPa) = 80.80169 90.04034 85.42102
# Shear Modulus (GPa) = 30.48085 40.34133 35.41109
#
# Velocity S-wave (km/s) = 3.56957 4.10655 3.84744
# Velocity P-wave (km/s) = 7.12505 7.75398 7.44616
#
# Compressibility (1/GPa) = 0.01237598
#
# Stress axis : x y z
#
# Youngs Moduli (GPa) = 163.78439 76.40440 92.11966
#
# Poissons Ratio (x) = 0.25933 0.13664
# Poissons Ratio (y) = 0.55591 0.36472
# Poissons Ratio (z) = 0.24294 0.30250
#
# Static dielectric constant tensor:
#      x y z
#    x 2.348510 0.000000 0.000000 
#    y 0.000000 2.736820 0.000000 
#    z 0.000000 0.000000 2.217770 
# 
# From -- ./inp_files/10251.got.cif
#   From: 2010.05.17/outbox.cif.g08.bks.cpg/sg48_6_cif.got.tgz:10251.got - 2010.06.03 20:39:00.
