data_PCOD9391852
_publ_section_title
;
Structure prediction by ZEFSAII (Michael W. Deem and Ramdas Pophale) SiO2 
 PCOD9391852
Probable space group: P N N N
;
_chemical_formula_sum "Si O2"
_cell_formula_units_Z 34
_cell_length_a 12.021064
_cell_length_b 8.835170
_cell_length_c 12.535467
_cell_angle_alpha 90.000000
_cell_angle_beta 90.000000
_cell_angle_gamma 90.000000
_cell_volume 1331.368685
_symmetry_space_group_name_H-M "P N N N"
_symmetry_group_IT_number 48
_space_group.IT_coordinate_system_code '2'
_symmetry_cell_setting 'orthorhombic'
loop_
_space_group_symop_operation_xyz
x,y,z
1/2-x,1/2-y,z
x,1/2-y,1/2-z
1/2-x,y,1/2-z
-x,-y,-z
1/2+x,1/2+y,-z
-x,1/2+y,1/2+z
1/2+x,-y,1/2+z
loop_
_atom_site_type_symbol
_atom_site_label
_atom_site_fract_x
_atom_site_fract_y
_atom_site_fract_z
Si Si1 0.996466 0.660466 0.062660
Si Si2 0.851164 0.591363 0.331699
Si Si3 0.661431 0.118487 0.523769
Si Si4 0.088694 0.995136 0.251198
Si Si5 0.750000 0.750000 0.750000
O O1 0.045223 0.797766 0.993696
O O2 0.084985 0.630905 0.157666
O O3 0.895839 0.744315 0.125668
O O4 0.000000 0.500000 0.000000
O O5 0.750000 0.586582 0.250000
O O6 0.813037 0.508118 0.438473
O O7 0.957489 0.500814 0.280834
O O8 0.750000 0.250000 0.515129
O O9 0.647395 0.048201 0.640830
O O10 0.157690 0.135791 0.299948
#
# Coordination Sequence:
#
# PCOD9391852 Si02
#       5
#     8   8   8   8   2
#     4  11  26  49  81 118 166 222 285 347 434 518
#     4  11  27  51  81 122 174 222 271 361 442 517
#     4  11  25  49  76 118 163 217 283 346 429 513
#     4  11  26  49  76 114 166 214 288 344 435 501
#     4  12  28  44  80 116 146 224 274 350 392 512
#
# _framework density 25.537628000000002
#
# number of rings (size 3 to 8) (size 9 to 14) (size 15 to 20)
#    0.000    0.941    0.000    7.059    9.882    3.294 
#    0.000    0.000    0.000    0.000    0.000    0.000 
#    0.000    0.000    0.000    0.000    0.000    0.000 
#
# Total GULP energy -189749.530465 kJ/mol
# GULP energy per Si atom -5580.868543 kJ/mol
# Density = 2.547950 g / cm^3
# Si number density = 25.537628 Si / 1000 Ang^3
#
#
#
# Elastic Constant Matrix: (Units=GPa)
#
#
# Indices 1 2 3 4 5 6 
#
# 1 160.5263 68.6146 62.8669 0.0000 0.0000 0.0000
# 2 68.6146 138.8500 79.0823 0.0000 0.0000 0.0000
# 3 62.8669 79.0823 128.8072 0.0000 0.0000 0.0000
# 4 0.0000 0.0000 0.0000 34.8004 0.0000 0.0000
# 5 0.0000 0.0000 0.0000 0.0000 25.8169 0.0000
# 6 0.0000 0.0000 0.0000 0.0000 0.0000 60.2767
#
#
#
# Elastic Compliance Matrix: (Units=1/GPa)
#
#
# Indices 1 2 3 4 5 6 
#
# 1 0.008343 -0.002773 -0.002369 0.000000 0.000000 0.000000
# 2 -0.002773 0.011997 -0.006012 0.000000 0.000000 0.000000
# 3 -0.002369 -0.006012 0.012611 0.000000 0.000000 0.000000
# 4 0.000000 0.000000 0.000000 0.028735 0.000000 0.000000
# 5 0.000000 0.000000 0.000000 0.000000 0.038734 0.000000
# 6 0.000000 0.000000 0.000000 0.000000 0.000000 0.016590
#
#
# Mechanical properties :
#
#
# Convention : Reuss Voigt Hill
#
# Bulk Modulus (GPa) = 93.97090 94.36792 94.16941
# Shear Modulus (GPa) = 34.99793 38.68678 36.84236
#
# Velocity S-wave (km/s) = 3.70597 3.89639 3.80237
# Velocity P-wave (km/s) = 7.42894 7.56803 7.49881
#
# Compressibility (1/GPa) = 0.01064159
#
# Stress axis : x y z
#
# Youngs Moduli (GPa) = 119.86451 83.35741 79.29693
#
# Poissons Ratio (x) = 0.23118 0.18786
# Poissons Ratio (y) = 0.33243 0.47672
# Poissons Ratio (z) = 0.28397 0.50113
#
# Static dielectric constant tensor:
#      x y z
#    x 2.163400 0.000000 0.000000 
#    y 0.000000 2.084900 0.000000 
#    z 0.000000 0.000000 2.057780 
# 
# From -- ./inp_files/19532.got.cif
#   From: 2010.05.17/outbox.cif.g08.bks.cpg/sg48_10_cif.got.tgz:19532.got - 2010.06.03 20:39:00.
