data_PCOD9391072
_publ_section_title
;
Structure prediction by ZEFSAII (Michael W. Deem and Ramdas Pophale) SiO2 
 PCOD9391072
Probable space group: P N N N
;
_chemical_formula_sum "Si O2"
_cell_formula_units_Z 36
_cell_length_a 6.915126
_cell_length_b 8.888767
_cell_length_c 26.128303
_cell_angle_alpha 90.000000
_cell_angle_beta 90.000000
_cell_angle_gamma 90.000000
_cell_volume 1606.026932
_symmetry_space_group_name_H-M "P N N N"
_symmetry_group_IT_number 48
_space_group.IT_coordinate_system_code '2'
_symmetry_cell_setting 'orthorhombic'
loop_
_space_group_symop_operation_xyz
x,y,z
1/2-x,1/2-y,z
x,1/2-y,1/2-z
1/2-x,y,1/2-z
-x,-y,-z
1/2+x,1/2+y,-z
-x,1/2+y,1/2+z
1/2+x,-y,1/2+z
loop_
_atom_site_type_symbol
_atom_site_label
_atom_site_fract_x
_atom_site_fract_y
_atom_site_fract_z
Si Si1 0.182650 0.912361 0.341372
Si Si2 0.750000 0.750000 0.982217
Si Si3 0.967385 0.180006 0.301898
Si Si4 0.152904 0.402815 0.918244
Si Si5 0.004145 0.385981 0.393372
O O1 0.250000 0.750000 0.322321
O O2 0.055604 0.905811 0.393200
O O3 0.376673 0.995731 0.359239
O O4 0.041612 0.008135 0.303828
O O5 0.898391 0.839905 0.946623
O O6 0.848737 0.632026 0.021312
O O7 0.750000 0.250000 0.301231
O O8 0.049823 0.250000 0.250000
O O9 0.026715 0.240799 0.357333
O O10 0.250000 0.250000 0.896141
O O11 0.293248 0.542062 0.904175
#
# Coordination Sequence:
#
# PCOD9391072 Si02
#       5
#     8   4   8   8   8
#     4  12  23  42  73 101 138 184 236 297 357 431
#     4  10  22  40  65  96 145 194 236 288 358 426
#     4  11  25  47  75 102 140 186 235 305 379 438
#     4  10  23  40  62  98 147 180 232 293 350 429
#     4  12  22  43  67 100 137 188 242 288 355 435
#
# _framework density 22.415562000000001
#
# number of rings (size 3 to 8) (size 9 to 14) (size 15 to 20)
#    0.667    0.222    6.667    0.667    0.000    2.667 
#    0.000    5.556    0.000    4.000    0.000    0.000 
#    0.000    0.000    0.000    0.000    0.000    0.000 
#
# Total GULP energy -200596.573664 kJ/mol
# GULP energy per Si atom -5572.127046 kJ/mol
# Density = 2.236454 g / cm^3
# Si number density = 22.415562 Si / 1000 Ang^3
#
#
#
# Elastic Constant Matrix: (Units=GPa)
#
#
# Indices 1 2 3 4 5 6 
#
# 1 85.5102 39.1955 -0.3703 0.0000 0.0000 0.0000
# 2 39.1955 143.2283 31.7537 0.0000 0.0000 0.0000
# 3 -0.3703 31.7537 93.4605 0.0000 0.0000 0.0000
# 4 0.0000 0.0000 0.0000 27.1995 0.0000 0.0000
# 5 0.0000 0.0000 0.0000 0.0000 82.7769 0.0000
# 6 0.0000 0.0000 0.0000 0.0000 0.0000 42.5524
#
#
#
# Elastic Compliance Matrix: (Units=1/GPa)
#
#
# Indices 1 2 3 4 5 6 
#
# 1 0.013544 -0.004021 0.001420 0.000000 0.000000 0.000000
# 2 -0.004021 0.008744 -0.002987 0.000000 0.000000 0.000000
# 3 0.001420 -0.002987 0.011720 0.000000 0.000000 0.000000
# 4 0.000000 0.000000 0.000000 0.036765 0.000000 0.000000
# 5 0.000000 0.000000 0.000000 0.000000 0.012081 0.000000
# 6 0.000000 0.000000 0.000000 0.000000 0.000000 0.023500
#
#
# Mechanical properties :
#
#
# Convention : Reuss Voigt Hill
#
# Bulk Modulus (GPa) = 43.79803 51.48408 47.64105
# Shear Modulus (GPa) = 39.95459 47.28043 43.61751
#
# Velocity S-wave (km/s) = 4.22649 4.59766 4.41597
# Velocity P-wave (km/s) = 6.58780 7.15559 6.87756
#
# Compressibility (1/GPa) = 0.02283208
#
# Stress axis : x y z
#
# Youngs Moduli (GPa) = 73.83423 114.35784 85.32310
#
# Poissons Ratio (x) = 0.45985 -0.12115
# Poissons Ratio (y) = 0.29690 0.25485
# Poissons Ratio (z) = -0.10484 0.34158
#
# Static dielectric constant tensor:
#      x y z
#    x 1.765660 0.000000 0.000000 
#    y 0.000000 1.884850 0.000000 
#    z 0.000000 0.000000 1.813180 
# 
# From -- ./inp_files/37342.got.cif
#   From: 2010.05.17/outbox.cif.g08.bks.cpg/sg48_19_cif.got.tgz:37342.got - 2010.06.03 20:39:00.
