data_PCOD9391080
_publ_section_title
;
Structure prediction by ZEFSAII (Michael W. Deem and Ramdas Pophale) SiO2 
 PCOD9391080
Probable space group: P N N N
;
_chemical_formula_sum "Si O2"
_cell_formula_units_Z 30
_cell_length_a 15.926430
_cell_length_b 7.158485
_cell_length_c 10.922574
_cell_angle_alpha 90.000000
_cell_angle_beta 90.000000
_cell_angle_gamma 90.000000
_cell_volume 1245.272943
_symmetry_space_group_name_H-M "P N N N"
_symmetry_group_IT_number 48
_space_group.IT_coordinate_system_code '2'
_symmetry_cell_setting 'orthorhombic'
loop_
_space_group_symop_operation_xyz
x,y,z
1/2-x,1/2-y,z
x,1/2-y,1/2-z
1/2-x,y,1/2-z
-x,-y,-z
1/2+x,1/2+y,-z
-x,1/2+y,1/2+z
1/2+x,-y,1/2+z
loop_
_atom_site_type_symbol
_atom_site_label
_atom_site_fract_x
_atom_site_fract_y
_atom_site_fract_z
Si Si1 0.570750 0.034311 0.894155
Si Si2 0.470305 0.750000 0.750000
Si Si3 0.588989 0.095196 0.498358
Si Si4 0.265704 0.978362 0.962311
Si Si5 0.250000 0.250000 0.750000
O O1 0.531429 0.921443 0.783263
O O2 0.584869 0.255642 0.892855
O O3 0.662962 0.975424 0.939596
O O4 0.500000 0.000000 0.000000
O O5 0.413467 0.799119 0.633600
O O6 0.670730 0.966669 0.499617
O O7 0.500000 0.000000 0.500000
O O8 0.250000 0.750000 0.951439
O O9 0.291761 0.098458 0.842529
#
# Coordination Sequence:
#
# PCOD9391080 Si02
#       5
#     8   4   8   8   2
#     4   9  21  42  61  92 134 168 215 273 331 397
#     4  10  22  40  68  94 130 182 214 274 340 396
#     4  10  23  41  66  95 131 170 222 276 332 399
#     4  10  24  42  62  97 134 168 219 286 330 400
#     4  12  26  32  76  96 124 174 234 268 352 388
#
# _framework density 24.091106
#
# number of rings (size 3 to 8) (size 9 to 14) (size 15 to 20)
#    0.000    2.133    0.000    0.400   18.667    1.067 
#    0.000    2.667    0.000    4.800    0.000    0.000 
#    0.000    0.000    0.000    0.000    0.000    0.000 
#
# Total GULP energy -167176.406020 kJ/mol
# GULP energy per Si atom -5572.546867 kJ/mol
# Density = 2.403627 g / cm^3
# Si number density = 24.091106 Si / 1000 Ang^3
#
#
#
# Elastic Constant Matrix: (Units=GPa)
#
#
# Indices 1 2 3 4 5 6 
#
# 1 199.6513 14.7356 25.6416 0.0000 0.0000 0.0000
# 2 14.7356 93.5175 24.4506 0.0000 0.0000 0.0000
# 3 25.6416 24.4506 69.9301 0.0000 0.0000 0.0000
# 4 0.0000 0.0000 0.0000 43.4453 0.0000 0.0000
# 5 0.0000 0.0000 0.0000 0.0000 19.6066 0.0000
# 6 0.0000 0.0000 0.0000 0.0000 0.0000 25.8334
#
#
#
# Elastic Compliance Matrix: (Units=1/GPa)
#
#
# Indices 1 2 3 4 5 6 
#
# 1 0.005267 -0.000358 -0.001806 0.000000 0.000000 0.000000
# 2 -0.000358 0.011793 -0.003992 0.000000 0.000000 0.000000
# 3 -0.001806 -0.003992 0.016358 0.000000 0.000000 0.000000
# 4 0.000000 0.000000 0.000000 0.023017 0.000000 0.000000
# 5 0.000000 0.000000 0.000000 0.000000 0.051003 0.000000
# 6 0.000000 0.000000 0.000000 0.000000 0.000000 0.038710
#
#
# Mechanical properties :
#
#
# Convention : Reuss Voigt Hill
#
# Bulk Modulus (GPa) = 47.37956 54.75050 51.06503
# Shear Modulus (GPa) = 30.21207 37.66181 33.93694
#
# Velocity S-wave (km/s) = 3.54513 3.95816 3.75733
# Velocity P-wave (km/s) = 6.03878 6.60796 6.32977
#
# Compressibility (1/GPa) = 0.02110615
#
# Stress axis : x y z
#
# Youngs Moduli (GPa) = 189.85739 84.79355 61.13154
#
# Poissons Ratio (x) = 0.03033 0.11042
# Poissons Ratio (y) = 0.06791 0.24406
# Poissons Ratio (z) = 0.34293 0.33852
#
# Static dielectric constant tensor:
#      x y z
#    x 1.981930 0.000000 0.000000 
#    y 0.000000 2.130270 0.000000 
#    z 0.000000 0.000000 1.968330 
# 
# From -- ./inp_files/10181.got.cif
#   From: 2010.05.17/outbox.cif.g08.bks.cpg/sg48_6_cif.got.tgz:10181.got - 2010.06.03 20:39:00.
