data_PCOD9391315
_publ_section_title
;
Structure prediction by ZEFSAII (Michael W. Deem and Ramdas Pophale) SiO2 
 PCOD9391315
Probable space group: P N N N
;
_chemical_formula_sum "Si O2"
_cell_formula_units_Z 58
_cell_length_a 11.258274
_cell_length_b 23.086704
_cell_length_c 10.148480
_cell_angle_alpha 90.000000
_cell_angle_beta 90.000000
_cell_angle_gamma 90.000000
_cell_volume 2637.756787
_symmetry_space_group_name_H-M "P N N N"
_symmetry_group_IT_number 48
_space_group.IT_coordinate_system_code '2'
_symmetry_cell_setting 'orthorhombic'
loop_
_space_group_symop_operation_xyz
x,y,z
1/2-x,1/2-y,z
x,1/2-y,1/2-z
1/2-x,y,1/2-z
-x,-y,-z
1/2+x,1/2+y,-z
-x,1/2+y,1/2+z
1/2+x,-y,1/2+z
loop_
_atom_site_type_symbol
_atom_site_label
_atom_site_fract_x
_atom_site_fract_y
_atom_site_fract_z
Si Si1 0.945182 0.421482 0.233126
Si Si2 0.737402 0.875882 0.404031
Si Si3 0.385328 0.024425 0.423732
Si Si4 0.750000 0.750000 0.750000
Si Si5 0.037582 0.219126 0.892117
Si Si6 0.254555 0.928236 0.961148
Si Si7 0.217058 0.685732 0.402784
Si Si8 0.569066 0.823258 0.921516
O O1 0.868678 0.451376 0.117783
O O2 0.851598 0.418275 0.354208
O O3 0.063009 0.453119 0.285782
O O4 0.985590 0.359867 0.174680
O O5 0.750000 0.892166 0.250000
O O6 0.669497 0.923568 0.490314
O O7 0.658444 0.816911 0.408464
O O8 0.863855 0.863793 0.472071
O O9 0.500000 0.000000 0.500000
O O10 0.291146 0.972609 0.429241
O O11 0.669333 0.792418 0.834965
O O12 0.036647 0.250000 0.750000
O O13 0.924955 0.177277 0.908046
O O14 0.017108 0.269943 0.996695
O O15 0.280535 0.865950 0.022635
O O16 0.250000 0.750000 0.451619
O O17 0.250000 0.684266 0.250000
#
# Coordination Sequence:
#
# PCOD9391315 Si02
#       8
#     8   8   8   2   8   8   8   8
#     4  10  23  44  69 100 138 178 234 288 346 424
#     4  12  25  41  70  98 131 181 238 284 351 418
#     4  10  23  45  70  96 134 183 232 293 348 415
#     4  12  24  36  66  90 140 184 216 270 358 402
#     4  12  22  41  65  98 135 178 229 287 347 419
#     4  10  23  46  73  98 136 188 232 285 356 424
#     4  11  23  42  66 100 137 175 225 287 345 414
#     4  12  25  42  65 101 142 178 224 292 344 416
#
# _framework density 21.988381
#
# number of rings (size 3 to 8) (size 9 to 14) (size 15 to 20)
#    0.000    0.966    4.138    3.310    5.793    0.000 
#    2.483    1.379    0.000    0.000    0.000    0.000 
#    0.000    0.000    0.000    0.000    0.000    0.000 
#
# Total GULP energy -324225.988295 kJ/mol
# GULP energy per Si atom -5590.103246 kJ/mol
# Density = 2.193833 g / cm^3
# Si number density = 21.988381 Si / 1000 Ang^3
#
#
#
# Elastic Constant Matrix: (Units=GPa)
#
#
# Indices 1 2 3 4 5 6 
#
# 1 68.6350 24.6499 33.2150 0.0000 0.0000 0.0000
# 2 24.6499 89.8302 42.7548 0.0000 0.0000 0.0000
# 3 33.2150 42.7548 84.8267 0.0000 0.0000 0.0000
# 4 0.0000 0.0000 0.0000 25.0538 0.0000 0.0000
# 5 0.0000 0.0000 0.0000 0.0000 18.8047 0.0000
# 6 0.0000 0.0000 0.0000 0.0000 0.0000 33.9108
#
#
#
# Elastic Compliance Matrix: (Units=1/GPa)
#
#
# Indices 1 2 3 4 5 6 
#
# 1 0.018277 -0.002117 -0.006090 0.000000 0.000000 0.000000
# 2 -0.002117 0.014891 -0.006676 0.000000 0.000000 0.000000
# 3 -0.006090 -0.006676 0.017538 0.000000 0.000000 0.000000
# 4 0.000000 0.000000 0.000000 0.039914 0.000000 0.000000
# 5 0.000000 0.000000 0.000000 0.000000 0.053178 0.000000
# 6 0.000000 0.000000 0.000000 0.000000 0.000000 0.029489
#
#
# Mechanical properties :
#
#
# Convention : Reuss Voigt Hill
#
# Bulk Modulus (GPa) = 47.75516 49.39235 48.57376
# Shear Modulus (GPa) = 23.80573 25.06533 24.43553
#
# Velocity S-wave (km/s) = 3.29393 3.37996 3.33722
# Velocity P-wave (km/s) = 6.01932 6.14360 6.08178
#
# Compressibility (1/GPa) = 0.02094014
#
# Stress axis : x y z
#
# Youngs Moduli (GPa) = 54.71314 67.15634 57.01815
#
# Poissons Ratio (x) = 0.14217 0.34722
# Poissons Ratio (y) = 0.11583 0.38067
# Poissons Ratio (z) = 0.33318 0.44836
#
# Static dielectric constant tensor:
#      x y z
#    x 1.810390 0.000000 0.000000 
#    y 0.000000 1.779580 0.000000 
#    z 0.000000 0.000000 1.801780 
# 
# From -- ./inp_files/11475.got.cif
#   From: 2010.05.17/outbox.cif.g08.bks.cpg/sg48_6_cif.got.tgz:11475.got - 2010.06.03 20:39:00.
