data_PCOD9391453
_publ_section_title
;
Structure prediction by ZEFSAII (Michael W. Deem and Ramdas Pophale) SiO2 
 PCOD9391453
Probable space group: P N N N
;
_chemical_formula_sum "Si O2"
_cell_formula_units_Z 32
_cell_length_a 9.028643
_cell_length_b 14.261680
_cell_length_c 11.480589
_cell_angle_alpha 90.000000
_cell_angle_beta 90.000000
_cell_angle_gamma 90.000000
_cell_volume 1478.282168
_symmetry_space_group_name_H-M "P N N N"
_symmetry_group_IT_number 48
_space_group.IT_coordinate_system_code '2'
_symmetry_cell_setting 'orthorhombic'
loop_
_space_group_symop_operation_xyz
x,y,z
1/2-x,1/2-y,z
x,1/2-y,1/2-z
1/2-x,y,1/2-z
-x,-y,-z
1/2+x,1/2+y,-z
-x,1/2+y,1/2+z
1/2+x,-y,1/2+z
loop_
_atom_site_type_symbol
_atom_site_label
_atom_site_fract_x
_atom_site_fract_y
_atom_site_fract_z
Si Si1 0.906909 0.791039 0.489921
Si Si2 0.858310 0.164873 0.068960
Si Si3 0.162218 0.012351 0.628102
Si Si4 0.417855 0.387262 0.274021
O O1 0.750000 0.750000 0.455803
O O2 0.888449 0.893776 0.435893
O O3 0.911171 0.806095 0.629501
O O4 0.043389 0.718236 0.468701
O O5 0.750000 0.250000 0.109450
O O6 0.980719 0.133680 0.162692
O O7 0.756795 0.069826 0.058682
O O8 0.250000 0.030725 0.750000
O O9 0.007848 0.967642 0.663420
O O10 0.250000 0.413023 0.250000
#
# Coordination Sequence:
#
# PCOD9391453 Si02
#       4
#     8   8   8   8
#     4  12  24  39  67  95 130 170 219 272 328 395
#     4  11  23  38  66  97 135 170 212 274 342 380
#     4  10  25  44  64  93 134 174 221 273 328 397
#     4  11  22  39  65 101 126 160 216 277 326 385
#
# _framework density 21.646744000000002
#
# number of rings (size 3 to 8) (size 9 to 14) (size 15 to 20)
#    0.000    1.000    5.000    1.500    7.000    1.500 
#    0.000    0.000    0.000    0.000    0.000    0.000 
#    0.000    0.000    0.000    0.000    0.000    0.000 
#
# Total GULP energy -178135.336351 kJ/mol
# GULP energy per Si atom -5566.729261 kJ/mol
# Density = 2.159748 g / cm^3
# Si number density = 21.646744 Si / 1000 Ang^3
#
#
#
# Elastic Constant Matrix: (Units=GPa)
#
#
# Indices 1 2 3 4 5 6 
#
# 1 180.4278 67.2364 24.3133 0.0000 0.0000 0.0000
# 2 67.2364 154.7145 37.2685 0.0000 0.0000 0.0000
# 3 24.3133 37.2685 22.1881 0.0000 0.0000 0.0000
# 4 0.0000 0.0000 0.0000 77.4332 0.0000 0.0000
# 5 0.0000 0.0000 0.0000 0.0000 10.5191 0.0000
# 6 0.0000 0.0000 0.0000 0.0000 0.0000 13.1995
#
#
#
# Elastic Compliance Matrix: (Units=1/GPa)
#
#
# Indices 1 2 3 4 5 6 
#
# 1 0.006839 -0.001960 -0.004202 0.000000 0.000000 0.000000
# 2 -0.001960 0.011418 -0.017030 0.000000 0.000000 0.000000
# 3 -0.004202 -0.017030 0.078278 0.000000 0.000000 0.000000
# 4 0.000000 0.000000 0.000000 0.012914 0.000000 0.000000
# 5 0.000000 0.000000 0.000000 0.000000 0.095065 0.000000
# 6 0.000000 0.000000 0.000000 0.000000 0.000000 0.075760
#
#
# Mechanical properties :
#
#
# Convention : Reuss Voigt Hill
#
# Bulk Modulus (GPa) = 19.93980 68.32962 44.13471
# Shear Modulus (GPa) = 14.56134 35.46452 25.01293
#
# Velocity S-wave (km/s) = 2.59642 4.05202 3.40296
# Velocity P-wave (km/s) = 4.26849 7.31616 5.98941
#
# Compressibility (1/GPa) = 0.05015095
#
# Stress axis : x y z
#
# Youngs Moduli (GPa) = 146.22064 87.58463 12.77494
#
# Poissons Ratio (x) = 0.17166 0.05368
# Poissons Ratio (y) = 0.28658 0.21756
# Poissons Ratio (z) = 0.61443 1.49156
#
# Static dielectric constant tensor:
#      x y z
#    x 1.706760 0.000000 0.000000 
#    y 0.000000 1.839610 0.000000 
#    z 0.000000 0.000000 1.856590 
# 
# From -- ./inp_files/10113.got.cif
#   From: 2010.05.17/outbox.cif.g08.bks.cpg/sg48_6_cif.got.tgz:10113.got - 2010.06.03 20:39:00.
