data_PCOD9391292
_publ_section_title
;
Structure prediction by ZEFSAII (Michael W. Deem and Ramdas Pophale) SiO2 
 PCOD9391292
Probable space group: P N N N
;
_chemical_formula_sum "Si O2"
_cell_formula_units_Z 38
_cell_length_a 9.921655
_cell_length_b 9.155120
_cell_length_c 16.497045
_cell_angle_alpha 90.000000
_cell_angle_beta 90.000000
_cell_angle_gamma 90.000000
_cell_volume 1498.491631
_symmetry_space_group_name_H-M "P N N N"
_symmetry_group_IT_number 48
_space_group.IT_coordinate_system_code '2'
_symmetry_cell_setting 'orthorhombic'
loop_
_space_group_symop_operation_xyz
x,y,z
1/2-x,1/2-y,z
x,1/2-y,1/2-z
1/2-x,y,1/2-z
-x,-y,-z
1/2+x,1/2+y,-z
-x,1/2+y,1/2+z
1/2+x,-y,1/2+z
loop_
_atom_site_type_symbol
_atom_site_label
_atom_site_fract_x
_atom_site_fract_y
_atom_site_fract_z
Si Si1 0.900071 0.496149 0.870559
Si Si2 0.750000 0.250000 0.543627
Si Si3 0.898492 0.767613 0.133998
Si Si4 0.002497 0.054640 0.199649
Si Si5 0.462741 0.215551 0.461096
Si Si6 0.250000 0.750000 0.750000
O O1 0.782381 0.386841 0.897856
O O2 0.028666 0.387292 0.872917
O O3 0.909578 0.567973 0.781310
O O4 0.916130 0.623636 0.935352
O O5 0.619844 0.222761 0.487625
O O6 0.750000 0.750000 0.164522
O O7 0.977940 0.883442 0.187117
O O8 0.891009 0.834252 0.043096
O O9 0.063042 0.118738 0.117417
O O10 0.858501 0.140192 0.208117
#
# Coordination Sequence:
#
# PCOD9391292 Si02
#       6
#     8   4   8   8   8   2
#     4  11  24  47  73 106 148 190 245 309 371 448
#     4  10  23  42  76 103 144 198 236 296 376 450
#     4  11  25  42  71 103 147 186 245 306 375 443
#     4  12  24  42  69 110 143 192 248 313 367 441
#     4  11  24  45  74 104 146 194 249 302 371 452
#     4  12  22  40  74 102 150 188 244 316 378 418
#
# _framework density 25.358833000000001
#
# number of rings (size 3 to 8) (size 9 to 14) (size 15 to 20)
#    0.000    0.842    2.105    5.684    5.895    0.842 
#    0.000    8.421    0.000    1.263    0.000    0.000 
#    0.000    0.000    0.000    0.000    0.000    0.000 
#
# Total GULP energy -212929.091703 kJ/mol
# GULP energy per Si atom -5603.397150 kJ/mol
# Density = 2.530112 g / cm^3
# Si number density = 25.358833 Si / 1000 Ang^3
#
#
#
# Elastic Constant Matrix: (Units=GPa)
#
#
# Indices 1 2 3 4 5 6 
#
# 1 94.6860 31.8749 25.2573 0.0000 0.0000 0.0000
# 2 31.8749 114.2343 27.4680 0.0000 0.0000 0.0000
# 3 25.2573 27.4680 199.4726 0.0000 0.0000 0.0000
# 4 0.0000 0.0000 0.0000 51.5123 0.0000 0.0000
# 5 0.0000 0.0000 0.0000 0.0000 -1.8266 0.0000
# 6 0.0000 0.0000 0.0000 0.0000 0.0000 42.5305
#
#
#
# Elastic Compliance Matrix: (Units=1/GPa)
#
#
# Indices 1 2 3 4 5 6 
#
# 1 0.011878 -0.003054 -0.001084 0.000000 0.000000 0.000000
# 2 -0.003054 0.009839 -0.000968 0.000000 0.000000 0.000000
# 3 -0.001084 -0.000968 0.005284 0.000000 0.000000 0.000000
# 4 0.000000 0.000000 0.000000 0.019413 0.000000 0.000000
# 5 0.000000 0.000000 0.000000 0.000000 -0.547479 0.000000
# 6 0.000000 0.000000 0.000000 0.000000 0.000000 0.023513
#
#
# Mechanical properties :
#
#
# Convention : Reuss Voigt Hill
#
# Bulk Modulus (GPa) = 59.55993 64.17702 61.86847
# Shear Modulus (GPa) = -10.82848 40.02943 14.60047
#
# Velocity S-wave (km/s) = -2.06866 3.97737 2.40209
# Velocity P-wave (km/s) = 4.22280 6.81580 5.66953
#
# Compressibility (1/GPa) = 0.01678981
#
# Stress axis : x y z
#
# Youngs Moduli (GPa) = 84.18713 101.63781 189.26016
#
# Poissons Ratio (x) = 0.31039 0.20506
# Poissons Ratio (y) = 0.25710 0.18323
# Poissons Ratio (z) = 0.09122 0.09840
#
# Static dielectric constant tensor:
#      x y z
#    x 2.056680 0.000000 0.000000 
#    y 0.000000 1.989500 0.000000 
#    z 0.000000 0.000000 2.014280 
# 
# From -- ./inp_files/10754.got.cif
#   From: 2010.05.17/outbox.cif.g08.bks.cpg/sg48_6_cif.got.tgz:10754.got - 2010.06.03 20:39:00.
