data_PCOD9391054
_publ_section_title
;
Structure prediction by ZEFSAII (Michael W. Deem and Ramdas Pophale) SiO2 
 PCOD9391054
Probable space group: P N N N
;
_chemical_formula_sum "Si O2"
_cell_formula_units_Z 38
_cell_length_a 17.560363
_cell_length_b 6.369134
_cell_length_c 16.933632
_cell_angle_alpha 90.000000
_cell_angle_beta 90.000000
_cell_angle_gamma 90.000000
_cell_volume 1893.930303
_symmetry_space_group_name_H-M "P N N N"
_symmetry_group_IT_number 48
_space_group.IT_coordinate_system_code '2'
_symmetry_cell_setting 'orthorhombic'
loop_
_space_group_symop_operation_xyz
x,y,z
1/2-x,1/2-y,z
x,1/2-y,1/2-z
1/2-x,y,1/2-z
-x,-y,-z
1/2+x,1/2+y,-z
-x,1/2+y,1/2+z
1/2+x,-y,1/2+z
loop_
_atom_site_type_symbol
_atom_site_label
_atom_site_fract_x
_atom_site_fract_y
_atom_site_fract_z
Si Si1 0.405312 0.921999 0.549134
Si Si2 0.994164 0.688334 0.063405
Si Si3 0.250000 0.750000 0.991352
Si Si4 0.978375 0.671840 0.839031
Si Si5 0.310050 0.064982 0.123592
Si Si6 0.750000 0.250000 0.750000
O O1 0.436884 0.840694 0.463645
O O2 0.319220 0.850092 0.556932
O O3 0.461251 0.813640 0.612978
O O4 0.420031 0.169092 0.554822
O O5 0.998172 0.571501 0.146566
O O6 0.000000 0.500000 0.000000
O O7 0.212981 0.568736 0.046475
O O8 0.975491 0.750000 0.750000
O O9 0.893239 0.668167 0.874892
O O10 0.250000 0.250000 0.134469
O O11 0.301151 0.899533 0.195107
#
# Coordination Sequence:
#
# PCOD9391054 Si02
#       6
#     8   8   4   8   8   2
#     4  10  22  40  64  91 127 170 225 272 322 399
#     4   9  20  38  61  90 123 164 214 267 317 382
#     4  11  24  39  65  96 123 176 222 280 333 394
#     4  11  23  39  61  92 127 174 217 271 341 397
#     4  11  24  37  60  90 132 171 212 270 337 406
#     4  10  22  40  48  86 126 172 214 248 330 418
#
# _framework density 20.064098000000001
#
# number of rings (size 3 to 8) (size 9 to 14) (size 15 to 20)
#    0.000    1.684    2.105    1.579    8.842    2.526 
#    0.000    0.526    0.000    0.000    0.000    8.842 
#    0.000    0.000    0.000    0.000    0.000    0.000 
#
# Total GULP energy -212120.997343 kJ/mol
# GULP energy per Si atom -5582.131509 kJ/mol
# Density = 2.001843 g / cm^3
# Si number density = 20.064098 Si / 1000 Ang^3
#
#
#
# Elastic Constant Matrix: (Units=GPa)
#
#
# Indices 1 2 3 4 5 6 
#
# 1 176.2701 68.3373 57.7839 0.0000 0.0000 0.0000
# 2 68.3373 130.8998 47.6194 0.0000 0.0000 0.0000
# 3 57.7839 47.6194 77.7210 0.0000 0.0000 0.0000
# 4 0.0000 0.0000 0.0000 35.3050 0.0000 0.0000
# 5 0.0000 0.0000 0.0000 0.0000 15.7465 0.0000
# 6 0.0000 0.0000 0.0000 0.0000 0.0000 28.4263
#
#
#
# Elastic Compliance Matrix: (Units=1/GPa)
#
#
# Indices 1 2 3 4 5 6 
#
# 1 0.008153 -0.002640 -0.004445 0.000000 0.000000 0.000000
# 2 -0.002640 0.010685 -0.004584 0.000000 0.000000 0.000000
# 3 -0.004445 -0.004584 0.018980 0.000000 0.000000 0.000000
# 4 0.000000 0.000000 0.000000 0.028325 0.000000 0.000000
# 5 0.000000 0.000000 0.000000 0.000000 0.063506 0.000000
# 6 0.000000 0.000000 0.000000 0.000000 0.000000 0.035179
#
#
# Mechanical properties :
#
#
# Convention : Reuss Voigt Hill
#
# Bulk Modulus (GPa) = 69.05431 81.37469 75.21450
# Shear Modulus (GPa) = 25.90782 29.97225 27.94003
#
# Velocity S-wave (km/s) = 3.59730 3.86920 3.73572
# Velocity P-wave (km/s) = 7.19344 7.78501 7.49506
#
# Compressibility (1/GPa) = 0.01448136
#
# Stress axis : x y z
#
# Youngs Moduli (GPa) = 122.64678 93.58752 52.68779
#
# Poissons Ratio (x) = 0.24704 0.23418
# Poissons Ratio (y) = 0.32375 0.24153
# Poissons Ratio (z) = 0.54512 0.42902
#
# Static dielectric constant tensor:
#      x y z
#    x 1.738890 0.000000 0.000000 
#    y 0.000000 1.759550 0.000000 
#    z 0.000000 0.000000 1.751620 
# 
# From -- ./inp_files/31843.got.cif
#   From: 2010.05.17/outbox.cif.g08.bks.cpg/sg48_16_cif.got.tgz:31843.got - 2010.06.03 20:39:00.
