data_PCOD9391152
_publ_section_title
;
Structure prediction by ZEFSAII (Michael W. Deem and Ramdas Pophale) SiO2 
 PCOD9391152
Probable space group: P N N N
;
_chemical_formula_sum "Si O2"
_cell_formula_units_Z 28
_cell_length_a 13.958095
_cell_length_b 5.404940
_cell_length_c 15.291632
_cell_angle_alpha 90.000000
_cell_angle_beta 90.000000
_cell_angle_gamma 90.000000
_cell_volume 1153.641485
_symmetry_space_group_name_H-M "P N N N"
_symmetry_group_IT_number 48
_space_group.IT_coordinate_system_code '2'
_symmetry_cell_setting 'orthorhombic'
loop_
_space_group_symop_operation_xyz
x,y,z
1/2-x,1/2-y,z
x,1/2-y,1/2-z
1/2-x,y,1/2-z
-x,-y,-z
1/2+x,1/2+y,-z
-x,1/2+y,1/2+z
1/2+x,-y,1/2+z
loop_
_atom_site_type_symbol
_atom_site_label
_atom_site_fract_x
_atom_site_fract_y
_atom_site_fract_z
Si Si1 0.894339 0.006803 0.799989
Si Si2 0.143925 0.017192 0.577764
Si Si3 0.916751 0.750000 0.250000
Si Si4 0.860282 0.011333 0.003881
O O1 0.872467 0.750000 0.750000
O O2 0.855961 0.250000 0.750000
O O3 0.009006 0.058054 0.795112
O O4 0.860440 0.018235 0.899495
O O5 0.099555 0.756585 0.550008
O O6 0.251741 0.002796 0.540893
O O7 0.141435 0.092440 0.679260
O O8 0.094486 0.251544 0.532006
#
# Coordination Sequence:
#
# PCOD9391152 Si02
#       4
#     8   8   4   8
#     4  10  23  42  66  98 134 175 222 279 341 403
#     4  10  23  41  66  94 132 173 225 279 335 405
#     4  10  26  41  68  99 138 174 224 282 346 391
#     4  10  22  43  65  98 129 178 224 277 337 408
#
# _framework density 24.270972
#
# number of rings (size 3 to 8) (size 9 to 14) (size 15 to 20)
#    0.857    1.143    0.000    1.714    4.000    4.571 
#    0.000   22.857    0.000    0.000    0.000    0.000 
#    0.000    0.000    0.000    0.000    0.000    0.000 
#
# Total GULP energy -156364.051612 kJ/mol
# GULP energy per Si atom -5584.430415 kJ/mol
# Density = 2.421573 g / cm^3
# Si number density = 24.270972 Si / 1000 Ang^3
#
#
#
# Elastic Constant Matrix: (Units=GPa)
#
#
# Indices 1 2 3 4 5 6 
#
# 1 95.7848 15.6651 72.7760 0.0000 0.0000 0.0000
# 2 15.6651 279.0145 101.3887 0.0000 0.0000 0.0000
# 3 72.7760 101.3887 240.7324 0.0000 0.0000 0.0000
# 4 0.0000 0.0000 0.0000 39.1945 0.0000 0.0000
# 5 0.0000 0.0000 0.0000 0.0000 -260.6564 0.0000
# 6 0.0000 0.0000 0.0000 0.0000 0.0000 -72.1471
#
#
#
# Elastic Compliance Matrix: (Units=1/GPa)
#
#
# Indices 1 2 3 4 5 6 
#
# 1 0.013730 0.000871 -0.004517 0.000000 0.000000 0.000000
# 2 0.000871 0.004287 -0.002069 0.000000 0.000000 0.000000
# 3 -0.004517 -0.002069 0.006391 0.000000 0.000000 0.000000
# 4 0.000000 0.000000 0.000000 0.025514 0.000000 0.000000
# 5 0.000000 0.000000 0.000000 0.000000 -0.003836 0.000000
# 6 0.000000 0.000000 0.000000 0.000000 0.000000 -0.013861
#
#
# Mechanical properties :
#
#
# Convention : Reuss Voigt Hill
#
# Bulk Modulus (GPa) = 77.06018 110.57681 93.81849
# Shear Modulus (GPa) = 104.20794 -30.34165 36.93315
#
# Velocity S-wave (km/s) = 6.55961 -3.53954 3.90513
# Velocity P-wave (km/s) = 9.44405 5.38087 7.68583
#
# Compressibility (1/GPa) = 0.01297687
#
# Stress axis : x y z
#
# Youngs Moduli (GPa) = 72.83352 233.26918 156.47180
#
# Poissons Ratio (x) = -0.20310 0.70685
# Poissons Ratio (y) = -0.06341 0.32370
# Poissons Ratio (z) = 0.32902 0.48257
#
# Static dielectric constant tensor:
#      x y z
#    x 1.851330 0.000000 0.000000 
#    y 0.000000 2.013330 0.000000 
#    z 0.000000 0.000000 1.928750 
# 
# From -- ./inp_files/27542.got.cif
#   From: 2010.05.17/outbox.cif.g08.bks.cpg/sg48_14_cif.got.tgz:27542.got - 2010.06.03 20:39:00.
