data_PCOD9391700
_publ_section_title
;
Structure prediction by ZEFSAII (Michael W. Deem and Ramdas Pophale) SiO2 
 PCOD9391700
Probable space group: P N N N
;
_chemical_formula_sum "Si O2"
_cell_formula_units_Z 64
_cell_length_a 7.772759
_cell_length_b 12.045154
_cell_length_c 30.851314
_cell_angle_alpha 90.000000
_cell_angle_beta 90.000000
_cell_angle_gamma 90.000000
_cell_volume 2888.425864
_symmetry_space_group_name_H-M "P N N N"
_symmetry_group_IT_number 48
_space_group.IT_coordinate_system_code '2'
_symmetry_cell_setting 'orthorhombic'
loop_
_space_group_symop_operation_xyz
x,y,z
1/2-x,1/2-y,z
x,1/2-y,1/2-z
1/2-x,y,1/2-z
-x,-y,-z
1/2+x,1/2+y,-z
-x,1/2+y,1/2+z
1/2+x,-y,1/2+z
loop_
_atom_site_type_symbol
_atom_site_label
_atom_site_fract_x
_atom_site_fract_y
_atom_site_fract_z
Si Si1 0.760085 0.375761 0.839972
Si Si2 0.522949 0.026329 0.949941
Si Si3 0.944423 0.776288 0.934407
Si Si4 0.098012 0.518001 0.420842
Si Si5 0.455600 0.265496 0.968096
Si Si6 0.035719 0.129979 0.773978
Si Si7 0.868708 0.539513 0.186970
Si Si8 0.353381 0.865743 0.885055
O O1 0.750000 0.250000 0.855809
O O2 0.649248 0.448649 0.872639
O O3 0.650018 0.377827 0.795741
O O4 0.959807 0.410209 0.835935
O O5 0.717733 0.991539 0.941544
O O6 0.522557 0.158225 0.942493
O O7 0.379626 0.962673 0.921319
O O8 0.500000 0.000000 0.000000
O O9 0.750000 0.750000 0.945909
O O10 0.965065 0.694937 0.893190
O O11 0.996902 0.900925 0.921957
O O12 0.026749 0.757194 0.982351
O O13 0.008788 0.618091 0.446612
O O14 0.250000 0.250000 0.966421
O O15 0.049477 0.250000 0.750000
O O16 0.192501 0.111814 0.808345
O O17 0.067147 0.037571 0.736907
O O18 0.826181 0.427881 0.160186
O O19 0.250000 0.750000 0.893329
#
# Coordination Sequence:
#
# PCOD9391700 Si02
#       8
#     8   8   8   8   8   8   8   8
#     4  12  24  42  74 114 150 190 238 302 384 452
#     4  12  23  44  68 100 141 193 250 305 371 433
#     4  11  22  47  66  95 140 198 250 303 364 440
#     4  12  26  44  68 103 148 189 246 316 366 445
#     4  11  25  40  66 103 141 190 248 313 376 435
#     4  11  25  44  79 113 151 192 229 308 385 460
#     4  11  24  47  69 111 146 186 246 296 372 459
#     4  12  28  45  72 101 140 197 246 306 372 452
#
# _framework density 22.157399000000002
#
# number of rings (size 3 to 8) (size 9 to 14) (size 15 to 20)
#    0.000    0.500    5.000    3.375    5.250    0.000 
#    0.000    1.250    0.000    0.000    6.500    0.000 
#    0.000    0.000    0.000    0.000    0.000    0.000 
#
# Total GULP energy -356650.829142 kJ/mol
# GULP energy per Si atom -5572.669205 kJ/mol
# Density = 2.210697 g / cm^3
# Si number density = 22.157399 Si / 1000 Ang^3
#
#
#
# Elastic Constant Matrix: (Units=GPa)
#
#
# Indices 1 2 3 4 5 6 
#
# 1 62.8811 14.1771 17.2849 0.0000 0.0000 0.0000
# 2 14.1771 159.4088 50.2993 0.0000 0.0000 0.0000
# 3 17.2849 50.2993 107.6367 0.0000 0.0000 0.0000
# 4 0.0000 0.0000 0.0000 76.6106 0.0000 0.0000
# 5 0.0000 0.0000 0.0000 0.0000 42.6368 0.0000
# 6 0.0000 0.0000 0.0000 0.0000 0.0000 30.9395
#
#
#
# Elastic Compliance Matrix: (Units=1/GPa)
#
#
# Indices 1 2 3 4 5 6 
#
# 1 0.016714 -0.000750 -0.002333 0.000000 0.000000 0.000000
# 2 -0.000750 0.007392 -0.003334 0.000000 0.000000 0.000000
# 3 -0.002333 -0.003334 0.011223 0.000000 0.000000 0.000000
# 4 0.000000 0.000000 0.000000 0.013053 0.000000 0.000000
# 5 0.000000 0.000000 0.000000 0.000000 0.023454 0.000000
# 6 0.000000 0.000000 0.000000 0.000000 0.000000 0.032321
#
#
# Mechanical properties :
#
#
# Convention : Reuss Voigt Hill
#
# Bulk Modulus (GPa) = 44.45664 54.82770 49.64217
# Shear Modulus (GPa) = 40.16411 46.58172 43.37292
#
# Velocity S-wave (km/s) = 4.26217 4.59007 4.42915
# Velocity P-wave (km/s) = 6.65800 7.27255 6.97205
#
# Compressibility (1/GPa) = 0.02249383
#
# Stress axis : x y z
#
# Youngs Moduli (GPa) = 59.83159 135.28463 89.10181
#
# Poissons Ratio (x) = 0.10148 0.20791
# Poissons Ratio (y) = 0.04488 0.29705
# Poissons Ratio (z) = 0.13961 0.45101
#
# Static dielectric constant tensor:
#      x y z
#    x 1.974890 0.000000 0.000000 
#    y 0.000000 1.865670 0.000000 
#    z 0.000000 0.000000 1.898320 
# 
# From -- ./inp_files/38827.got.cif
#   From: 2010.05.17/outbox.cif.g08.bks.cpg/sg48_20_cif.got.tgz:38827.got - 2010.06.03 20:39:00.
