data_PCOD9391378
_publ_section_title
;
Structure prediction by ZEFSAII (Michael W. Deem and Ramdas Pophale) SiO2 
 PCOD9391378
Probable space group: P N N N
;
_chemical_formula_sum "Si O2"
_cell_formula_units_Z 64
_cell_length_a 8.354489
_cell_length_b 14.089462
_cell_length_c 25.505578
_cell_angle_alpha 90.000000
_cell_angle_beta 90.000000
_cell_angle_gamma 90.000000
_cell_volume 3002.268098
_symmetry_space_group_name_H-M "P N N N"
_symmetry_group_IT_number 48
_space_group.IT_coordinate_system_code '2'
_symmetry_cell_setting 'orthorhombic'
loop_
_space_group_symop_operation_xyz
x,y,z
1/2-x,1/2-y,z
x,1/2-y,1/2-z
1/2-x,y,1/2-z
-x,-y,-z
1/2+x,1/2+y,-z
-x,1/2+y,1/2+z
1/2+x,-y,1/2+z
loop_
_atom_site_type_symbol
_atom_site_label
_atom_site_fract_x
_atom_site_fract_y
_atom_site_fract_z
Si Si1 0.579331 0.504166 0.220910
Si Si2 0.439942 0.855237 0.891793
Si Si3 0.115210 0.480132 0.451970
Si Si4 0.931446 0.469294 0.828754
Si Si5 0.071848 0.857614 0.867634
Si Si6 0.896591 0.375186 0.638753
Si Si7 0.369640 0.159015 0.006035
Si Si8 0.916581 0.693699 0.114135
O O1 0.750000 0.512942 0.250000
O O2 0.455991 0.507115 0.268535
O O3 0.562976 0.407578 0.188377
O O4 0.534655 0.582348 0.176930
O O5 0.252300 0.878367 0.887602
O O6 0.459261 0.753838 0.863755
O O7 0.490219 0.836583 0.951566
O O8 0.546298 0.936757 0.864396
O O9 0.116129 0.575894 0.418195
O O10 0.272934 0.435481 0.477734
O O11 0.000000 0.500000 0.500000
O O12 0.047351 0.404278 0.409786
O O13 0.766988 0.412588 0.835904
O O14 0.067925 0.396939 0.848915
O O15 0.942635 0.266762 0.629260
O O16 0.250000 0.250000 0.011568
O O17 0.427524 0.159952 0.946186
O O18 0.750000 0.750000 0.119178
#
# Coordination Sequence:
#
# PCOD9391378 Si02
#       8
#     8   8   8   8   8   8   8   8
#     4  11  23  45  74  99 135 182 235 290 354 423
#     4  11  23  42  66 102 139 184 226 286 349 424
#     4  11  22  38  69  94 136 187 225 282 346 413
#     4  12  25  45  70 100 140 183 236 294 356 418
#     4  10  24  42  66 102 141 176 235 286 348 425
#     4  11  25  45  67 105 141 179 234 298 348 414
#     4  11  22  42  66  99 141 184 230 280 350 422
#     4  11  26  45  69 101 140 187 241 290 344 423
#
# _framework density 21.317219000000001
#
# number of rings (size 3 to 8) (size 9 to 14) (size 15 to 20)
#    0.000    1.000    3.750    3.000    3.500    2.500 
#    2.250    2.500    0.000    1.500    0.000    0.000 
#    0.000    0.000    0.000    0.000    0.000    0.000 
#
# Total GULP energy -357720.846865 kJ/mol
# GULP energy per Si atom -5589.388232 kJ/mol
# Density = 2.126870 g / cm^3
# Si number density = 21.317219 Si / 1000 Ang^3
#
#
#
# Elastic Constant Matrix: (Units=GPa)
#
#
# Indices 1 2 3 4 5 6 
#
# 1 83.2406 31.3247 49.0258 0.0000 0.0000 0.0000
# 2 31.3247 73.9498 9.2956 0.0000 0.0000 0.0000
# 3 49.0258 9.2956 82.3897 0.0000 0.0000 0.0000
# 4 0.0000 0.0000 0.0000 14.2044 0.0000 0.0000
# 5 0.0000 0.0000 0.0000 0.0000 27.1026 0.0000
# 6 0.0000 0.0000 0.0000 0.0000 0.0000 20.4357
#
#
#
# Elastic Compliance Matrix: (Units=1/GPa)
#
#
# Indices 1 2 3 4 5 6 
#
# 1 0.022251 -0.007873 -0.012352 0.000000 0.000000 0.000000
# 2 -0.007873 0.016503 0.002823 0.000000 0.000000 0.000000
# 3 -0.012352 0.002823 0.019169 0.000000 0.000000 0.000000
# 4 0.000000 0.000000 0.000000 0.070401 0.000000 0.000000
# 5 0.000000 0.000000 0.000000 0.000000 0.036897 0.000000
# 6 0.000000 0.000000 0.000000 0.000000 0.000000 0.048934
#
#
# Mechanical properties :
#
#
# Convention : Reuss Voigt Hill
#
# Bulk Modulus (GPa) = 43.25545 46.54139 44.89842
# Shear Modulus (GPa) = 19.48066 22.34413 20.91240
#
# Velocity S-wave (km/s) = 3.02627 3.24106 3.13551
# Velocity P-wave (km/s) = 5.70495 5.99050 5.84947
#
# Compressibility (1/GPa) = 0.02311847
#
# Stress axis : x y z
#
# Youngs Moduli (GPa) = 44.94182 60.59616 52.16731
#
# Poissons Ratio (x) = 0.47706 0.64438
# Poissons Ratio (y) = 0.35381 -0.14725
# Poissons Ratio (z) = 0.55513 -0.17105
#
# Static dielectric constant tensor:
#      x y z
#    x 1.836080 0.000000 0.000000 
#    y 0.000000 1.765050 0.000000 
#    z 0.000000 0.000000 1.713370 
# 
# From -- ./inp_files/36013.got.cif
#   From: 2010.05.17/outbox.cif.g08.bks.cpg/sg48_19_cif.got.tgz:36013.got - 2010.06.03 20:39:00.
