data_PCOD9391243
_publ_section_title
;
Structure prediction by ZEFSAII (Michael W. Deem and Ramdas Pophale) SiO2 
 PCOD9391243
Probable space group: P N N N
;
_chemical_formula_sum "Si O2"
_cell_formula_units_Z 40
_cell_length_a 8.350587
_cell_length_b 14.647557
_cell_length_c 16.540230
_cell_angle_alpha 90.000000
_cell_angle_beta 90.000000
_cell_angle_gamma 90.000000
_cell_volume 2023.129795
_symmetry_space_group_name_H-M "P N N N"
_symmetry_group_IT_number 48
_space_group.IT_coordinate_system_code '2'
_symmetry_cell_setting 'orthorhombic'
loop_
_space_group_symop_operation_xyz
x,y,z
1/2-x,1/2-y,z
x,1/2-y,1/2-z
1/2-x,y,1/2-z
-x,-y,-z
1/2+x,1/2+y,-z
-x,1/2+y,1/2+z
1/2+x,-y,1/2+z
loop_
_atom_site_type_symbol
_atom_site_label
_atom_site_fract_x
_atom_site_fract_y
_atom_site_fract_z
Si Si1 0.471303 0.841742 0.508664
Si Si2 0.252622 0.480233 0.975845
Si Si3 0.250000 0.905576 0.250000
Si Si4 0.035934 0.015095 0.364395
Si Si5 0.250000 0.750000 0.385216
Si Si6 0.440167 0.227540 0.162438
O O1 0.633666 0.891537 0.479138
O O2 0.399118 0.769382 0.444654
O O3 0.493020 0.788064 0.591021
O O4 0.354732 0.926881 0.527329
O O5 0.127149 0.475137 0.902099
O O6 0.161721 0.491158 0.061431
O O7 0.261876 0.837372 0.326337
O O8 0.105248 0.969575 0.282268
O O9 0.022872 0.122419 0.351713
O O10 0.250000 0.250000 0.163196
O O11 0.506902 0.250000 0.250000
#
# Coordination Sequence:
#
# PCOD9391243 Si02
#       6
#     8   8   4   8   4   8
#     4  11  22  43  67 100 133 178 224 282 342 411
#     4  10  23  40  69  97 133 175 228 277 340 411
#     4  11  24  42  69  92 132 178 221 270 336 407
#     4  11  22  43  65 100 130 179 223 277 342 413
#     4  11  24  42  67  94 128 180 225 268 336 409
#     4  11  23  38  64  98 130 171 219 273 331 405
#
# _framework density 19.771346000000001
#
# number of rings (size 3 to 8) (size 9 to 14) (size 15 to 20)
#    0.000    1.200    4.000    2.400    2.800    0.000 
#    0.000    7.500    0.000    2.400    0.000    0.000 
#    0.000    0.000    0.000    0.000    0.000    0.000 
#
# Total GULP energy -223157.907869 kJ/mol
# GULP energy per Si atom -5578.947697 kJ/mol
# Density = 1.972635 g / cm^3
# Si number density = 19.771346 Si / 1000 Ang^3
#
#
#
# Elastic Constant Matrix: (Units=GPa)
#
#
# Indices 1 2 3 4 5 6 
#
# 1 95.1119 51.8951 63.9892 0.0000 0.0000 0.0000
# 2 51.8951 135.1470 83.9724 0.0000 0.0000 0.0000
# 3 63.9892 83.9724 154.4408 0.0000 0.0000 0.0000
# 4 0.0000 0.0000 0.0000 40.0824 0.0000 0.0000
# 5 0.0000 0.0000 0.0000 0.0000 -105.9653 0.0000
# 6 0.0000 0.0000 0.0000 0.0000 0.0000 -1.6563
#
#
#
# Elastic Compliance Matrix: (Units=1/GPa)
#
#
# Indices 1 2 3 4 5 6 
#
# 1 0.015307 -0.002925 -0.004751 0.000000 0.000000 0.000000
# 2 -0.002925 0.011734 -0.005168 0.000000 0.000000 0.000000
# 3 -0.004751 -0.005168 0.011253 0.000000 0.000000 0.000000
# 4 0.000000 0.000000 0.000000 0.024949 0.000000 0.000000
# 5 0.000000 0.000000 0.000000 0.000000 -0.009437 0.000000
# 6 0.000000 0.000000 0.000000 0.000000 0.000000 -0.603751
#
#
# Mechanical properties :
#
#
# Convention : Reuss Voigt Hill
#
# Bulk Modulus (GPa) = 79.33553 87.15702 83.24627
# Shear Modulus (GPa) = -9.61436 -1.18497 -5.39966
#
# Velocity S-wave (km/s) = -2.20756 -0.77501 -1.65438
# Velocity P-wave (km/s) = 5.80654 6.58615 6.20859
#
# Compressibility (1/GPa) = 0.01260469
#
# Stress axis : x y z
#
# Youngs Moduli (GPa) = 65.33076 85.22555 88.86208
#
# Poissons Ratio (x) = 0.24932 0.42222
# Poissons Ratio (y) = 0.19112 0.45921
# Poissons Ratio (z) = 0.31041 0.44042
#
# Static dielectric constant tensor:
#      x y z
#    x 1.659510 0.000000 0.000000 
#    y 0.000000 1.714430 0.000000 
#    z 0.000000 0.000000 1.549340 
# 
# From -- ./inp_files/12372.got.cif
#   From: 2010.05.17/outbox.cif.g08.bks.cpg/sg48_7_cif.got.tgz:12372.got - 2010.06.03 20:39:00.
