data_PCOD9391314
_publ_section_title
;
Structure prediction by ZEFSAII (Michael W. Deem and Ramdas Pophale) SiO2 
 PCOD9391314
Probable space group: P N N N
;
_chemical_formula_sum "Si O2"
_cell_formula_units_Z 56
_cell_length_a 8.613206
_cell_length_b 15.230333
_cell_length_c 20.674790
_cell_angle_alpha 90.000000
_cell_angle_beta 90.000000
_cell_angle_gamma 90.000000
_cell_volume 2712.160210
_symmetry_space_group_name_H-M "P N N N"
_symmetry_group_IT_number 48
_space_group.IT_coordinate_system_code '2'
_symmetry_cell_setting 'orthorhombic'
loop_
_space_group_symop_operation_xyz
x,y,z
1/2-x,1/2-y,z
x,1/2-y,1/2-z
1/2-x,y,1/2-z
-x,-y,-z
1/2+x,1/2+y,-z
-x,1/2+y,1/2+z
1/2+x,-y,1/2+z
loop_
_atom_site_type_symbol
_atom_site_label
_atom_site_fract_x
_atom_site_fract_y
_atom_site_fract_z
Si Si1 0.926303 0.940777 0.056449
Si Si2 0.570600 0.753002 0.398787
Si Si3 0.148292 0.162331 0.387836
Si Si4 0.750000 0.395485 0.750000
Si Si5 0.428977 0.852867 0.765867
Si Si6 0.501669 0.750000 0.250000
Si Si7 0.105320 0.033153 0.160948
Si Si8 0.071357 0.406322 0.977823
O O1 0.994206 0.841921 0.067685
O O2 0.744171 0.931223 0.044995
O O3 0.963382 0.993292 0.121688
O O4 0.000000 0.000000 0.000000
O O5 0.750000 0.750000 0.420034
O O6 0.575504 0.764641 0.320773
O O7 0.500986 0.659509 0.422884
O O8 0.250000 0.250000 0.374636
O O9 0.279282 0.087736 0.383612
O O10 0.079361 0.156485 0.459239
O O11 0.010445 0.142813 0.336499
O O12 0.604954 0.333964 0.737399
O O13 0.706948 0.456056 0.809459
O O14 0.434266 0.750000 0.750000
O O15 0.250000 0.880719 0.750000
O O16 0.540956 0.906537 0.718357
O O17 0.000000 0.500000 0.000000
#
# Coordination Sequence:
#
# PCOD9391314 Si02
#       8
#     8   8   8   4   8   4   8   8
#     4  11  23  44  67  97 135 178 229 282 342 417
#     4  10  23  44  68  95 134 178 224 281 350 411
#     4  12  23  43  73  95 136 189 228 279 354 428
#     4  11  24  40  65 100 128 172 225 282 338 419
#     4  11  25  42  65 101 141 174 226 285 343 410
#     4  11  23  42  66  94 137 169 228 286 341 404
#     4  12  23  41  69  98 134 179 230 278 348 417
#     4  11  27  45  68 101 136 179 237 288 351 424
#
# _framework density 20.647749999999998
#
# number of rings (size 3 to 8) (size 9 to 14) (size 15 to 20)
#    0.000    0.857    5.714    1.500    4.000    0.000 
#    2.571    0.000    0.000    0.000    0.000    0.000 
#    0.000    0.000    0.000    0.000    0.000    0.000 
#
# Total GULP energy -312183.787346 kJ/mol
# GULP energy per Si atom -5574.710488 kJ/mol
# Density = 2.060075 g / cm^3
# Si number density = 20.647750 Si / 1000 Ang^3
#
#
#
# Elastic Constant Matrix: (Units=GPa)
#
#
# Indices 1 2 3 4 5 6 
#
# 1 61.4016 28.2220 26.6655 0.0000 0.0000 0.0000
# 2 28.2220 121.4281 37.3994 0.0000 0.0000 0.0000
# 3 26.6655 37.3994 123.5861 0.0000 0.0000 0.0000
# 4 0.0000 0.0000 0.0000 16.0096 0.0000 0.0000
# 5 0.0000 0.0000 0.0000 0.0000 33.5399 0.0000
# 6 0.0000 0.0000 0.0000 0.0000 0.0000 27.8605
#
#
#
# Elastic Compliance Matrix: (Units=1/GPa)
#
#
# Indices 1 2 3 4 5 6 
#
# 1 0.019246 -0.003522 -0.003087 0.000000 0.000000 0.000000
# 2 -0.003522 0.009726 -0.002183 0.000000 0.000000 0.000000
# 3 -0.003087 -0.002183 0.009418 0.000000 0.000000 0.000000
# 4 0.000000 0.000000 0.000000 0.062463 0.000000 0.000000
# 5 0.000000 0.000000 0.000000 0.000000 0.029815 0.000000
# 6 0.000000 0.000000 0.000000 0.000000 0.000000 0.035893
#
#
# Mechanical properties :
#
#
# Convention : Reuss Voigt Hill
#
# Bulk Modulus (GPa) = 48.06394 54.55441 51.30917
# Shear Modulus (GPa) = 26.16687 29.75725 27.96206
#
# Velocity S-wave (km/s) = 3.56378 3.80041 3.68400
# Velocity P-wave (km/s) = 6.34528 6.76287 6.55740
#
# Compressibility (1/GPa) = 0.02080562
#
# Stress axis : x y z
#
# Youngs Moduli (GPa) = 51.95980 102.81225 106.17690
#
# Poissons Ratio (x) = 0.36214 0.32773
# Poissons Ratio (y) = 0.18302 0.23183
# Poissons Ratio (z) = 0.16038 0.22448
#
# Static dielectric constant tensor:
#      x y z
#    x 1.720800 0.000000 0.000000 
#    y 0.000000 1.688900 0.000000 
#    z 0.000000 0.000000 1.789550 
# 
# From -- ./inp_files/33628.got.cif
#   From: 2010.05.17/outbox.cif.g08.bks.cpg/sg48_17_cif.got.tgz:33628.got - 2010.06.03 20:39:00.
