data_PCOD9391962
_publ_section_title
;
Structure prediction by ZEFSAII (Michael W. Deem and Ramdas Pophale) SiO2 
 PCOD9391962
Probable space group: P N N N
;
_chemical_formula_sum "Si O2"
_cell_formula_units_Z 64
_cell_length_a 15.000000
_cell_length_b 18.000000
_cell_length_c 12.000000
_cell_angle_alpha 90.000000
_cell_angle_beta 90.000000
_cell_angle_gamma 90.000000
_cell_volume 3240.000000
_symmetry_space_group_name_H-M "P N N N"
_symmetry_group_IT_number 48
_space_group.IT_coordinate_system_code '2'
_symmetry_cell_setting 'orthorhombic'
loop_
_space_group_symop_operation_xyz
x,y,z
1/2-x,1/2-y,z
x,1/2-y,1/2-z
1/2-x,y,1/2-z
-x,-y,-z
1/2+x,1/2+y,-z
-x,1/2+y,1/2+z
1/2+x,-y,1/2+z
loop_
_atom_site_type_symbol
_atom_site_label
_atom_site_fract_x
_atom_site_fract_y
_atom_site_fract_z
Si Si1 0.729257 0.119077 0.878761
Si Si2 0.458835 0.163596 0.734560
Si Si3 0.553110 0.463673 0.102633
Si Si4 0.839994 0.980998 0.500574
Si Si5 0.087661 0.666447 0.450136
Si Si6 0.963926 0.330299 0.957164
Si Si7 0.010965 0.554830 0.855263
Si Si8 0.799268 0.586502 0.364511
O O1 0.750000 0.103622 0.750000
O O2 0.809162 0.171887 0.918822
O O3 0.632187 0.152617 0.902287
O O4 0.725909 0.043856 0.950929
O O5 0.478206 0.250000 0.750000
O O6 0.536401 0.130602 0.656576
O O7 0.467311 0.138271 0.863402
O O8 0.367569 0.152666 0.666619
O O9 0.507933 0.452036 0.222768
O O10 0.636470 0.517255 0.117444
O O11 0.500000 0.500000 0.000000
O O12 0.580693 0.383895 0.057531
O O13 0.775886 0.914021 0.460457
O O14 0.916461 0.971577 0.594121
O O15 0.900356 0.011531 0.398339
O O16 0.036309 0.742549 0.471212
O O17 0.976177 0.368342 0.076463
O O18 0.750000 0.573564 0.250000
#
# Coordination Sequence:
#
# PCOD9391962 Si02
#       8
#     8   8   8   8   8   8   8   8
#     4  11  21  33  59  94 130 167 207 260 315 373
#     4  10  22  39  62  91 124 165 213 262 318 375
#     4  12  25  39  63  91 125 163 206 263 318 373
#     4  10  22  37  62  89 126 161 210 260 313 381
#     4  11  22  38  59  92 128 165 213 261 314 383
#     4  10  22  39  61  88 125 173 213 253 317 387
#     4  10  23  41  60  87 121 169 209 255 319 384
#     4  12  22  38  61  91 126 157 203 261 315 370
#
# _framework density 19.753086
#
# number of rings (size 3 to 8) (size 9 to 14) (size 15 to 20)
#    0.000    1.250    5.000    1.125    5.250    1.250 
#    0.000    0.000    0.000    1.500    0.000    0.000 
#    0.000    0.000    0.000    0.000    0.000    0.000 
#
# Total GULP energy -356345.577882 kJ/mol
# GULP energy per Si atom -5567.899654 kJ/mol
# Density = 1.970813 g / cm^3
# Si number density = 19.753086 Si / 1000 Ang^3
#
#
#
# Elastic Constant Matrix: (Units=GPa)
#
#
# Indices 1 2 3 4 5 6 
#
# 1 45.7512 -18.9157 5.7077 0.0000 0.0000 0.0000
# 2 -18.9157 29.3191 9.1286 0.0000 0.0000 0.0000
# 3 5.7077 9.1286 105.3225 0.0000 0.0000 0.0000
# 4 0.0000 0.0000 0.0000 22.7219 0.0000 0.0000
# 5 0.0000 0.0000 0.0000 0.0000 36.5394 0.0000
# 6 0.0000 0.0000 0.0000 0.0000 0.0000 28.1534
#
#
#
# Elastic Compliance Matrix: (Units=1/GPa)
#
#
# Indices 1 2 3 4 5 6 
#
# 1 0.031022 0.021107 -0.003511 0.000000 0.000000 0.000000
# 2 0.021107 0.049415 -0.005427 0.000000 0.000000 0.000000
# 3 -0.003511 -0.005427 0.010155 0.000000 0.000000 0.000000
# 4 0.000000 0.000000 0.000000 0.044010 0.000000 0.000000
# 5 0.000000 0.000000 0.000000 0.000000 0.027368 0.000000
# 6 0.000000 0.000000 0.000000 0.000000 0.000000 0.035520
#
#
# Mechanical properties :
#
#
# Convention : Reuss Voigt Hill
#
# Bulk Modulus (GPa) = 8.70078 19.13711 13.91895
# Shear Modulus (GPa) = 23.64506 29.78108 26.71307
#
# Velocity S-wave (km/s) = 3.46357 3.88708 3.68142
# Velocity P-wave (km/s) = 4.51768 5.46398 5.01321
#
# Compressibility (1/GPa) = 0.11493216
#
# Stress axis : x y z
#
# Youngs Moduli (GPa) = 32.23513 20.23684 98.47123
#
# Poissons Ratio (x) = -0.42715 0.34569
# Poissons Ratio (y) = -0.68040 0.53438
# Poissons Ratio (z) = 0.11316 0.10982
#
# Static dielectric constant tensor:
#      x y z
#    x 1.732700 0.000000 0.000000 
#    y 0.000000 1.769160 0.000000 
#    z 0.000000 0.000000 1.719300 
# 
# From -- ./inp_files/21565.got.cif
#   From: 2010.05.17/outbox.ucp.g08.bks.cvg/sg48_11_cif.got.tgz:21565.got - 2010.06.11 16:38:40.
