data_PCOD9391608
_publ_section_title
;
Structure prediction by ZEFSAII (Michael W. Deem and Ramdas Pophale) SiO2 
 PCOD9391608
Probable space group: P N N N
;
_chemical_formula_sum "Si O2"
_cell_formula_units_Z 64
_cell_length_a 17.590045
_cell_length_b 9.023802
_cell_length_c 19.835818
_cell_angle_alpha 90.000000
_cell_angle_beta 90.000000
_cell_angle_gamma 90.000000
_cell_volume 3148.521207
_symmetry_space_group_name_H-M "P N N N"
_symmetry_group_IT_number 48
_space_group.IT_coordinate_system_code '2'
_symmetry_cell_setting 'orthorhombic'
loop_
_space_group_symop_operation_xyz
x,y,z
1/2-x,1/2-y,z
x,1/2-y,1/2-z
1/2-x,y,1/2-z
-x,-y,-z
1/2+x,1/2+y,-z
-x,1/2+y,1/2+z
1/2+x,-y,1/2+z
loop_
_atom_site_type_symbol
_atom_site_label
_atom_site_fract_x
_atom_site_fract_y
_atom_site_fract_z
Si Si1 0.543881 0.083696 0.438691
Si Si2 0.200706 0.874074 0.987321
Si Si3 0.690027 0.633514 0.479657
Si Si4 0.452455 0.554636 0.564345
Si Si5 0.836078 0.786488 0.882372
Si Si6 0.073980 0.460316 0.174676
Si Si7 0.569679 0.032040 0.669344
Si Si8 0.334661 0.718199 0.373368
O O1 0.632877 0.051405 0.446767
O O2 0.545768 0.264652 0.439917
O O3 0.503657 0.020036 0.372224
O O4 0.500000 0.000000 0.500000
O O5 0.250000 0.750000 0.948053
O O6 0.256063 0.004968 0.010308
O O7 0.167936 0.778488 0.050007
O O8 0.750000 0.750000 0.446031
O O9 0.626268 0.539163 0.440037
O O10 0.653383 0.726917 0.541361
O O11 0.500000 0.500000 0.500000
O O12 0.498147 0.515241 0.631889
O O13 0.750000 0.750000 0.863080
O O14 0.897763 0.706418 0.835729
O O15 0.858925 0.954638 0.869441
O O16 0.066331 0.495725 0.252507
O O17 0.142383 0.549659 0.138152
O O18 0.594295 0.201599 0.661926
O O19 0.250000 0.750000 0.345620
#
# Coordination Sequence:
#
# PCOD9391608 Si02
#       8
#     8   8   8   8   8   8   8   8
#     4  12  25  40  65  93 126 169 211 270 318 380
#     4  11  21  39  64  93 127 164 216 270 324 373
#     4  11  23  39  65  99 128 161 213 275 327 382
#     4  12  24  42  64  94 126 165 215 267 324 375
#     4  11  22  37  59  88 129 170 208 248 305 380
#     4  12  25  40  63  89 129 175 211 260 316 379
#     4  12  25  41  59  92 129 172 217 254 314 385
#     4  11  23  39  61  89 132 173 213 254 309 382
#
# _framework density 20.327003999999999
#
# number of rings (size 3 to 8) (size 9 to 14) (size 15 to 20)
#    0.000    0.500    5.000    5.250    1.750    3.000 
#    0.000    0.000    0.000    0.750    0.000    0.875 
#    0.000    0.000    0.000    0.000    0.000    0.000 
#
# Total GULP energy -357200.368281 kJ/mol
# GULP energy per Si atom -5581.255754 kJ/mol
# Density = 2.028074 g / cm^3
# Si number density = 20.327004 Si / 1000 Ang^3
#
#
#
# Elastic Constant Matrix: (Units=GPa)
#
#
# Indices 1 2 3 4 5 6 
#
# 1 127.3451 30.7831 59.5499 0.0000 0.0000 0.0000
# 2 30.7831 84.3380 14.5785 0.0000 0.0000 0.0000
# 3 59.5499 14.5785 77.1001 0.0000 0.0000 0.0000
# 4 0.0000 0.0000 0.0000 17.4887 0.0000 0.0000
# 5 0.0000 0.0000 0.0000 0.0000 16.6028 0.0000
# 6 0.0000 0.0000 0.0000 0.0000 0.0000 44.7265
#
#
#
# Elastic Compliance Matrix: (Units=1/GPa)
#
#
# Indices 1 2 3 4 5 6 
#
# 1 0.013041 -0.003121 -0.009483 0.000000 0.000000 0.000000
# 2 -0.003121 0.013005 -0.000048 0.000000 0.000000 0.000000
# 3 -0.009483 -0.000048 0.020304 0.000000 0.000000 0.000000
# 4 0.000000 0.000000 0.000000 0.057180 0.000000 0.000000
# 5 0.000000 0.000000 0.000000 0.000000 0.060231 0.000000
# 6 0.000000 0.000000 0.000000 0.000000 0.000000 0.022358
#
#
# Mechanical properties :
#
#
# Convention : Reuss Voigt Hill
#
# Bulk Modulus (GPa) = 47.51656 55.40068 51.45862
# Shear Modulus (GPa) = 22.88981 28.02171 25.45576
#
# Velocity S-wave (km/s) = 3.35935 3.71691 3.54264
# Velocity P-wave (km/s) = 6.20273 6.76272 6.48877
#
# Compressibility (1/GPa) = 0.02104529
#
# Stress axis : x y z
#
# Youngs Moduli (GPa) = 76.67842 76.89618 49.25253
#
# Poissons Ratio (x) = 0.23999 0.46705
# Poissons Ratio (y) = 0.23931 0.00239
# Poissons Ratio (z) = 0.72712 0.00373
#
# Static dielectric constant tensor:
#      x y z
#    x 1.775920 0.000000 0.000000 
#    y 0.000000 1.774450 0.000000 
#    z 0.000000 0.000000 1.690130 
# 
# From -- ./inp_files/34708.got.cif
#   From: 2010.05.17/outbox.cif.g08.bks.cpg/sg48_18_cif.got.tgz:34708.got - 2010.06.03 20:39:00.
