data_PCOD9391003
_publ_section_title
;
Structure prediction by ZEFSAII (Michael W. Deem and Ramdas Pophale) SiO2 
 PCOD9391003
Probable space group: P N N N
;
_chemical_formula_sum "Si O2"
_cell_formula_units_Z 26
_cell_length_a 7.284615
_cell_length_b 19.299598
_cell_length_c 9.674798
_cell_angle_alpha 90.000000
_cell_angle_beta 90.000000
_cell_angle_gamma 90.000000
_cell_volume 1360.181216
_symmetry_space_group_name_H-M "P N N N"
_symmetry_group_IT_number 48
_space_group.IT_coordinate_system_code '2'
_symmetry_cell_setting 'orthorhombic'
loop_
_space_group_symop_operation_xyz
x,y,z
1/2-x,1/2-y,z
x,1/2-y,1/2-z
1/2-x,y,1/2-z
-x,-y,-z
1/2+x,1/2+y,-z
-x,1/2+y,1/2+z
1/2+x,-y,1/2+z
loop_
_atom_site_type_symbol
_atom_site_label
_atom_site_fract_x
_atom_site_fract_y
_atom_site_fract_z
Si Si1 0.502212 0.636242 0.880395
Si Si2 0.885452 0.592832 0.918946
Si Si3 0.250000 0.750000 0.750000
Si Si4 0.772680 0.066334 0.588107
O O1 0.714472 0.645227 0.923646
O O2 0.520517 0.597268 0.732173
O O3 0.382736 0.703357 0.844462
O O4 0.395002 0.592972 0.995635
O O5 0.801965 0.515898 0.934363
O O6 0.043086 0.602423 0.030725
O O7 0.750000 0.079004 0.750000
#
# Coordination Sequence:
#
# PCOD9391003 Si02
#       4
#     8   8   2   8
#     4  11  22  42  59  97 120 173 216 255 314 379
#     4  10  22  37  64  96 127 162 207 264 323 379
#     4  12  24  42  70  80 130 180 222 268 288 404
#     4  11  21  37  63  99 131 161 198 274 329 376
#
# _framework density 19.115100999999999
#
# number of rings (size 3 to 8) (size 9 to 14) (size 15 to 20)
#    0.000    1.231    6.154    0.923    0.000    3.692 
#    0.000    0.769    0.000    0.000   16.000    0.000 
#    0.000    0.000    0.000    0.000    0.000    0.000 
#
# Total GULP energy -145150.033538 kJ/mol
# GULP energy per Si atom -5582.693598 kJ/mol
# Density = 1.907159 g / cm^3
# Si number density = 19.115101 Si / 1000 Ang^3
#
#
#
# Elastic Constant Matrix: (Units=GPa)
#
#
# Indices 1 2 3 4 5 6 
#
# 1 151.8570 29.6349 86.7505 0.0000 0.0000 0.0000
# 2 29.6349 39.0836 13.6945 0.0000 0.0000 0.0000
# 3 86.7505 13.6945 119.8327 0.0000 0.0000 0.0000
# 4 0.0000 0.0000 0.0000 10.7998 0.0000 0.0000
# 5 0.0000 0.0000 0.0000 0.0000 36.4296 0.0000
# 6 0.0000 0.0000 0.0000 0.0000 0.0000 20.0764
#
#
#
# Elastic Compliance Matrix: (Units=1/GPa)
#
#
# Indices 1 2 3 4 5 6 
#
# 1 0.012708 -0.006680 -0.008436 0.000000 0.000000 0.000000
# 2 -0.006680 0.030165 0.001389 0.000000 0.000000 0.000000
# 3 -0.008436 0.001389 0.014294 0.000000 0.000000 0.000000
# 4 0.000000 0.000000 0.000000 0.092594 0.000000 0.000000
# 5 0.000000 0.000000 0.000000 0.000000 0.027450 0.000000
# 6 0.000000 0.000000 0.000000 0.000000 0.000000 0.049810
#
#
# Mechanical properties :
#
#
# Convention : Reuss Voigt Hill
#
# Bulk Modulus (GPa) = 33.65764 63.43702 48.54733
# Shear Modulus (GPa) = 18.91220 25.50738 22.20979
#
# Velocity S-wave (km/s) = 3.14886 3.65692 3.41236
# Velocity P-wave (km/s) = 5.55577 7.14770 6.40141
#
# Compressibility (1/GPa) = 0.02971093
#
# Stress axis : x y z
#
# Youngs Moduli (GPa) = 78.68960 33.15138 69.96099
#
# Poissons Ratio (x) = 0.22145 0.59022
# Poissons Ratio (y) = 0.52563 -0.09714
# Poissons Ratio (z) = 0.66386 -0.04603
#
# Static dielectric constant tensor:
#      x y z
#    x 1.705420 0.000000 0.000000 
#    y 0.000000 1.682850 0.000000 
#    z 0.000000 0.000000 1.639990 
# 
# From -- ./inp_files/8318.got.cif
#   From: 2010.05.17/outbox.cif.g08.bks.cpg/sg48_5_cif.got.tgz:8318.got - 2010.06.03 20:39:00.
