data_PCOD9391482
_publ_section_title
;
Structure prediction by ZEFSAII (Michael W. Deem and Ramdas Pophale) SiO2 
 PCOD9391482
Probable space group: P N N N
;
_chemical_formula_sum "Si O2"
_cell_formula_units_Z 22
_cell_length_a 31.816341
_cell_length_b 5.374893
_cell_length_c 5.397226
_cell_angle_alpha 90.000000
_cell_angle_beta 90.000000
_cell_angle_gamma 90.000000
_cell_volume 922.976534
_symmetry_space_group_name_H-M "P N N N"
_symmetry_group_IT_number 48
_space_group.IT_coordinate_system_code '2'
_symmetry_cell_setting 'orthorhombic'
loop_
_space_group_symop_operation_xyz
x,y,z
1/2-x,1/2-y,z
x,1/2-y,1/2-z
1/2-x,y,1/2-z
-x,-y,-z
1/2+x,1/2+y,-z
-x,1/2+y,1/2+z
1/2+x,-y,1/2+z
loop_
_atom_site_type_symbol
_atom_site_label
_atom_site_fract_x
_atom_site_fract_y
_atom_site_fract_z
Si Si1 0.750000 0.750000 0.250000
Si Si2 0.308699 0.002956 0.107369
Si Si3 0.890140 0.750000 0.750000
Si Si4 0.548004 0.406586 0.001346
O O1 0.715934 0.549023 0.357019
O O2 0.299295 0.750000 0.250000
O O3 0.293243 0.250000 0.250000
O O4 0.358827 0.050413 0.119763
O O5 0.919379 0.629076 0.541695
O O6 0.555357 0.250000 0.250000
O O7 0.552885 0.250000 0.750000
O O8 0.500000 0.500000 0.000000
#
# Coordination Sequence:
#
# PCOD9391482 Si02
#       4
#     2   8   4   8
#     4  12  26  50  92 108 160 218 266 338 436 500
#     4  10  26  49  73 117 155 202 266 332 406 501
#     4  10  26  47  74 108 168 202 274 341 408 484
#     4  12  26  46  77 113 157 215 279 336 409 484
#
# _framework density 23.835923000000001
#
# number of rings (size 3 to 8) (size 9 to 14) (size 15 to 20)
#    1.091    0.000    1.818    2.727    0.000   11.636 
#    0.000    0.000    0.000    0.000    0.000    0.000 
#    0.000    0.000    0.000    0.000    0.000    0.000 
#
# Total GULP energy -122769.530593 kJ/mol
# GULP energy per Si atom -5580.433209 kJ/mol
# Density = 2.378167 g / cm^3
# Si number density = 23.835923 Si / 1000 Ang^3
#
#
#
# Elastic Constant Matrix: (Units=GPa)
#
#
# Indices 1 2 3 4 5 6 
#
# 1 216.1957 69.8701 60.5366 0.0000 0.0000 0.0000
# 2 69.8701 177.6402 71.9099 0.0000 0.0000 0.0000
# 3 60.5366 71.9099 129.1870 0.0000 0.0000 0.0000
# 4 0.0000 0.0000 0.0000 52.4493 0.0000 0.0000
# 5 0.0000 0.0000 0.0000 0.0000 57.9493 0.0000
# 6 0.0000 0.0000 0.0000 0.0000 0.0000 34.0250
#
#
#
# Elastic Compliance Matrix: (Units=1/GPa)
#
#
# Indices 1 2 3 4 5 6 
#
# 1 0.005608 -0.001474 -0.001807 0.000000 0.000000 0.000000
# 2 -0.001474 0.007654 -0.003570 0.000000 0.000000 0.000000
# 3 -0.001807 -0.003570 0.010575 0.000000 0.000000 0.000000
# 4 0.000000 0.000000 0.000000 0.019066 0.000000 0.000000
# 5 0.000000 0.000000 0.000000 0.000000 0.017256 0.000000
# 6 0.000000 0.000000 0.000000 0.000000 0.000000 0.029390
#
#
# Mechanical properties :
#
#
# Convention : Reuss Voigt Hill
#
# Bulk Modulus (GPa) = 98.67449 103.07290 100.87369
# Shear Modulus (GPa) = 46.89102 50.26513 48.57807
#
# Velocity S-wave (km/s) = 4.44017 4.59715 4.51934
# Velocity P-wave (km/s) = 8.23250 8.45665 8.34533
#
# Compressibility (1/GPa) = 0.01013433
#
# Stress axis : x y z
#
# Youngs Moduli (GPa) = 178.31976 130.64614 94.56514
#
# Poissons Ratio (x) = 0.19259 0.17091
# Poissons Ratio (y) = 0.26286 0.33758
# Poissons Ratio (z) = 0.32228 0.46639
#
# Static dielectric constant tensor:
#      x y z
#    x 1.937490 0.000000 0.000000 
#    y 0.000000 1.551550 0.000000 
#    z 0.000000 0.000000 2.049580 
# 
# From -- ./inp_files/6721.got.cif
#   From: 2010.05.17/outbox.cif.g08.bks.cpg/sg48_4_cif.got.tgz:6721.got - 2010.06.03 20:39:00.
