data_PCOD9391408
_publ_section_title
;
Structure prediction by ZEFSAII (Michael W. Deem and Ramdas Pophale) SiO2 
 PCOD9391408
Probable space group: P N N N
;
_chemical_formula_sum "Si O2"
_cell_formula_units_Z 28
_cell_length_a 7.947216
_cell_length_b 28.039570
_cell_length_c 4.904582
_cell_angle_alpha 90.000000
_cell_angle_beta 90.000000
_cell_angle_gamma 90.000000
_cell_volume 1092.919982
_symmetry_space_group_name_H-M "P N N N"
_symmetry_group_IT_number 48
_space_group.IT_coordinate_system_code '2'
_symmetry_cell_setting 'orthorhombic'
loop_
_space_group_symop_operation_xyz
x,y,z
1/2-x,1/2-y,z
x,1/2-y,1/2-z
1/2-x,y,1/2-z
-x,-y,-z
1/2+x,1/2+y,-z
-x,1/2+y,1/2+z
1/2+x,-y,1/2+z
loop_
_atom_site_type_symbol
_atom_site_label
_atom_site_fract_x
_atom_site_fract_y
_atom_site_fract_z
Si Si1 0.942810 0.645518 0.189326
Si Si2 0.088277 0.062666 0.098349
Si Si3 0.444194 0.801329 0.683137
Si Si4 0.750000 0.020811 0.250000
O O1 0.750000 0.656139 0.250000
O O2 0.969724 0.594402 0.338582
O O3 0.041061 0.683692 0.371768
O O4 0.985145 0.657084 0.878748
O O5 0.250000 0.085332 0.250000
O O6 0.179907 0.014918 0.981560
O O7 0.922070 0.051515 0.280032
O O8 0.523993 0.750000 0.750000
O O9 0.250000 0.798682 0.750000
#
# Coordination Sequence:
#
# PCOD9391408 Si02
#       4
#     8   8   8   4
#     4  12  25  44  74 108 149 189 242 312 372 448
#     4  11  23  45  69 110 154 197 261 309 383 443
#     4  11  26  49  74 107 145 190 245 304 376 459
#     4  10  24  44  74 102 150 210 254 312 380 444
#
# _framework density 25.619440999999998
#
# number of rings (size 3 to 8) (size 9 to 14) (size 15 to 20)
#    0.000    0.857    1.429    5.143    2.000    5.714 
#    5.143    0.000    0.000    0.000    0.000    0.000 
#    0.000    0.000    0.000    0.000    0.000    0.000 
#
# Total GULP energy -156503.976286 kJ/mol
# GULP energy per Si atom -5589.427724 kJ/mol
# Density = 2.556113 g / cm^3
# Si number density = 25.619441 Si / 1000 Ang^3
#
#
#
# Elastic Constant Matrix: (Units=GPa)
#
#
# Indices 1 2 3 4 5 6 
#
# 1 174.7361 41.9100 26.2874 0.0000 0.0000 0.0000
# 2 41.9100 129.5339 23.2799 0.0000 0.0000 0.0000
# 3 26.2874 23.2799 83.9721 0.0000 0.0000 0.0000
# 4 0.0000 0.0000 0.0000 31.5466 0.0000 0.0000
# 5 0.0000 0.0000 0.0000 0.0000 46.7416 0.0000
# 6 0.0000 0.0000 0.0000 0.0000 0.0000 37.0762
#
#
#
# Elastic Compliance Matrix: (Units=1/GPa)
#
#
# Indices 1 2 3 4 5 6 
#
# 1 0.006379 -0.001794 -0.001499 0.000000 0.000000 0.000000
# 2 -0.001794 0.008630 -0.001831 0.000000 0.000000 0.000000
# 3 -0.001499 -0.001831 0.012886 0.000000 0.000000 0.000000
# 4 0.000000 0.000000 0.000000 0.031699 0.000000 0.000000
# 5 0.000000 0.000000 0.000000 0.000000 0.021394 0.000000
# 6 0.000000 0.000000 0.000000 0.000000 0.000000 0.026972
#
#
# Mechanical properties :
#
#
# Convention : Reuss Voigt Hill
#
# Bulk Modulus (GPa) = 56.67299 63.46630 60.06965
# Shear Modulus (GPa) = 40.29346 42.85719 41.57532
#
# Velocity S-wave (km/s) = 3.97012 4.09447 4.03277
# Velocity P-wave (km/s) = 6.57152 6.86873 6.72177
#
# Compressibility (1/GPa) = 0.01764509
#
# Stress axis : x y z
#
# Youngs Moduli (GPa) = 156.76767 115.88086 77.60579
#
# Poissons Ratio (x) = 0.20793 0.11636
# Poissons Ratio (y) = 0.28130 0.14207
# Poissons Ratio (z) = 0.23506 0.21214
#
# Static dielectric constant tensor:
#      x y z
#    x 1.951350 0.000000 0.000000 
#    y 0.000000 2.172020 0.000000 
#    z 0.000000 0.000000 2.034660 
# 
# From -- ./inp_files/987.got.cif
#   From: 2010.05.17/outbox.cif.g08.bks.cpg/sg48_1_cif.got.tgz:987.got - 2010.06.03 20:39:00.
