data_PCOD9391376
_publ_section_title
;
Structure prediction by ZEFSAII (Michael W. Deem and Ramdas Pophale) SiO2 
 PCOD9391376
Probable space group: P N N N
;
_chemical_formula_sum "Si O2"
_cell_formula_units_Z 38
_cell_length_a 8.649346
_cell_length_b 8.806936
_cell_length_c 24.316254
_cell_angle_alpha 90.000000
_cell_angle_beta 90.000000
_cell_angle_gamma 90.000000
_cell_volume 1852.272087
_symmetry_space_group_name_H-M "P N N N"
_symmetry_group_IT_number 48
_space_group.IT_coordinate_system_code '2'
_symmetry_cell_setting 'orthorhombic'
loop_
_space_group_symop_operation_xyz
x,y,z
1/2-x,1/2-y,z
x,1/2-y,1/2-z
1/2-x,y,1/2-z
-x,-y,-z
1/2+x,1/2+y,-z
-x,1/2+y,1/2+z
1/2+x,-y,1/2+z
loop_
_atom_site_type_symbol
_atom_site_label
_atom_site_fract_x
_atom_site_fract_y
_atom_site_fract_z
Si Si1 0.314782 0.990364 0.169083
Si Si2 0.250000 0.250000 0.250000
Si Si3 0.470911 0.750000 0.250000
Si Si4 0.443171 0.015791 0.671983
Si Si5 0.250000 0.750000 0.875737
Si Si6 0.250000 0.250000 0.600279
Si Si7 0.464895 0.993198 0.935719
O O1 0.375996 0.841048 0.202079
O O2 0.128358 0.992757 0.162376
O O3 0.343200 0.135432 0.209715
O O4 0.397937 0.001381 0.110084
O O5 0.568859 0.891859 0.271520
O O6 0.356460 0.133121 0.632891
O O7 0.357430 0.857867 0.661930
O O8 0.358651 0.853700 0.914569
O O9 0.367455 0.354350 0.569153
O O10 0.500000 0.000000 0.000000
#
# Coordination Sequence:
#
# PCOD9391376 Si02
#       7
#     8   2   4   8   4   4   8
#     4  12  24  43  72 102 138 190 242 294 350 443
#     4  12  24  36  68 110 142 174 248 300 356 418
#     4  12  23  43  76 105 138 185 250 293 358 441
#     4  11  22  45  68 103 141 184 234 296 357 431
#     4  10  26  48  65 106 146 173 240 298 360 424
#     4  10  24  42  66 100 139 175 238 294 354 426
#     4  11  26  47  70 100 141 189 238 291 363 426
#
# _framework density 20.515343000000001
#
# number of rings (size 3 to 8) (size 9 to 14) (size 15 to 20)
#    0.000    0.842    4.211    2.526    0.000    4.632 
#    0.000    5.263    0.000    0.000    0.000    0.000 
#    0.000    0.000    0.000    0.000    0.000    0.000 
#
# Total GULP energy -211751.815874 kJ/mol
# GULP energy per Si atom -5572.416207 kJ/mol
# Density = 2.046865 g / cm^3
# Si number density = 20.515343 Si / 1000 Ang^3
#
#
#
# Elastic Constant Matrix: (Units=GPa)
#
#
# Indices 1 2 3 4 5 6 
#
# 1 130.8890 60.7855 72.9492 0.0000 0.0000 0.0000
# 2 60.7855 154.7733 63.0519 0.0000 0.0000 0.0000
# 3 72.9492 63.0519 146.9366 0.0000 0.0000 0.0000
# 4 0.0000 0.0000 0.0000 50.6384 0.0000 0.0000
# 5 0.0000 0.0000 0.0000 0.0000 26.5932 0.0000
# 6 0.0000 0.0000 0.0000 0.0000 0.0000 29.9762
#
#
#
# Elastic Compliance Matrix: (Units=1/GPa)
#
#
# Indices 1 2 3 4 5 6 
#
# 1 0.011381 -0.002627 -0.004523 0.000000 0.000000 0.000000
# 2 -0.002627 0.008436 -0.002316 0.000000 0.000000 0.000000
# 3 -0.004523 -0.002316 0.010045 0.000000 0.000000 0.000000
# 4 0.000000 0.000000 0.000000 0.019748 0.000000 0.000000
# 5 0.000000 0.000000 0.000000 0.000000 0.037604 0.000000
# 6 0.000000 0.000000 0.000000 0.000000 0.000000 0.033360
#
#
# Mechanical properties :
#
#
# Convention : Reuss Voigt Hill
#
# Bulk Modulus (GPa) = 91.48865 91.79690 91.64277
# Shear Modulus (GPa) = 34.92879 37.16239 36.04559
#
# Velocity S-wave (km/s) = 4.13070 4.26072 4.19621
# Velocity P-wave (km/s) = 8.21232 8.30949 8.26105
#
# Compressibility (1/GPa) = 0.01093032
#
# Stress axis : x y z
#
# Youngs Moduli (GPa) = 87.86638 118.53585 99.55357
#
# Poissons Ratio (x) = 0.31142 0.45027
# Poissons Ratio (y) = 0.23084 0.23054
# Poissons Ratio (z) = 0.39741 0.27450
#
# Static dielectric constant tensor:
#      x y z
#    x 2.130660 0.000000 0.000000 
#    y 0.000000 1.738840 0.000000 
#    z 0.000000 0.000000 1.775590 
# 
# From -- ./inp_files/15767.got.cif
#   From: 2010.05.17/outbox.cif.g08.bks.cpg/sg48_8_cif.got.tgz:15767.got - 2010.06.03 20:39:00.
