data_PCOD9391184
_publ_section_title
;
Structure prediction by ZEFSAII (Michael W. Deem and Ramdas Pophale) SiO2 
 PCOD9391184
Probable space group: P N N N
;
_chemical_formula_sum "Si O2"
_cell_formula_units_Z 34
_cell_length_a 6.127139
_cell_length_b 8.558420
_cell_length_c 30.045281
_cell_angle_alpha 90.000000
_cell_angle_beta 90.000000
_cell_angle_gamma 90.000000
_cell_volume 1575.533342
_symmetry_space_group_name_H-M "P N N N"
_symmetry_group_IT_number 48
_space_group.IT_coordinate_system_code '2'
_symmetry_cell_setting 'orthorhombic'
loop_
_space_group_symop_operation_xyz
x,y,z
1/2-x,1/2-y,z
x,1/2-y,1/2-z
1/2-x,y,1/2-z
-x,-y,-z
1/2+x,1/2+y,-z
-x,1/2+y,1/2+z
1/2+x,-y,1/2+z
loop_
_atom_site_type_symbol
_atom_site_label
_atom_site_fract_x
_atom_site_fract_y
_atom_site_fract_z
Si Si1 0.250000 0.750000 0.250000
Si Si2 0.250000 0.750000 0.843510
Si Si3 0.526885 0.457589 0.678068
Si Si4 0.750000 0.750000 0.108512
Si Si5 0.097918 0.606649 0.461294
Si Si6 0.138259 0.085325 0.116717
O O1 0.413713 0.640518 0.278557
O O2 0.390200 0.634327 0.874910
O O3 0.095281 0.626715 0.816728
O O4 0.389059 0.358985 0.641851
O O5 0.766022 0.482842 0.656254
O O6 0.582390 0.667445 0.074170
O O7 0.250000 0.750000 0.476360
O O8 0.223376 0.488712 0.428913
O O9 0.000000 0.500000 0.500000
O O10 0.250000 0.250000 0.120254
#
# Coordination Sequence:
#
# PCOD9391184 Si02
#       6
#     2   4   8   4   8   8
#     4  12  28  46  78 114 150 182 254 306 352 458
#     4  10  22  44  77 103 136 196 235 294 384 439
#     4  11  24  47  76 104 142 192 242 303 367 445
#     4  12  24  47  76  94 142 200 240 293 386 436
#     4  12  27  42  67 107 144 187 248 304 355 440
#     4  10  22  44  70  99 140 187 237 293 370 432
#
# _framework density 21.579996999999999
#
# number of rings (size 3 to 8) (size 9 to 14) (size 15 to 20)
#    0.000    0.941    4.706    1.412    3.294    1.412 
#    0.000    6.471    0.000    0.000    0.000    0.000 
#    0.000    0.000    0.000    0.000    0.000    0.000 
#
# Total GULP energy -189468.776884 kJ/mol
# GULP energy per Si atom -5572.611085 kJ/mol
# Density = 2.153088 g / cm^3
# Si number density = 21.579997 Si / 1000 Ang^3
#
#
#
# Elastic Constant Matrix: (Units=GPa)
#
#
# Indices 1 2 3 4 5 6 
#
# 1 82.9099 53.0888 34.5180 0.0000 0.0000 0.0000
# 2 53.0888 130.7585 83.0941 0.0000 0.0000 0.0000
# 3 34.5180 83.0941 122.9860 0.0000 0.0000 0.0000
# 4 0.0000 0.0000 0.0000 133.1951 0.0000 0.0000
# 5 0.0000 0.0000 0.0000 0.0000 29.8498 0.0000
# 6 0.0000 0.0000 0.0000 0.0000 0.0000 36.0651
#
#
#
# Elastic Compliance Matrix: (Units=1/GPa)
#
#
# Indices 1 2 3 4 5 6 
#
# 1 0.016301 -0.006503 -0.000181 0.000000 0.000000 0.000000
# 2 -0.006503 0.015996 -0.008982 0.000000 0.000000 0.000000
# 3 -0.000181 -0.008982 0.014251 0.000000 0.000000 0.000000
# 4 0.000000 0.000000 0.000000 0.007508 0.000000 0.000000
# 5 0.000000 0.000000 0.000000 0.000000 0.033501 0.000000
# 6 0.000000 0.000000 0.000000 0.000000 0.000000 0.027728
#
#
# Mechanical properties :
#
#
# Convention : Reuss Voigt Hill
#
# Bulk Modulus (GPa) = 65.72860 75.33956 70.53408
# Shear Modulus (GPa) = 32.96221 50.88556 41.92388
#
# Velocity S-wave (km/s) = 3.91249 4.86119 4.41241
# Velocity P-wave (km/s) = 7.13683 8.15449 7.66257
#
# Compressibility (1/GPa) = 0.01521408
#
# Stress axis : x y z
#
# Youngs Moduli (GPa) = 61.34684 62.51564 70.17160
#
# Poissons Ratio (x) = 0.40653 0.01273
# Poissons Ratio (y) = 0.39893 0.63031
# Poissons Ratio (z) = 0.01113 0.56154
#
# Static dielectric constant tensor:
#      x y z
#    x 1.940150 0.000000 0.000000 
#    y 0.000000 1.508580 0.000000 
#    z 0.000000 0.000000 1.770330 
# 
# From -- ./inp_files/1203.got.cif
#   From: 2010.05.17/outbox.cif.g08.bks.cpg/sg48_1_cif.got.tgz:1203.got - 2010.06.03 20:39:00.
