data_PCOD9391149
_publ_section_title
;
Structure prediction by ZEFSAII (Michael W. Deem and Ramdas Pophale) SiO2 
 PCOD9391149
Probable space group: P N N N
;
_chemical_formula_sum "Si O2"
_cell_formula_units_Z 34
_cell_length_a 7.931227
_cell_length_b 21.834024
_cell_length_c 8.794689
_cell_angle_alpha 90.000000
_cell_angle_beta 90.000000
_cell_angle_gamma 90.000000
_cell_volume 1522.981577
_symmetry_space_group_name_H-M "P N N N"
_symmetry_group_IT_number 48
_space_group.IT_coordinate_system_code '2'
_symmetry_cell_setting 'orthorhombic'
loop_
_space_group_symop_operation_xyz
x,y,z
1/2-x,1/2-y,z
x,1/2-y,1/2-z
1/2-x,y,1/2-z
-x,-y,-z
1/2+x,1/2+y,-z
-x,1/2+y,1/2+z
1/2+x,-y,1/2+z
loop_
_atom_site_type_symbol
_atom_site_label
_atom_site_fract_x
_atom_site_fract_y
_atom_site_fract_z
Si Si1 0.107469 0.704218 0.454697
Si Si2 0.015409 0.912909 0.189367
Si Si3 0.250000 0.250000 0.987964
Si Si4 0.250000 0.750000 0.750000
Si Si5 0.671804 0.613512 0.493327
Si Si6 0.750000 0.977116 0.750000
O O1 0.250000 0.750000 0.402206
O O2 0.132440 0.709772 0.638060
O O3 0.131941 0.637452 0.390439
O O4 0.921873 0.727352 0.409291
O O5 0.968362 0.893580 0.362159
O O6 0.843600 0.907186 0.092623
O O7 0.107904 0.977587 0.183500
O O8 0.310525 0.183749 0.053502
O O9 0.656634 0.566559 0.630323
#
# Coordination Sequence:
#
# PCOD9391149 Si02
#       6
#     8   8   4   2   8   4
#     4   9  21  41  64 107 139 175 233 288 368 437
#     4  10  23  43  68  97 137 180 231 300 351 427
#     4  10  22  42  72  96 136 178 214 308 352 414
#     4   8  20  38  60 106 142 172 232 282 360 456
#     4  10  24  44  65 102 133 179 243 284 367 432
#     4  12  24  43  67  96 138 194 232 288 358 434
#
# _framework density 22.324631
#
# number of rings (size 3 to 8) (size 9 to 14) (size 15 to 20)
#    0.706    1.412    0.000    1.412    3.294   12.235 
#    0.000    2.353    0.000    0.000    0.000    0.000 
#    0.000    0.000    0.000    0.000    0.000    0.000 
#
# Total GULP energy -189540.889435 kJ/mol
# GULP energy per Si atom -5574.732042 kJ/mol
# Density = 2.227382 g / cm^3
# Si number density = 22.324631 Si / 1000 Ang^3
#
#
#
# Elastic Constant Matrix: (Units=GPa)
#
#
# Indices 1 2 3 4 5 6 
#
# 1 75.3733 18.7747 1.1718 0.0000 0.0000 0.0000
# 2 18.7747 204.1093 60.4418 0.0000 0.0000 0.0000
# 3 1.1718 60.4418 118.7638 0.0000 0.0000 0.0000
# 4 0.0000 0.0000 0.0000 8.4279 0.0000 0.0000
# 5 0.0000 0.0000 0.0000 0.0000 46.3727 0.0000
# 6 0.0000 0.0000 0.0000 0.0000 0.0000 34.1048
#
#
#
# Elastic Compliance Matrix: (Units=1/GPa)
#
#
# Indices 1 2 3 4 5 6 
#
# 1 0.013614 -0.001428 0.000592 0.000000 0.000000 0.000000
# 2 -0.001428 0.005918 -0.002998 0.000000 0.000000 0.000000
# 3 0.000592 -0.002998 0.009940 0.000000 0.000000 0.000000
# 4 0.000000 0.000000 0.000000 0.118654 0.000000 0.000000
# 5 0.000000 0.000000 0.000000 0.000000 0.021564 0.000000
# 6 0.000000 0.000000 0.000000 0.000000 0.000000 0.029321
#
#
# Mechanical properties :
#
#
# Convention : Reuss Voigt Hill
#
# Bulk Modulus (GPa) = 45.86018 62.11368 53.98693
# Shear Modulus (GPa) = 23.37030 38.97162 31.17096
#
# Velocity S-wave (km/s) = 3.23900 4.18266 3.74071
# Velocity P-wave (km/s) = 5.88006 7.15609 6.54923
#
# Compressibility (1/GPa) = 0.02180541
#
# Stress axis : x y z
#
# Youngs Moduli (GPa) = 73.45547 168.96416 100.60408
#
# Poissons Ratio (x) = 0.24121 -0.05958
# Poissons Ratio (y) = 0.10487 0.30161
# Poissons Ratio (z) = -0.04350 0.50654
#
# Static dielectric constant tensor:
#      x y z
#    x 1.846200 0.000000 0.000000 
#    y 0.000000 1.791800 0.000000 
#    z 0.000000 0.000000 1.877110 
# 
# From -- ./inp_files/8785.got.cif
#   From: 2010.05.17/outbox.cif.g08.bks.cpg/sg48_5_cif.got.tgz:8785.got - 2010.06.03 20:39:00.
