data_PCOD9392777
_publ_section_title
;
Structure prediction by ZEFSAII (Michael W. Deem and Ramdas Pophale) SiO2 
 PCOD9392777
Probable space group: P C C M
;
_chemical_formula_sum "Si O2"
_cell_formula_units_Z 48
_cell_length_a 18.322929
_cell_length_b 18.470451
_cell_length_c 8.608261
_cell_angle_alpha 90.000000
_cell_angle_beta 90.000000
_cell_angle_gamma 90.000000
_cell_volume 2913.317549
_symmetry_space_group_name_H-M "P C C M"
_symmetry_group_IT_number 49
_symmetry_cell_setting 'orthorhombic'
loop_
_space_group_symop_operation_xyz
x,y,z
-x,-y,z
x,-y,1/2-z
-x,y,1/2-z
-x,-y,-z
x,y,-z
-x,y,1/2+z
x,-y,1/2+z
loop_
_atom_site_type_symbol
_atom_site_label
_atom_site_fract_x
_atom_site_fract_y
_atom_site_fract_z
Si Si1 0.417769 0.922145 0.313186
Si Si2 0.700034 0.195172 0.312042
Si Si3 0.921059 0.581672 0.813950
Si Si4 0.194470 0.691941 0.817445
Si Si5 0.078787 0.801763 0.683982
Si Si6 0.818099 0.921841 0.182426
O O1 0.500000 0.917223 0.250000
O O2 0.417316 0.927285 0.500000
O O3 0.374319 0.848076 0.271091
O O4 0.387458 0.000000 0.250000
O O5 0.702658 0.202014 0.500000
O O6 0.729766 0.271983 0.245975
O O7 0.758851 0.135126 0.257943
O O8 0.916441 0.500000 0.750000
O O9 0.847810 0.624005 0.760611
O O10 0.000000 0.611018 0.750000
O O11 0.925271 0.582542 0.000000
O O12 0.134960 0.753312 0.778551
O O13 0.201776 0.678863 0.000000
O O14 0.084868 0.784491 0.500000
O O15 0.103873 0.884417 0.705610
O O16 0.000000 0.789425 0.750000
O O17 0.812034 0.000000 0.250000
O O18 0.804528 0.926733 0.000000
#
# Coordination Sequence:
#
# PCOD9392777 Si02
#       6
#     8   8   8   8   8   8
#     4  10  19  31  49  72 101 132 166 204 248 296
#     4   9  19  34  48  66  92 124 157 195 238 284
#     4  11  21  35  53  75 103 132 164 201 241 288
#     4  11  21  33  50  71  93 122 157 194 237 286
#     4  10  20  33  45  60  82 111 148 191 235 279
#     4   9  18  30  43  58  79 107 144 187 233 277
#
# _framework density 16.476061000000001
#
# number of rings (size 3 to 8) (size 9 to 14) (size 15 to 20)
#    0.000    2.000    0.000    7.000    0.000    5.000 
#    0.000    1.667    0.000    0.000    0.000    0.000 
#    0.000    0.667    0.000    7.000    0.000    3.833 
#
# Total GULP energy -267215.260652 kJ/mol
# GULP energy per Si atom -5566.984597 kJ/mol
# Density = 1.643856 g / cm^3
# Si number density = 16.476061 Si / 1000 Ang^3
#
#
#
# Elastic Constant Matrix: (Units=GPa)
#
#
# Indices 1 2 3 4 5 6 
#
# 1 65.2966 31.2353 28.1706 0.0000 0.0000 0.0000
# 2 31.2353 79.8751 31.4463 0.0000 0.0000 0.0000
# 3 28.1706 31.4463 75.9501 0.0000 0.0000 0.0000
# 4 0.0000 0.0000 0.0000 25.9669 0.0000 0.0000
# 5 0.0000 0.0000 0.0000 0.0000 20.9255 0.0000
# 6 0.0000 0.0000 0.0000 0.0000 0.0000 -2.3040
#
#
#
# Elastic Compliance Matrix: (Units=1/GPa)
#
#
# Indices 1 2 3 4 5 6 
#
# 1 0.020359 -0.005960 -0.005084 0.000000 0.000000 0.000000
# 2 -0.005960 0.016702 -0.004705 0.000000 0.000000 0.000000
# 3 -0.005084 -0.004705 0.017000 0.000000 0.000000 0.000000
# 4 0.000000 0.000000 0.000000 0.038511 0.000000 0.000000
# 5 0.000000 0.000000 0.000000 0.000000 0.047789 0.000000
# 6 0.000000 0.000000 0.000000 0.000000 0.000000 -0.434032
#
#
# Mechanical properties :
#
#
# Convention : Reuss Voigt Hill
#
# Bulk Modulus (GPa) = 44.31736 44.75847 44.53791
# Shear Modulus (GPa) = -19.63460 17.60232 -1.01614
#
# Velocity S-wave (km/s) = -3.45585 3.27212 -0.78618
# Velocity P-wave (km/s) = 3.32153 6.44208 5.12508
#
# Compressibility (1/GPa) = 0.02256452
#
# Stress axis : x y z
#
# Youngs Moduli (GPa) = 49.11835 59.87130 58.82317
#
# Poissons Ratio (x) = 0.35683 0.29904
# Poissons Ratio (y) = 0.29275 0.27675
# Poissons Ratio (z) = 0.24970 0.28169
#
# Static dielectric constant tensor:
#      x y z
#    x 1.564430 0.000000 0.000000 
#    y 0.000000 1.605970 0.000000 
#    z 0.000000 0.000000 1.565860 
# 
# From -- ./inp_files/4960.got.cif
#   From: 2010.05.17/outbox.cif.g08.bks.cpg/sg49_3_cif.got.tgz:4960.got - 2010.06.03 21:02:19.
