data_PCOD9392680
_publ_section_title
;
Structure prediction by ZEFSAII (Michael W. Deem and Ramdas Pophale) SiO2 
 PCOD9392680
Probable space group: P C C M
;
_chemical_formula_sum "Si O2"
_cell_formula_units_Z 58
_cell_length_a 14.886978
_cell_length_b 12.572615
_cell_length_c 14.638597
_cell_angle_alpha 90.000000
_cell_angle_beta 90.000000
_cell_angle_gamma 90.000000
_cell_volume 2739.880479
_symmetry_space_group_name_H-M "P C C M"
_symmetry_group_IT_number 49
_symmetry_cell_setting 'orthorhombic'
loop_
_space_group_symop_operation_xyz
x,y,z
-x,-y,z
x,-y,1/2-z
-x,y,1/2-z
-x,-y,-z
x,y,-z
-x,y,1/2+z
x,-y,1/2+z
loop_
_atom_site_type_symbol
_atom_site_label
_atom_site_fract_x
_atom_site_fract_y
_atom_site_fract_z
Si Si1 0.298427 0.891083 0.392551
Si Si2 0.509715 0.158389 0.107388
Si Si3 0.001818 0.822875 0.639493
Si Si4 0.455279 0.391299 0.111067
Si Si5 0.254451 0.661179 0.612504
Si Si6 0.134114 0.992092 0.143779
Si Si7 0.065828 0.411851 0.894481
Si Si8 0.500000 0.000000 0.750000
O O1 0.282943 0.887982 0.500000
O O2 0.404997 0.877132 0.384037
O O3 0.254817 0.783121 0.353370
O O4 0.240276 0.991675 0.363183
O O5 0.508904 0.282656 0.133431
O O6 0.553409 0.081026 0.182303
O O7 0.535955 0.143783 0.000000
O O8 0.020650 0.704542 0.606163
O O9 0.000000 0.813876 0.750000
O O10 0.910027 0.882779 0.610612
O O11 0.079606 0.905178 0.606811
O O12 0.500000 0.500000 0.142241
O O13 0.351395 0.384235 0.139715
O O14 0.454263 0.391078 0.000000
O O15 0.252788 0.662581 0.500000
O O16 0.165594 0.602054 0.646039
O O17 0.111785 0.000000 0.250000
O O18 0.000000 0.500000 0.853849
O O19 0.080874 0.443758 0.000000
#
# Coordination Sequence:
#
# PCOD9392680 Si02
#       8
#     8   8   8   8   8   8   8   2
#     4   9  16  29  50  75 101 131 168 215 256 296
#     4   9  20  35  54  84 111 136 184 225 260 339
#     4   9  18  31  44  68  95 132 170 211 255 297
#     4   8  14  29  56  83 105 133 172 227 287 325
#     4   8  14  26  46  74 100 127 168 208 254 317
#     4   9  17  28  47  70  99 127 167 214 255 295
#     4  10  19  30  46  67  96 132 169 209 250 302
#     4  12  22  36  58  78 108 158 178 194 284 326
#
# _framework density 21.168807999999999
#
# number of rings (size 3 to 8) (size 9 to 14) (size 15 to 20)
#    0.000    3.034    1.379    2.690    0.966    0.828 
#    0.000    1.724    3.034    0.000    3.586    0.000 
#    0.000    0.000    0.000    0.000    0.000    0.000 
#
# Total GULP energy -322954.797167 kJ/mol
# GULP energy per Si atom -5568.186158 kJ/mol
# Density = 2.112063 g / cm^3
# Si number density = 21.168808 Si / 1000 Ang^3
#
#
#
# Elastic Constant Matrix: (Units=GPa)
#
#
# Indices 1 2 3 4 5 6 
#
# 1 58.4201 35.7045 -1.4547 0.0000 0.0000 0.0000
# 2 35.7045 137.0161 13.2193 0.0000 0.0000 0.0000
# 3 -1.4547 13.2193 66.2344 0.0000 0.0000 0.0000
# 4 0.0000 0.0000 0.0000 6.0335 0.0000 0.0000
# 5 0.0000 0.0000 0.0000 0.0000 -1.7311 0.0000
# 6 0.0000 0.0000 0.0000 0.0000 0.0000 36.4082
#
#
#
# Elastic Compliance Matrix: (Units=1/GPa)
#
#
# Indices 1 2 3 4 5 6 
#
# 1 0.020514 -0.005495 0.001547 0.000000 0.000000 0.000000
# 2 -0.005495 0.008914 -0.001900 0.000000 0.000000 0.000000
# 3 0.001547 -0.001900 0.015511 0.000000 0.000000 0.000000
# 4 0.000000 0.000000 0.000000 0.165741 0.000000 0.000000
# 5 0.000000 0.000000 0.000000 0.000000 -0.577675 0.000000
# 6 0.000000 0.000000 0.000000 0.000000 0.000000 0.027466
#
#
# Mechanical properties :
#
#
# Convention : Reuss Voigt Hill
#
# Bulk Modulus (GPa) = 30.08056 39.62319 34.85187
# Shear Modulus (GPa) = -15.78517 22.42224 3.31854
#
# Velocity S-wave (km/s) = -2.73368 3.25808 1.25342
# Velocity P-wave (km/s) = 2.06802 5.73688 4.31211
#
# Compressibility (1/GPa) = 0.03324406
#
# Stress axis : x y z
#
# Youngs Moduli (GPa) = 48.74653 112.18793 64.47022
#
# Poissons Ratio (x) = 0.61647 -0.09975
# Poissons Ratio (y) = 0.26786 0.12247
# Poissons Ratio (z) = -0.07542 0.21312
#
# Static dielectric constant tensor:
#      x y z
#    x 1.841190 0.000000 0.000000 
#    y 0.000000 1.859350 0.000000 
#    z 0.000000 0.000000 1.826040 
# 
# From -- ./inp_files/14155.got.cif
#   From: 2010.05.17/outbox.cif.g08.bks.cpg/sg49_8_cif.got.tgz:14155.got - 2010.06.03 21:02:19.
