data_PCOD9392028
_publ_section_title
;
Structure prediction by ZEFSAII (Michael W. Deem and Ramdas Pophale) SiO2 
 PCOD9392028
Probable space group: P C C M
;
_chemical_formula_sum "Si O2"
_cell_formula_units_Z 40
_cell_length_a 15.714668
_cell_length_b 21.248124
_cell_length_c 8.636921
_cell_angle_alpha 90.000000
_cell_angle_beta 90.000000
_cell_angle_gamma 90.000000
_cell_volume 2883.930231
_symmetry_space_group_name_H-M "P C C M"
_symmetry_group_IT_number 49
_symmetry_cell_setting 'orthorhombic'
loop_
_space_group_symop_operation_xyz
x,y,z
-x,-y,z
x,-y,1/2-z
-x,y,1/2-z
-x,-y,-z
x,y,-z
-x,y,1/2+z
x,-y,1/2+z
loop_
_atom_site_type_symbol
_atom_site_label
_atom_site_fract_x
_atom_site_fract_y
_atom_site_fract_z
Si Si1 0.904751 0.674154 0.185374
Si Si2 0.096719 0.805503 0.815027
Si Si3 0.764803 0.570424 0.814794
Si Si4 0.412757 0.428482 0.315300
Si Si5 0.902914 0.935045 0.814800
O O1 0.867940 0.738778 0.257511
O O2 0.843520 0.615824 0.221602
O O3 0.000000 0.664080 0.250000
O O4 0.910031 0.681621 0.000000
O O5 0.136049 0.869587 0.746315
O O6 0.000000 0.803861 0.750000
O O7 0.094992 0.808794 0.000000
O O8 0.778223 0.500000 0.750000
O O9 0.677124 0.597606 0.743921
O O10 0.755154 0.566356 0.000000
O O11 0.411556 0.500000 0.250000
O O12 0.500000 0.399148 0.250000
O O13 0.415529 0.430030 0.500000
O O14 0.000000 0.934526 0.750000
O O15 0.864212 0.000000 0.750000
O O16 0.905339 0.935960 0.000000
#
# Coordination Sequence:
#
# PCOD9392028 Si02
#       5
#     8   8   8   8   8
#     4  10  20  32  44  57  75 102 135 171 205 239
#     4  10  17  26  39  53  70  94 125 159 195 234
#     4  10  20  32  45  61  80 101 130 166 204 242
#     4  10  17  27  44  63  83 102 122 150 190 238
#     4  10  16  23  34  50  71  92 118 152 191 230
#
# _framework density 13.869960000000001
#
# number of rings (size 3 to 8) (size 9 to 14) (size 15 to 20)
#    0.000    2.000    0.000   11.400    0.000    3.600 
#    0.000    2.000    0.000    0.000    0.000    0.000 
#    0.000    0.000    0.000    0.000    0.000    1.000 
#
# Total GULP energy -222813.143195 kJ/mol
# GULP energy per Si atom -5570.328580 kJ/mol
# Density = 1.383839 g / cm^3
# Si number density = 13.869960 Si / 1000 Ang^3
#
#
#
# Elastic Constant Matrix: (Units=GPa)
#
#
# Indices 1 2 3 4 5 6 
#
# 1 62.3782 41.1126 37.7931 0.0000 0.0000 0.0000
# 2 41.1126 98.6408 51.9138 0.0000 0.0000 0.0000
# 3 37.7931 51.9138 122.3753 0.0000 0.0000 0.0000
# 4 0.0000 0.0000 0.0000 19.1317 0.0000 0.0000
# 5 0.0000 0.0000 0.0000 0.0000 20.3967 0.0000
# 6 0.0000 0.0000 0.0000 0.0000 0.0000 -0.1499
#
#
#
# Elastic Compliance Matrix: (Units=1/GPa)
#
#
# Indices 1 2 3 4 5 6 
#
# 1 0.023531 -0.007703 -0.004000 0.000000 0.000000 0.000000
# 2 -0.007703 0.015573 -0.004228 0.000000 0.000000 0.000000
# 3 -0.004000 -0.004228 0.011200 0.000000 0.000000 0.000000
# 4 0.000000 0.000000 0.000000 0.052269 0.000000 0.000000
# 5 0.000000 0.000000 0.000000 0.000000 0.049028 0.000000
# 6 0.000000 0.000000 0.000000 0.000000 0.000000 -6.673213
#
#
# Mechanical properties :
#
#
# Convention : Reuss Voigt Hill
#
# Bulk Modulus (GPa) = 54.21543 60.55924 57.38734
# Shear Modulus (GPa) = -0.77118 18.04735 8.63809
#
# Velocity S-wave (km/s) = -0.74647 3.61110 2.49829
# Velocity P-wave (km/s) = 6.19922 7.81944 7.05599
#
# Compressibility (1/GPa) = 0.01844493
#
# Stress axis : x y z
#
# Youngs Moduli (GPa) = 42.49688 64.21322 89.28432
#
# Poissons Ratio (x) = 0.49461 0.35709
# Poissons Ratio (y) = 0.32734 0.37746
# Poissons Ratio (z) = 0.16997 0.27147
#
# Static dielectric constant tensor:
#      x y z
#    x 1.456210 0.000000 0.000000 
#    y 0.000000 1.506300 0.000000 
#    z 0.000000 0.000000 1.462400 
# 
# From -- ./inp_files/4939.got.cif
#   From: 2010.05.17/outbox.cif.g08.bks.cpg/sg49_3_cif.got.tgz:4939.got - 2010.06.03 21:02:19.
