data_PCOD9392233
_publ_section_title
;
Structure prediction by ZEFSAII (Michael W. Deem and Ramdas Pophale) SiO2 
 PCOD9392233
Probable space group: P C C M
;
_chemical_formula_sum "Si O2"
_cell_formula_units_Z 32
_cell_length_a 21.320563
_cell_length_b 9.348359
_cell_length_c 8.561678
_cell_angle_alpha 90.000000
_cell_angle_beta 90.000000
_cell_angle_gamma 90.000000
_cell_volume 1706.447537
_symmetry_space_group_name_H-M "P C C M"
_symmetry_group_IT_number 49
_symmetry_cell_setting 'orthorhombic'
loop_
_space_group_symop_operation_xyz
x,y,z
-x,-y,z
x,-y,1/2-z
-x,y,1/2-z
-x,-y,-z
x,y,-z
-x,y,1/2+z
x,-y,1/2+z
loop_
_atom_site_type_symbol
_atom_site_label
_atom_site_fract_x
_atom_site_fract_y
_atom_site_fract_z
Si Si1 0.185322 0.339188 0.312912
Si Si2 0.696646 0.837466 0.813005
Si Si3 0.068395 0.839145 0.312732
Si Si4 0.564891 0.836396 0.686738
O O1 0.187252 0.500000 0.250000
O O2 0.185705 0.337616 0.500000
O O3 0.245303 0.253411 0.248952
O O4 0.122933 0.261754 0.250499
O O5 0.630336 0.775968 0.750537
O O6 0.702830 0.000000 0.750000
O O7 0.695743 0.841069 0.000000
O O8 0.068091 0.841016 0.500000
O O9 0.000000 0.794468 0.250000
O O10 0.079434 0.000000 0.250000
O O11 0.500000 0.770546 0.750000
O O12 0.564602 0.838192 0.500000
O O13 0.565166 0.000000 0.750000
#
# Coordination Sequence:
#
# PCOD9392233 Si02
#       4
#     8   8   8   8
#     4  12  25  42  60  84 115 152 192 236 284 338
#     4  11  21  36  57  84 114 150 191 237 285 338
#     4  11  22  40  64  92 120 152 189 233 281 334
#     4  10  17  28  47  76 110 145 183 232 285 338
#
# _framework density 18.752409
#
# number of rings (size 3 to 8) (size 9 to 14) (size 15 to 20)
#    0.000    1.000    0.000   12.750    0.000    0.500 
#    0.000    2.500    0.000    0.750    0.000    5.250 
#    0.000    0.000    0.000    0.000    0.000    0.000 
#
# Total GULP energy -178913.299808 kJ/mol
# GULP energy per Si atom -5591.040619 kJ/mol
# Density = 1.870973 g / cm^3
# Si number density = 18.752409 Si / 1000 Ang^3
#
#
#
# Elastic Constant Matrix: (Units=GPa)
#
#
# Indices 1 2 3 4 5 6 
#
# 1 218.9379 100.0865 102.2359 0.0000 0.0000 0.0000
# 2 100.0865 74.6323 55.4861 0.0000 0.0000 0.0000
# 3 102.2359 55.4861 255.7885 0.0000 0.0000 0.0000
# 4 0.0000 0.0000 0.0000 28.7748 0.0000 0.0000
# 5 0.0000 0.0000 0.0000 0.0000 39.9433 0.0000
# 6 0.0000 0.0000 0.0000 0.0000 0.0000 -11.9783
#
#
#
# Elastic Compliance Matrix: (Units=1/GPa)
#
#
# Indices 1 2 3 4 5 6 
#
# 1 0.012329 -0.015346 -0.001599 0.000000 0.000000 0.000000
# 2 -0.015346 0.035075 -0.001475 0.000000 0.000000 0.000000
# 3 -0.001599 -0.001475 0.004869 0.000000 0.000000 0.000000
# 4 0.000000 0.000000 0.000000 0.034753 0.000000 0.000000
# 5 0.000000 0.000000 0.000000 0.000000 0.025035 0.000000
# 6 0.000000 0.000000 0.000000 0.000000 0.000000 -0.083484
#
#
# Mechanical properties :
#
#
# Convention : Reuss Voigt Hill
#
# Bulk Modulus (GPa) = 64.79415 118.33063 91.56239
# Shear Modulus (GPa) = 70.86041 30.78465 50.82253
#
# Velocity S-wave (km/s) = 6.15381 4.05611 5.21159
# Velocity P-wave (km/s) = 9.22605 9.22901 9.22753
#
# Compressibility (1/GPa) = 0.01543349
#
# Stress axis : x y z
#
# Youngs Moduli (GPa) = 81.10665 28.51019 205.39728
#
# Poissons Ratio (x) = 0.43751 0.32846
# Poissons Ratio (y) = 1.24464 0.30298
# Poissons Ratio (z) = 0.12970 0.04205
#
# Static dielectric constant tensor:
#      x y z
#    x 1.679400 0.000000 0.000000 
#    y 0.000000 1.696840 0.000000 
#    z 0.000000 0.000000 1.619740 
# 
# From -- ./inp_files/1407.got.cif
#   From: 2010.05.17/outbox.cif.g08.bks.cpg/sg49_1_cif.got.tgz:1407.got - 2010.06.03 21:02:19.
