data_PCOD9392856
_publ_section_title
;
Structure prediction by ZEFSAII (Michael W. Deem and Ramdas Pophale) SiO2 
 PCOD9392856
Probable space group: P C C M
;
_chemical_formula_sum "Si O2"
_cell_formula_units_Z 56
_cell_length_a 15.376899
_cell_length_b 20.403306
_cell_length_c 9.297677
_cell_angle_alpha 90.000000
_cell_angle_beta 90.000000
_cell_angle_gamma 90.000000
_cell_volume 2917.049236
_symmetry_space_group_name_H-M "P C C M"
_symmetry_group_IT_number 49
_symmetry_cell_setting 'orthorhombic'
loop_
_space_group_symop_operation_xyz
x,y,z
-x,-y,z
x,-y,1/2-z
-x,y,1/2-z
-x,-y,-z
x,y,-z
-x,y,1/2+z
x,-y,1/2+z
loop_
_atom_site_type_symbol
_atom_site_label
_atom_site_fract_x
_atom_site_fract_y
_atom_site_fract_z
Si Si1 0.387443 0.062952 0.660061
Si Si2 0.731618 0.318789 0.170093
Si Si3 0.180379 0.937906 0.839667
Si Si4 0.588407 0.568692 0.328397
Si Si5 0.084346 0.842139 0.336565
Si Si6 0.912392 0.684441 0.834105
Si Si7 0.588094 0.212688 0.825173
O O1 0.425752 0.060771 0.500000
O O2 0.283562 0.056066 0.648055
O O3 0.403243 0.136188 0.718164
O O4 0.414034 0.000000 0.750000
O O5 0.666029 0.379727 0.188193
O O6 0.821069 0.329998 0.255536
O O7 0.673367 0.255382 0.213801
O O8 0.752285 0.311443 0.000000
O O9 0.162763 0.872175 0.752069
O O10 0.146622 0.000000 0.750000
O O11 0.143156 0.935027 0.000000
O O12 0.609269 0.500000 0.250000
O O13 0.500000 0.592195 0.250000
O O14 0.573576 0.559828 0.500000
O O15 0.084919 0.865383 0.500000
O O16 0.084309 0.763801 0.336697
O O17 0.000000 0.865148 0.250000
O O18 0.000000 0.662540 0.750000
O O19 0.913173 0.661636 0.000000
O O20 0.500000 0.238021 0.750000
O O21 0.580635 0.216296 0.000000
#
# Coordination Sequence:
#
# PCOD9392856 Si02
#       7
#     8   8   8   8   8   8   8
#     4   9  19  34  51  69  93 129 172 218 269 322
#     4  10  21  37  58  84 116 151 189 233 282 332
#     4  10  19  32  49  67  89 120 160 211 268 327
#     4  10  20  35  58  88 123 162 198 236 278 330
#     4  10  20  33  48  69  95 125 163 208 263 326
#     4  10  21  36  57  83 111 144 183 228 277 330
#     4  10  21  36  53  77 108 142 181 228 279 331
#
# _framework density 19.197481
#
# number of rings (size 3 to 8) (size 9 to 14) (size 15 to 20)
#    0.000    2.143    0.000    3.429    0.000    6.286 
#    0.000    2.857    0.000    0.429    0.000    3.000 
#    0.000    0.000    0.000    0.000    0.000    0.000 
#
# Total GULP energy -312345.641241 kJ/mol
# GULP energy per Si atom -5577.600736 kJ/mol
# Density = 1.915379 g / cm^3
# Si number density = 19.197481 Si / 1000 Ang^3
#
#
#
# Elastic Constant Matrix: (Units=GPa)
#
#
# Indices 1 2 3 4 5 6 
#
# 1 125.7868 39.6384 72.1535 0.0000 0.0000 0.0000
# 2 39.6384 65.5842 40.5085 0.0000 0.0000 0.0000
# 3 72.1535 40.5085 129.6478 0.0000 0.0000 0.0000
# 4 0.0000 0.0000 0.0000 -5.8213 0.0000 0.0000
# 5 0.0000 0.0000 0.0000 0.0000 21.8221 0.0000
# 6 0.0000 0.0000 0.0000 0.0000 0.0000 25.1032
#
#
#
# Elastic Compliance Matrix: (Units=1/GPa)
#
#
# Indices 1 2 3 4 5 6 
#
# 1 0.012483 -0.004032 -0.005687 0.000000 0.000000 0.000000
# 2 -0.004032 0.020196 -0.004067 0.000000 0.000000 0.000000
# 3 -0.005687 -0.004067 0.012149 0.000000 0.000000 0.000000
# 4 0.000000 0.000000 0.000000 -0.171783 0.000000 0.000000
# 5 0.000000 0.000000 0.000000 0.000000 0.045825 0.000000
# 6 0.000000 0.000000 0.000000 0.000000 0.000000 0.039836
#
#
# Mechanical properties :
#
#
# Convention : Reuss Voigt Hill
#
# Bulk Modulus (GPa) = 57.94850 69.51330 63.73090
# Shear Modulus (GPa) = -627.25771 19.46869 -303.89451
#
# Velocity S-wave (km/s) = -18.09555 3.18799 -12.59535
# Velocity P-wave (km/s) = 20.15806 7.05969 13.35119
#
# Compressibility (1/GPa) = 0.01725670
#
# Stress axis : x y z
#
# Youngs Moduli (GPa) = 80.10996 49.51492 82.31088
#
# Poissons Ratio (x) = 0.19962 0.46814
# Poissons Ratio (y) = 0.32297 0.33472
# Poissons Ratio (z) = 0.45562 0.20135
#
# Static dielectric constant tensor:
#      x y z
#    x 1.690240 0.000000 0.000000 
#    y 0.000000 1.673820 0.000000 
#    z 0.000000 0.000000 1.715680 
# 
# From -- ./inp_files/4030.got.cif
#   From: 2010.05.17/outbox.cif.g08.bks.cpg/sg49_3_cif.got.tgz:4030.got - 2010.06.03 21:02:19.
