data_PCOD9392568
_publ_section_title
;
Structure prediction by ZEFSAII (Michael W. Deem and Ramdas Pophale) SiO2 
 PCOD9392568
Probable space group: P C C M
;
_chemical_formula_sum "Si O2"
_cell_formula_units_Z 58
_cell_length_a 13.433786
_cell_length_b 10.285015
_cell_length_c 25.266148
_cell_angle_alpha 90.000000
_cell_angle_beta 90.000000
_cell_angle_gamma 90.000000
_cell_volume 3490.940051
_symmetry_space_group_name_H-M "P C C M"
_symmetry_group_IT_number 49
_symmetry_cell_setting 'orthorhombic'
loop_
_space_group_symop_operation_xyz
x,y,z
-x,-y,z
x,-y,1/2-z
-x,y,1/2-z
-x,-y,-z
x,y,-z
-x,y,1/2+z
x,-y,1/2+z
loop_
_atom_site_type_symbol
_atom_site_label
_atom_site_fract_x
_atom_site_fract_y
_atom_site_fract_z
Si Si1 0.201192 0.650224 0.310870
Si Si2 0.003853 0.648767 0.872837
Si Si3 0.284921 0.868902 0.384153
Si Si4 0.213038 0.351684 0.685091
Si Si5 0.500000 0.000000 0.750000
Si Si6 0.623054 0.861202 0.342257
Si Si7 0.929943 0.882707 0.937201
Si Si8 0.484289 0.155427 0.941078
O O1 0.087971 0.662125 0.331855
O O2 0.266261 0.761062 0.339012
O O3 0.237295 0.504133 0.324835
O O4 0.199977 0.662952 0.247993
O O5 0.981604 0.750013 0.918835
O O6 0.000000 0.500000 0.891717
O O7 0.108842 0.674349 0.844580
O O8 0.179458 0.889566 0.412377
O O9 0.369994 0.821402 0.424707
O O10 0.323400 0.005697 0.361155
O O11 0.297247 0.250773 0.668324
O O12 0.562878 0.907206 0.710140
O O13 0.551800 0.811744 0.390048
O O14 0.921594 0.889757 0.000000
O O15 0.000000 0.000000 0.918177
O O16 0.500000 0.000000 0.944958
O O17 0.507599 0.209133 0.000000
#
# Coordination Sequence:
#
# PCOD9392568 Si02
#       8
#     8   8   8   8   2   8   8   8
#     4   9  19  33  53  77 108 135 174 208 265 321
#     4   9  18  34  53  74 104 139 178 212 254 320
#     4  10  18  35  54  76 100 140 171 221 264 320
#     4  10  19  33  53  78 104 141 171 215 259 321
#     4  12  20  36  50  82 110 140 168 228 284 316
#     4  11  21  33  56  76 107 134 178 220 267 320
#     4  10  20  32  50  78 109 135 172 224 271 314
#     4   9  18  34  54  75  96 133 182 218 255 310
#
# _framework density 16.614435
#
# number of rings (size 3 to 8) (size 9 to 14) (size 15 to 20)
#    0.000    2.207    2.069    2.483    0.000    2.483 
#    0.000    1.379    0.000    7.448    0.000    0.000 
#    0.000    0.000    0.000    0.000    0.000    0.000 
#
# Total GULP energy -323202.131790 kJ/mol
# GULP energy per Si atom -5572.450548 kJ/mol
# Density = 1.657662 g / cm^3
# Si number density = 16.614435 Si / 1000 Ang^3
#
#
#
# Elastic Constant Matrix: (Units=GPa)
#
#
# Indices 1 2 3 4 5 6 
#
# 1 95.8177 51.0930 35.3375 0.0000 0.0000 0.0000
# 2 51.0930 61.6202 22.9326 0.0000 0.0000 0.0000
# 3 35.3375 22.9326 55.9170 0.0000 0.0000 0.0000
# 4 0.0000 0.0000 0.0000 20.2170 0.0000 0.0000
# 5 0.0000 0.0000 0.0000 0.0000 12.4103 0.0000
# 6 0.0000 0.0000 0.0000 0.0000 0.0000 26.8708
#
#
#
# Elastic Compliance Matrix: (Units=1/GPa)
#
#
# Indices 1 2 3 4 5 6 
#
# 1 0.020907 -0.014655 -0.007202 0.000000 0.000000 0.000000
# 2 -0.014655 0.029424 -0.002806 0.000000 0.000000 0.000000
# 3 -0.007202 -0.002806 0.023586 0.000000 0.000000 0.000000
# 4 0.000000 0.000000 0.000000 0.049463 0.000000 0.000000
# 5 0.000000 0.000000 0.000000 0.000000 0.080578 0.000000
# 6 0.000000 0.000000 0.000000 0.000000 0.000000 0.037215
#
#
# Mechanical properties :
#
#
# Convention : Reuss Voigt Hill
#
# Bulk Modulus (GPa) = 40.66562 48.00900 44.33731
# Shear Modulus (GPa) = 16.73938 18.83241 17.78590
#
# Velocity S-wave (km/s) = 3.17759 3.37040 3.27541
# Velocity P-wave (km/s) = 6.16376 6.64114 6.40690
#
# Compressibility (1/GPa) = 0.02459080
#
# Stress axis : x y z
#
# Youngs Moduli (GPa) = 47.83052 33.98584 42.39808
#
# Poissons Ratio (x) = 0.49806 0.30536
# Poissons Ratio (y) = 0.70095 0.11897
# Poissons Ratio (z) = 0.34449 0.09536
#
# Static dielectric constant tensor:
#      x y z
#    x 1.552260 0.000000 0.000000 
#    y 0.000000 1.544710 0.000000 
#    z 0.000000 0.000000 1.563070 
# 
# From -- ./inp_files/25090.got.cif
#   From: 2010.05.17/outbox.cif.g08.bks.cpg/sg49_13_cif.got.tgz:25090.got - 2010.06.03 21:02:19.
