data_PCOD9392952
_publ_section_title
;
Structure prediction by ZEFSAII (Michael W. Deem and Ramdas Pophale) SiO2 
 PCOD9392952
Probable space group: P C C M
;
_chemical_formula_sum "Si O2"
_cell_formula_units_Z 64
_cell_length_a 8.268290
_cell_length_b 15.721154
_cell_length_c 24.465496
_cell_angle_alpha 90.000000
_cell_angle_beta 90.000000
_cell_angle_gamma 90.000000
_cell_volume 3180.197906
_symmetry_space_group_name_H-M "P C C M"
_symmetry_group_IT_number 49
_symmetry_cell_setting 'orthorhombic'
loop_
_space_group_symop_operation_xyz
x,y,z
-x,-y,z
x,-y,1/2-z
-x,y,1/2-z
-x,-y,-z
x,y,-z
-x,y,1/2+z
x,-y,1/2+z
loop_
_atom_site_type_symbol
_atom_site_label
_atom_site_fract_x
_atom_site_fract_y
_atom_site_fract_z
Si Si1 0.327084 0.715718 0.228631
Si Si2 0.659555 0.807134 0.619399
Si Si3 0.771334 0.354716 0.939074
Si Si4 0.144519 0.702145 0.439404
Si Si5 0.148625 0.372871 0.822471
Si Si6 0.646579 0.133260 0.562118
Si Si7 0.779945 0.561527 0.669876
Si Si8 0.166457 0.039935 0.436113
O O1 0.500000 0.743517 0.250000
O O2 0.284436 0.779686 0.179715
O O3 0.206782 0.696684 0.278782
O O4 0.344396 0.624148 0.198685
O O5 0.662219 0.721422 0.583292
O O6 0.480998 0.843913 0.608960
O O7 0.778405 0.877631 0.595714
O O8 0.765026 0.430486 0.895475
O O9 0.951722 0.313857 0.939130
O O10 0.730544 0.381123 0.000000
O O11 0.201347 0.671704 0.500000
O O12 0.196686 0.655620 0.383651
O O13 0.205035 0.799575 0.435390
O O14 0.225680 0.465143 0.811368
O O15 0.956721 0.394811 0.818895
O O16 0.575543 0.142364 0.500000
O O17 0.705494 0.036807 0.567100
O O18 0.145260 0.062706 0.500000
O O19 0.000000 0.000000 0.415704
#
# Coordination Sequence:
#
# PCOD9392952 Si02
#       8
#     8   8   8   8   8   8   8   8
#     4  11  23  37  54  76 103 142 189 232 274 316
#     4  11  21  34  53  80 110 146 186 223 266 316
#     4   9  17  31  51  79 115 146 175 218 275 334
#     4   9  18  32  53  81 111 144 179 221 276 333
#     4  10  19  36  56  78 108 141 184 234 278 327
#     4  10  19  32  53  81 113 147 180 215 259 314
#     4   9  20  34  55  81 105 141 186 231 277 325
#     4  10  20  35  59  90 120 146 174 214 264 321
#
# _framework density 20.124531999999999
#
# number of rings (size 3 to 8) (size 9 to 14) (size 15 to 20)
#    0.000    2.125    0.000    3.750    0.000    5.500 
#    0.000    3.750    0.000    5.250    0.000   10.500 
#    0.000    0.000    0.000    0.000    0.000    0.000 
#
# Total GULP energy -357069.549095 kJ/mol
# GULP energy per Si atom -5579.211705 kJ/mol
# Density = 2.007873 g / cm^3
# Si number density = 20.124532 Si / 1000 Ang^3
#
#
#
# Elastic Constant Matrix: (Units=GPa)
#
#
# Indices 1 2 3 4 5 6 
#
# 1 19.7023 5.1567 11.5808 0.0000 0.0000 0.0000
# 2 5.1567 64.7632 32.9821 0.0000 0.0000 0.0000
# 3 11.5808 32.9821 122.7100 0.0000 0.0000 0.0000
# 4 0.0000 0.0000 0.0000 29.9490 0.0000 0.0000
# 5 0.0000 0.0000 0.0000 0.0000 23.8698 0.0000
# 6 0.0000 0.0000 0.0000 0.0000 0.0000 17.0073
#
#
#
# Elastic Compliance Matrix: (Units=1/GPa)
#
#
# Indices 1 2 3 4 5 6 
#
# 1 0.053953 -0.001973 -0.004562 0.000000 0.000000 0.000000
# 2 -0.001973 0.017962 -0.004642 0.000000 0.000000 0.000000
# 3 -0.004562 -0.004642 0.009827 0.000000 0.000000 0.000000
# 4 0.000000 0.000000 0.000000 0.033390 0.000000 0.000000
# 5 0.000000 0.000000 0.000000 0.000000 0.041894 0.000000
# 6 0.000000 0.000000 0.000000 0.000000 0.000000 0.058798
#
#
# Mechanical properties :
#
#
# Convention : Reuss Voigt Hill
#
# Bulk Modulus (GPa) = 16.83777 34.06827 25.45302
# Shear Modulus (GPa) = 19.38184 24.66227 22.02206
#
# Velocity S-wave (km/s) = 3.10674 3.50449 3.31159
# Velocity P-wave (km/s) = 4.61022 5.77414 5.22469
#
# Compressibility (1/GPa) = 0.05939029
#
# Stress axis : x y z
#
# Youngs Moduli (GPa) = 18.53459 55.67371 101.75665
#
# Poissons Ratio (x) = 0.10984 0.46417
# Poissons Ratio (y) = 0.03657 0.47231
# Poissons Ratio (z) = 0.08455 0.25841
#
# Static dielectric constant tensor:
#      x y z
#    x 1.773910 0.000000 0.000000 
#    y 0.000000 1.668750 0.000000 
#    z 0.000000 0.000000 1.746440 
# 
# From -- ./inp_files/22569.got.cif
#   From: 2010.05.17/outbox.cif.g08.bks.cpg/sg49_12_cif.got.tgz:22569.got - 2010.06.03 21:02:19.
