data_PCOD9392034
_publ_section_title
;
Structure prediction by ZEFSAII (Michael W. Deem and Ramdas Pophale) SiO2 
 PCOD9392034
Probable space group: P C C M
;
_chemical_formula_sum "Si O2"
_cell_formula_units_Z 32
_cell_length_a 9.137553
_cell_length_b 21.949266
_cell_length_c 8.617382
_cell_angle_alpha 90.000000
_cell_angle_beta 90.000000
_cell_angle_gamma 90.000000
_cell_volume 1728.324379
_symmetry_space_group_name_H-M "P C C M"
_symmetry_group_IT_number 49
_symmetry_cell_setting 'orthorhombic'
loop_
_space_group_symop_operation_xyz
x,y,z
-x,-y,z
x,-y,1/2-z
-x,y,1/2-z
-x,-y,-z
x,y,-z
-x,y,1/2+z
x,-y,1/2+z
loop_
_atom_site_type_symbol
_atom_site_label
_atom_site_fract_x
_atom_site_fract_y
_atom_site_fract_z
Si Si1 0.164245 0.063285 0.185655
Si Si2 0.332636 0.437118 0.814428
Si Si3 0.332907 0.311503 0.314607
Si Si4 0.335387 0.814625 0.686402
O O1 0.250308 0.124151 0.230361
O O2 0.000000 0.067613 0.250000
O O3 0.229076 0.000000 0.250000
O O4 0.159891 0.059626 0.000000
O O5 0.265806 0.500000 0.750000
O O6 0.500000 0.436707 0.750000
O O7 0.265713 0.373810 0.752956
O O8 0.336472 0.437846 0.000000
O O9 0.500000 0.310023 0.250000
O O10 0.336418 0.314100 0.500000
O O11 0.268089 0.247508 0.256526
O O12 0.500000 0.819992 0.750000
O O13 0.338858 0.809047 0.500000
#
# Coordination Sequence:
#
# PCOD9392034 Si02
#       4
#     8   8   8   8
#     4  10  21  36  55  75  98 126 160 197 240 287
#     4  10  16  23  34  51  78 113 153 193 231 278
#     4  10  17  26  40  59  85 119 154 192 236 282
#     4  10  20  33  49  72  98 128 161 198 240 287
#
# _framework density 18.515044
#
# number of rings (size 3 to 8) (size 9 to 14) (size 15 to 20)
#    0.000    2.000    0.000   10.500    0.000    4.500 
#    0.000    2.500    0.000    0.000    0.000    0.000 
#    0.000    1.000    0.000   10.500    0.000   10.000 
#
# Total GULP energy -178444.783003 kJ/mol
# GULP energy per Si atom -5576.399469 kJ/mol
# Density = 1.847290 g / cm^3
# Si number density = 18.515044 Si / 1000 Ang^3
#
#
#
# Elastic Constant Matrix: (Units=GPa)
#
#
# Indices 1 2 3 4 5 6 
#
# 1 11.6733 37.3669 12.5761 0.0000 0.0000 0.0000
# 2 37.3669 247.4985 85.1895 0.0000 0.0000 0.0000
# 3 12.5761 85.1895 138.5226 0.0000 0.0000 0.0000
# 4 0.0000 0.0000 0.0000 38.7625 0.0000 0.0000
# 5 0.0000 0.0000 0.0000 0.0000 -3.0088 0.0000
# 6 0.0000 0.0000 0.0000 0.0000 0.0000 -8.0615
#
#
#
# Elastic Compliance Matrix: (Units=1/GPa)
#
#
# Indices 1 2 3 4 5 6 
#
# 1 0.165810 -0.025183 0.000434 0.000000 0.000000 0.000000
# 2 -0.025183 0.008950 -0.003218 0.000000 0.000000 0.000000
# 3 0.000434 -0.003218 0.009159 0.000000 0.000000 0.000000
# 4 0.000000 0.000000 0.000000 0.025798 0.000000 0.000000
# 5 0.000000 0.000000 0.000000 0.000000 -0.332357 0.000000
# 6 0.000000 0.000000 0.000000 0.000000 0.000000 -0.124046
#
#
# Mechanical properties :
#
#
# Convention : Reuss Voigt Hill
#
# Bulk Modulus (GPa) = 7.81345 74.21770 41.01557
# Shear Modulus (GPa) = -33.76312 23.04258 -5.36027
#
# Velocity S-wave (km/s) = -4.27494 3.53162 -1.70334
# Velocity P-wave (km/s) = 4.48749 7.53670 4.28161
#
# Compressibility (1/GPa) = 0.12798447
#
# Stress axis : x y z
#
# Youngs Moduli (GPa) = 6.03100 111.73038 109.18672
#
# Poissons Ratio (x) = 2.81370 -0.04736
# Poissons Ratio (y) = 0.15188 0.35135
# Poissons Ratio (z) = -0.00262 0.35954
#
# Static dielectric constant tensor:
#      x y z
#    x 1.609140 0.000000 0.000000 
#    y 0.000000 1.737260 0.000000 
#    z 0.000000 0.000000 1.638340 
# 
# From -- ./inp_files/1413.got.cif
#   From: 2010.05.17/outbox.cif.g08.bks.cpg/sg49_1_cif.got.tgz:1413.got - 2010.06.03 21:02:19.
