data_PCOD9392754
_publ_section_title
;
Structure prediction by ZEFSAII (Michael W. Deem and Ramdas Pophale) SiO2 
 PCOD9392754
Probable space group: P C C M
;
_chemical_formula_sum "Si O2"
_cell_formula_units_Z 48
_cell_length_a 26.417332
_cell_length_b 5.287052
_cell_length_c 14.432012
_cell_angle_alpha 90.000000
_cell_angle_beta 90.000000
_cell_angle_gamma 90.000000
_cell_volume 2015.716345
_symmetry_space_group_name_H-M "P C C M"
_symmetry_group_IT_number 49
_symmetry_cell_setting 'orthorhombic'
loop_
_space_group_symop_operation_xyz
x,y,z
-x,-y,z
x,-y,1/2-z
-x,y,1/2-z
-x,-y,-z
x,y,-z
-x,y,1/2+z
x,-y,1/2+z
loop_
_atom_site_type_symbol
_atom_site_label
_atom_site_fract_x
_atom_site_fract_y
_atom_site_fract_z
Si Si1 0.680131 0.575070 0.354258
Si Si2 0.969609 0.250046 0.613175
Si Si3 0.642273 0.076799 0.353940
Si Si4 0.146083 0.784871 0.613154
Si Si5 0.469447 0.251213 0.111807
Si Si6 0.793475 0.716290 0.387883
O O1 0.664324 0.500000 0.250000
O O2 0.677609 0.293629 0.397495
O O3 0.736251 0.687623 0.354152
O O4 0.644877 0.794741 0.396874
O O5 0.967881 0.256202 0.500000
O O6 0.911784 0.232100 0.645920
O O7 0.000000 0.500000 0.641866
O O8 0.000000 0.000000 0.639616
O O9 0.587130 0.202960 0.353186
O O10 0.658256 0.000000 0.250000
O O11 0.144337 0.792060 0.500000
O O12 0.175945 0.533346 0.639538
O O13 0.176541 0.034230 0.642269
O O14 0.500000 0.500000 0.142582
O O15 0.500000 0.000000 0.136599
O O16 0.465675 0.265265 0.000000
O O17 0.790889 0.722256 0.500000
#
# Coordination Sequence:
#
# PCOD9392754 Si02
#       6
#     8   8   8   8   8   8
#     4  10  21  36  53  74 102 133 169 214 256 299
#     4   9  15  23  37  58  88 127 162 193 241 299
#     4  10  21  37  55  77 104 135 171 211 255 301
#     4   9  17  28  42  65  97 128 163 207 249 298
#     4  10  21  37  57  82 111 140 171 211 257 306
#     4  10  19  31  48  70  97 130 166 206 255 304
#
# _framework density 23.812871999999999
#
# number of rings (size 3 to 8) (size 9 to 14) (size 15 to 20)
#    0.000    2.333    0.000    3.000    0.000    5.667 
#    0.000    0.833    0.000    0.000    0.000    0.000 
#    0.000   10.000    0.000    0.000    0.000    0.000 
#
# Total GULP energy -268289.098809 kJ/mol
# GULP energy per Si atom -5589.356225 kJ/mol
# Density = 2.375867 g / cm^3
# Si number density = 23.812872 Si / 1000 Ang^3
#
#
#
# Elastic Constant Matrix: (Units=GPa)
#
#
# Indices 1 2 3 4 5 6 
#
# 1 196.4019 121.2400 5.3198 0.0000 0.0000 0.0000
# 2 121.2400 286.5014 10.3232 0.0000 0.0000 0.0000
# 3 5.3198 10.3232 94.9165 0.0000 0.0000 0.0000
# 4 0.0000 0.0000 0.0000 -44.0042 0.0000 0.0000
# 5 0.0000 0.0000 0.0000 0.0000 23.9644 0.0000
# 6 0.0000 0.0000 0.0000 0.0000 0.0000 40.7294
#
#
#
# Elastic Compliance Matrix: (Units=1/GPa)
#
#
# Indices 1 2 3 4 5 6 
#
# 1 0.006892 -0.002914 -0.000069 0.000000 0.000000 0.000000
# 2 -0.002914 0.004736 -0.000352 0.000000 0.000000 0.000000
# 3 -0.000069 -0.000352 0.010578 0.000000 0.000000 0.000000
# 4 0.000000 0.000000 0.000000 -0.022725 0.000000 0.000000
# 5 0.000000 0.000000 0.000000 0.000000 0.041729 0.000000
# 6 0.000000 0.000000 0.000000 0.000000 0.000000 0.024552
#
#
# Mechanical properties :
#
#
# Convention : Reuss Voigt Hill
#
# Bulk Modulus (GPa) = 64.36765 94.62063 79.49414
# Shear Modulus (GPa) = 64.42345 33.53371 48.97858
#
# Velocity S-wave (km/s) = 5.20699 3.75669 4.54013
# Velocity P-wave (km/s) = 7.95234 7.65757 7.80634
#
# Compressibility (1/GPa) = 0.01553575
#
# Stress axis : x y z
#
# Youngs Moduli (GPa) = 145.08669 211.13642 94.53831
#
# Poissons Ratio (x) = 0.61529 0.00656
# Poissons Ratio (y) = 0.42281 0.03326
# Poissons Ratio (z) = 0.01006 0.07428
#
# Static dielectric constant tensor:
#      x y z
#    x 1.833690 0.000000 0.000000 
#    y 0.000000 1.964040 0.000000 
#    z 0.000000 0.000000 1.968340 
# 
# From -- ./inp_files/21143.got.cif
#   From: 2010.05.17/outbox.cif.g08.bks.cpg/sg49_11_cif.got.tgz:21143.got - 2010.06.03 21:02:19.
