data_PCOD9392293
_publ_section_title
;
Structure prediction by ZEFSAII (Michael W. Deem and Ramdas Pophale) SiO2 
 PCOD9392293
Probable space group: P C C M
;
_chemical_formula_sum "Si O2"
_cell_formula_units_Z 64
_cell_length_a 14.874909
_cell_length_b 32.632290
_cell_length_c 8.514184
_cell_angle_alpha 90.000000
_cell_angle_beta 90.000000
_cell_angle_gamma 90.000000
_cell_volume 4132.804873
_symmetry_space_group_name_H-M "P C C M"
_symmetry_group_IT_number 49
_symmetry_cell_setting 'orthorhombic'
loop_
_space_group_symop_operation_xyz
x,y,z
-x,-y,z
x,-y,1/2-z
-x,y,1/2-z
-x,-y,-z
x,y,-z
-x,y,1/2+z
x,-y,1/2+z
loop_
_atom_site_type_symbol
_atom_site_label
_atom_site_fract_x
_atom_site_fract_y
_atom_site_fract_z
Si Si1 0.602320 0.217474 0.311740
Si Si2 0.713353 0.543795 0.189618
Si Si3 0.903736 0.327800 0.689236
Si Si4 0.602802 0.042239 0.812204
Si Si5 0.286884 0.703277 0.691728
Si Si6 0.602644 0.868671 0.311655
Si Si7 0.398850 0.376814 0.189870
Si Si8 0.096051 0.576466 0.310905
O O1 0.500000 0.222047 0.250000
O O2 0.598284 0.217583 0.500000
O O3 0.663438 0.255371 0.257195
O O4 0.640446 0.173552 0.256204
O O5 0.681690 0.500000 0.250000
O O6 0.652033 0.581880 0.241319
O O7 0.815921 0.552243 0.243280
O O8 0.713447 0.543586 0.000000
O O9 0.905051 0.327328 0.500000
O O10 0.816138 0.302925 0.742757
O O11 0.893781 0.375681 0.737263
O O12 0.000000 0.313004 0.750000
O O13 0.500000 0.042669 0.750000
O O14 0.642456 0.086767 0.766473
O O15 0.644934 0.000000 0.750000
O O16 0.599938 0.040273 0.000000
O O17 0.286486 0.703546 0.500000
O O18 0.343640 0.663366 0.740744
O O19 0.500000 0.869295 0.250000
O O20 0.601570 0.866113 0.500000
O O21 0.500000 0.375449 0.250000
O O22 0.399288 0.376718 0.000000
O O23 0.094614 0.575578 0.500000
O O24 0.000000 0.561322 0.250000
#
# Coordination Sequence:
#
# PCOD9392293 Si02
#       8
#     8   8   8   8   8   8   8   8
#     4  10  18  27  41  60  81 110 143 176 213 250
#     4  10  21  36  52  68  90 117 141 167 205 248
#     4   9  16  30  50  70  90 111 135 164 200 245
#     4   9  15  21  31  46  65  93 131 174 218 255
#     4   9  17  31  50  67  87 113 139 168 208 253
#     4   9  16  25  35  49  73 104 136 175 218 256
#     4  10  20  36  53  68  87 113 142 174 210 245
#     4   9  17  31  51  71  91 115 137 163 200 243
#
# _framework density 15.485849999999999
#
# number of rings (size 3 to 8) (size 9 to 14) (size 15 to 20)
#    0.000    2.625    1.250    2.625    0.000    3.000 
#    0.000    5.000    0.000    0.000    0.000    0.000 
#    0.000    0.000    0.000    0.000    0.000    0.625 
#
# Total GULP energy -356525.012209 kJ/mol
# GULP energy per Si atom -5570.703316 kJ/mol
# Density = 1.545060 g / cm^3
# Si number density = 15.485850 Si / 1000 Ang^3
#
#
#
# Elastic Constant Matrix: (Units=GPa)
#
#
# Indices 1 2 3 4 5 6 
#
# 1 82.8485 56.3689 11.9619 0.0000 0.0000 0.0000
# 2 56.3689 151.6378 23.5544 0.0000 0.0000 0.0000
# 3 11.9619 23.5544 17.9218 0.0000 0.0000 0.0000
# 4 0.0000 0.0000 0.0000 21.0312 0.0000 0.0000
# 5 0.0000 0.0000 0.0000 0.0000 17.2143 0.0000
# 6 0.0000 0.0000 0.0000 0.0000 0.0000 4.8647
#
#
#
# Elastic Compliance Matrix: (Units=1/GPa)
#
#
# Indices 1 2 3 4 5 6 
#
# 1 0.016347 -0.005506 -0.003674 0.000000 0.000000 0.000000
# 2 -0.005506 0.010141 -0.009653 0.000000 0.000000 0.000000
# 3 -0.003674 -0.009653 0.070937 0.000000 0.000000 0.000000
# 4 0.000000 0.000000 0.000000 0.047548 0.000000 0.000000
# 5 0.000000 0.000000 0.000000 0.000000 0.058091 0.000000
# 6 0.000000 0.000000 0.000000 0.000000 0.000000 0.205561
#
#
# Mechanical properties :
#
#
# Convention : Reuss Voigt Hill
#
# Bulk Modulus (GPa) = 16.73407 48.46428 32.59917
# Shear Modulus (GPa) = 10.72476 19.32360 15.02418
#
# Velocity S-wave (km/s) = 2.63449 3.53629 3.11816
# Velocity P-wave (km/s) = 4.48147 6.93091 5.83614
#
# Compressibility (1/GPa) = 0.05975833
#
# Stress axis : x y z
#
# Youngs Moduli (GPa) = 61.17367 98.61107 14.09699
#
# Poissons Ratio (x) = 0.54295 0.05180
# Poissons Ratio (y) = 0.33682 0.13608
# Poissons Ratio (z) = 0.22477 0.95189
#
# Static dielectric constant tensor:
#      x y z
#    x 1.488180 0.000000 0.000000 
#    y 0.000000 1.559360 0.000000 
#    z 0.000000 0.000000 1.532860 
# 
# From -- ./inp_files/4535.got.cif
#   From: 2010.05.17/outbox.cif.g08.bks.cpg/sg49_3_cif.got.tgz:4535.got - 2010.06.03 21:02:19.
