data_PCOD9392468
_publ_section_title
;
Structure prediction by ZEFSAII (Michael W. Deem and Ramdas Pophale) SiO2 
 PCOD9392468
Probable space group: P C C M
;
_chemical_formula_sum "Si O2"
_cell_formula_units_Z 42
_cell_length_a 13.430159
_cell_length_b 19.503871
_cell_length_c 10.368357
_cell_angle_alpha 90.000000
_cell_angle_beta 90.000000
_cell_angle_gamma 90.000000
_cell_volume 2715.888352
_symmetry_space_group_name_H-M "P C C M"
_symmetry_group_IT_number 49
_symmetry_cell_setting 'orthorhombic'
loop_
_space_group_symop_operation_xyz
x,y,z
-x,-y,z
x,-y,1/2-z
-x,y,1/2-z
-x,-y,-z
x,y,-z
-x,y,1/2+z
x,-y,1/2+z
loop_
_atom_site_type_symbol
_atom_site_label
_atom_site_fract_x
_atom_site_fract_y
_atom_site_fract_z
Si Si1 0.000000 0.500000 0.750000
Si Si2 0.616460 0.157289 0.246766
Si Si3 0.798605 0.747788 0.258888
Si Si4 0.297696 0.078400 0.500000
Si Si5 0.121198 0.815081 0.500000
Si Si6 0.916574 0.366362 0.150179
Si Si7 0.112343 0.169638 0.500000
Si Si8 0.698336 0.084754 0.500000
O O1 0.931424 0.447925 0.831610
O O2 0.500000 0.172521 0.250000
O O3 0.685902 0.224867 0.243892
O O4 0.648991 0.111745 0.124130
O O5 0.645059 0.114670 0.373845
O O6 0.848859 0.770666 0.125126
O O7 0.816610 0.668824 0.297096
O O8 0.854009 0.788862 0.373294
O O9 0.181948 0.102288 0.500000
O O10 0.303527 0.996880 0.500000
O O11 0.191212 0.882384 0.500000
O O12 0.006110 0.836276 0.500000
O O13 0.000000 0.337826 0.250000
O O14 0.933039 0.349466 0.000000
#
# Coordination Sequence:
#
# PCOD9392468 Si02
#       8
#     2   8   8   4   4   8   4   4
#     4   8  22  28  50  80 112 144 164 188 238 288
#     4  10  21  36  51  71  96 122 168 219 257 299
#     4  10  20  31  50  71  96 132 168 204 242 290
#     4  10  21  33  52  71  95 126 166 207 259 317
#     4  10  20  32  47  70 100 129 168 205 241 295
#     4  10  19  32  49  75 111 140 166 191 236 288
#     4  10  18  32  47  72  94 129 168 199 243 297
#     4  10  21  35  48  73  97 126 164 209 263 307
#
# _framework density 15.464553
#
# number of rings (size 3 to 8) (size 9 to 14) (size 15 to 20)
#    0.571    1.524    0.952    3.143    1.333    2.667 
#    0.000    0.000    0.000    6.857    0.000    0.667 
#    0.000    1.524    0.000    0.000    0.000    0.000 
#
# Total GULP energy -233897.250965 kJ/mol
# GULP energy per Si atom -5568.982166 kJ/mol
# Density = 1.542935 g / cm^3
# Si number density = 15.464553 Si / 1000 Ang^3
#
#
#
# Elastic Constant Matrix: (Units=GPa)
#
#
# Indices 1 2 3 4 5 6 
#
# 1 144.7537 53.2154 45.5804 0.0000 0.0000 0.0000
# 2 53.2154 101.6309 35.9701 0.0000 0.0000 0.0000
# 3 45.5804 35.9701 138.2783 0.0000 0.0000 0.0000
# 4 0.0000 0.0000 0.0000 33.5310 0.0000 0.0000
# 5 0.0000 0.0000 0.0000 0.0000 70.6922 0.0000
# 6 0.0000 0.0000 0.0000 0.0000 0.0000 13.9090
#
#
#
# Elastic Compliance Matrix: (Units=1/GPa)
#
#
# Indices 1 2 3 4 5 6 
#
# 1 0.008993 -0.004031 -0.001916 0.000000 0.000000 0.000000
# 2 -0.004031 0.012644 -0.001960 0.000000 0.000000 0.000000
# 3 -0.001916 -0.001960 0.008373 0.000000 0.000000 0.000000
# 4 0.000000 0.000000 0.000000 0.029823 0.000000 0.000000
# 5 0.000000 0.000000 0.000000 0.000000 0.014146 0.000000
# 6 0.000000 0.000000 0.000000 0.000000 0.000000 0.071896
#
#
# Mechanical properties :
#
#
# Convention : Reuss Voigt Hill
#
# Bulk Modulus (GPa) = 70.44114 72.68829 71.56472
# Shear Modulus (GPa) = 30.04407 40.28625 35.16516
#
# Velocity S-wave (km/s) = 4.41247 5.10953 4.77374
# Velocity P-wave (km/s) = 8.46220 9.05068 8.76138
#
# Compressibility (1/GPa) = 0.01419625
#
# Stress axis : x y z
#
# Youngs Moduli (GPa) = 111.19152 79.08857 119.42763
#
# Poissons Ratio (x) = 0.31881 0.22881
# Poissons Ratio (y) = 0.44822 0.23412
# Poissons Ratio (z) = 0.21303 0.15504
#
# Static dielectric constant tensor:
#      x y z
#    x 1.513180 0.000000 0.000000 
#    y 0.000000 1.528210 0.000000 
#    z 0.000000 0.000000 1.523410 
# 
# From -- ./inp_files/8841.got.cif
#   From: 2010.05.17/outbox.cif.g08.bks.cpg/sg49_5_cif.got.tgz:8841.got - 2010.06.03 21:02:19.
