data_PCOD9392437
_publ_section_title
;
Structure prediction by ZEFSAII (Michael W. Deem and Ramdas Pophale) SiO2 
 PCOD9392437
Probable space group: P C C M
;
_chemical_formula_sum "Si O2"
_cell_formula_units_Z 64
_cell_length_a 18.699644
_cell_length_b 21.538761
_cell_length_c 9.361984
_cell_angle_alpha 90.000000
_cell_angle_beta 90.000000
_cell_angle_gamma 90.000000
_cell_volume 3770.699735
_symmetry_space_group_name_H-M "P C C M"
_symmetry_group_IT_number 49
_symmetry_cell_setting 'orthorhombic'
loop_
_space_group_symop_operation_xyz
x,y,z
-x,-y,z
x,-y,1/2-z
-x,y,1/2-z
-x,-y,-z
x,y,-z
-x,y,1/2+z
x,-y,1/2+z
loop_
_atom_site_type_symbol
_atom_site_label
_atom_site_fract_x
_atom_site_fract_y
_atom_site_fract_z
Si Si1 0.206263 0.234068 0.836996
Si Si2 0.861633 0.941982 0.331643
Si Si3 0.433226 0.758051 0.841699
Si Si4 0.427007 0.434866 0.171437
Si Si5 0.071937 0.192749 0.666335
Si Si6 0.328718 0.681091 0.663623
Si Si7 0.280342 0.898148 0.670016
Si Si8 0.572508 0.092255 0.165752
O O1 0.141023 0.226744 0.730390
O O2 0.246038 0.300081 0.824821
O O3 0.261756 0.175913 0.816305
O O4 0.180214 0.226478 0.000000
O O5 0.850299 0.954049 0.500000
O O6 0.908805 0.880254 0.317537
O O7 0.786224 0.929163 0.251834
O O8 0.895306 0.000000 0.250000
O O9 0.500000 0.738399 0.750000
O O10 0.365388 0.727188 0.773132
O O11 0.430198 0.832512 0.841724
O O12 0.443316 0.735175 0.000000
O O13 0.411193 0.500000 0.250000
O O14 0.500000 0.412275 0.250000
O O15 0.361863 0.386487 0.189511
O O16 0.438733 0.442493 0.000000
O O17 0.063629 0.206197 0.500000
O O18 0.000000 0.207463 0.750000
O O19 0.349174 0.697847 0.500000
O O20 0.282128 0.911983 0.500000
O O21 0.354565 0.918661 0.744998
O O22 0.500000 0.072875 0.250000
O O23 0.574637 0.069759 0.000000
#
# Coordination Sequence:
#
# PCOD9392437 Si02
#       8
#     8   8   8   8   8   8   8   8
#     4   9  18  32  50  72  99 128 160 197 244 298
#     4  10  21  36  54  77 102 129 166 204 239 284
#     4  10  19  27  39  60  89 122 156 197 242 290
#     4  10  20  33  48  65  93 133 180 224 263 302
#     4  10  21  36  55  78 106 136 164 195 235 287
#     4  10  19  31  47  68  94 126 165 210 254 298
#     4  10  18  31  51  70  95 128 159 199 251 298
#     4  10  19  29  42  63  91 122 157 197 242 292
#
# _framework density 16.972975999999999
#
# number of rings (size 3 to 8) (size 9 to 14) (size 15 to 20)
#    0.000    2.125    1.250    3.000    0.000    5.750 
#    0.000    1.250    0.000    0.375    0.000    2.625 
#    0.000    0.500    0.000    5.750    0.000    1.750 
#
# Total GULP energy -356851.310174 kJ/mol
# GULP energy per Si atom -5575.801721 kJ/mol
# Density = 1.693434 g / cm^3
# Si number density = 16.972976 Si / 1000 Ang^3
#
#
#
# Elastic Constant Matrix: (Units=GPa)
#
#
# Indices 1 2 3 4 5 6 
#
# 1 68.3852 11.8627 57.6195 0.0000 0.0000 0.0000
# 2 11.8627 58.7350 34.2128 0.0000 0.0000 0.0000
# 3 57.6195 34.2128 129.9287 0.0000 0.0000 0.0000
# 4 0.0000 0.0000 0.0000 22.8477 0.0000 0.0000
# 5 0.0000 0.0000 0.0000 0.0000 27.5605 0.0000
# 6 0.0000 0.0000 0.0000 0.0000 0.0000 2.0200
#
#
#
# Elastic Compliance Matrix: (Units=1/GPa)
#
#
# Indices 1 2 3 4 5 6 
#
# 1 0.023467 0.001562 -0.010818 0.000000 0.000000 0.000000
# 2 0.001562 0.020214 -0.006015 0.000000 0.000000 0.000000
# 3 -0.010818 -0.006015 0.014078 0.000000 0.000000 0.000000
# 4 0.000000 0.000000 0.000000 0.043768 0.000000 0.000000
# 5 0.000000 0.000000 0.000000 0.000000 0.036284 0.000000
# 6 0.000000 0.000000 0.000000 0.000000 0.000000 0.495048
#
#
# Mechanical properties :
#
#
# Convention : Reuss Voigt Hill
#
# Bulk Modulus (GPa) = 36.74325 51.60429 44.17377
# Shear Modulus (GPa) = 7.43522 20.70923 14.07222
#
# Velocity S-wave (km/s) = 2.09526 3.49682 2.88253
# Velocity P-wave (km/s) = 5.24868 6.83912 6.09599
#
# Compressibility (1/GPa) = 0.02721588
#
# Stress axis : x y z
#
# Youngs Moduli (GPa) = 42.61241 49.47034 71.03218
#
# Poissons Ratio (x) = -0.07727 0.76845
# Poissons Ratio (y) = -0.06656 0.42729
# Poissons Ratio (z) = 0.46100 0.29759
#
# Static dielectric constant tensor:
#      x y z
#    x 1.569610 0.000000 0.000000 
#    y 0.000000 1.602030 0.000000 
#    z 0.000000 0.000000 1.574690 
# 
# From -- ./inp_files/5422.got.cif
#   From: 2010.05.17/outbox.cif.g08.bks.cpg/sg49_3_cif.got.tgz:5422.got - 2010.06.03 21:02:19.
