data_PCOD9392485
_publ_section_title
;
Structure prediction by ZEFSAII (Michael W. Deem and Ramdas Pophale) SiO2 
 PCOD9392485
Probable space group: P C C M
;
_chemical_formula_sum "Si O2"
_cell_formula_units_Z 64
_cell_length_a 7.805501
_cell_length_b 18.575295
_cell_length_c 23.281896
_cell_angle_alpha 90.000000
_cell_angle_beta 90.000000
_cell_angle_gamma 90.000000
_cell_volume 3375.630081
_symmetry_space_group_name_H-M "P C C M"
_symmetry_group_IT_number 49
_symmetry_cell_setting 'orthorhombic'
loop_
_space_group_symop_operation_xyz
x,y,z
-x,-y,z
x,-y,1/2-z
-x,y,1/2-z
-x,-y,-z
x,y,-z
-x,y,1/2+z
x,-y,1/2+z
loop_
_atom_site_type_symbol
_atom_site_label
_atom_site_fract_x
_atom_site_fract_y
_atom_site_fract_z
Si Si1 0.668274 0.326355 0.222086
Si Si2 0.783400 0.824790 0.936533
Si Si3 0.039175 0.419450 0.681341
Si Si4 0.864574 0.280078 0.337536
Si Si5 0.222028 0.194548 0.328044
Si Si6 0.297079 0.920103 0.735442
Si Si7 0.324053 0.042141 0.890339
Si Si8 0.160376 0.898489 0.066474
O O1 0.500000 0.358915 0.250000
O O2 0.771437 0.384642 0.184669
O O3 0.771202 0.291862 0.276536
O O4 0.635705 0.255223 0.184137
O O5 0.770440 0.764505 0.887266
O O6 0.650852 0.891006 0.932554
O O7 0.964725 0.868901 0.930787
O O8 0.780112 0.792023 0.000000
O O9 0.000000 0.500000 0.661478
O O10 0.000000 0.418690 0.750000
O O11 0.921750 0.361785 0.648343
O O12 0.043084 0.237352 0.329565
O O13 0.212898 0.137786 0.276389
O O14 0.252802 0.151808 0.386685
O O15 0.500000 0.915411 0.750000
O O16 0.267259 0.916927 0.667787
O O17 0.236915 0.000000 0.750000
O O18 0.500000 0.000000 0.877713
O O19 0.196447 0.980376 0.913177
O O20 0.213776 0.892571 0.000000
#
# Coordination Sequence:
#
# PCOD9392485 Si02
#       8
#     8   8   8   8   8   8   8   8
#     4  10  19  31  52  81 112 141 166 201 254 301
#     4  10  22  38  53  67  91 132 176 219 259 304
#     4   8  15  31  54  80 112 139 162 195 240 298
#     4   9  19  35  53  76 103 133 169 205 252 307
#     4  10  18  32  53  71  97 136 177 214 258 306
#     4  11  19  33  49  71 100 129 168 218 270 317
#     4  12  22  34  50  69  94 125 168 218 275 316
#     4  10  21  36  50  66  91 127 175 223 261 302
#
# _framework density 18.959425
#
# number of rings (size 3 to 8) (size 9 to 14) (size 15 to 20)
#    0.000    2.000    2.500    3.000    0.000    4.000 
#    0.000    5.000    0.000    0.375    0.000    0.000 
#    0.000    1.000    0.000    0.000    0.000    5.750 
#
# Total GULP energy -356716.749319 kJ/mol
# GULP energy per Si atom -5573.699208 kJ/mol
# Density = 1.891627 g / cm^3
# Si number density = 18.959425 Si / 1000 Ang^3
#
#
#
# Elastic Constant Matrix: (Units=GPa)
#
#
# Indices 1 2 3 4 5 6 
#
# 1 24.3478 19.4947 14.4573 0.0000 0.0000 0.0000
# 2 19.4947 150.4890 50.0372 0.0000 0.0000 0.0000
# 3 14.4573 50.0372 107.0561 0.0000 0.0000 0.0000
# 4 0.0000 0.0000 0.0000 13.3240 0.0000 0.0000
# 5 0.0000 0.0000 0.0000 0.0000 15.7459 0.0000
# 6 0.0000 0.0000 0.0000 0.0000 0.0000 7.8758
#
#
#
# Elastic Compliance Matrix: (Units=1/GPa)
#
#
# Indices 1 2 3 4 5 6 
#
# 1 0.047351 -0.004745 -0.004177 0.000000 0.000000 0.000000
# 2 -0.004745 0.008343 -0.003259 0.000000 0.000000 0.000000
# 3 -0.004177 -0.003259 0.011428 0.000000 0.000000 0.000000
# 4 0.000000 0.000000 0.000000 0.075052 0.000000 0.000000
# 5 0.000000 0.000000 0.000000 0.000000 0.063509 0.000000
# 6 0.000000 0.000000 0.000000 0.000000 0.000000 0.126972
#
#
# Mechanical properties :
#
#
# Convention : Reuss Voigt Hill
#
# Bulk Modulus (GPa) = 23.38577 49.98572 36.68574
# Shear Modulus (GPa) = 13.46729 20.58271 17.02500
#
# Velocity S-wave (km/s) = 2.66808 3.29845 2.99987
# Velocity P-wave (km/s) = 4.67471 6.39751 5.60273
#
# Compressibility (1/GPa) = 0.04276105
#
# Stress axis : x y z
#
# Youngs Moduli (GPa) = 21.11889 119.85744 87.50407
#
# Poissons Ratio (x) = 0.56876 0.36547
# Poissons Ratio (y) = 0.10021 0.28515
# Poissons Ratio (z) = 0.08820 0.39059
#
# Static dielectric constant tensor:
#      x y z
#    x 1.766920 0.000000 0.000000 
#    y 0.000000 1.665620 0.000000 
#    z 0.000000 0.000000 1.709750 
# 
# From -- ./inp_files/22591.got.cif
#   From: 2010.05.17/outbox.cif.g08.bks.cpg/sg49_12_cif.got.tgz:22591.got - 2010.06.03 21:02:19.
