data_PCOD9392329
_publ_section_title
;
Structure prediction by ZEFSAII (Michael W. Deem and Ramdas Pophale) SiO2 
 PCOD9392329
Probable space group: P C C M
;
_chemical_formula_sum "Si O2"
_cell_formula_units_Z 56
_cell_length_a 18.969235
_cell_length_b 19.729366
_cell_length_c 8.644326
_cell_angle_alpha 90.000000
_cell_angle_beta 90.000000
_cell_angle_gamma 90.000000
_cell_volume 3235.147477
_symmetry_space_group_name_H-M "P C C M"
_symmetry_group_IT_number 49
_symmetry_cell_setting 'orthorhombic'
loop_
_space_group_symop_operation_xyz
x,y,z
-x,-y,z
x,-y,1/2-z
-x,y,1/2-z
-x,-y,-z
x,y,-z
-x,y,1/2+z
x,-y,1/2+z
loop_
_atom_site_type_symbol
_atom_site_label
_atom_site_fract_x
_atom_site_fract_y
_atom_site_fract_z
Si Si1 0.210210 0.208363 0.686661
Si Si2 0.318181 0.571413 0.314393
Si Si3 0.423726 0.147227 0.185609
Si Si4 0.287097 0.073609 0.685350
Si Si5 0.158976 0.428655 0.313960
Si Si6 0.922190 0.707707 0.686271
Si Si7 0.347108 0.281933 0.186297
O O1 0.213112 0.212793 0.500000
O O2 0.231187 0.131983 0.731100
O O3 0.134327 0.235600 0.737236
O O4 0.271670 0.256484 0.751809
O O5 0.345772 0.500000 0.250000
O O6 0.316554 0.567741 0.500000
O O7 0.237845 0.578904 0.253592
O O8 0.358258 0.640199 0.265793
O O9 0.500000 0.129299 0.250000
O O10 0.362225 0.099121 0.249813
O O11 0.402565 0.224201 0.234896
O O12 0.423752 0.143932 0.000000
O O13 0.290752 0.071343 0.500000
O O14 0.269862 0.000000 0.750000
O O15 0.130864 0.500000 0.250000
O O16 0.163896 0.431047 0.500000
O O17 0.111041 0.364995 0.268515
O O18 0.925169 0.708928 0.500000
O O19 0.000000 0.717051 0.750000
O O20 0.344697 0.280887 0.000000
#
# Coordination Sequence:
#
# PCOD9392329 Si02
#       7
#     8   8   8   8   8   8   8
#     4   9  18  34  53  73  99 129 165 205 247 295
#     4  10  18  28  45  70  96 126 164 209 257 298
#     4  10  20  35  53  78 109 138 169 201 240 291
#     4  10  20  35  57  82 107 135 164 199 242 290
#     4  10  19  31  46  66  95 129 166 208 254 301
#     4  10  21  34  49  70  97 131 169 210 253 300
#     4   9  18  31  50  73  98 129 167 210 250 293
#
# _framework density 17.309875000000002
#
# number of rings (size 3 to 8) (size 9 to 14) (size 15 to 20)
#    0.000    2.286    1.429    2.571    0.000    4.000 
#    0.000    2.857    0.000    0.857    0.000    6.000 
#    0.000    0.000    0.000    0.000    0.000    0.000 
#
# Total GULP energy -312330.518406 kJ/mol
# GULP energy per Si atom -5577.330686 kJ/mol
# Density = 1.727048 g / cm^3
# Si number density = 17.309875 Si / 1000 Ang^3
#
#
#
# Elastic Constant Matrix: (Units=GPa)
#
#
# Indices 1 2 3 4 5 6 
#
# 1 46.3772 27.4695 10.4782 0.0000 0.0000 0.0000
# 2 27.4695 137.4274 27.9378 0.0000 0.0000 0.0000
# 3 10.4782 27.9378 30.3885 0.0000 0.0000 0.0000
# 4 0.0000 0.0000 0.0000 25.5506 0.0000 0.0000
# 5 0.0000 0.0000 0.0000 0.0000 18.3127 0.0000
# 6 0.0000 0.0000 0.0000 0.0000 0.0000 15.2660
#
#
#
# Elastic Compliance Matrix: (Units=1/GPa)
#
#
# Indices 1 2 3 4 5 6 
#
# 1 0.025052 -0.003999 -0.004962 0.000000 0.000000 0.000000
# 2 -0.003999 0.009587 -0.007435 0.000000 0.000000 0.000000
# 3 -0.004962 -0.007435 0.041454 0.000000 0.000000 0.000000
# 4 0.000000 0.000000 0.000000 0.039138 0.000000 0.000000
# 5 0.000000 0.000000 0.000000 0.000000 0.054607 0.000000
# 6 0.000000 0.000000 0.000000 0.000000 0.000000 0.065505
#
#
# Mechanical properties :
#
#
# Convention : Reuss Voigt Hill
#
# Bulk Modulus (GPa) = 23.09409 38.44044 30.76727
# Shear Modulus (GPa) = 17.69481 21.71305 19.70393
#
# Velocity S-wave (km/s) = 3.20071 3.54556 3.37754
# Velocity P-wave (km/s) = 5.19903 6.24634 5.74659
#
# Compressibility (1/GPa) = 0.04330112
#
# Stress axis : x y z
#
# Youngs Moduli (GPa) = 39.91722 104.30350 24.12318
#
# Poissons Ratio (x) = 0.41708 0.11970
# Poissons Ratio (y) = 0.15962 0.17937
# Poissons Ratio (z) = 0.19806 0.77554
#
# Static dielectric constant tensor:
#      x y z
#    x 1.553190 0.000000 0.000000 
#    y 0.000000 1.623150 0.000000 
#    z 0.000000 0.000000 1.589960 
# 
# From -- ./inp_files/5199.got.cif
#   From: 2010.05.17/outbox.cif.g08.bks.cpg/sg49_3_cif.got.tgz:5199.got - 2010.06.03 21:02:19.
