data_PCOD9392654
_publ_section_title
;
Structure prediction by ZEFSAII (Michael W. Deem and Ramdas Pophale) SiO2 
 PCOD9392654
Probable space group: P C C M
;
_chemical_formula_sum "Si O2"
_cell_formula_units_Z 56
_cell_length_a 21.839051
_cell_length_b 19.044099
_cell_length_c 8.843142
_cell_angle_alpha 90.000000
_cell_angle_beta 90.000000
_cell_angle_gamma 90.000000
_cell_volume 3677.907410
_symmetry_space_group_name_H-M "P C C M"
_symmetry_group_IT_number 49
_symmetry_cell_setting 'orthorhombic'
loop_
_space_group_symop_operation_xyz
x,y,z
-x,-y,z
x,-y,1/2-z
-x,y,1/2-z
-x,-y,-z
x,y,-z
-x,y,1/2+z
x,-y,1/2+z
loop_
_atom_site_type_symbol
_atom_site_label
_atom_site_fract_x
_atom_site_fract_y
_atom_site_fract_z
Si Si1 0.815106 0.423470 0.682122
Si Si2 0.253472 0.711113 0.321069
Si Si3 0.192979 0.076318 0.319204
Si Si4 0.314568 0.837487 0.818504
Si Si5 0.864274 0.215601 0.819756
Si Si6 0.935124 0.650478 0.679940
Si Si7 0.435200 0.077575 0.317655
O O1 0.805292 0.500000 0.750000
O O2 0.819147 0.425690 0.500000
O O3 0.760554 0.369123 0.724329
O O4 0.878695 0.391943 0.747192
O O5 0.261940 0.713422 0.500000
O O6 0.304573 0.759218 0.243813
O O7 0.190549 0.749723 0.273964
O O8 0.195841 0.068770 0.500000
O O9 0.257193 0.113039 0.269795
O O10 0.139428 0.133051 0.283975
O O11 0.185053 0.000000 0.250000
O O12 0.378426 0.873001 0.775188
O O13 0.311707 0.834391 0.000000
O O14 0.921651 0.266273 0.792419
O O15 0.849923 0.221739 0.000000
O O16 0.935056 0.638867 0.500000
O O17 0.000000 0.630497 0.750000
O O18 0.500000 0.102084 0.250000
O O19 0.438950 0.073160 0.500000
O O20 0.424367 0.000000 0.250000
#
# Coordination Sequence:
#
# PCOD9392654 Si02
#       7
#     8   8   8   8   8   8   8
#     4  10  20  33  48  69  94 118 142 170 208 255
#     4   9  17  28  45  67  87 108 141 180 213 249
#     4   9  16  26  40  60  82 105 136 175 217 260
#     4   9  18  30  43  60  86 118 150 181 218 262
#     4   8  16  30  44  58  82 112 138 169 216 264
#     4  10  19  32  49  66  85 112 144 178 212 252
#     4  10  19  30  43  61  88 124 161 195 228 263
#
# _framework density 15.226050000000001
#
# number of rings (size 3 to 8) (size 9 to 14) (size 15 to 20)
#    0.000    2.714    0.000    3.429    0.000    6.000 
#    0.000    1.429    0.000    0.429    0.000    3.000 
#    0.000    0.571    0.000    6.286    0.000    4.571 
#
# Total GULP energy -311749.790977 kJ/mol
# GULP energy per Si atom -5566.960553 kJ/mol
# Density = 1.519139 g / cm^3
# Si number density = 15.226050 Si / 1000 Ang^3
#
#
#
# Elastic Constant Matrix: (Units=GPa)
#
#
# Indices 1 2 3 4 5 6 
#
# 1 39.2693 28.9637 16.7065 0.0000 0.0000 0.0000
# 2 28.9637 122.9142 31.6431 0.0000 0.0000 0.0000
# 3 16.7065 31.6431 31.0462 0.0000 0.0000 0.0000
# 4 0.0000 0.0000 0.0000 26.2186 0.0000 0.0000
# 5 0.0000 0.0000 0.0000 0.0000 14.1619 0.0000
# 6 0.0000 0.0000 0.0000 0.0000 0.0000 19.6823
#
#
#
# Elastic Compliance Matrix: (Units=1/GPa)
#
#
# Indices 1 2 3 4 5 6 
#
# 1 0.034834 -0.004586 -0.014070 0.000000 0.000000 0.000000
# 2 -0.004586 0.011634 -0.009390 0.000000 0.000000 0.000000
# 3 -0.014070 -0.009390 0.049352 0.000000 0.000000 0.000000
# 4 0.000000 0.000000 0.000000 0.038141 0.000000 0.000000
# 5 0.000000 0.000000 0.000000 0.000000 0.070612 0.000000
# 6 0.000000 0.000000 0.000000 0.000000 0.000000 0.050807
#
#
# Mechanical properties :
#
#
# Convention : Reuss Voigt Hill
#
# Bulk Modulus (GPa) = 25.17174 38.65070 31.91122
# Shear Modulus (GPa) = 15.39821 19.74033 17.56927
#
# Velocity S-wave (km/s) = 3.18356 3.60458 3.40059
# Velocity P-wave (km/s) = 5.48464 6.53939 6.03510
#
# Compressibility (1/GPa) = 0.03972709
#
# Stress axis : x y z
#
# Youngs Moduli (GPa) = 28.70790 85.95750 20.26272
#
# Poissons Ratio (x) = 0.39420 0.28511
# Poissons Ratio (y) = 0.13165 0.19026
# Poissons Ratio (z) = 0.40393 0.80710
#
# Static dielectric constant tensor:
#      x y z
#    x 1.494980 0.000000 0.000000 
#    y 0.000000 1.528980 0.000000 
#    z 0.000000 0.000000 1.513690 
# 
# From -- ./inp_files/5209.got.cif
#   From: 2010.05.17/outbox.cif.g08.bks.cpg/sg49_3_cif.got.tgz:5209.got - 2010.06.03 21:02:19.
