data_PCOD9392863
_publ_section_title
;
Structure prediction by ZEFSAII (Michael W. Deem and Ramdas Pophale) SiO2 
 PCOD9392863
Probable space group: P C C M
;
_chemical_formula_sum "Si O2"
_cell_formula_units_Z 48
_cell_length_a 15.347083
_cell_length_b 19.758941
_cell_length_c 7.867970
_cell_angle_alpha 90.000000
_cell_angle_beta 90.000000
_cell_angle_gamma 90.000000
_cell_volume 2385.899805
_symmetry_space_group_name_H-M "P C C M"
_symmetry_group_IT_number 49
_symmetry_cell_setting 'orthorhombic'
loop_
_space_group_symop_operation_xyz
x,y,z
-x,-y,z
x,-y,1/2-z
-x,y,1/2-z
-x,-y,-z
x,y,-z
-x,y,1/2+z
x,-y,1/2+z
loop_
_atom_site_type_symbol
_atom_site_label
_atom_site_fract_x
_atom_site_fract_y
_atom_site_fract_z
Si Si1 0.153336 0.425224 0.295448
Si Si2 0.409700 0.288281 0.702884
Si Si3 0.354582 0.428346 0.296179
Si Si4 0.400078 0.921519 0.201963
Si Si5 0.901837 0.725173 0.295396
Si Si6 0.260711 0.811998 0.207411
O O1 0.115812 0.500000 0.250000
O O2 0.152067 0.422766 0.500000
O O3 0.254169 0.425879 0.235867
O O4 0.114727 0.352983 0.234191
O O5 0.500000 0.254777 0.750000
O O6 0.406343 0.290426 0.500000
O O7 0.404269 0.363788 0.773995
O O8 0.325587 0.248298 0.757436
O O9 0.393397 0.500000 0.250000
O O10 0.351574 0.423826 0.500000
O O11 0.500000 0.901945 0.250000
O O12 0.317222 0.877301 0.267076
O O13 0.389579 0.000000 0.250000
O O14 0.397629 0.914985 0.000000
O O15 0.892250 0.722269 0.500000
O O16 0.833101 0.782808 0.235384
O O17 0.000000 0.743699 0.250000
O O18 0.255729 0.817172 0.000000
#
# Coordination Sequence:
#
# PCOD9392863 Si02
#       6
#     8   8   8   8   8   8
#     4   9  17  31  51  70  94 128 168 215 265 316
#     4  10  19  32  49  70  95 128 168 206 247 298
#     4   9  17  30  47  64  88 125 165 205 249 298
#     4  10  19  33  56  85 115 145 173 205 245 296
#     4  10  20  36  55  76 101 133 174 218 264 313
#     4   9  18  35  56  74 102 141 171 201 253 308
#
# _framework density 20.118196000000001
#
# number of rings (size 3 to 8) (size 9 to 14) (size 15 to 20)
#    0.000    2.500    1.667    1.500    0.000    2.000 
#    0.000    6.667    0.000    0.500    0.000    3.500 
#    0.000    0.000    0.000    0.000    0.000    0.000 
#
# Total GULP energy -267329.929891 kJ/mol
# GULP energy per Si atom -5569.373539 kJ/mol
# Density = 2.007241 g / cm^3
# Si number density = 20.118196 Si / 1000 Ang^3
#
#
#
# Elastic Constant Matrix: (Units=GPa)
#
#
# Indices 1 2 3 4 5 6 
#
# 1 156.7782 77.4416 3.6245 0.0000 0.0000 0.0000
# 2 77.4416 145.7002 8.3942 0.0000 0.0000 0.0000
# 3 3.6245 8.3942 20.7924 0.0000 0.0000 0.0000
# 4 0.0000 0.0000 0.0000 5.0284 0.0000 0.0000
# 5 0.0000 0.0000 0.0000 0.0000 23.5134 0.0000
# 6 0.0000 0.0000 0.0000 0.0000 0.0000 39.9342
#
#
#
# Elastic Compliance Matrix: (Units=1/GPa)
#
#
# Indices 1 2 3 4 5 6 
#
# 1 0.008652 -0.004619 0.000357 0.000000 0.000000 0.000000
# 2 -0.004619 0.009493 -0.003027 0.000000 0.000000 0.000000
# 3 0.000357 -0.003027 0.049254 0.000000 0.000000 0.000000
# 4 0.000000 0.000000 0.000000 0.198871 0.000000 0.000000
# 5 0.000000 0.000000 0.000000 0.000000 0.042529 0.000000
# 6 0.000000 0.000000 0.000000 0.000000 0.000000 0.025041
#
#
# Mechanical properties :
#
#
# Convention : Reuss Voigt Hill
#
# Bulk Modulus (GPa) = 18.93233 55.79904 37.36568
# Shear Modulus (GPa) = 13.66021 29.28258 21.47139
#
# Velocity S-wave (km/s) = 2.60859 3.81928 3.27044
# Velocity P-wave (km/s) = 4.30162 6.87350 5.73362
#
# Compressibility (1/GPa) = 0.05281971
#
# Stress axis : x y z
#
# Youngs Moduli (GPa) = 115.58246 105.34149 20.30278
#
# Poissons Ratio (x) = 0.48658 -0.00724
# Poissons Ratio (y) = 0.53389 0.06146
# Poissons Ratio (z) = -0.04122 0.31889
#
# Static dielectric constant tensor:
#      x y z
#    x 1.703170 0.000000 0.000000 
#    y 0.000000 1.778180 0.000000 
#    z 0.000000 0.000000 1.718700 
# 
# From -- ./inp_files/3844.got.cif
#   From: 2010.05.17/outbox.cif.g08.bks.cpg/sg49_2_cif.got.tgz:3844.got - 2010.06.03 21:02:19.
