data_PCOD9392898
_publ_section_title
;
Structure prediction by ZEFSAII (Michael W. Deem and Ramdas Pophale) SiO2 
 PCOD9392898
Probable space group: P C C M
;
_chemical_formula_sum "Si O2"
_cell_formula_units_Z 64
_cell_length_a 17.112995
_cell_length_b 21.037153
_cell_length_c 9.039355
_cell_angle_alpha 90.000000
_cell_angle_beta 90.000000
_cell_angle_gamma 90.000000
_cell_volume 3254.246389
_symmetry_space_group_name_H-M "P C C M"
_symmetry_group_IT_number 49
_symmetry_cell_setting 'orthorhombic'
loop_
_space_group_symop_operation_xyz
x,y,z
-x,-y,z
x,-y,1/2-z
-x,y,1/2-z
-x,-y,-z
x,y,-z
-x,y,1/2+z
x,-y,1/2+z
loop_
_atom_site_type_symbol
_atom_site_label
_atom_site_fract_x
_atom_site_fract_y
_atom_site_fract_z
Si Si1 0.919237 0.797094 0.321934
Si Si2 0.112424 0.066994 0.172172
Si Si3 0.699743 0.064296 0.668430
Si Si4 0.580237 0.585365 0.670916
Si Si5 0.367246 0.273449 0.336500
Si Si6 0.575959 0.862650 0.667477
Si Si7 0.252443 0.436388 0.177281
Si Si8 0.210511 0.293046 0.824668
O O1 0.921624 0.797537 0.500000
O O2 0.910703 0.869613 0.260990
O O3 0.849608 0.751863 0.262903
O O4 0.000000 0.772943 0.250000
O O5 0.206932 0.068813 0.171225
O O6 0.090199 0.000000 0.250000
O O7 0.085809 0.068987 0.000000
O O8 0.673577 0.063786 0.500000
O O9 0.656364 0.119117 0.754811
O O10 0.676696 0.000000 0.750000
O O11 0.500000 0.566849 0.750000
O O12 0.583287 0.563222 0.500000
O O13 0.584963 0.661845 0.670915
O O14 0.659364 0.567676 0.757699
O O15 0.328049 0.272074 0.500000
O O16 0.422965 0.213371 0.329748
O O17 0.298825 0.272740 0.216416
O O18 0.500000 0.887868 0.750000
O O19 0.576440 0.885372 0.500000
O O20 0.216925 0.500000 0.250000
O O21 0.210127 0.368966 0.212549
O O22 0.255340 0.442177 0.000000
O O23 0.196803 0.285796 0.000000
#
# Coordination Sequence:
#
# PCOD9392898 Si02
#       8
#     8   8   8   8   8   8   8   8
#     4  12  25  41  63  91 124 158 192 231 278 333
#     4  10  21  39  63  91 122 156 194 234 279 334
#     4  10  21  37  56  76 100 133 175 223 273 327
#     4  10  19  32  50  75 110 149 190 235 286 340
#     4   9  19  34  53  77 105 141 183 227 276 334
#     4  11  22  34  49  71 100 134 177 228 282 335
#     4  10  21  37  58  84 114 150 194 242 291 345
#     4  10  21  38  61  88 117 150 189 234 284 340
#
# _framework density 19.666609999999999
#
# number of rings (size 3 to 8) (size 9 to 14) (size 15 to 20)
#    0.000    1.750    0.000    4.500    0.000    7.250 
#    0.000    3.750    0.000    0.375    0.000    2.625 
#    0.000    0.000    0.000    0.000    0.000    0.000 
#
# Total GULP energy -357351.709050 kJ/mol
# GULP energy per Si atom -5583.620454 kJ/mol
# Density = 1.962185 g / cm^3
# Si number density = 19.666610 Si / 1000 Ang^3
#
#
#
# Elastic Constant Matrix: (Units=GPa)
#
#
# Indices 1 2 3 4 5 6 
#
# 1 60.0892 30.7016 48.3025 0.0000 0.0000 0.0000
# 2 30.7016 96.1643 57.3673 0.0000 0.0000 0.0000
# 3 48.3025 57.3673 157.4309 0.0000 0.0000 0.0000
# 4 0.0000 0.0000 0.0000 26.4784 0.0000 0.0000
# 5 0.0000 0.0000 0.0000 0.0000 16.6782 0.0000
# 6 0.0000 0.0000 0.0000 0.0000 0.0000 -9.9968
#
#
#
# Elastic Compliance Matrix: (Units=1/GPa)
#
#
# Indices 1 2 3 4 5 6 
#
# 1 0.023262 -0.004049 -0.005662 0.000000 0.000000 0.000000
# 2 -0.004049 0.013992 -0.003856 0.000000 0.000000 0.000000
# 3 -0.005662 -0.003856 0.009494 0.000000 0.000000 0.000000
# 4 0.000000 0.000000 0.000000 0.037767 0.000000 0.000000
# 5 0.000000 0.000000 0.000000 0.000000 0.059958 0.000000
# 6 0.000000 0.000000 0.000000 0.000000 0.000000 -0.100032
#
#
# Mechanical properties :
#
#
# Convention : Reuss Voigt Hill
#
# Bulk Modulus (GPa) = 50.98386 65.15859 58.07122
# Shear Modulus (GPa) = 64.00936 18.45284 41.23110
#
# Velocity S-wave (km/s) = 5.71121 3.06646 4.58373
# Velocity P-wave (km/s) = 8.33492 6.76322 7.58986
#
# Compressibility (1/GPa) = 0.01961405
#
# Stress axis : x y z
#
# Youngs Moduli (GPa) = 42.98883 71.46875 105.32609
#
# Poissons Ratio (x) = 0.28939 0.59632
# Poissons Ratio (y) = 0.17407 0.40617
# Poissons Ratio (z) = 0.24339 0.27561
#
# Static dielectric constant tensor:
#      x y z
#    x 1.666010 0.000000 0.000000 
#    y 0.000000 1.697650 0.000000 
#    z 0.000000 0.000000 1.700000 
# 
# From -- ./inp_files/5338.got.cif
#   From: 2010.05.17/outbox.cif.g08.bks.cpg/sg49_3_cif.got.tgz:5338.got - 2010.06.03 21:02:19.
