data_PCOD9392073
_publ_section_title
;
Structure prediction by ZEFSAII (Michael W. Deem and Ramdas Pophale) SiO2 
 PCOD9392073
Probable space group: P C C M
;
_chemical_formula_sum "Si O2"
_cell_formula_units_Z 48
_cell_length_a 25.933082
_cell_length_b 5.355082
_cell_length_c 14.275416
_cell_angle_alpha 90.000000
_cell_angle_beta 90.000000
_cell_angle_gamma 90.000000
_cell_volume 1982.480990
_symmetry_space_group_name_H-M "P C C M"
_symmetry_group_IT_number 49
_symmetry_cell_setting 'orthorhombic'
loop_
_space_group_symop_operation_xyz
x,y,z
-x,-y,z
x,-y,1/2-z
-x,y,1/2-z
-x,-y,-z
x,y,-z
-x,y,1/2+z
x,-y,1/2+z
loop_
_atom_site_type_symbol
_atom_site_label
_atom_site_fract_x
_atom_site_fract_y
_atom_site_fract_z
Si Si1 0.676967 0.929563 0.645155
Si Si2 0.030297 0.750264 0.614215
Si Si3 0.852474 0.675866 0.114568
Si Si4 0.639053 0.573554 0.142703
Si Si5 0.477778 0.253037 0.856850
Si Si6 0.206794 0.175945 0.613656
O O1 0.642843 0.706885 0.601798
O O2 0.734545 0.822211 0.647517
O O3 0.658884 0.000000 0.750000
O O4 0.675769 0.209435 0.602615
O O5 0.031976 0.758816 0.500000
O O6 0.089127 0.723893 0.647064
O O7 0.000000 0.500000 0.640032
O O8 0.000000 0.000000 0.643344
O O9 0.827047 0.413849 0.143846
O O10 0.818489 0.913803 0.141860
O O11 0.853948 0.669783 0.000000
O O12 0.652081 0.500000 0.250000
O O13 0.583161 0.703250 0.140941
O O14 0.500000 0.500000 0.901377
O O15 0.500000 0.251756 0.750000
O O16 0.500000 0.000000 0.897609
O O17 0.208612 0.181498 0.500000
#
# Coordination Sequence:
#
# PCOD9392073 Si02
#       6
#     8   8   8   8   8   8
#     4  10  21  32  48  67  97 128 154 199 243 282
#     4   9  15  23  37  61  93 123 149 184 240 294
#     4   9  17  28  45  66  92 126 162 200 236 281
#     4  10  18  30  43  66  97 129 147 184 241 287
#     4  10  17  24  41  63  92 125 146 176 221 291
#     4  10  19  33  49  67  92 127 170 202 232 278
#
# _framework density 24.212084000000001
#
# number of rings (size 3 to 8) (size 9 to 14) (size 15 to 20)
#    0.000    2.333    1.667    3.000    4.667    4.000 
#    0.000    0.000    0.000    0.000    0.000    0.000 
#    0.000   23.333    0.000    0.000    0.000    0.667 
#
# Total GULP energy -268087.759678 kJ/mol
# GULP energy per Si atom -5585.161660 kJ/mol
# Density = 2.415698 g / cm^3
# Si number density = 24.212084 Si / 1000 Ang^3
#
#
#
# Elastic Constant Matrix: (Units=GPa)
#
#
# Indices 1 2 3 4 5 6 
#
# 1 169.9239 94.3376 -8.2787 0.0000 0.0000 0.0000
# 2 94.3376 279.7623 8.9549 0.0000 0.0000 0.0000
# 3 -8.2787 8.9549 85.1638 0.0000 0.0000 0.0000
# 4 0.0000 0.0000 0.0000 -35.5691 0.0000 0.0000
# 5 0.0000 0.0000 0.0000 0.0000 13.3642 0.0000
# 6 0.0000 0.0000 0.0000 0.0000 0.0000 52.9899
#
#
#
# Elastic Compliance Matrix: (Units=1/GPa)
#
#
# Indices 1 2 3 4 5 6 
#
# 1 0.007320 -0.002500 0.000974 0.000000 0.000000 0.000000
# 2 -0.002500 0.004440 -0.000710 0.000000 0.000000 0.000000
# 3 0.000974 -0.000710 0.011911 0.000000 0.000000 0.000000
# 4 0.000000 0.000000 0.000000 -0.028114 0.000000 0.000000
# 5 0.000000 0.000000 0.000000 0.000000 0.074827 0.000000
# 6 0.000000 0.000000 0.000000 0.000000 0.000000 0.018872
#
#
# Mechanical properties :
#
#
# Convention : Reuss Voigt Hill
#
# Bulk Modulus (GPa) = 52.07893 80.54194 66.31044
# Shear Modulus (GPa) = 49.93702 35.47942 42.70822
#
# Velocity S-wave (km/s) = 4.54638 3.83215 4.20446
# Velocity P-wave (km/s) = 7.00826 7.27447 7.14260
#
# Compressibility (1/GPa) = 0.01920162
#
# Stress axis : x y z
#
# Youngs Moduli (GPa) = 136.60873 225.22191 83.95286
#
# Poissons Ratio (x) = 0.56296 -0.08181
# Poissons Ratio (y) = 0.34147 0.05959
# Poissons Ratio (z) = -0.13311 0.15987
#
# Static dielectric constant tensor:
#      x y z
#    x 1.891570 0.000000 0.000000 
#    y 0.000000 2.018640 0.000000 
#    z 0.000000 0.000000 1.978470 
# 
# From -- ./inp_files/23362.got.cif
#   From: 2010.05.17/outbox.cif.g08.bks.cpg/sg49_12_cif.got.tgz:23362.got - 2010.06.03 21:02:19.
