data_PCOD9392290
_publ_section_title
;
Structure prediction by ZEFSAII (Michael W. Deem and Ramdas Pophale) SiO2 
 PCOD9392290
Probable space group: P C C M
;
_chemical_formula_sum "Si O2"
_cell_formula_units_Z 56
_cell_length_a 21.940031
_cell_length_b 19.118377
_cell_length_c 8.569596
_cell_angle_alpha 90.000000
_cell_angle_beta 90.000000
_cell_angle_gamma 90.000000
_cell_volume 3594.583748
_symmetry_space_group_name_H-M "P C C M"
_symmetry_group_IT_number 49
_symmetry_cell_setting 'orthorhombic'
loop_
_space_group_symop_operation_xyz
x,y,z
-x,-y,z
x,-y,1/2-z
-x,y,1/2-z
-x,-y,-z
x,y,-z
-x,y,1/2+z
x,-y,1/2+z
loop_
_atom_site_type_symbol
_atom_site_label
_atom_site_fract_x
_atom_site_fract_y
_atom_site_fract_z
Si Si1 0.565030 0.078842 0.187490
Si Si2 0.065949 0.653798 0.683781
Si Si3 0.814995 0.422404 0.187783
Si Si4 0.122598 0.212967 0.679616
Si Si5 0.188554 0.077671 0.311266
Si Si6 0.687670 0.844059 0.308953
Si Si7 0.746414 0.291975 0.179665
O O1 0.500000 0.105046 0.250000
O O2 0.623208 0.124110 0.238039
O O3 0.572705 0.000000 0.250000
O O4 0.563263 0.076827 0.000000
O O5 0.067638 0.643205 0.500000
O O6 0.119540 0.608079 0.760762
O O7 0.080401 0.735059 0.723705
O O8 0.000000 0.635221 0.750000
O O9 0.806292 0.500000 0.250000
O O10 0.764079 0.367065 0.248500
O O11 0.813193 0.421737 0.000000
O O12 0.100771 0.210492 0.500000
O O13 0.137859 0.135022 0.737841
O O14 0.189044 0.250462 0.676101
O O15 0.188012 0.077606 0.500000
O O16 0.255237 0.106919 0.261801
O O17 0.178608 0.000000 0.250000
O O18 0.689193 0.841968 0.500000
O O19 0.700428 0.765078 0.251006
O O20 0.727559 0.303966 0.000000
#
# Coordination Sequence:
#
# PCOD9392290 Si02
#       7
#     8   8   8   8   8   8   8
#     4  10  18  27  39  55  82 117 153 186 218 253
#     4  11  21  33  49  67  86 111 144 175 205 246
#     4  10  19  32  49  69  94 118 138 165 203 249
#     4   8  15  29  45  61  83 110 137 171 214 257
#     4   9  16  26  42  63  86 109 138 176 219 262
#     4   8  14  25  41  60  81 111 147 180 212 252
#     4   7  12  25  44  62  81 107 139 171 206 248
#
# _framework density 15.578995000000001
#
# number of rings (size 3 to 8) (size 9 to 14) (size 15 to 20)
#    0.000    3.000    0.000    5.571    0.000    0.857 
#    0.000    2.143    0.000    9.000    0.000    3.000 
#    0.000    0.571    0.000    7.143    0.000    0.000 
#
# Total GULP energy -311744.416501 kJ/mol
# GULP energy per Si atom -5566.864580 kJ/mol
# Density = 1.554354 g / cm^3
# Si number density = 15.578995 Si / 1000 Ang^3
#
#
#
# Elastic Constant Matrix: (Units=GPa)
#
#
# Indices 1 2 3 4 5 6 
#
# 1 34.7668 26.0165 8.3596 0.0000 0.0000 0.0000
# 2 26.0165 123.8922 15.3203 0.0000 0.0000 0.0000
# 3 8.3596 15.3203 35.0852 0.0000 0.0000 0.0000
# 4 0.0000 0.0000 0.0000 14.1872 0.0000 0.0000
# 5 0.0000 0.0000 0.0000 0.0000 1.7951 0.0000
# 6 0.0000 0.0000 0.0000 0.0000 0.0000 85.4136
#
#
#
# Elastic Compliance Matrix: (Units=1/GPa)
#
#
# Indices 1 2 3 4 5 6 
#
# 1 0.035079 -0.006694 -0.005435 0.000000 0.000000 0.000000
# 2 -0.006694 0.009810 -0.002689 0.000000 0.000000 0.000000
# 3 -0.005435 -0.002689 0.030971 0.000000 0.000000 0.000000
# 4 0.000000 0.000000 0.000000 0.070486 0.000000 0.000000
# 5 0.000000 0.000000 0.000000 0.000000 0.557059 0.000000
# 6 0.000000 0.000000 0.000000 0.000000 0.000000 0.011708
#
#
# Mechanical properties :
#
#
# Convention : Reuss Voigt Hill
#
# Bulk Modulus (GPa) = 21.63363 32.57077 27.10220
# Shear Modulus (GPa) = 6.57759 29.88238 18.22999
#
# Velocity S-wave (km/s) = 2.05700 4.38439 3.42448
# Velocity P-wave (km/s) = 4.42247 6.82515 5.75069
#
# Compressibility (1/GPa) = 0.04622433
#
# Stress axis : x y z
#
# Youngs Moduli (GPa) = 28.50682 101.93943 32.28830
#
# Poissons Ratio (x) = 0.68241 0.17549
# Poissons Ratio (y) = 0.19083 0.08681
# Poissons Ratio (z) = 0.15494 0.27406
#
# Static dielectric constant tensor:
#      x y z
#    x 1.510690 0.000000 0.000000 
#    y 0.000000 1.547080 0.000000 
#    z 0.000000 0.000000 1.532300 
# 
# From -- ./inp_files/6035.got.cif
#   From: 2010.05.17/outbox.cif.g08.bks.cpg/sg49_4_cif.got.tgz:6035.got - 2010.06.03 21:02:19.
