data_PCOD9392953
_publ_section_title
;
Structure prediction by ZEFSAII (Michael W. Deem and Ramdas Pophale) SiO2 
 PCOD9392953
Probable space group: P C C M
;
_chemical_formula_sum "Si O2"
_cell_formula_units_Z 64
_cell_length_a 15.604981
_cell_length_b 25.227213
_cell_length_c 8.780446
_cell_angle_alpha 90.000000
_cell_angle_beta 90.000000
_cell_angle_gamma 90.000000
_cell_volume 3456.599753
_symmetry_space_group_name_H-M "P C C M"
_symmetry_group_IT_number 49
_symmetry_cell_setting 'orthorhombic'
loop_
_space_group_symop_operation_xyz
x,y,z
-x,-y,z
x,-y,1/2-z
-x,y,1/2-z
-x,-y,-z
x,y,-z
-x,y,1/2+z
x,-y,1/2+z
loop_
_atom_site_type_symbol
_atom_site_label
_atom_site_fract_x
_atom_site_fract_y
_atom_site_fract_z
Si Si1 0.355956 0.707039 0.181211
Si Si2 0.774049 0.556776 0.182222
Si Si3 0.825200 0.734787 0.181293
Si Si4 0.910061 0.637908 0.319186
Si Si5 0.589821 0.826920 0.679907
Si Si6 0.907768 0.058460 0.316414
Si Si7 0.585812 0.598119 0.181935
Si Si8 0.227738 0.148142 0.183231
O O1 0.267042 0.711173 0.272025
O O2 0.401863 0.763403 0.206653
O O3 0.404957 0.656305 0.243738
O O4 0.340223 0.701571 0.000000
O O5 0.798225 0.500000 0.250000
O O6 0.833989 0.601884 0.252997
O O7 0.674434 0.568515 0.218829
O O8 0.783311 0.557323 0.000000
O O9 0.893083 0.698265 0.266337
O O10 0.818676 0.796476 0.226657
O O11 0.837740 0.730959 0.000000
O O12 0.911025 0.634674 0.500000
O O13 0.000000 0.619630 0.250000
O O14 0.500000 0.845519 0.750000
O O15 0.589084 0.835735 0.500000
O O16 0.676783 0.851656 0.748300
O O17 0.913278 0.056002 0.500000
O O18 0.832532 0.099156 0.273536
O O19 0.000000 0.075690 0.250000
O O20 0.891086 0.000000 0.250000
O O21 0.500000 0.572818 0.250000
O O22 0.578705 0.602648 0.000000
O O23 0.236086 0.148815 0.000000
#
# Coordination Sequence:
#
# PCOD9392953 Si02
#       8
#     8   8   8   8   8   8   8   8
#     4  10  19  32  53  81 113 151 192 230 279 336
#     4  11  25  45  66  88 114 148 189 238 291 343
#     4  10  19  35  57  84 119 154 189 231 283 340
#     4  12  25  42  65  90 118 151 189 235 286 347
#     4  10  20  32  50  79 115 155 197 239 284 337
#     4  10  20  36  58  85 115 152 195 243 294 343
#     4  11  23  37  58  85 116 150 189 234 283 340
#     4   9  20  36  56  83 118 157 196 239 288 342
#
# _framework density 18.515305999999999
#
# number of rings (size 3 to 8) (size 9 to 14) (size 15 to 20)
#    0.000    1.625    1.250    4.125    0.000    6.500 
#    0.000    3.750    0.000    0.375    0.000    2.625 
#    0.000    0.000    0.000    0.000    0.000    0.000 
#
# Total GULP energy -357532.296579 kJ/mol
# GULP energy per Si atom -5586.442134 kJ/mol
# Density = 1.847316 g / cm^3
# Si number density = 18.515306 Si / 1000 Ang^3
#
#
#
# Elastic Constant Matrix: (Units=GPa)
#
#
# Indices 1 2 3 4 5 6 
#
# 1 118.4676 62.6050 61.1379 0.0000 0.0000 0.0000
# 2 62.6050 84.5403 37.5412 0.0000 0.0000 0.0000
# 3 61.1379 37.5412 71.9316 0.0000 0.0000 0.0000
# 4 0.0000 0.0000 0.0000 20.9346 0.0000 0.0000
# 5 0.0000 0.0000 0.0000 0.0000 26.2943 0.0000
# 6 0.0000 0.0000 0.0000 0.0000 0.0000 1.2497
#
#
#
# Elastic Compliance Matrix: (Units=1/GPa)
#
#
# Indices 1 2 3 4 5 6 
#
# 1 0.019233 -0.009090 -0.011602 0.000000 0.000000 0.000000
# 2 -0.009090 0.019693 -0.002552 0.000000 0.000000 0.000000
# 3 -0.011602 -0.002552 0.025095 0.000000 0.000000 0.000000
# 4 0.000000 0.000000 0.000000 0.047768 0.000000 0.000000
# 5 0.000000 0.000000 0.000000 0.000000 0.038031 0.000000
# 6 0.000000 0.000000 0.000000 0.000000 0.000000 0.800197
#
#
# Mechanical properties :
#
#
# Convention : Reuss Voigt Hill
#
# Bulk Modulus (GPa) = 57.03741 66.38975 61.71358
# Shear Modulus (GPa) = 4.98828 17.27276 11.13052
#
# Velocity S-wave (km/s) = 1.64316 3.05764 2.45450
# Velocity P-wave (km/s) = 5.87132 6.95702 6.43710
#
# Compressibility (1/GPa) = 0.01753235
#
# Stress axis : x y z
#
# Youngs Moduli (GPa) = 51.99503 50.77830 39.84794
#
# Poissons Ratio (x) = 0.46158 0.46233
# Poissons Ratio (y) = 0.47264 0.10169
# Poissons Ratio (z) = 0.60327 0.12958
#
# Static dielectric constant tensor:
#      x y z
#    x 1.658530 0.000000 0.000000 
#    y 0.000000 1.629680 0.000000 
#    z 0.000000 0.000000 1.461370 
# 
# From -- ./inp_files/4396.got.cif
#   From: 2010.05.17/outbox.cif.g08.bks.cpg/sg49_3_cif.got.tgz:4396.got - 2010.06.03 21:02:19.
