data_PCOD9393069
_publ_section_title
;
Structure prediction by ZEFSAII (Michael W. Deem and Ramdas Pophale) SiO2 
 PCOD9393069
Probable space group: P C C M
;
_chemical_formula_sum "Si O2"
_cell_formula_units_Z 64
_cell_length_a 17.126503
_cell_length_b 20.888110
_cell_length_c 9.148112
_cell_angle_alpha 90.000000
_cell_angle_beta 90.000000
_cell_angle_gamma 90.000000
_cell_volume 3272.648135
_symmetry_space_group_name_H-M "P C C M"
_symmetry_group_IT_number 49
_symmetry_cell_setting 'orthorhombic'
loop_
_space_group_symop_operation_xyz
x,y,z
-x,-y,z
x,-y,1/2-z
-x,y,1/2-z
-x,-y,-z
x,y,-z
-x,y,1/2+z
x,-y,1/2+z
loop_
_atom_site_type_symbol
_atom_site_label
_atom_site_fract_x
_atom_site_fract_y
_atom_site_fract_z
Si Si1 0.121901 0.435461 0.669917
Si Si2 0.420865 0.663792 0.675911
Si Si3 0.808356 0.195240 0.328352
Si Si4 0.690060 0.565927 0.671808
Si Si5 0.384349 0.935930 0.166181
Si Si6 0.379698 0.807505 0.329868
Si Si7 0.920482 0.293256 0.823399
Si Si8 0.806246 0.064605 0.831247
O O1 0.096604 0.500000 0.750000
O O2 0.101782 0.441912 0.500000
O O3 0.216068 0.430580 0.682098
O O4 0.089589 0.367533 0.722578
O O5 0.500000 0.639014 0.750000
O O6 0.422148 0.658127 0.500000
O O7 0.349698 0.624279 0.743907
O O8 0.412548 0.738763 0.714746
O O9 0.828657 0.198313 0.500000
O O10 0.714384 0.198628 0.317242
O O11 0.849475 0.251715 0.239492
O O12 0.831427 0.127422 0.256983
O O13 0.665420 0.500000 0.750000
O O14 0.669320 0.566116 0.500000
O O15 0.406712 0.868976 0.239819
O O16 0.288958 0.936030 0.167700
O O17 0.408732 0.000000 0.250000
O O18 0.411138 0.938374 0.000000
O O19 0.398023 0.818527 0.500000
O O20 0.000000 0.268789 0.750000
O O21 0.922463 0.290014 0.000000
O O22 0.831503 0.000000 0.750000
O O23 0.831481 0.066610 0.000000
#
# Coordination Sequence:
#
# PCOD9393069 Si02
#       8
#     8   8   8   8   8   8   8   8
#     4   9  20  37  59  84 110 139 174 216 263 313
#     4  11  23  38  55  78 108 143 179 219 264 314
#     4  10  19  33  54  79 105 138 177 220 267 316
#     4  10  20  37  60  85 110 138 173 216 263 314
#     4   9  16  26  45  73 105 137 172 215 265 314
#     4   9  19  34  53  77 106 138 176 219 266 317
#     4  11  23  38  54  77 108 143 180 219 262 311
#     4   9  16  27  45  73 106 138 172 216 264 313
#
# _framework density 19.556028000000001
#
# number of rings (size 3 to 8) (size 9 to 14) (size 15 to 20)
#    0.000    2.250    0.000    3.000    0.000    6.500 
#    0.000    2.500    0.000    0.750    0.000    5.250 
#    0.000    0.000    0.000    0.000    0.000    0.000 
#
# Total GULP energy -357451.898652 kJ/mol
# GULP energy per Si atom -5585.185916 kJ/mol
# Density = 1.951152 g / cm^3
# Si number density = 19.556028 Si / 1000 Ang^3
#
#
#
# Elastic Constant Matrix: (Units=GPa)
#
#
# Indices 1 2 3 4 5 6 
#
# 1 24.9671 27.3221 29.4051 0.0000 0.0000 0.0000
# 2 27.3221 126.4012 64.7750 0.0000 0.0000 0.0000
# 3 29.4051 64.7750 100.5663 0.0000 0.0000 0.0000
# 4 0.0000 0.0000 0.0000 41.3982 0.0000 0.0000
# 5 0.0000 0.0000 0.0000 0.0000 4.3199 0.0000
# 6 0.0000 0.0000 0.0000 0.0000 0.000012847.5010
#
#
#
# Elastic Compliance Matrix: (Units=1/GPa)
#
#
# Indices 1 2 3 4 5 6 
#
# 1 0.064352 -0.006370 -0.014713 0.000000 0.000000 0.000000
# 2 -0.006370 0.012440 -0.006150 0.000000 0.000000 0.000000
# 3 -0.014713 -0.006150 0.018207 0.000000 0.000000 0.000000
# 4 0.000000 0.000000 0.000000 0.024156 0.000000 0.000000
# 5 0.000000 0.000000 0.000000 0.000000 0.231488 0.000000
# 6 0.000000 0.000000 0.000000 0.000000 0.000000 0.000078
#
#
# Mechanical properties :
#
#
# Convention : Reuss Voigt Hill
#
# Bulk Modulus (GPa) = 24.67165 54.99322 39.83243
# Shear Modulus (GPa) = 11.94179 2587.33932 1299.64055
#
# Velocity S-wave (km/s) = 2.47380 36.41307 25.80728
# Velocity P-wave (km/s) = 4.56102 42.37999 30.14023
#
# Compressibility (1/GPa) = 0.04053235
#
# Stress axis : x y z
#
# Youngs Moduli (GPa) = 15.53952 80.38721 54.92407
#
# Poissons Ratio (x) = 0.51207 0.80811
# Poissons Ratio (y) = 0.09899 0.33778
# Poissons Ratio (z) = 0.22864 0.49438
#
# Static dielectric constant tensor:
#      x y z
#    x 1.674240 0.000000 0.000000 
#    y 0.000000 1.667770 0.000000 
#    z 0.000000 0.000000 1.658620 
# 
# From -- ./inp_files/5299.got.cif
#   From: 2010.05.17/outbox.cif.g08.bks.cpg/sg49_3_cif.got.tgz:5299.got - 2010.06.03 21:02:19.
