data_PCOD9393519
_publ_section_title
;
Structure prediction by ZEFSAII (Michael W. Deem and Ramdas Pophale) SiO2 
 PCOD9393519
Probable space group: P C C M
;
_chemical_formula_sum "Si O2"
_cell_formula_units_Z 56
_cell_length_a 25.582491
_cell_length_b 16.037473
_cell_length_c 8.736176
_cell_angle_alpha 90.000000
_cell_angle_beta 90.000000
_cell_angle_gamma 90.000000
_cell_volume 3584.265261
_symmetry_space_group_name_H-M "P C C M"
_symmetry_group_IT_number 49
_symmetry_cell_setting 'orthorhombic'
loop_
_space_group_symop_operation_xyz
x,y,z
-x,-y,z
x,-y,1/2-z
-x,y,1/2-z
-x,-y,-z
x,y,-z
-x,y,1/2+z
x,-y,1/2+z
loop_
_atom_site_type_symbol
_atom_site_label
_atom_site_fract_x
_atom_site_fract_y
_atom_site_fract_z
Si Si1 0.631171 0.230669 0.683188
Si Si2 0.947403 0.906147 0.316927
Si Si3 0.831358 0.906863 0.315530
Si Si4 0.366996 0.583522 0.317259
Si Si5 0.251870 0.231426 0.314934
Si Si6 0.750566 0.416109 0.817567
Si Si7 0.557782 0.910830 0.317365
O O1 0.629399 0.220154 0.500000
O O2 0.611118 0.324767 0.719085
O O3 0.691161 0.224048 0.739185
O O4 0.596419 0.161551 0.764397
O O5 0.951983 0.909505 0.500000
O O6 0.889651 0.873365 0.276128
O O7 0.000000 0.865342 0.250000
O O8 0.946429 0.000000 0.250000
O O9 0.829435 0.913097 0.500000
O O10 0.786727 0.842440 0.266250
O O11 0.824600 0.000000 0.250000
O O12 0.392923 0.500000 0.250000
O O13 0.363502 0.575654 0.500000
O O14 0.308550 0.585681 0.247536
O O15 0.258287 0.227686 0.500000
O O16 0.228747 0.323651 0.279444
O O17 0.775940 0.500000 0.750000
O O18 0.748656 0.424404 0.000000
O O19 0.500000 0.895289 0.250000
O O20 0.554977 0.915911 0.500000
O O21 0.575341 0.000000 0.250000
#
# Coordination Sequence:
#
# PCOD9393519 Si02
#       7
#     8   8   8   8   8   8   8
#     4  10  20  33  49  72  97 122 152 185 222 266
#     4   9  15  24  39  57  77 104 140 181 217 253
#     4   9  18  30  42  58  84 117 150 180 215 257
#     4   9  16  26  43  66  93 120 148 180 214 257
#     4   9  18  31  44  62  90 123 152 179 217 266
#     4   9  15  24  40  59  82 111 144 180 218 258
#     4  11  22  38  58  76  94 117 148 189 230 267
#
# _framework density 15.623844
#
# number of rings (size 3 to 8) (size 9 to 14) (size 15 to 20)
#    0.000    2.571    0.000    4.714    0.000    4.000 
#    0.000    1.429    0.000    0.429    0.000    3.000 
#    0.000    0.571    0.000    7.143    0.000    0.000 
#
# Total GULP energy -311748.084056 kJ/mol
# GULP energy per Si atom -5566.930072 kJ/mol
# Density = 1.558828 g / cm^3
# Si number density = 15.623844 Si / 1000 Ang^3
#
#
#
# Elastic Constant Matrix: (Units=GPa)
#
#
# Indices 1 2 3 4 5 6 
#
# 1 55.8997 64.3488 32.2971 0.0000 0.0000 0.0000
# 2 64.3488 134.6051 51.5307 0.0000 0.0000 0.0000
# 3 32.2971 51.5307 70.5213 0.0000 0.0000 0.0000
# 4 0.0000 0.0000 0.0000 26.3248 0.0000 0.0000
# 5 0.0000 0.0000 0.0000 0.0000 141.0211 0.0000
# 6 0.0000 0.0000 0.0000 0.0000 0.0000 -2.3279
#
#
#
# Elastic Compliance Matrix: (Units=1/GPa)
#
#
# Indices 1 2 3 4 5 6 
#
# 1 0.041699 -0.017526 -0.006291 0.000000 0.000000 0.000000
# 2 -0.017526 0.017681 -0.004893 0.000000 0.000000 0.000000
# 3 -0.006291 -0.004893 0.020636 0.000000 0.000000 0.000000
# 4 0.000000 0.000000 0.000000 0.037987 0.000000 0.000000
# 5 0.000000 0.000000 0.000000 0.000000 0.007091 0.000000
# 6 0.000000 0.000000 0.000000 0.000000 0.000000 -0.429563
#
#
# Mechanical properties :
#
#
# Convention : Reuss Voigt Hill
#
# Bulk Modulus (GPa) = 44.25427 61.93102 53.09264
# Shear Modulus (GPa) = -20.87532 40.52689 9.82579
#
# Velocity S-wave (km/s) = -3.65926 5.09857 2.51050
# Velocity P-wave (km/s) = 3.24542 8.62470 6.51606
#
# Compressibility (1/GPa) = 0.02259669
#
# Stress axis : x y z
#
# Youngs Moduli (GPa) = 23.98139 56.55838 48.45816
#
# Poissons Ratio (x) = 0.99126 0.30483
# Poissons Ratio (y) = 0.42030 0.23710
# Poissons Ratio (z) = 0.15086 0.27674
#
# Static dielectric constant tensor:
#      x y z
#    x 1.519440 0.000000 0.000000 
#    y 0.000000 1.555600 0.000000 
#    z 0.000000 0.000000 1.524810 
# 
# From -- ./inp_files/6581.got.cif
#   From: 2010.05.17/outbox.cif.g08.bks.cpg/sg49_4_cif.got.tgz:6581.got - 2010.06.03 21:02:19.
