data_PCOD9393901
_publ_section_title
;
Structure prediction by ZEFSAII (Michael W. Deem and Ramdas Pophale) SiO2 
 PCOD9393901
Probable space group: P C C M
;
_chemical_formula_sum "Si O2"
_cell_formula_units_Z 56
_cell_length_a 22.884288
_cell_length_b 8.387933
_cell_length_c 14.390073
_cell_angle_alpha 90.000000
_cell_angle_beta 90.000000
_cell_angle_gamma 90.000000
_cell_volume 2762.201486
_symmetry_space_group_name_H-M "P C C M"
_symmetry_group_IT_number 49
_symmetry_cell_setting 'orthorhombic'
loop_
_space_group_symop_operation_xyz
x,y,z
-x,-y,z
x,-y,1/2-z
-x,y,1/2-z
-x,-y,-z
x,y,-z
-x,y,1/2+z
x,-y,1/2+z
loop_
_atom_site_type_symbol
_atom_site_label
_atom_site_fract_x
_atom_site_fract_y
_atom_site_fract_z
Si Si1 0.047317 0.723291 0.608634
Si Si2 0.147221 0.179735 0.231189
Si Si3 0.744832 0.206556 0.391353
Si Si4 0.324034 0.883267 0.896882
Si Si5 0.362029 0.324330 0.216410
Si Si6 0.438744 0.936074 0.645320
Si Si7 0.084733 0.354938 0.390927
O O1 0.054429 0.760868 0.500000
O O2 0.087614 0.829894 0.672033
O O3 0.071480 0.542633 0.623568
O O4 0.978488 0.725027 0.628970
O O5 0.198652 0.250155 0.168390
O O6 0.132376 0.282058 0.322396
O O7 0.165146 0.000000 0.250000
O O8 0.756517 0.227754 0.500000
O O9 0.690580 0.311747 0.356881
O O10 0.724210 0.020970 0.378130
O O11 0.336465 0.771429 0.807546
O O12 0.384282 0.982005 0.903483
O O13 0.312586 0.810995 0.000000
O O14 0.375518 0.500000 0.250000
O O15 0.418390 0.245046 0.165218
O O16 0.500000 0.000000 0.605946
O O17 0.438573 0.000000 0.750000
O O18 0.098369 0.331800 0.500000
#
# Coordination Sequence:
#
# PCOD9393901 Si02
#       7
#     8   8   8   8   8   8   8
#     4   9  19  38  59  78 106 148 191 231 281 347
#     4  12  23  34  53  83 113 142 183 238 294 342
#     4  10  22  41  59  76 106 151 194 232 281 345
#     4   9  18  35  57  78 108 151 192 224 267 334
#     4  10  20  35  58  88 117 145 184 241 292 325
#     4   8  15  31  53  78 112 156 196 220 257 323
#     4   9  20  38  58  79 108 148 190 229 281 350
#
# _framework density 20.273683999999999
#
# number of rings (size 3 to 8) (size 9 to 14) (size 15 to 20)
#    0.000    2.429    0.000    4.286    0.000    5.429 
#    0.000    7.857    0.000    0.857    0.000    0.000 
#    0.000    0.000    0.000    0.000    0.000    0.000 
#
# Total GULP energy -312139.456113 kJ/mol
# GULP energy per Si atom -5573.918859 kJ/mol
# Density = 2.022754 g / cm^3
# Si number density = 20.273684 Si / 1000 Ang^3
#
#
#
# Elastic Constant Matrix: (Units=GPa)
#
#
# Indices 1 2 3 4 5 6 
#
# 1 97.1521 26.7685 63.4685 0.0000 0.0000 0.0000
# 2 26.7685 40.3729 24.9268 0.0000 0.0000 0.0000
# 3 63.4685 24.9268 102.4470 0.0000 0.0000 0.0000
# 4 0.0000 0.0000 0.0000 21.4869 0.0000 0.0000
# 5 0.0000 0.0000 0.0000 0.0000 -4.7833 0.0000
# 6 0.0000 0.0000 0.0000 0.0000 0.0000 2.9982
#
#
#
# Elastic Compliance Matrix: (Units=1/GPa)
#
#
# Indices 1 2 3 4 5 6 
#
# 1 0.018487 -0.006103 -0.009968 0.000000 0.000000 0.000000
# 2 -0.006103 0.031163 -0.003801 0.000000 0.000000 0.000000
# 3 -0.009968 -0.003801 0.016862 0.000000 0.000000 0.000000
# 4 0.000000 0.000000 0.000000 0.046540 0.000000 0.000000
# 5 0.000000 0.000000 0.000000 0.000000 -0.209059 0.000000
# 6 0.000000 0.000000 0.000000 0.000000 0.000000 0.333536
#
#
# Mechanical properties :
#
#
# Convention : Reuss Voigt Hill
#
# Bulk Modulus (GPa) = 37.36066 52.25552 44.80809
# Shear Modulus (GPa) = 17.47059 12.26090 14.86575
#
# Velocity S-wave (km/s) = 2.93872 2.46187 2.71080
# Velocity P-wave (km/s) = 5.47567 5.82341 5.65221
#
# Compressibility (1/GPa) = 0.02676613
#
# Stress axis : x y z
#
# Youngs Moduli (GPa) = 54.09295 32.08979 59.30656
#
# Poissons Ratio (x) = 0.19584 0.59117
# Poissons Ratio (y) = 0.33012 0.22545
# Poissons Ratio (z) = 0.53920 0.12199
#
# Static dielectric constant tensor:
#      x y z
#    x 1.746920 0.000000 0.000000 
#    y 0.000000 1.757360 0.000000 
#    z 0.000000 0.000000 1.768700 
# 
# From -- ./inp_files/14402.got.cif
#   From: 2010.05.17/outbox.cif.g08.bks.cpg/sg49_8_cif.got.tgz:14402.got - 2010.06.03 21:02:19.
