data_PCOD9393361
_publ_section_title
;
Structure prediction by ZEFSAII (Michael W. Deem and Ramdas Pophale) SiO2 
 PCOD9393361
Probable space group: P C C M
;
_chemical_formula_sum "Si O2"
_cell_formula_units_Z 48
_cell_length_a 14.226727
_cell_length_b 9.945953
_cell_length_c 14.588037
_cell_angle_alpha 90.000000
_cell_angle_beta 90.000000
_cell_angle_gamma 90.000000
_cell_volume 2064.183283
_symmetry_space_group_name_H-M "P C C M"
_symmetry_group_IT_number 49
_symmetry_cell_setting 'orthorhombic'
loop_
_space_group_symop_operation_xyz
x,y,z
-x,-y,z
x,-y,1/2-z
-x,y,1/2-z
-x,-y,-z
x,y,-z
-x,y,1/2+z
x,-y,1/2+z
loop_
_atom_site_type_symbol
_atom_site_label
_atom_site_fract_x
_atom_site_fract_y
_atom_site_fract_z
Si Si1 0.786326 0.487111 0.358169
Si Si2 0.787563 0.934440 0.387628
Si Si3 0.868520 0.214576 0.391167
Si Si4 0.413475 0.423363 0.348678
Si Si5 0.927775 0.707372 0.392893
Si Si6 0.426377 0.882631 0.111505
O O1 0.789896 0.500000 0.250000
O O2 0.791710 0.330691 0.380258
O O3 0.690146 0.556475 0.391551
O O4 0.880862 0.561173 0.390636
O O5 0.787808 0.932594 0.500000
O O6 0.849289 0.808624 0.353983
O O7 0.678936 0.926016 0.361956
O O8 0.835213 0.071762 0.354915
O O9 0.879218 0.195318 0.500000
O O10 0.968528 0.267813 0.353744
O O11 0.500000 0.500000 0.395553
O O12 0.405542 0.500000 0.250000
O O13 0.438703 0.266081 0.346247
O O14 0.935697 0.741354 0.500000
O O15 0.500000 0.000000 0.136440
O O16 0.431163 0.867125 0.000000
#
# Coordination Sequence:
#
# PCOD9393361 Si02
#       6
#     8   8   8   8   8   8
#     4  11  23  38  58  83 119 158 198 248 296 357
#     4   9  18  35  58  86 120 151 189 244 299 354
#     4  10  21  35  58  89 117 155 202 244 295 361
#     4  10  23  43  63  84 121 163 207 247 299 381
#     4  10  19  36  60  85 116 157 201 244 298 356
#     4  10  21  38  65  99 126 152 197 262 324 366
#
# _framework density 23.25375
#
# number of rings (size 3 to 8) (size 9 to 14) (size 15 to 20)
#    0.000    2.000    1.667    1.500    2.333    5.667 
#    0.000    2.500    0.000    2.000    0.000    0.000 
#    0.000    0.000    0.000    0.000    0.000    0.000 
#
# Total GULP energy -268160.773268 kJ/mol
# GULP energy per Si atom -5586.682776 kJ/mol
# Density = 2.320082 g / cm^3
# Si number density = 23.253750 Si / 1000 Ang^3
#
#
#
# Elastic Constant Matrix: (Units=GPa)
#
#
# Indices 1 2 3 4 5 6 
#
# 1 127.1285 44.0363 4.4886 0.0000 0.0000 0.0000
# 2 44.0363 137.3510 5.1381 0.0000 0.0000 0.0000
# 3 4.4886 5.1381 67.0447 0.0000 0.0000 0.0000
# 4 0.0000 0.0000 0.0000 11.3620 0.0000 0.0000
# 5 0.0000 0.0000 0.0000 0.0000 10.0359 0.0000
# 6 0.0000 0.0000 0.0000 0.0000 0.0000 49.1313
#
#
#
# Elastic Compliance Matrix: (Units=1/GPa)
#
#
# Indices 1 2 3 4 5 6 
#
# 1 0.008858 -0.002826 -0.000376 0.000000 0.000000 0.000000
# 2 -0.002826 0.008203 -0.000439 0.000000 0.000000 0.000000
# 3 -0.000376 -0.000439 0.014974 0.000000 0.000000 0.000000
# 4 0.000000 0.000000 0.000000 0.088013 0.000000 0.000000
# 5 0.000000 0.000000 0.000000 0.000000 0.099642 0.000000
# 6 0.000000 0.000000 0.000000 0.000000 0.000000 0.020354
#
#
# Mechanical properties :
#
#
# Convention : Reuss Voigt Hill
#
# Bulk Modulus (GPa) = 40.40110 48.76115 44.58113
# Shear Modulus (GPa) = 19.56343 32.62991 26.09667
#
# Velocity S-wave (km/s) = 2.90367 3.75001 3.35364
# Velocity P-wave (km/s) = 5.35289 6.30593 5.84886
#
# Compressibility (1/GPa) = 0.02475180
#
# Stress axis : x y z
#
# Youngs Moduli (GPa) = 112.88915 121.90520 66.78109
#
# Poissons Ratio (x) = 0.34450 0.02514
# Poissons Ratio (y) = 0.31902 0.02935
# Poissons Ratio (z) = 0.04250 0.05357
#
# Static dielectric constant tensor:
#      x y z
#    x 1.900600 0.000000 0.000000 
#    y 0.000000 1.839070 0.000000 
#    z 0.000000 0.000000 1.930430 
# 
# From -- ./inp_files/16243.got.cif
#   From: 2010.05.17/outbox.cif.g08.bks.cpg/sg49_9_cif.got.tgz:16243.got - 2010.06.03 21:02:19.
