data_PCOD9393132
_publ_section_title
;
Structure prediction by ZEFSAII (Michael W. Deem and Ramdas Pophale) SiO2 
 PCOD9393132
Probable space group: P C C M
;
_chemical_formula_sum "Si O2"
_cell_formula_units_Z 34
_cell_length_a 9.802855
_cell_length_b 8.541078
_cell_length_c 18.689204
_cell_angle_alpha 90.000000
_cell_angle_beta 90.000000
_cell_angle_gamma 90.000000
_cell_volume 1564.790033
_symmetry_space_group_name_H-M "P C C M"
_symmetry_group_IT_number 49
_symmetry_cell_setting 'orthorhombic'
loop_
_space_group_symop_operation_xyz
x,y,z
-x,-y,z
x,-y,1/2-z
-x,y,1/2-z
-x,-y,-z
x,y,-z
-x,y,1/2+z
x,-y,1/2+z
loop_
_atom_site_type_symbol
_atom_site_label
_atom_site_fract_x
_atom_site_fract_y
_atom_site_fract_z
Si Si1 0.430666 0.651089 0.081866
Si Si2 0.816029 0.849197 0.586156
Si Si3 0.500000 0.000000 0.750000
Si Si4 0.674135 0.167220 0.632280
Si Si5 0.923196 0.334903 0.414276
O O1 0.500000 0.500000 0.117037
O O2 0.294452 0.723380 0.114278
O O3 0.547278 0.783270 0.082649
O O4 0.395560 0.606825 0.000000
O O5 0.815328 0.840707 0.500000
O O6 0.966824 0.797454 0.607435
O O7 0.759799 0.017884 0.606278
O O8 0.598453 0.111700 0.703772
O O9 0.783984 0.307320 0.628719
O O10 0.892759 0.320878 0.500000
O O11 0.000000 0.500000 0.404503
#
# Coordination Sequence:
#
# PCOD9393132 Si02
#       5
#     8   8   2   8   8
#     4  10  19  33  60  95 127 159 197 259 339 397
#     4  10  19  34  60  95 127 159 201 260 341 402
#     4  12  28  44  62  88 120 192 252 270 284 356
#     4  12  22  41  62  86 131 169 223 267 304 371
#     4  10  21  38  66 104 137 159 193 268 362 416
#
# _framework density 21.728154
#
# number of rings (size 3 to 8) (size 9 to 14) (size 15 to 20)
#    0.000    1.412    2.353    4.235    0.000    7.529 
#    0.000    2.941    0.000    1.412    0.000    0.000 
#    0.000    0.000    0.000    0.000    0.000    0.000 
#
# Total GULP energy -189786.692301 kJ/mol
# GULP energy per Si atom -5581.961538 kJ/mol
# Density = 2.167870 g / cm^3
# Si number density = 21.728154 Si / 1000 Ang^3
#
#
#
# Elastic Constant Matrix: (Units=GPa)
#
#
# Indices 1 2 3 4 5 6 
#
# 1 160.8105 29.1092 33.9557 0.0000 0.0000 0.0000
# 2 29.1092 66.9128 14.2250 0.0000 0.0000 0.0000
# 3 33.9557 14.2250 35.3937 0.0000 0.0000 0.0000
# 4 0.0000 0.0000 0.0000 557.0473 0.0000 0.0000
# 5 0.0000 0.0000 0.0000 0.0000 -67.0725 0.0000
# 6 0.0000 0.0000 0.0000 0.0000 0.0000 47.3526
#
#
#
# Elastic Compliance Matrix: (Units=1/GPa)
#
#
# Indices 1 2 3 4 5 6 
#
# 1 0.008043 -0.002032 -0.006900 0.000000 0.000000 0.000000
# 2 -0.002032 0.016855 -0.004824 0.000000 0.000000 0.000000
# 3 -0.006900 -0.004824 0.036812 0.000000 0.000000 0.000000
# 4 0.000000 0.000000 0.000000 0.001795 0.000000 0.000000
# 5 0.000000 0.000000 0.000000 0.000000 -0.014909 0.000000
# 6 0.000000 0.000000 0.000000 0.000000 0.000000 0.021118
#
#
# Mechanical properties :
#
#
# Convention : Reuss Voigt Hill
#
# Bulk Modulus (GPa) = 29.24213 46.41075 37.82644
# Shear Modulus (GPa) = 46.02980 119.85394 82.94187
#
# Velocity S-wave (km/s) = 4.60764 7.43508 6.18510
# Velocity P-wave (km/s) = 6.46487 9.75261 8.27369
#
# Compressibility (1/GPa) = 0.03419724
#
# Stress axis : x y z
#
# Youngs Moduli (GPa) = 124.32770 59.33125 27.16515
#
# Poissons Ratio (x) = 0.12058 0.18743
# Poissons Ratio (y) = 0.25267 0.13105
# Poissons Ratio (z) = 0.85782 0.28623
#
# Static dielectric constant tensor:
#      x y z
#    x 1.816590 0.000000 0.000000 
#    y 0.000000 1.879530 0.000000 
#    z 0.000000 0.000000 1.778090 
# 
# From -- ./inp_files/19420.got.cif
#   From: 2010.05.17/outbox.cif.g08.bks.cpg/sg49_10_cif.got.tgz:19420.got - 2010.06.03 21:02:19.
