data_PCOD9393577
_publ_section_title
;
Structure prediction by ZEFSAII (Michael W. Deem and Ramdas Pophale) SiO2 
 PCOD9393577
Probable space group: P C C M
;
_chemical_formula_sum "Si O2"
_cell_formula_units_Z 56
_cell_length_a 20.428252
_cell_length_b 15.225356
_cell_length_c 9.386048
_cell_angle_alpha 90.000000
_cell_angle_beta 90.000000
_cell_angle_gamma 90.000000
_cell_volume 2919.318192
_symmetry_space_group_name_H-M "P C C M"
_symmetry_group_IT_number 49
_symmetry_cell_setting 'orthorhombic'
loop_
_space_group_symop_operation_xyz
x,y,z
-x,-y,z
x,-y,1/2-z
-x,y,1/2-z
-x,-y,-z
x,y,-z
-x,y,1/2+z
x,-y,1/2+z
loop_
_atom_site_type_symbol
_atom_site_label
_atom_site_fract_x
_atom_site_fract_y
_atom_site_fract_z
Si Si1 0.882330 0.500000 0.750000
Si Si2 0.560346 0.644353 0.658565
Si Si3 0.935079 0.312937 0.165525
Si Si4 0.232145 0.613430 0.645659
Si Si5 0.429881 0.151532 0.674406
Si Si6 0.658394 0.500000 0.250000
Si Si7 0.794283 0.234135 0.169393
Si Si8 0.704193 0.091076 0.674888
O O1 0.921907 0.418148 0.814640
O O2 0.831810 0.447440 0.650182
O O3 0.500000 0.613977 0.750000
O O4 0.535270 0.650956 0.500000
O O5 0.579928 0.743614 0.697557
O O6 0.615931 0.573280 0.673667
O O7 0.870719 0.255450 0.205651
O O8 0.000000 0.289312 0.250000
O O9 0.945864 0.297719 0.000000
O O10 0.230235 0.668273 0.500000
O O11 0.293975 0.551528 0.646256
O O12 0.236391 0.672382 0.785805
O O13 0.500000 0.128677 0.750000
O O14 0.429994 0.134756 0.500000
O O15 0.368315 0.109445 0.757509
O O16 0.755435 0.163039 0.262925
O O17 0.788239 0.217072 0.000000
O O18 0.702626 0.088593 0.500000
O O19 0.724736 0.000000 0.750000
#
# Coordination Sequence:
#
# PCOD9393577 Si02
#       8
#     4   8   8   8   8   4   8   8
#     4   9  19  32  50  78 117 157 200 248 291 335
#     4  10  22  37  52  71 100 140 184 233 284 332
#     4  10  21  35  55  83 118 160 203 248 295 343
#     4  10  20  33  52  77 107 149 197 241 289 344
#     4  10  21  40  63  88 121 157 194 238 290 348
#     4  11  21  30  48  74 105 141 190 244 290 335
#     4  10  22  41  60  83 118 155 193 240 294 351
#     4  12  25  42  67  96 121 149 186 230 287 352
#
# _framework density 19.182562000000001
#
# number of rings (size 3 to 8) (size 9 to 14) (size 15 to 20)
#    0.000    1.714    0.000    4.286    0.000   11.714 
#    0.000    1.429    0.000    0.429    0.000    3.000 
#    0.000    0.000    0.000    0.000    0.000    0.000 
#
# Total GULP energy -311971.270158 kJ/mol
# GULP energy per Si atom -5570.915539 kJ/mol
# Density = 1.913890 g / cm^3
# Si number density = 19.182562 Si / 1000 Ang^3
#
#
#
# Elastic Constant Matrix: (Units=GPa)
#
#
# Indices 1 2 3 4 5 6 
#
# 1 114.5588 53.4202 60.0676 0.0000 0.0000 0.0000
# 2 53.4202 73.0909 47.5970 0.0000 0.0000 0.0000
# 3 60.0676 47.5970 112.4116 0.0000 0.0000 0.0000
# 4 0.0000 0.0000 0.0000 23.8019 0.0000 0.0000
# 5 0.0000 0.0000 0.0000 0.0000 39.2318 0.0000
# 6 0.0000 0.0000 0.0000 0.0000 0.0000 0.5412
#
#
#
# Elastic Compliance Matrix: (Units=1/GPa)
#
#
# Indices 1 2 3 4 5 6 
#
# 1 0.014779 -0.007813 -0.004589 0.000000 0.000000 0.000000
# 2 -0.007813 0.023021 -0.005572 0.000000 0.000000 0.000000
# 3 -0.004589 -0.005572 0.013707 0.000000 0.000000 0.000000
# 4 0.000000 0.000000 0.000000 0.042013 0.000000 0.000000
# 5 0.000000 0.000000 0.000000 0.000000 0.025490 0.000000
# 6 0.000000 0.000000 0.000000 0.000000 0.000000 1.847817
#
#
# Mechanical properties :
#
#
# Convention : Reuss Voigt Hill
#
# Bulk Modulus (GPa) = 64.27515 69.13677 66.70596
# Shear Modulus (GPa) = 2.49009 21.98007 12.23508
#
# Velocity S-wave (km/s) = 1.14058 3.38869 2.52826
# Velocity P-wave (km/s) = 5.94259 7.17152 6.58578
#
# Compressibility (1/GPa) = 0.01555811
#
# Stress axis : x y z
#
# Youngs Moduli (GPa) = 67.66572 43.43916 72.95334
#
# Poissons Ratio (x) = 0.33939 0.33477
# Poissons Ratio (y) = 0.52867 0.40653
# Poissons Ratio (z) = 0.31050 0.24206
#
# Static dielectric constant tensor:
#      x y z
#    x 1.667580 0.000000 0.000000 
#    y 0.000000 1.678840 0.000000 
#    z 0.000000 0.000000 1.700640 
# 
# From -- ./inp_files/5833.got.cif
#   From: 2010.05.17/outbox.cif.g08.bks.cpg/sg49_3_cif.got.tgz:5833.got - 2010.06.03 21:02:19.
