data_PCOD9393932
_publ_section_title
;
Structure prediction by ZEFSAII (Michael W. Deem and Ramdas Pophale) SiO2 
 PCOD9393932
Probable space group: P C C M
;
_chemical_formula_sum "Si O2"
_cell_formula_units_Z 56
_cell_length_a 15.917527
_cell_length_b 20.706711
_cell_length_c 8.466277
_cell_angle_alpha 90.000000
_cell_angle_beta 90.000000
_cell_angle_gamma 90.000000
_cell_volume 2790.481779
_symmetry_space_group_name_H-M "P C C M"
_symmetry_group_IT_number 49
_symmetry_cell_setting 'orthorhombic'
loop_
_space_group_symop_operation_xyz
x,y,z
-x,-y,z
x,-y,1/2-z
-x,y,1/2-z
-x,-y,-z
x,y,-z
-x,y,1/2+z
x,-y,1/2+z
loop_
_atom_site_type_symbol
_atom_site_label
_atom_site_fract_x
_atom_site_fract_y
_atom_site_fract_z
Si Si1 0.278099 0.678750 0.688862
Si Si2 0.917857 0.824999 0.817305
Si Si3 0.813573 0.067375 0.816424
Si Si4 0.908849 0.683784 0.683541
Si Si5 0.589805 0.214289 0.689296
Si Si6 0.371645 0.066471 0.808859
Si Si7 0.592601 0.572768 0.689162
O O1 0.273972 0.682673 0.500000
O O2 0.182544 0.666380 0.745914
O O3 0.328722 0.743909 0.744693
O O4 0.337658 0.620645 0.743425
O O5 0.842842 0.873024 0.788414
O O6 0.910087 0.760728 0.714971
O O7 0.000000 0.860128 0.750000
O O8 0.925814 0.807124 0.000000
O O9 0.714649 0.064832 0.789198
O O10 0.849051 0.000000 0.750000
O O11 0.834679 0.076077 0.000000
O O12 0.907973 0.668690 0.500000
O O13 0.000000 0.660192 0.750000
O O14 0.500000 0.240203 0.750000
O O15 0.589424 0.219043 0.500000
O O16 0.593541 0.137930 0.728662
O O17 0.414108 0.000000 0.750000
O O18 0.359857 0.063437 0.000000
O O19 0.607416 0.500000 0.750000
O O20 0.500000 0.591888 0.750000
O O21 0.593224 0.573679 0.500000
#
# Coordination Sequence:
#
# PCOD9393932 Si02
#       7
#     8   8   8   8   8   8   8
#     4  11  22  39  62  91 125 163 203 253 307 361
#     4  11  21  35  52  73 101 135 175 226 285 350
#     4  11  21  34  51  72  95 127 170 222 282 349
#     4  11  22  38  60  88 118 155 198 245 297 354
#     4  10  23  38  56  81 114 151 193 243 300 357
#     4  10  20  36  54  75 101 139 186 236 290 349
#     4  11  22  39  63  95 132 173 214 255 301 360
#
# _framework density 20.068218999999999
#
# number of rings (size 3 to 8) (size 9 to 14) (size 15 to 20)
#    0.000    1.286    0.000    9.429    0.000    5.143 
#    0.000    2.857    0.000    0.429    0.000    3.000 
#    0.000    0.000    0.000    0.000    0.000    0.000 
#
# Total GULP energy -312444.159809 kJ/mol
# GULP energy per Si atom -5579.359997 kJ/mol
# Density = 2.002254 g / cm^3
# Si number density = 20.068219 Si / 1000 Ang^3
#
#
#
# Elastic Constant Matrix: (Units=GPa)
#
#
# Indices 1 2 3 4 5 6 
#
# 1 149.1415 57.6178 36.2333 0.0000 0.0000 0.0000
# 2 57.6178 77.5130 20.7767 0.0000 0.0000 0.0000
# 3 36.2333 20.7767 92.4911 0.0000 0.0000 0.0000
# 4 0.0000 0.0000 0.0000 29.1040 0.0000 0.0000
# 5 0.0000 0.0000 0.0000 0.0000 61.8159 0.0000
# 6 0.0000 0.0000 0.0000 0.0000 0.0000 37.1065
#
#
#
# Elastic Compliance Matrix: (Units=1/GPa)
#
#
# Indices 1 2 3 4 5 6 
#
# 1 0.009868 -0.006702 -0.002360 0.000000 0.000000 0.000000
# 2 -0.006702 0.018280 -0.001481 0.000000 0.000000 0.000000
# 3 -0.002360 -0.001481 0.012069 0.000000 0.000000 0.000000
# 4 0.000000 0.000000 0.000000 0.034360 0.000000 0.000000
# 5 0.000000 0.000000 0.000000 0.000000 0.016177 0.000000
# 6 0.000000 0.000000 0.000000 0.000000 0.000000 0.026949
#
#
# Mechanical properties :
#
#
# Convention : Reuss Voigt Hill
#
# Bulk Modulus (GPa) = 52.27254 60.93346 56.60300
# Shear Modulus (GPa) = 34.44331 39.23980 36.84156
#
# Velocity S-wave (km/s) = 4.14733 4.42670 4.28929
# Velocity P-wave (km/s) = 7.00270 7.52041 7.26617
#
# Compressibility (1/GPa) = 0.01913050
#
# Stress axis : x y z
#
# Youngs Moduli (GPa) = 101.34016 54.70442 82.85672
#
# Poissons Ratio (x) = 0.36665 0.19555
# Poissons Ratio (y) = 0.67922 0.12268
# Poissons Ratio (z) = 0.23917 0.08100
#
# Static dielectric constant tensor:
#      x y z
#    x 1.816160 0.000000 0.000000 
#    y 0.000000 1.723440 0.000000 
#    z 0.000000 0.000000 1.735660 
# 
# From -- ./inp_files/4086.got.cif
#   From: 2010.05.17/outbox.cif.g08.bks.cpg/sg49_3_cif.got.tgz:4086.got - 2010.06.03 21:02:19.
