data_PCOD9393456
_publ_section_title
;
Structure prediction by ZEFSAII (Michael W. Deem and Ramdas Pophale) SiO2 
 PCOD9393456
Probable space group: P C C M
;
_chemical_formula_sum "Si O2"
_cell_formula_units_Z 64
_cell_length_a 21.776869
_cell_length_b 9.502031
_cell_length_c 16.072842
_cell_angle_alpha 90.000000
_cell_angle_beta 90.000000
_cell_angle_gamma 90.000000
_cell_volume 3325.864542
_symmetry_space_group_name_H-M "P C C M"
_symmetry_group_IT_number 49
_symmetry_cell_setting 'orthorhombic'
loop_
_space_group_symop_operation_xyz
x,y,z
-x,-y,z
x,-y,1/2-z
-x,y,1/2-z
-x,-y,-z
x,y,-z
-x,y,1/2+z
x,-y,1/2+z
loop_
_atom_site_type_symbol
_atom_site_label
_atom_site_fract_x
_atom_site_fract_y
_atom_site_fract_z
Si Si1 0.867957 0.338592 0.651004
Si Si2 0.366033 0.336712 0.897893
Si Si3 0.132043 0.661409 0.151005
Si Si4 0.000000 0.338293 0.400805
Si Si5 0.750711 0.840610 0.099985
Si Si6 0.249289 0.840610 0.900015
Si Si7 0.633967 0.336711 0.897893
Si Si8 0.500000 0.328712 0.096503
O O1 0.864339 0.345395 0.750000
O O2 0.863844 0.500000 0.617715
O O3 0.811874 0.246070 0.619547
O O4 0.934928 0.277790 0.627739
O O5 0.309635 0.241777 0.869390
O O6 0.356577 0.500000 0.874188
O O7 0.433623 0.288232 0.867939
O O8 0.367755 0.334632 0.000000
O O9 0.065071 0.722210 0.127740
O O10 0.188126 0.753930 0.119548
O O11 0.000000 0.341361 0.500000
O O12 0.000000 0.500000 0.367945
O O13 0.753903 1.000000 0.132044
O O14 0.745355 0.846837 0.000000
O O15 0.309635 0.758223 0.869390
O O16 0.254644 0.846837 0.000000
O O17 0.566377 0.288232 0.867939
O O18 0.632245 0.334631 0.000000
O O19 0.500000 0.500000 0.096195
O O20 0.500000 0.282444 0.000000
#
# Coordination Sequence:
#
# PCOD9393456 Si02
#       8
#     8   8   8   8   8   8   8   8
#     4  10  20  34  53  76 100 127 161 200 241 287
#     4   8  13  23  41  64  91 124 161 201 244 289
#     4  10  20  34  53  76 100 127 161 200 241 287
#     4   9  17  31  54  81 104 125 152 192 242 291
#     4  10  20  32  46  68  99 133 168 204 242 287
#     4  10  20  32  46  68  99 133 168 204 242 287
#     4   8  13  23  41  64  91 124 161 201 244 289
#     4   7  10  18  35  61  90 119 154 197 244 290
#
# _framework density 19.243117999999999
#
# number of rings (size 3 to 8) (size 9 to 14) (size 15 to 20)
#    0.000    3.000    0.000    3.375    0.000    4.500 
#    0.000    1.250    0.000    7.500    0.000    0.875 
#    0.000    7.000    0.000    0.000    0.000    0.000 
#
# Total GULP energy -356611.445999 kJ/mol
# GULP energy per Si atom -5572.053844 kJ/mol
# Density = 1.919932 g / cm^3
# Si number density = 19.243118 Si / 1000 Ang^3
#
#
#
# Elastic Constant Matrix: (Units=GPa)
#
#
# Indices 1 2 3 4 5 6 
#
# 1 233.8376 95.5782 7.4542 0.0000 0.0000 0.0000
# 2 95.5782 88.9809 8.0555 0.0000 0.0000 0.0000
# 3 7.4542 8.0555 15.1136 0.0000 0.0000 0.0000
# 4 0.0000 0.0000 0.0000 8.7899 0.0000 0.0000
# 5 0.0000 0.0000 0.0000 0.0000 -34.3408 0.0000
# 6 0.0000 0.0000 0.0000 0.0000 0.0000 -3.1328
#
#
#
# Elastic Compliance Matrix: (Units=1/GPa)
#
#
# Indices 1 2 3 4 5 6 
#
# 1 0.007629 -0.008253 0.000636 0.000000 0.000000 0.000000
# 2 -0.008253 0.020735 -0.006981 0.000000 0.000000 0.000000
# 3 0.000636 -0.006981 0.069573 0.000000 0.000000 0.000000
# 4 0.000000 0.000000 0.000000 0.113766 0.000000 0.000000
# 5 0.000000 0.000000 0.000000 0.000000 -0.029120 0.000000
# 6 0.000000 0.000000 0.000000 0.000000 0.000000 -0.319202
#
#
# Mechanical properties :
#
#
# Convention : Reuss Voigt Hill
#
# Bulk Modulus (GPa) = 14.54735 62.23419 38.39077
# Shear Modulus (GPa) = -59.16597 9.38621 -24.88988
#
# Velocity S-wave (km/s) = -5.55097 2.21095 -3.60035
# Velocity P-wave (km/s) = 5.78863 6.23931 1.64631
#
# Compressibility (1/GPa) = 0.06874104
#
# Stress axis : x y z
#
# Youngs Moduli (GPa) = 131.07310 48.22814 14.37335
#
# Poissons Ratio (x) = 0.39800 -0.00914
# Poissons Ratio (y) = 1.08169 0.10034
# Poissons Ratio (z) = -0.08332 0.33669
#
# Static dielectric constant tensor:
#      x y z
#    x 1.693210 0.000000 0.000000 
#    y 0.000000 1.655700 0.000000 
#    z 0.000000 0.000000 1.681550 
# 
# From -- ./inp_files/18314.got.cif
#   From: 2010.05.17/outbox.cif.g08.bks.cpg/sg49_10_cif.got.tgz:18314.got - 2010.06.03 21:02:19.
