data_PCOD9393499
_publ_section_title
;
Structure prediction by ZEFSAII (Michael W. Deem and Ramdas Pophale) SiO2 
 PCOD9393499
Probable space group: P C C M
;
_chemical_formula_sum "Si O2"
_cell_formula_units_Z 64
_cell_length_a 19.805911
_cell_length_b 19.770038
_cell_length_c 8.830764
_cell_angle_alpha 90.000000
_cell_angle_beta 90.000000
_cell_angle_gamma 90.000000
_cell_volume 3457.805858
_symmetry_space_group_name_H-M "P C C M"
_symmetry_group_IT_number 49
_symmetry_cell_setting 'orthorhombic'
loop_
_space_group_symop_operation_xyz
x,y,z
-x,-y,z
x,-y,1/2-z
-x,y,1/2-z
-x,-y,-z
x,y,-z
-x,y,1/2+z
x,-y,1/2+z
loop_
_atom_site_type_symbol
_atom_site_label
_atom_site_fract_x
_atom_site_fract_y
_atom_site_fract_z
Si Si1 0.068631 0.804406 0.828755
Si Si2 0.932832 0.357044 0.170790
Si Si3 0.820176 0.432510 0.321135
Si Si4 0.332859 0.289766 0.178935
Si Si5 0.691037 0.926306 0.681195
Si Si6 0.426133 0.841784 0.679648
Si Si7 0.784576 0.809618 0.182277
Si Si8 0.671264 0.570052 0.680032
O O1 0.059798 0.723436 0.840088
O O2 0.138584 0.812544 0.738580
O O3 0.000000 0.830777 0.750000
O O4 0.075260 0.831221 0.000000
O O5 0.869330 0.372670 0.275616
O O6 0.000000 0.384851 0.250000
O O7 0.923271 0.383535 0.000000
O O8 0.852417 0.500000 0.250000
O O9 0.810819 0.438067 0.500000
O O10 0.748311 0.426190 0.240079
O O11 0.386265 0.229195 0.199160
O O12 0.260281 0.256981 0.226857
O O13 0.355747 0.357460 0.264456
O O14 0.327490 0.305858 0.000000
O O15 0.693834 0.927606 0.500000
O O16 0.618848 0.898228 0.737807
O O17 0.744878 0.872926 0.747072
O O18 0.703060 0.000000 0.750000
O O19 0.500000 0.837967 0.750000
O O20 0.428718 0.855591 0.500000
O O21 0.781766 0.812636 0.000000
O O22 0.642623 0.500000 0.750000
O O23 0.669436 0.565036 0.500000
#
# Coordination Sequence:
#
# PCOD9393499 Si02
#       8
#     8   8   8   8   8   8   8   8
#     4  10  20  33  51  75 103 136 175 223 276 328
#     4  10  20  33  47  65  89 119 159 205 258 318
#     4  11  21  33  47  63  87 119 158 205 260 319
#     4   9  19  35  55  80 111 145 182 226 276 329
#     4  11  22  38  60  87 120 155 192 229 269 318
#     4  10  21  38  60  88 121 155 190 227 269 318
#     4  10  20  35  56  82 112 146 185 230 279 331
#     4  11  21  33  51  74 101 133 173 221 274 327
#
# _framework density 18.508846999999999
#
# number of rings (size 3 to 8) (size 9 to 14) (size 15 to 20)
#    0.000    1.750    0.000    7.125    0.000    7.000 
#    0.000    2.500    0.000    0.750    0.000    5.250 
#    0.000    0.000    0.000    0.000    0.000    0.000 
#
# Total GULP energy -357169.130236 kJ/mol
# GULP energy per Si atom -5580.767660 kJ/mol
# Density = 1.846672 g / cm^3
# Si number density = 18.508847 Si / 1000 Ang^3
#
#
#
# Elastic Constant Matrix: (Units=GPa)
#
#
# Indices 1 2 3 4 5 6 
#
# 1 70.0625 3.1049 26.7521 0.0000 0.0000 0.0000
# 2 3.1049 77.2394 44.2734 0.0000 0.0000 0.0000
# 3 26.7521 44.2734 138.1177 0.0000 0.0000 0.0000
# 4 0.0000 0.0000 0.0000 19.3841 0.0000 0.0000
# 5 0.0000 0.0000 0.0000 0.0000 27.3615 0.0000
# 6 0.0000 0.0000 0.0000 0.0000 0.0000 9.1068
#
#
#
# Elastic Compliance Matrix: (Units=1/GPa)
#
#
# Indices 1 2 3 4 5 6 
#
# 1 0.015526 0.001347 -0.003439 0.000000 0.000000 0.000000
# 2 0.001347 0.015978 -0.005383 0.000000 0.000000 0.000000
# 3 -0.003439 -0.005383 0.009632 0.000000 0.000000 0.000000
# 4 0.000000 0.000000 0.000000 0.051589 0.000000 0.000000
# 5 0.000000 0.000000 0.000000 0.000000 0.036548 0.000000
# 6 0.000000 0.000000 0.000000 0.000000 0.000000 0.109808
#
#
# Mechanical properties :
#
#
# Convention : Reuss Voigt Hill
#
# Bulk Modulus (GPa) = 38.18709 48.18672 43.18690
# Shear Modulus (GPa) = 19.02890 25.25643 22.14267
#
# Velocity S-wave (km/s) = 3.20987 3.69800 3.46255
# Velocity P-wave (km/s) = 5.86637 6.65767 6.27451
#
# Compressibility (1/GPa) = 0.02618686
#
# Stress axis : x y z
#
# Youngs Moduli (GPa) = 64.40622 62.58642 103.82345
#
# Poissons Ratio (x) = -0.08432 0.35707
# Poissons Ratio (y) = -0.08677 0.55884
# Poissons Ratio (z) = 0.22150 0.33688
#
# Static dielectric constant tensor:
#      x y z
#    x 1.630270 0.000000 0.000000 
#    y 0.000000 1.691350 0.000000 
#    z 0.000000 0.000000 1.633600 
# 
# From -- ./inp_files/5934.got.cif
#   From: 2010.05.17/outbox.cif.g08.bks.cpg/sg49_3_cif.got.tgz:5934.got - 2010.06.03 21:02:19.
