data_PCOD9393422
_publ_section_title
;
Structure prediction by ZEFSAII (Michael W. Deem and Ramdas Pophale) SiO2 
 PCOD9393422
Probable space group: P C C M
;
_chemical_formula_sum "Si O2"
_cell_formula_units_Z 56
_cell_length_a 19.393114
_cell_length_b 18.346571
_cell_length_c 9.655175
_cell_angle_alpha 90.000000
_cell_angle_beta 90.000000
_cell_angle_gamma 90.000000
_cell_volume 3435.283679
_symmetry_space_group_name_H-M "P C C M"
_symmetry_group_IT_number 49
_symmetry_cell_setting 'orthorhombic'
loop_
_space_group_symop_operation_xyz
x,y,z
-x,-y,z
x,-y,1/2-z
-x,y,1/2-z
-x,-y,-z
x,y,-z
-x,y,1/2+z
x,-y,1/2+z
loop_
_atom_site_type_symbol
_atom_site_label
_atom_site_fract_x
_atom_site_fract_y
_atom_site_fract_z
Si Si1 0.158899 0.356985 0.754716
Si Si2 0.367884 0.278080 0.833981
Si Si3 0.435888 0.844957 0.165763
Si Si4 0.238070 0.222936 0.662807
Si Si5 0.290565 0.928934 0.160109
Si Si6 0.906450 0.435057 0.000000
Si Si7 0.937090 0.392929 0.500000
Si Si8 0.304690 0.427919 0.839624
O O1 0.175175 0.276733 0.694776
O O2 0.135265 0.410086 0.633130
O O3 0.229707 0.390914 0.814870
O O4 0.098846 0.357218 0.867614
O O5 0.421720 0.232304 0.742824
O O6 0.296131 0.248057 0.771462
O O7 0.361226 0.364799 0.810607
O O8 0.374354 0.265113 0.000000
O O9 0.500000 0.878373 0.250000
O O10 0.366137 0.892430 0.184036
O O11 0.447948 0.837389 0.000000
O O12 0.259170 0.234084 0.500000
O O13 0.235225 0.136091 0.682046
O O14 0.280443 0.000000 0.250000
O O15 0.288208 0.949927 0.000000
O O16 0.917230 0.521365 0.000000
O O17 0.980455 0.394602 0.000000
O O18 0.312041 0.500000 0.750000
O O19 0.309212 0.447618 0.000000
#
# Coordination Sequence:
#
# PCOD9393422 Si02
#       8
#     8   8   8   8   8   4   4   8
#     4  11  20  33  49  68  97 135 174 211 248 300
#     4   9  18  31  47  70  95 123 164 210 252 290
#     4  10  20  34  52  73 101 136 170 196 231 289
#     4   9  18  33  50  70  97 131 166 202 252 300
#     4   9  19  34  51  76 106 131 159 199 246 296
#     4  11  22  34  48  66  99 147 168 211 257 291
#     4  11  22  34  46  70 103 131 182 213 247 295
#     4  10  20  30  46  69  94 123 162 213 259 302
#
# _framework density 16.301418999999999
#
# number of rings (size 3 to 8) (size 9 to 14) (size 15 to 20)
#    0.000    2.143    1.429    3.429    2.000    5.429 
#    0.000    1.429    0.000    0.429    0.000    3.000 
#    0.000    3.429    0.000    0.000    0.000    0.000 
#
# Total GULP energy -311926.410490 kJ/mol
# GULP energy per Si atom -5570.114473 kJ/mol
# Density = 1.626432 g / cm^3
# Si number density = 16.301419 Si / 1000 Ang^3
#
#
#
# Elastic Constant Matrix: (Units=GPa)
#
#
# Indices 1 2 3 4 5 6 
#
# 1 26.8746 14.5147 6.9464 0.0000 0.0000 0.0000
# 2 14.5147 106.6779 53.7004 0.0000 0.0000 0.0000
# 3 6.9464 53.7004 86.8244 0.0000 0.0000 0.0000
# 4 0.0000 0.0000 0.0000 24.7786 0.0000 0.0000
# 5 0.0000 0.0000 0.0000 0.0000 47.0366 0.0000
# 6 0.0000 0.0000 0.0000 0.0000 0.0000 11.5033
#
#
#
# Elastic Compliance Matrix: (Units=1/GPa)
#
#
# Indices 1 2 3 4 5 6 
#
# 1 0.040165 -0.005587 0.000242 0.000000 0.000000 0.000000
# 2 -0.005587 0.014389 -0.008453 0.000000 0.000000 0.000000
# 3 0.000242 -0.008453 0.016726 0.000000 0.000000 0.000000
# 4 0.000000 0.000000 0.000000 0.040357 0.000000 0.000000
# 5 0.000000 0.000000 0.000000 0.000000 0.021260 0.000000
# 6 0.000000 0.000000 0.000000 0.000000 0.000000 0.086931
#
#
# Mechanical properties :
#
#
# Convention : Reuss Voigt Hill
#
# Bulk Modulus (GPa) = 22.89110 41.18888 32.03999
# Shear Modulus (GPa) = 19.08507 26.34472 22.71489
#
# Velocity S-wave (km/s) = 3.42535 4.02444 3.73692
# Velocity P-wave (km/s) = 5.45132 6.84958 6.19006
#
# Compressibility (1/GPa) = 0.04368510
#
# Stress axis : x y z
#
# Youngs Moduli (GPa) = 24.89755 69.49713 59.78697
#
# Poissons Ratio (x) = 0.38825 -0.01446
# Poissons Ratio (y) = 0.13909 0.50536
# Poissons Ratio (z) = -0.00602 0.58743
#
# Static dielectric constant tensor:
#      x y z
#    x 1.555650 0.000000 0.000000 
#    y 0.000000 1.561490 0.000000 
#    z 0.000000 0.000000 1.534350 
# 
# From -- ./inp_files/5114.got.cif
#   From: 2010.05.17/outbox.cif.g08.bks.cpg/sg49_3_cif.got.tgz:5114.got - 2010.06.03 21:02:19.
