data_PCOD9393409
_publ_section_title
;
Structure prediction by ZEFSAII (Michael W. Deem and Ramdas Pophale) SiO2 
 PCOD9393409
Probable space group: P C C M
;
_chemical_formula_sum "Si O2"
_cell_formula_units_Z 58
_cell_length_a 17.318111
_cell_length_b 9.030924
_cell_length_c 15.704175
_cell_angle_alpha 90.000000
_cell_angle_beta 90.000000
_cell_angle_gamma 90.000000
_cell_volume 2456.110109
_symmetry_space_group_name_H-M "P C C M"
_symmetry_group_IT_number 49
_symmetry_cell_setting 'orthorhombic'
loop_
_space_group_symop_operation_xyz
x,y,z
-x,-y,z
x,-y,1/2-z
-x,y,1/2-z
-x,-y,-z
x,y,-z
-x,y,1/2+z
x,-y,1/2+z
loop_
_atom_site_type_symbol
_atom_site_label
_atom_site_fract_x
_atom_site_fract_y
_atom_site_fract_z
Si Si1 0.150570 0.828681 0.602001
Si Si2 0.579255 0.418738 0.103960
Si Si3 0.164071 0.618275 0.174045
Si Si4 0.500000 0.000000 0.250000
Si Si5 0.401239 0.925622 0.098709
Si Si6 0.728740 0.405595 0.404194
Si Si7 0.992318 0.322191 0.097378
Si Si8 0.759976 0.079815 0.835024
O O1 0.148801 0.821623 0.500000
O O2 0.227299 0.738525 0.630022
O O3 0.070928 0.752470 0.630558
O O4 0.164125 0.994145 0.632726
O O5 0.500000 0.500000 0.129202
O O6 0.579662 0.244619 0.127677
O O7 0.653919 0.513398 0.135141
O O8 0.583023 0.416872 0.000000
O O9 0.160170 0.500000 0.250000
O O10 0.200836 0.523592 0.097083
O O11 0.082608 0.692739 0.154815
O O12 0.222729 0.751450 0.184410
O O13 0.563578 0.968271 0.172468
O O14 0.309072 0.935215 0.099237
O O15 0.425232 0.948218 0.000000
O O16 0.705168 0.367693 0.500000
O O17 0.000000 0.500000 0.093920
O O18 0.978768 0.269843 0.000000
O O19 0.734728 0.000000 0.750000
#
# Coordination Sequence:
#
# PCOD9393409 Si02
#       8
#     8   8   8   2   8   8   8   8
#     4  10  22  41  69 104 137 182 238 298 371 441
#     4   9  19  38  66 103 134 169 235 297 347 423
#     4  12  25  42  67  98 134 187 240 294 366 438
#     4  12  26  48  66 106 152 182 238 310 356 442
#     4  11  24  46  75 102 140 196 241 292 377 449
#     4  10  19  38  66  94 128 175 231 286 344 422
#     4  10  21  41  69  99 133 175 236 301 356 435
#     4  12  26  46  65  99 147 186 239 307 359 442
#
# _framework density 23.614577000000001
#
# number of rings (size 3 to 8) (size 9 to 14) (size 15 to 20)
#    0.000    1.379    3.448    1.862    0.000    3.586 
#    2.483    5.172    0.000    0.000    0.000    0.000 
#    0.000    0.000    0.000    0.000    0.000    0.000 
#
# Total GULP energy -323334.280986 kJ/mol
# GULP energy per Si atom -5574.728983 kJ/mol
# Density = 2.356083 g / cm^3
# Si number density = 23.614577 Si / 1000 Ang^3
#
#
#
# Elastic Constant Matrix: (Units=GPa)
#
#
# Indices 1 2 3 4 5 6 
#
# 1 131.4204 24.1279 17.5479 0.0000 0.0000 0.0000
# 2 24.1279 77.9004 8.1126 0.0000 0.0000 0.0000
# 3 17.5479 8.1126 89.1406 0.0000 0.0000 0.0000
# 4 0.0000 0.0000 0.0000 15.2304 0.0000 0.0000
# 5 0.0000 0.0000 0.0000 0.0000 9.4189 0.0000
# 6 0.0000 0.0000 0.0000 0.0000 0.0000 33.1358
#
#
#
# Elastic Compliance Matrix: (Units=1/GPa)
#
#
# Indices 1 2 3 4 5 6 
#
# 1 0.008238 -0.002405 -0.001403 0.000000 0.000000 0.000000
# 2 -0.002405 0.013662 -0.000770 0.000000 0.000000 0.000000
# 3 -0.001403 -0.000770 0.011564 0.000000 0.000000 0.000000
# 4 0.000000 0.000000 0.000000 0.065658 0.000000 0.000000
# 5 0.000000 0.000000 0.000000 0.000000 0.106170 0.000000
# 6 0.000000 0.000000 0.000000 0.000000 0.000000 0.030179
#
#
# Mechanical properties :
#
#
# Convention : Reuss Voigt Hill
#
# Bulk Modulus (GPa) = 41.13801 44.22647 42.68224
# Shear Modulus (GPa) = 19.78390 28.13521 23.95955
#
# Velocity S-wave (km/s) = 2.89759 3.45546 3.18875
# Velocity P-wave (km/s) = 5.35286 5.88977 5.62772
#
# Compressibility (1/GPa) = 0.02430842
#
# Stress axis : x y z
#
# Youngs Moduli (GPa) = 121.38706 73.19510 86.47188
#
# Poissons Ratio (x) = 0.17607 0.12130
# Poissons Ratio (y) = 0.29199 0.06657
# Poissons Ratio (z) = 0.17028 0.05635
#
# Static dielectric constant tensor:
#      x y z
#    x 1.938810 0.000000 0.000000 
#    y 0.000000 1.918370 0.000000 
#    z 0.000000 0.000000 1.917710 
# 
# From -- ./inp_files/18181.got.cif
#   From: 2010.05.17/outbox.cif.g08.bks.cpg/sg49_10_cif.got.tgz:18181.got - 2010.06.03 21:02:19.
