data_PCOD9393153
_publ_section_title
;
Structure prediction by ZEFSAII (Michael W. Deem and Ramdas Pophale) SiO2 
 PCOD9393153
Probable space group: P C C M
;
_chemical_formula_sum "Si O2"
_cell_formula_units_Z 56
_cell_length_a 19.473980
_cell_length_b 9.540957
_cell_length_c 15.435386
_cell_angle_alpha 90.000000
_cell_angle_beta 90.000000
_cell_angle_gamma 90.000000
_cell_volume 2867.900982
_symmetry_space_group_name_H-M "P C C M"
_symmetry_group_IT_number 49
_symmetry_cell_setting 'orthorhombic'
loop_
_space_group_symop_operation_xyz
x,y,z
-x,-y,z
x,-y,1/2-z
-x,y,1/2-z
-x,-y,-z
x,y,-z
-x,y,1/2+z
x,-y,1/2+z
loop_
_atom_site_type_symbol
_atom_site_label
_atom_site_fract_x
_atom_site_fract_y
_atom_site_fract_z
Si Si1 0.913963 0.590979 0.836660
Si Si2 0.820762 0.876098 0.394044
Si Si3 0.052202 0.693500 0.902626
Si Si4 0.582266 0.664168 0.746839
Si Si5 0.352246 0.162104 0.098666
Si Si6 0.189958 0.194090 0.898949
Si Si7 0.664665 0.169509 0.103231
O O1 0.915713 0.500000 0.750000
O O2 0.920254 0.466063 0.906109
O O3 0.847786 0.685544 0.846873
O O4 0.981454 0.685943 0.850138
O O5 0.819687 0.874748 0.500000
O O6 0.885945 0.786191 0.365374
O O7 0.745151 0.820408 0.368824
O O8 0.827936 0.037748 0.367552
O O9 0.036802 0.743008 0.000000
O O10 0.601259 0.500000 0.750000
O O11 0.500000 0.673980 0.750000
O O12 0.609129 0.749238 0.829826
O O13 0.616557 0.735067 0.662392
O O14 0.271963 0.202224 0.103436
O O15 0.355293 0.994513 0.114231
O O16 0.376143 0.188186 0.000000
O O17 0.168450 0.206275 0.000000
O O18 0.660126 0.200824 0.000000
#
# Coordination Sequence:
#
# PCOD9393153 Si02
#       7
#     8   8   8   8   8   8   8
#     4  11  22  34  48  73 111 149 184 225 272 327
#     4   8  17  34  59  87 110 135 182 239 288 339
#     4  10  19  34  54  75 102 142 185 226 271 327
#     4  11  25  41  58  87 124 159 197 239 286 346
#     4   9  20  39  63  89 119 153 195 245 297 352
#     4   9  18  36  59  84 110 140 182 235 287 338
#     4   9  19  39  64  90 119 153 193 244 299 353
#
# _framework density 19.526477
#
# number of rings (size 3 to 8) (size 9 to 14) (size 15 to 20)
#    0.000    2.429    0.000    4.714    0.000    5.714 
#    0.000   10.714    0.000    3.429    0.000    0.000 
#    0.000    0.000    0.000    0.000    0.000    0.000 
#
# Total GULP energy -312539.907722 kJ/mol
# GULP energy per Si atom -5581.069781 kJ/mol
# Density = 1.948203 g / cm^3
# Si number density = 19.526477 Si / 1000 Ang^3
#
#
#
# Elastic Constant Matrix: (Units=GPa)
#
#
# Indices 1 2 3 4 5 6 
#
# 1 71.0750 66.1651 50.2687 0.0000 0.0000 0.0000
# 2 66.1651 80.4484 56.9785 0.0000 0.0000 0.0000
# 3 50.2687 56.9785 103.6865 0.0000 0.0000 0.0000
# 4 0.0000 0.0000 0.0000 19.8252 0.0000 0.0000
# 5 0.0000 0.0000 0.0000 0.0000 29.2285 0.0000
# 6 0.0000 0.0000 0.0000 0.0000 0.0000 43.8371
#
#
#
# Elastic Compliance Matrix: (Units=1/GPa)
#
#
# Indices 1 2 3 4 5 6 
#
# 1 0.060702 -0.047612 -0.003265 0.000000 0.000000 0.000000
# 2 -0.047612 0.057696 -0.008623 0.000000 0.000000 0.000000
# 3 -0.003265 -0.008623 0.015966 0.000000 0.000000 0.000000
# 4 0.000000 0.000000 0.000000 0.050441 0.000000 0.000000
# 5 0.000000 0.000000 0.000000 0.000000 0.034213 0.000000
# 6 0.000000 0.000000 0.000000 0.000000 0.000000 0.022812
#
#
# Mechanical properties :
#
#
# Convention : Reuss Voigt Hill
#
# Bulk Modulus (GPa) = 65.08540 66.89271 65.98905
# Shear Modulus (GPa) = 13.66305 24.03134 18.84720
#
# Velocity S-wave (km/s) = 2.64809 3.51195 3.11016
# Velocity P-wave (km/s) = 6.53866 7.12579 6.83853
#
# Compressibility (1/GPa) = 0.01536443
#
# Stress axis : x y z
#
# Youngs Moduli (GPa) = 16.47392 17.33219 62.63422
#
# Poissons Ratio (x) = 0.82522 0.20450
# Poissons Ratio (y) = 0.78436 0.54007
# Poissons Ratio (z) = 0.05379 0.14945
#
# Static dielectric constant tensor:
#      x y z
#    x 1.666740 0.000000 0.000000 
#    y 0.000000 1.662990 0.000000 
#    z 0.000000 0.000000 1.760720 
# 
# From -- ./inp_files/14379.got.cif
#   From: 2010.05.17/outbox.cif.g08.bks.cpg/sg49_8_cif.got.tgz:14379.got - 2010.06.03 21:02:19.
