data_PCOD9393883
_publ_section_title
;
Structure prediction by ZEFSAII (Michael W. Deem and Ramdas Pophale) SiO2 
 PCOD9393883
Probable space group: P C C M
;
_chemical_formula_sum "Si O2"
_cell_formula_units_Z 26
_cell_length_a 17.233620
_cell_length_b 7.457714
_cell_length_c 9.904838
_cell_angle_alpha 90.000000
_cell_angle_beta 90.000000
_cell_angle_gamma 90.000000
_cell_volume 1273.003547
_symmetry_space_group_name_H-M "P C C M"
_symmetry_group_IT_number 49
_symmetry_cell_setting 'orthorhombic'
loop_
_space_group_symop_operation_xyz
x,y,z
-x,-y,z
x,-y,1/2-z
-x,y,1/2-z
-x,-y,-z
x,y,-z
-x,y,1/2+z
x,-y,1/2+z
loop_
_atom_site_type_symbol
_atom_site_label
_atom_site_fract_x
_atom_site_fract_y
_atom_site_fract_z
Si Si1 0.000000 0.500000 0.250000
Si Si2 0.569816 0.184806 0.664086
Si Si3 0.741004 0.659830 0.847260
Si Si4 0.099437 0.837101 0.347309
O O1 0.943766 0.354583 0.323879
O O2 0.500000 0.276681 0.750000
O O3 0.553916 0.166569 0.500000
O O4 0.653380 0.275912 0.675549
O O5 0.578194 0.000000 0.750000
O O6 0.759926 0.500000 0.750000
O O7 0.808204 0.805549 0.831249
O O8 0.745937 0.593662 0.000000
O O9 0.083649 0.892213 0.500000
O O10 0.078507 0.000000 0.250000
#
# Coordination Sequence:
#
# PCOD9393883 Si02
#       4
#     2   8   8   8
#     4  12  24  44  72  96 132 164 214 266 318 382
#     4  10  20  35  57  85 119 158 205 255 308 368
#     4  10  22  40  61  88 122 163 209 257 311 372
#     4  11  25  44  68  98 130 170 214 262 321 382
#
# _framework density 20.424139
#
# number of rings (size 3 to 8) (size 9 to 14) (size 15 to 20)
#    0.000    1.538    1.538    3.692    0.000    8.000 
#    0.000    3.077    0.000    0.000    0.000    0.000 
#    0.000    0.000    0.000    0.000    0.000    0.000 
#
# Total GULP energy -144832.140410 kJ/mol
# GULP energy per Si atom -5570.466939 kJ/mol
# Density = 2.037765 g / cm^3
# Si number density = 20.424139 Si / 1000 Ang^3
#
#
#
# Elastic Constant Matrix: (Units=GPa)
#
#
# Indices 1 2 3 4 5 6 
#
# 1 141.1654 25.1589 72.4466 0.0000 0.0000 0.0000
# 2 25.1589 99.2253 89.4082 0.0000 0.0000 0.0000
# 3 72.4466 89.4082 171.9031 0.0000 0.0000 0.0000
# 4 0.0000 0.0000 0.0000 30.3836 0.0000 0.0000
# 5 0.0000 0.0000 0.0000 0.0000 491.2600 0.0000
# 6 0.0000 0.0000 0.0000 0.0000 0.0000 15.5284
#
#
#
# Elastic Compliance Matrix: (Units=1/GPa)
#
#
# Indices 1 2 3 4 5 6 
#
# 1 0.009288 0.002206 -0.005062 0.000000 0.000000 0.000000
# 2 0.002206 0.019491 -0.011067 0.000000 0.000000 0.000000
# 3 -0.005062 -0.011067 0.013707 0.000000 0.000000 0.000000
# 4 0.000000 0.000000 0.000000 0.032913 0.000000 0.000000
# 5 0.000000 0.000000 0.000000 0.000000 0.002036 0.000000
# 6 0.000000 0.000000 0.000000 0.000000 0.000000 0.064398
#
#
# Mechanical properties :
#
#
# Convention : Reuss Voigt Hill
#
# Bulk Modulus (GPa) = 68.30607 87.36902 77.83755
# Shear Modulus (GPa) = 28.64381 122.45308 75.54845
#
# Velocity S-wave (km/s) = 3.74899 7.75147 6.08852
# Velocity P-wave (km/s) = 7.22885 11.08981 9.36056
#
# Compressibility (1/GPa) = 0.01463999
#
# Stress axis : x y z
#
# Youngs Moduli (GPa) = 107.66002 51.30627 72.95801
#
# Poissons Ratio (x) = -0.11318 0.36930
# Poissons Ratio (y) = -0.23749 0.80742
# Poissons Ratio (z) = 0.54496 0.56781
#
# Static dielectric constant tensor:
#      x y z
#    x 1.800410 0.000000 0.000000 
#    y 0.000000 1.709360 0.000000 
#    z 0.000000 0.000000 1.706770 
# 
# From -- ./inp_files/1246.got.cif
#   From: 2010.05.17/outbox.cif.g08.bks.cpg/sg49_1_cif.got.tgz:1246.got - 2010.06.03 21:02:19.
