data_PCOD9393241
_publ_section_title
;
Structure prediction by ZEFSAII (Michael W. Deem and Ramdas Pophale) SiO2 
 PCOD9393241
Probable space group: P C C M
;
_chemical_formula_sum "Si O2"
_cell_formula_units_Z 64
_cell_length_a 25.652206
_cell_length_b 14.825221
_cell_length_c 8.795663
_cell_angle_alpha 90.000000
_cell_angle_beta 90.000000
_cell_angle_gamma 90.000000
_cell_volume 3344.987324
_symmetry_space_group_name_H-M "P C C M"
_symmetry_group_IT_number 49
_symmetry_cell_setting 'orthorhombic'
loop_
_space_group_symop_operation_xyz
x,y,z
-x,-y,z
x,-y,1/2-z
-x,y,1/2-z
-x,-y,-z
x,y,-z
-x,y,1/2+z
x,-y,1/2+z
loop_
_atom_site_type_symbol
_atom_site_label
_atom_site_fract_x
_atom_site_fract_y
_atom_site_fract_z
Si Si1 0.558503 0.589684 0.818621
Si Si2 0.252749 0.221208 0.682449
Si Si3 0.152188 0.900022 0.182924
Si Si4 0.055678 0.210387 0.183182
Si Si5 0.781023 0.594364 0.818596
Si Si6 0.649716 0.097850 0.182198
Si Si7 0.096683 0.594359 0.317658
Si Si8 0.441970 0.790172 0.317893
O O1 0.584492 0.500000 0.750000
O O2 0.500000 0.591955 0.750000
O O3 0.579864 0.689121 0.782531
O O4 0.555460 0.580254 0.000000
O O5 0.252548 0.232277 0.500000
O O6 0.202169 0.161391 0.723389
O O7 0.248635 0.318483 0.758401
O O8 0.304156 0.166242 0.726174
O O9 0.101283 0.851962 0.251042
O O10 0.157971 0.000000 0.250000
O O11 0.148588 0.904507 0.000000
O O12 0.067531 0.314447 0.229204
O O13 0.000000 0.183459 0.250000
O O14 0.055772 0.205689 0.000000
O O15 0.762046 0.500000 0.750000
O O16 0.842266 0.604084 0.773115
O O17 0.778748 0.590631 0.000000
O O18 0.595881 0.136433 0.246869
O O19 0.660615 0.000000 0.250000
O O20 0.647620 0.092710 0.000000
O O21 0.076952 0.500000 0.250000
O O22 0.094484 0.588284 0.500000
O O23 0.500000 0.797018 0.250000
O O24 0.444601 0.798692 0.500000
#
# Coordination Sequence:
#
# PCOD9393241 Si02
#       8
#     8   8   8   8   8   8   8   8
#     4   9  16  27  48  78 112 148 189 233 279 331
#     4  10  22  40  63  91 121 154 194 240 294 352
#     4  11  23  40  63  88 114 149 192 243 298 356
#     4  11  23  40  58  84 118 154 198 244 296 351
#     4  10  19  34  59  90 122 158 196 239 290 348
#     4  11  24  42  63  89 120 154 195 246 299 353
#     4   9  19  34  55  83 116 153 193 237 286 344
#     4  10  21  38  60  88 121 160 203 246 295 351
#
# _framework density 19.133108
#
# number of rings (size 3 to 8) (size 9 to 14) (size 15 to 20)
#    0.000    1.875    1.250    3.000    0.000    5.250 
#    0.000    4.375    0.000    1.500    0.000    0.000 
#    0.000    0.000    0.000    0.000    0.000    0.000 
#
# Total GULP energy -357480.483915 kJ/mol
# GULP energy per Si atom -5585.632561 kJ/mol
# Density = 1.908956 g / cm^3
# Si number density = 19.133108 Si / 1000 Ang^3
#
#
#
# Elastic Constant Matrix: (Units=GPa)
#
#
# Indices 1 2 3 4 5 6 
#
# 1 90.4957 58.5260 35.7266 0.0000 0.0000 0.0000
# 2 58.5260 140.9375 49.5307 0.0000 0.0000 0.0000
# 3 35.7266 49.5307 54.5913 0.0000 0.0000 0.0000
# 4 0.0000 0.0000 0.0000 38.7585 0.0000 0.0000
# 5 0.0000 0.0000 0.0000 0.0000 10.6895 0.0000
# 6 0.0000 0.0000 0.0000 0.0000 0.0000 14.1004
#
#
#
# Elastic Compliance Matrix: (Units=1/GPa)
#
#
# Indices 1 2 3 4 5 6 
#
# 1 0.016663 -0.004532 -0.006793 0.000000 0.000000 0.000000
# 2 -0.004532 0.011650 -0.007604 0.000000 0.000000 0.000000
# 3 -0.006793 -0.007604 0.029662 0.000000 0.000000 0.000000
# 4 0.000000 0.000000 0.000000 0.025801 0.000000 0.000000
# 5 0.000000 0.000000 0.000000 0.000000 0.093550 0.000000
# 6 0.000000 0.000000 0.000000 0.000000 0.000000 0.070920
#
#
# Mechanical properties :
#
#
# Convention : Reuss Voigt Hill
#
# Bulk Modulus (GPa) = 49.70806 63.73235 56.72021
# Shear Modulus (GPa) = 17.07599 22.19243 19.63421
#
# Velocity S-wave (km/s) = 2.99069 3.40942 3.20690
# Velocity P-wave (km/s) = 6.16134 6.99151 6.58951
#
# Compressibility (1/GPa) = 0.02011746
#
# Stress axis : x y z
#
# Youngs Moduli (GPa) = 60.01270 85.83966 33.71301
#
# Poissons Ratio (x) = 0.38905 0.22901
# Poissons Ratio (y) = 0.27200 0.25634
# Poissons Ratio (z) = 0.40766 0.65269
#
# Static dielectric constant tensor:
#      x y z
#    x 1.652170 0.000000 0.000000 
#    y 0.000000 1.668790 0.000000 
#    z 0.000000 0.000000 1.637820 
# 
# From -- ./inp_files/6481.got.cif
#   From: 2010.05.17/outbox.cif.g08.bks.cpg/sg49_4_cif.got.tgz:6481.got - 2010.06.03 21:02:19.
