data_PCOD9393668
_publ_section_title
;
Structure prediction by ZEFSAII (Michael W. Deem and Ramdas Pophale) SiO2 
 PCOD9393668
Probable space group: P C C M
;
_chemical_formula_sum "Si O2"
_cell_formula_units_Z 40
_cell_length_a 27.267649
_cell_length_b 9.339413
_cell_length_c 8.714962
_cell_angle_alpha 90.000000
_cell_angle_beta 90.000000
_cell_angle_gamma 90.000000
_cell_volume 2219.385650
_symmetry_space_group_name_H-M "P C C M"
_symmetry_group_IT_number 49
_symmetry_cell_setting 'orthorhombic'
loop_
_space_group_symop_operation_xyz
x,y,z
-x,-y,z
x,-y,1/2-z
-x,y,1/2-z
-x,-y,-z
x,y,-z
-x,y,1/2+z
x,-y,1/2+z
loop_
_atom_site_type_symbol
_atom_site_label
_atom_site_fract_x
_atom_site_fract_y
_atom_site_fract_z
Si Si1 0.752029 0.840961 0.684518
Si Si2 0.950655 0.661431 0.816874
Si Si3 0.158046 0.338890 0.184285
Si Si4 0.549532 0.338148 0.183692
Si Si5 0.657425 0.660246 0.684810
O O1 0.753100 0.844241 0.500000
O O2 0.799144 0.755930 0.745533
O O3 0.702681 0.757686 0.734481
O O4 0.751920 0.000000 0.750000
O O5 0.949549 0.500000 0.750000
O O6 0.896659 0.720485 0.778540
O O7 0.000000 0.731505 0.750000
O O8 0.955120 0.654149 0.000000
O O9 0.161737 0.500000 0.250000
O O10 0.162418 0.344937 0.000000
O O11 0.550592 0.500000 0.250000
O O12 0.500000 0.268847 0.250000
O O13 0.603340 0.279356 0.226301
O O14 0.545537 0.343839 0.000000
O O15 0.662493 0.500000 0.750000
O O16 0.658591 0.649762 0.500000
#
# Coordination Sequence:
#
# PCOD9393668 Si02
#       5
#     8   8   8   8   8
#     4  11  23  38  54  73  99 134 172 213 259 307
#     4   9  16  26  44  71 103 133 163 200 245 292
#     4  10  20  34  53  79 107 136 170 210 252 298
#     4   9  15  25  42  68  99 127 156 194 240 290
#     4   9  19  33  51  75 102 130 164 205 248 295
#
# _framework density 18.023004
#
# number of rings (size 3 to 8) (size 9 to 14) (size 15 to 20)
#    0.000    2.400    0.000    4.200    0.000    6.400 
#    0.000    0.000    0.000    1.200    0.000    8.400 
#    0.000    0.000    0.000    0.000    0.000    0.000 
#
# Total GULP energy -222910.844814 kJ/mol
# GULP energy per Si atom -5572.771120 kJ/mol
# Density = 1.798198 g / cm^3
# Si number density = 18.023004 Si / 1000 Ang^3
#
#
#
# Elastic Constant Matrix: (Units=GPa)
#
#
# Indices 1 2 3 4 5 6 
#
# 1 236.5484 71.7553 64.3269 0.0000 0.0000 0.0000
# 2 71.7553 59.6702 21.7370 0.0000 0.0000 0.0000
# 3 64.3269 21.7370 58.4557 0.0000 0.0000 0.0000
# 4 0.0000 0.0000 0.0000 17.0637 0.0000 0.0000
# 5 0.0000 0.0000 0.0000 0.0000 53.7152 0.0000
# 6 0.0000 0.0000 0.0000 0.0000 0.0000 -4.5955
#
#
#
# Elastic Compliance Matrix: (Units=1/GPa)
#
#
# Indices 1 2 3 4 5 6 
#
# 1 0.008237 -0.007638 -0.006224 0.000000 0.000000 0.000000
# 2 -0.007638 0.026467 -0.001437 0.000000 0.000000 0.000000
# 3 -0.006224 -0.001437 0.024490 0.000000 0.000000 0.000000
# 4 0.000000 0.000000 0.000000 0.058604 0.000000 0.000000
# 5 0.000000 0.000000 0.000000 0.000000 0.018617 0.000000
# 6 0.000000 0.000000 0.000000 0.000000 0.000000 -0.217606
#
#
# Mechanical properties :
#
#
# Convention : Reuss Voigt Hill
#
# Bulk Modulus (GPa) = 34.96897 74.47919 54.72408
# Shear Modulus (GPa) = -121.76906 26.36037 -47.70435
#
# Velocity S-wave (km/s) = -8.22860 3.82854 -5.15034
# Velocity P-wave (km/s) = 8.41637 7.80755 2.22232
#
# Compressibility (1/GPa) = 0.02859678
#
# Stress axis : x y z
#
# Youngs Moduli (GPa) = 121.40482 37.78297 40.83219
#
# Poissons Ratio (x) = 0.28858 0.25414
# Poissons Ratio (y) = 0.92727 0.05867
# Poissons Ratio (z) = 0.75563 0.05429
#
# Static dielectric constant tensor:
#      x y z
#    x 1.696270 0.000000 0.000000 
#    y 0.000000 1.563400 0.000000 
#    z 0.000000 0.000000 1.607140 
# 
# From -- ./inp_files/1893.got.cif
#   From: 2010.05.17/outbox.cif.g08.bks.cpg/sg49_1_cif.got.tgz:1893.got - 2010.06.03 21:02:19.
