data_PCOD9393094
_publ_section_title
;
Structure prediction by ZEFSAII (Michael W. Deem and Ramdas Pophale) SiO2 
 PCOD9393094
Probable space group: P C C M
;
_chemical_formula_sum "Si O2"
_cell_formula_units_Z 24
_cell_length_a 13.529742
_cell_length_b 7.059114
_cell_length_c 10.648724
_cell_angle_alpha 90.000000
_cell_angle_beta 90.000000
_cell_angle_gamma 90.000000
_cell_volume 1017.038238
_symmetry_space_group_name_H-M "P C C M"
_symmetry_group_IT_number 49
_symmetry_cell_setting 'orthorhombic'
loop_
_space_group_symop_operation_xyz
x,y,z
-x,-y,z
x,-y,1/2-z
-x,y,1/2-z
-x,-y,-z
x,y,-z
-x,y,1/2+z
x,-y,1/2+z
loop_
_atom_site_type_symbol
_atom_site_label
_atom_site_fract_x
_atom_site_fract_y
_atom_site_fract_z
Si Si1 0.131124 0.268893 0.500000
Si Si2 0.441894 0.201134 0.861323
Si Si3 0.903989 0.725594 0.000000
Si Si4 0.773019 0.270750 0.737218
O O1 0.114633 0.497381 0.500000
O O2 0.190356 0.211843 0.624810
O O3 0.016989 0.209506 0.500000
O O4 0.500000 0.302038 0.750000
O O5 0.330131 0.190040 0.812997
O O6 0.500000 0.000000 0.873124
O O7 0.442158 0.288369 0.000000
O O8 0.852367 0.780849 0.869633
O O9 0.762491 0.500000 0.750000
#
# Coordination Sequence:
#
# PCOD9393094 Si02
#       4
#     4   8   4   8
#     4   9  18  28  52  84 120 160 185 226 287 345
#     4  10  22  40  59  80 107 151 202 247 297 349
#     4   9  16  32  50  80 124 158 191 226 275 349
#     4  10  19  33  54  86 121 152 192 240 286 339
#
# _framework density 23.597930999999999
#
# number of rings (size 3 to 8) (size 9 to 14) (size 15 to 20)
#    0.000    2.333    1.667    1.000    2.333    4.667 
#    0.000    1.667    0.000    0.000    0.000   28.000 
#    0.000    0.000    0.000    0.000    0.000    2.000 
#
# Total GULP energy -134027.683134 kJ/mol
# GULP energy per Si atom -5584.486797 kJ/mol
# Density = 2.354422 g / cm^3
# Si number density = 23.597931 Si / 1000 Ang^3
#
#
#
# Elastic Constant Matrix: (Units=GPa)
#
#
# Indices 1 2 3 4 5 6 
#
# 1 198.9230 7.5549 133.5787 0.0000 0.0000 0.0000
# 2 7.5549 115.3955 16.6479 0.0000 0.0000 0.0000
# 3 133.5787 16.6479 313.3663 0.0000 0.0000 0.0000
# 4 0.0000 0.0000 0.0000 -17.7057 0.0000 0.0000
# 5 0.0000 0.0000 0.0000 0.0000 40.4449 0.0000
# 6 0.0000 0.0000 0.0000 0.0000 0.0000 23.6356
#
#
#
# Elastic Compliance Matrix: (Units=1/GPa)
#
#
# Indices 1 2 3 4 5 6 
#
# 1 0.007043 -0.000028 -0.003001 0.000000 0.000000 0.000000
# 2 -0.000028 0.008733 -0.000452 0.000000 0.000000 0.000000
# 3 -0.003001 -0.000452 0.004494 0.000000 0.000000 0.000000
# 4 0.000000 0.000000 0.000000 -0.056479 0.000000 0.000000
# 5 0.000000 0.000000 0.000000 0.000000 0.024725 0.000000
# 6 0.000000 0.000000 0.000000 0.000000 0.000000 0.042309
#
#
# Mechanical properties :
#
#
# Convention : Reuss Voigt Hill
#
# Bulk Modulus (GPa) = 75.13964 104.80533 89.97249
# Shear Modulus (GPa) = 118.41730 40.60186 79.50958
#
# Velocity S-wave (km/s) = 7.09156 4.15247 5.81090
# Velocity P-wave (km/s) = 9.94808 8.21584 9.12317
#
# Compressibility (1/GPa) = 0.01330856
#
# Stress axis : x y z
#
# Youngs Moduli (GPa) = 141.98058 114.50962 222.50307
#
# Poissons Ratio (x) = 0.00323 0.66769
# Poissons Ratio (y) = 0.00400 0.10055
# Poissons Ratio (z) = 0.42606 0.05175
#
# Static dielectric constant tensor:
#      x y z
#    x 1.854250 0.000000 0.000000 
#    y 0.000000 2.068710 0.000000 
#    z 0.000000 0.000000 1.884010 
# 
# From -- ./inp_files/7821.got.cif
#   From: 2010.05.17/outbox.cif.g08.bks.cpg/sg49_4_cif.got.tgz:7821.got - 2010.06.03 21:02:19.
