data_PCOD9393123
_publ_section_title
;
Structure prediction by ZEFSAII (Michael W. Deem and Ramdas Pophale) SiO2 
 PCOD9393123
Probable space group: P C C M
;
_chemical_formula_sum "Si O2"
_cell_formula_units_Z 64
_cell_length_a 13.239399
_cell_length_b 14.037341
_cell_length_c 15.315665
_cell_angle_alpha 90.000000
_cell_angle_beta 90.000000
_cell_angle_gamma 90.000000
_cell_volume 2846.354440
_symmetry_space_group_name_H-M "P C C M"
_symmetry_group_IT_number 49
_symmetry_cell_setting 'orthorhombic'
loop_
_space_group_symop_operation_xyz
x,y,z
-x,-y,z
x,-y,1/2-z
-x,y,1/2-z
-x,-y,-z
x,y,-z
-x,y,1/2+z
x,-y,1/2+z
loop_
_atom_site_type_symbol
_atom_site_label
_atom_site_fract_x
_atom_site_fract_y
_atom_site_fract_z
Si Si1 0.941790 0.093503 0.894342
Si Si2 0.383757 0.387933 0.740095
Si Si3 0.262979 0.150963 0.337755
Si Si4 0.690820 0.788346 0.150731
Si Si5 0.113674 0.463981 0.900064
Si Si6 0.237780 0.644079 0.103390
Si Si7 0.489726 0.888725 0.143984
Si Si8 0.907860 0.743757 0.099925
O O1 0.825390 0.082195 0.866987
O O2 0.009034 0.184078 0.862832
O O3 0.056807 0.901380 0.000000
O O4 0.000000 0.000000 0.865738
O O5 0.367658 0.500000 0.750000
O O6 0.500000 0.365556 0.750000
O O7 0.328941 0.317527 0.808252
O O8 0.349285 0.366254 0.642001
O O9 0.283550 0.147227 0.235133
O O10 0.210599 0.252482 0.360609
O O11 0.374929 0.142235 0.379395
O O12 0.586164 0.827929 0.110662
O O13 0.794924 0.786598 0.098271
O O14 0.176756 0.552336 0.862191
O O15 0.106345 0.360243 0.856771
O O16 0.000000 0.500000 0.905653
O O17 0.154319 0.450742 0.000000
O O18 0.229577 0.646466 0.000000
O O19 0.500000 0.879912 0.250000
O O20 0.500000 0.000000 0.121260
O O21 0.941675 0.723984 0.000000
#
# Coordination Sequence:
#
# PCOD9393123 Si02
#       8
#     8   8   8   8   8   8   8   8
#     4  10  22  39  58  80 114 155 190 234 297 354
#     4  10  20  36  56  81 117 156 188 234 299 351
#     4  10  20  36  60  85 113 148 189 240 294 351
#     4  10  20  36  58  84 115 148 192 241 292 351
#     4   9  17  31  54  82 110 145 190 232 275 334
#     4  10  19  33  57  85 113 149 195 237 283 352
#     4   9  19  36  59  83 110 145 192 241 296 345
#     4  10  21  37  56  80 116 155 189 236 292 346
#
# _framework density 22.484902000000002
#
# number of rings (size 3 to 8) (size 9 to 14) (size 15 to 20)
#    0.000    2.250    0.000    3.750    1.750    2.500 
#    0.000    5.000    0.000    6.750    0.000    0.000 
#    0.000    0.000    0.000    0.000    0.000    0.000 
#
# Total GULP energy -356796.926192 kJ/mol
# GULP energy per Si atom -5574.951972 kJ/mol
# Density = 2.243373 g / cm^3
# Si number density = 22.484902 Si / 1000 Ang^3
#
#
#
# Elastic Constant Matrix: (Units=GPa)
#
#
# Indices 1 2 3 4 5 6 
#
# 1 169.1832 60.1620 11.5205 0.0000 0.0000 0.0000
# 2 60.1620 103.9967 0.9225 0.0000 0.0000 0.0000
# 3 11.5205 0.9225 24.2509 0.0000 0.0000 0.0000
# 4 0.0000 0.0000 0.0000 4.1809 0.0000 0.0000
# 5 0.0000 0.0000 0.0000 0.0000 -39.1277 0.0000
# 6 0.0000 0.0000 0.0000 0.0000 0.0000 65.9640
#
#
#
# Elastic Compliance Matrix: (Units=1/GPa)
#
#
# Indices 1 2 3 4 5 6 
#
# 1 0.007728 -0.004440 -0.003502 0.000000 0.000000 0.000000
# 2 -0.004440 0.012169 0.001646 0.000000 0.000000 0.000000
# 3 -0.003502 0.001646 0.042837 0.000000 0.000000 0.000000
# 4 0.000000 0.000000 0.000000 0.239186 0.000000 0.000000
# 5 0.000000 0.000000 0.000000 0.000000 -0.025557 0.000000
# 6 0.000000 0.000000 0.000000 0.000000 0.000000 0.015160
#
#
# Mechanical properties :
#
#
# Convention : Reuss Voigt Hill
#
# Bulk Modulus (GPa) = 19.94313 49.18233 34.56273
# Shear Modulus (GPa) = 15.58467 21.19181 18.38824
#
# Velocity S-wave (km/s) = 2.63557 3.07333 2.86283
# Velocity P-wave (km/s) = 4.26033 5.87493 5.13153
#
# Compressibility (1/GPa) = 0.05014259
#
# Stress axis : x y z
#
# Youngs Moduli (GPa) = 129.40028 82.17358 23.34439
#
# Poissons Ratio (x) = 0.36481 0.08176
# Poissons Ratio (y) = 0.57448 -0.03843
# Poissons Ratio (z) = 0.45320 -0.13527
#
# Static dielectric constant tensor:
#      x y z
#    x 1.852690 0.000000 0.000000 
#    y 0.000000 1.927050 0.000000 
#    z 0.000000 0.000000 1.853600 
# 
# From -- ./inp_files/17322.got.cif
#   From: 2010.05.17/outbox.cif.g08.bks.cpg/sg49_9_cif.got.tgz:17322.got - 2010.06.03 21:02:19.
