data_PCOD9393415
_publ_section_title
;
Structure prediction by ZEFSAII (Michael W. Deem and Ramdas Pophale) SiO2 
 PCOD9393415
Probable space group: P C C M
;
_chemical_formula_sum "Si O2"
_cell_formula_units_Z 58
_cell_length_a 7.781630
_cell_length_b 23.563410
_cell_length_c 14.096469
_cell_angle_alpha 90.000000
_cell_angle_beta 90.000000
_cell_angle_gamma 90.000000
_cell_volume 2584.753058
_symmetry_space_group_name_H-M "P C C M"
_symmetry_group_IT_number 49
_symmetry_cell_setting 'orthorhombic'
loop_
_space_group_symop_operation_xyz
x,y,z
-x,-y,z
x,-y,1/2-z
-x,y,1/2-z
-x,-y,-z
x,y,-z
-x,y,1/2+z
x,-y,1/2+z
loop_
_atom_site_type_symbol
_atom_site_label
_atom_site_fract_x
_atom_site_fract_y
_atom_site_fract_z
Si Si1 0.885099 0.666010 0.106699
Si Si2 0.229451 0.097502 0.200195
Si Si3 0.707371 0.362438 0.101302
Si Si4 0.567131 0.935485 0.390500
Si Si5 0.000000 0.000000 0.750000
Si Si6 0.411546 0.762680 0.107504
Si Si7 0.206964 0.434517 0.231694
Si Si8 0.225002 0.220116 0.205942
O O1 0.789396 0.608386 0.141437
O O2 0.856843 0.720654 0.173222
O O3 0.089996 0.654492 0.104475
O O4 0.829515 0.680601 0.000000
O O5 0.303881 0.085449 0.307526
O O6 0.391526 0.097699 0.130394
O O7 0.143591 0.158799 0.185903
O O8 0.110114 0.042986 0.185746
O O9 0.598190 0.305601 0.106631
O O10 0.684026 0.402061 0.189575
O O11 0.676692 0.391048 0.000000
O O12 0.624880 0.930237 0.500000
O O13 0.500000 0.000000 0.373757
O O14 0.592431 0.779369 0.151794
O O15 0.266051 0.780001 0.182151
O O16 0.386661 0.782945 0.000000
O O17 0.254133 0.500000 0.250000
O O18 0.000000 0.433733 0.250000
#
# Coordination Sequence:
#
# PCOD9393415 Si02
#       8
#     8   8   8   8   2   8   8   8
#     4  10  20  35  55  84 122 157 194 245 301 353
#     4  11  23  41  63  89 121 158 201 248 307 363
#     4   9  18  33  56  81 112 151 193 245 295 345
#     4  10  19  39  69  89 114 156 202 247 294 363
#     4  12  24  46  62  88 132 160 194 256 310 362
#     4  10  20  36  58  85 115 146 189 243 294 347
#     4   9  17  31  53  81 116 159 203 244 291 352
#     4  11  23  36  59  86 113 155 192 237 299 361
#
# _framework density 22.439281999999999
#
# number of rings (size 3 to 8) (size 9 to 14) (size 15 to 20)
#    0.000    1.931    2.759    2.483    0.000    4.414 
#    0.000    4.138    0.000    1.655    0.000    2.897 
#    0.000    0.000    0.000    0.000    0.000    0.000 
#
# Total GULP energy -323511.546395 kJ/mol
# GULP energy per Si atom -5577.785283 kJ/mol
# Density = 2.238821 g / cm^3
# Si number density = 22.439282 Si / 1000 Ang^3
#
#
#
# Elastic Constant Matrix: (Units=GPa)
#
#
# Indices 1 2 3 4 5 6 
#
# 1 40.0361 24.2065 9.4947 0.0000 0.0000 0.0000
# 2 24.2065 137.3105 37.5533 0.0000 0.0000 0.0000
# 3 9.4947 37.5533 123.2351 0.0000 0.0000 0.0000
# 4 0.0000 0.0000 0.0000 6.1544 0.0000 0.0000
# 5 0.0000 0.0000 0.0000 0.0000 16.4592 0.0000
# 6 0.0000 0.0000 0.0000 0.0000 0.0000 22.9082
#
#
#
# Elastic Compliance Matrix: (Units=1/GPa)
#
#
# Indices 1 2 3 4 5 6 
#
# 1 0.028015 -0.004744 -0.000713 0.000000 0.000000 0.000000
# 2 -0.004744 0.008748 -0.002300 0.000000 0.000000 0.000000
# 3 -0.000713 -0.002300 0.008870 0.000000 0.000000 0.000000
# 4 0.000000 0.000000 0.000000 0.162487 0.000000 0.000000
# 5 0.000000 0.000000 0.000000 0.000000 0.060756 0.000000
# 6 0.000000 0.000000 0.000000 0.000000 0.000000 0.043652
#
#
# Mechanical properties :
#
#
# Convention : Reuss Voigt Hill
#
# Bulk Modulus (GPa) = 33.20116 49.23232 41.21674
# Shear Modulus (GPa) = 14.78930 24.39283 19.59107
#
# Velocity S-wave (km/s) = 2.57004 3.30064 2.95798
# Velocity P-wave (km/s) = 4.86158 6.04264 5.48399
#
# Compressibility (1/GPa) = 0.03011943
#
# Stress axis : x y z
#
# Youngs Moduli (GPa) = 35.69558 114.30969 112.73362
#
# Poissons Ratio (x) = 0.54226 0.08036
# Poissons Ratio (y) = 0.16933 0.25932
# Poissons Ratio (z) = 0.02545 0.26295
#
# Static dielectric constant tensor:
#      x y z
#    x 1.667060 0.000000 0.000000 
#    y 0.000000 1.872260 0.000000 
#    z 0.000000 0.000000 1.835970 
# 
# From -- ./inp_files/12078.got.cif
#   From: 2010.05.17/outbox.cif.g08.bks.cpg/sg49_7_cif.got.tgz:12078.got - 2010.06.03 21:02:19.
