data_PCOD9393708
_publ_section_title
;
Structure prediction by ZEFSAII (Michael W. Deem and Ramdas Pophale) SiO2 
 PCOD9393708
Probable space group: P C C M
;
_chemical_formula_sum "Si O2"
_cell_formula_units_Z 34
_cell_length_a 7.629181
_cell_length_b 22.673444
_cell_length_c 9.367456
_cell_angle_alpha 90.000000
_cell_angle_beta 90.000000
_cell_angle_gamma 90.000000
_cell_volume 1620.380742
_symmetry_space_group_name_H-M "P C C M"
_symmetry_group_IT_number 49
_symmetry_cell_setting 'orthorhombic'
loop_
_space_group_symop_operation_xyz
x,y,z
-x,-y,z
x,-y,1/2-z
-x,y,1/2-z
-x,-y,-z
x,y,-z
-x,y,1/2+z
x,-y,1/2+z
loop_
_atom_site_type_symbol
_atom_site_label
_atom_site_fract_x
_atom_site_fract_y
_atom_site_fract_z
Si Si1 0.168150 0.077489 0.659907
Si Si2 0.500000 0.000000 0.250000
Si Si3 0.332389 0.201016 0.667754
Si Si4 0.809940 0.555560 0.829094
Si Si5 0.186915 0.313344 0.829304
O O1 0.115488 0.065782 0.500000
O O2 0.355171 0.044246 0.680254
O O3 0.195656 0.147813 0.678470
O O4 0.000000 0.060385 0.750000
O O5 0.500000 0.177023 0.750000
O O6 0.363161 0.212965 0.500000
O O7 0.284999 0.260420 0.751592
O O8 0.721567 0.500000 0.750000
O O9 0.731576 0.621102 0.811493
O O10 0.000000 0.559336 0.750000
O O11 0.828434 0.545160 0.000000
O O12 0.000000 0.314539 0.750000
O O13 0.167832 0.303132 0.000000
#
# Coordination Sequence:
#
# PCOD9393708 Si02
#       5
#     8   2   8   8   8
#     4  11  26  45  70 101 134 174 218 268 323 382
#     4  12  24  48  72 100 138 176 220 266 314 382
#     4  11  23  41  63  89 120 162 208 260 320 381
#     4   9  16  26  44  72 109 149 194 245 305 366
#     4  10  20  34  54  84 118 156 201 255 311 376
#
# _framework density 20.982723
#
# number of rings (size 3 to 8) (size 9 to 14) (size 15 to 20)
#    0.000    1.647    1.176    4.235    0.000    9.412 
#    0.000    0.000    0.000    0.706    0.000    4.941 
#    0.000    0.000    0.000    0.000    0.000    0.000 
#
# Total GULP energy -189394.765643 kJ/mol
# GULP energy per Si atom -5570.434284 kJ/mol
# Density = 2.093496 g / cm^3
# Si number density = 20.982723 Si / 1000 Ang^3
#
#
#
# Elastic Constant Matrix: (Units=GPa)
#
#
# Indices 1 2 3 4 5 6 
#
# 1 89.9782 25.5873 69.1076 0.0000 0.0000 0.0000
# 2 25.5873 144.0229 98.4228 0.0000 0.0000 0.0000
# 3 69.1076 98.4228 186.6547 0.0000 0.0000 0.0000
# 4 0.0000 0.0000 0.0000 923.5944 0.0000 0.0000
# 5 0.0000 0.0000 0.0000 0.0000 24.0634 0.0000
# 6 0.0000 0.0000 0.0000 0.0000 0.0000 20.1152
#
#
#
# Elastic Compliance Matrix: (Units=1/GPa)
#
#
# Indices 1 2 3 4 5 6 
#
# 1 0.015845 0.001867 -0.006851 0.000000 0.000000 0.000000
# 2 0.001867 0.011075 -0.006531 0.000000 0.000000 0.000000
# 3 -0.006851 -0.006531 0.011338 0.000000 0.000000 0.000000
# 4 0.000000 0.000000 0.000000 0.001083 0.000000 0.000000
# 5 0.000000 0.000000 0.000000 0.000000 0.041557 0.000000
# 6 0.000000 0.000000 0.000000 0.000000 0.000000 0.049714
#
#
# Mechanical properties :
#
#
# Convention : Reuss Voigt Hill
#
# Bulk Modulus (GPa) = 65.67144 89.65459 77.66302
# Shear Modulus (GPa) = 31.50286 208.72379 120.11333
#
# Velocity S-wave (km/s) = 3.87896 9.98449 7.57418
# Velocity P-wave (km/s) = 7.17130 13.25672 10.65758
#
# Compressibility (1/GPa) = 0.01522732
#
# Stress axis : x y z
#
# Youngs Moduli (GPa) = 63.11294 90.29534 88.20223
#
# Poissons Ratio (x) = -0.16855 0.60424
# Poissons Ratio (y) = -0.11781 0.57603
# Poissons Ratio (z) = 0.43236 0.58970
#
# Static dielectric constant tensor:
#      x y z
#    x 1.683280 0.000000 0.000000 
#    y 0.000000 1.829070 0.000000 
#    z 0.000000 0.000000 1.708360 
# 
# From -- ./inp_files/1537.got.cif
#   From: 2010.05.17/outbox.cif.g08.bks.cpg/sg49_1_cif.got.tgz:1537.got - 2010.06.03 21:02:19.
