data_PCOD9393811
_publ_section_title
;
Structure prediction by ZEFSAII (Michael W. Deem and Ramdas Pophale) SiO2 
 PCOD9393811
Probable space group: P C C M
;
_chemical_formula_sum "Si O2"
_cell_formula_units_Z 64
_cell_length_a 8.669433
_cell_length_b 21.895355
_cell_length_c 15.370631
_cell_angle_alpha 90.000000
_cell_angle_beta 90.000000
_cell_angle_gamma 90.000000
_cell_volume 2917.657990
_symmetry_space_group_name_H-M "P C C M"
_symmetry_group_IT_number 49
_symmetry_cell_setting 'orthorhombic'
loop_
_space_group_symop_operation_xyz
x,y,z
-x,-y,z
x,-y,1/2-z
-x,y,1/2-z
-x,-y,-z
x,y,-z
-x,y,1/2+z
x,-y,1/2+z
loop_
_atom_site_type_symbol
_atom_site_label
_atom_site_fract_x
_atom_site_fract_y
_atom_site_fract_z
Si Si1 0.812400 0.141316 0.894076
Si Si2 0.152539 0.632532 0.395731
Si Si3 0.812948 0.006698 0.897077
Si Si4 0.175462 0.123931 0.894146
Si Si5 0.692034 0.246888 0.597337
Si Si6 0.822957 0.498467 0.646498
Si Si7 0.204398 0.369324 0.602766
Si Si8 0.616464 0.744894 0.667768
O O1 0.728954 0.197620 0.847562
O O2 0.996157 0.138499 0.876256
O O3 0.759382 0.073025 0.865316
O O4 0.794139 0.147178 0.000000
O O5 0.149995 0.635640 0.500000
O O6 0.233589 0.693252 0.360799
O O7 0.236553 0.568903 0.375309
O O8 0.974537 0.631161 0.366694
O O9 0.763659 0.941212 0.859657
O O10 0.776943 0.008237 0.000000
O O11 0.000000 0.000000 0.890700
O O12 0.268336 0.182074 0.861418
O O13 0.187386 0.118754 0.000000
O O14 0.759618 0.243393 0.500000
O O15 0.510806 0.253874 0.592244
O O16 0.830086 0.500000 0.750000
O O17 0.743038 0.560270 0.614211
O O18 0.000000 0.500000 0.610742
O O19 0.209850 0.353768 0.500000
O O20 0.294558 0.318764 0.657023
O O21 0.500000 0.747975 0.750000
#
# Coordination Sequence:
#
# PCOD9393811 Si02
#       8
#     8   8   8   8   8   8   8   8
#     4   9  16  32  57  81 109 145 185 233 289 346
#     4   9  18  34  60  89 111 139 186 237 287 344
#     4   7  11  22  48  85 113 130 166 228 283 325
#     4   8  14  28  55  89 112 134 178 235 288 337
#     4  10  20  35  55  78 110 145 181 231 281 336
#     4   9  18  32  57  90 118 139 173 230 291 343
#     4  10  20  38  62  84 108 146 191 236 287 347
#     4  12  26  38  50  74 112 157 196 235 275 336
#
# _framework density 21.935403000000001
#
# number of rings (size 3 to 8) (size 9 to 14) (size 15 to 20)
#    0.000    2.750    0.000    3.750    1.750    3.500 
#    0.000    3.125    0.000    6.750    0.000    2.625 
#    0.000    0.000    0.000    0.000    0.000    4.500 
#
# Total GULP energy -356610.019873 kJ/mol
# GULP energy per Si atom -5572.031561 kJ/mol
# Density = 2.188548 g / cm^3
# Si number density = 21.935403 Si / 1000 Ang^3
#
#
#
# Elastic Constant Matrix: (Units=GPa)
#
#
# Indices 1 2 3 4 5 6 
#
# 1 34.2208 48.6267 3.2672 0.0000 0.0000 0.0000
# 2 48.6267 203.6093 9.1339 0.0000 0.0000 0.0000
# 3 3.2672 9.1339 66.0632 0.0000 0.0000 0.0000
# 4 0.0000 0.0000 0.0000 -23.5523 0.0000 0.0000
# 5 0.0000 0.0000 0.0000 0.0000 14.4392 0.0000
# 6 0.0000 0.0000 0.0000 0.0000 0.0000 -17.6961
#
#
#
# Elastic Compliance Matrix: (Units=1/GPa)
#
#
# Indices 1 2 3 4 5 6 
#
# 1 0.044268 -0.010539 -0.000732 0.000000 0.000000 0.000000
# 2 -0.010539 0.007451 -0.000509 0.000000 0.000000 0.000000
# 3 -0.000732 -0.000509 0.015244 0.000000 0.000000 0.000000
# 4 0.000000 0.000000 0.000000 -0.042459 0.000000 0.000000
# 5 0.000000 0.000000 0.000000 0.000000 0.069256 0.000000
# 6 0.000000 0.000000 0.000000 0.000000 0.000000 -0.056510
#
#
# Mechanical properties :
#
#
# Convention : Reuss Voigt Hill
#
# Bulk Modulus (GPa) = 23.04048 47.32767 35.18407
# Shear Modulus (GPa) = 66.41943 10.82917 38.62430
#
# Velocity S-wave (km/s) = 5.50866 2.22431 4.20077
# Velocity P-wave (km/s) = 7.14052 5.31220 6.29311
#
# Compressibility (1/GPa) = 0.04340188
#
# Stress axis : x y z
#
# Youngs Moduli (GPa) = 22.58963 134.20541 65.60130
#
# Poissons Ratio (x) = 1.41445 0.04803
# Poissons Ratio (y) = 0.23808 0.03339
# Poissons Ratio (z) = 0.01654 0.06831
#
# Static dielectric constant tensor:
#      x y z
#    x 1.774520 0.000000 0.000000 
#    y 0.000000 1.872130 0.000000 
#    z 0.000000 0.000000 1.888510 
# 
# From -- ./inp_files/16536.got.cif
#   From: 2010.05.17/outbox.cif.g08.bks.cpg/sg49_9_cif.got.tgz:16536.got - 2010.06.03 21:02:19.
