data_PCOD9393419
_publ_section_title
;
Structure prediction by ZEFSAII (Michael W. Deem and Ramdas Pophale) SiO2 
 PCOD9393419
Probable space group: P C C M
;
_chemical_formula_sum "Si O2"
_cell_formula_units_Z 48
_cell_length_a 15.228126
_cell_length_b 8.756020
_cell_length_c 16.433422
_cell_angle_alpha 90.000000
_cell_angle_beta 90.000000
_cell_angle_gamma 90.000000
_cell_volume 2191.195939
_symmetry_space_group_name_H-M "P C C M"
_symmetry_group_IT_number 49
_symmetry_cell_setting 'orthorhombic'
loop_
_space_group_symop_operation_xyz
x,y,z
-x,-y,z
x,-y,1/2-z
-x,y,1/2-z
-x,-y,-z
x,y,-z
-x,y,1/2+z
x,-y,1/2+z
loop_
_atom_site_type_symbol
_atom_site_label
_atom_site_fract_x
_atom_site_fract_y
_atom_site_fract_z
Si Si1 0.370974 0.823858 0.344794
Si Si2 0.466222 0.337751 0.595707
Si Si3 0.775088 0.405030 0.330697
Si Si4 0.127065 0.167427 0.279376
Si Si5 0.919404 0.616514 0.408997
Si Si6 0.318839 0.152080 0.344436
O O1 0.470817 0.785831 0.363054
O O2 0.305924 0.685627 0.370997
O O3 0.353553 0.836044 0.248385
O O4 0.346280 0.988560 0.380401
O O5 0.500000 0.500000 0.628269
O O6 0.483246 0.334708 0.500000
O O7 0.365926 0.291769 0.611092
O O8 0.745320 0.500000 0.250000
O O9 0.840514 0.274693 0.294596
O O10 0.832563 0.519378 0.384721
O O11 0.063226 0.259628 0.338444
O O12 0.214759 0.151190 0.335146
O O13 0.101647 0.000000 0.250000
O O14 0.910058 0.681168 0.500000
O O15 0.000000 0.500000 0.408988
#
# Coordination Sequence:
#
# PCOD9393419 Si02
#       6
#     8   8   8   8   8   8
#     4  10  20  37  60  84 113 157 206 266 312 371
#     4  11  26  38  50  82 123 162 212 261 313 383
#     4   9  19  35  63  91 122 161 217 265 311 380
#     4  10  19  40  69  97 125 159 218 271 316 374
#     4  10  23  42  64  95 138 175 204 251 325 401
#     4  10  20  39  61  84 117 155 206 263 321 367
#
# _framework density 21.905847000000001
#
# number of rings (size 3 to 8) (size 9 to 14) (size 15 to 20)
#    0.000    2.000    3.333    1.000    7.000    7.667 
#    0.000    2.500    0.000    2.000    0.000    0.000 
#    0.000    0.000    0.000    0.000    0.000    0.000 
#
# Total GULP energy -268153.620178 kJ/mol
# GULP energy per Si atom -5586.533754 kJ/mol
# Density = 2.185599 g / cm^3
# Si number density = 21.905847 Si / 1000 Ang^3
#
#
#
# Elastic Constant Matrix: (Units=GPa)
#
#
# Indices 1 2 3 4 5 6 
#
# 1 79.0520 14.0700 2.8739 0.0000 0.0000 0.0000
# 2 14.0700 119.5010 14.5691 0.0000 0.0000 0.0000
# 3 2.8739 14.5691 39.0529 0.0000 0.0000 0.0000
# 4 0.0000 0.0000 0.0000 13.4837 0.0000 0.0000
# 5 0.0000 0.0000 0.0000 0.0000 20.6432 0.0000
# 6 0.0000 0.0000 0.0000 0.0000 0.0000 23.0256
#
#
#
# Elastic Compliance Matrix: (Units=1/GPa)
#
#
# Indices 1 2 3 4 5 6 
#
# 1 0.012927 -0.001473 -0.000402 0.000000 0.000000 0.000000
# 2 -0.001473 0.008935 -0.003225 0.000000 0.000000 0.000000
# 3 -0.000402 -0.003225 0.026839 0.000000 0.000000 0.000000
# 4 0.000000 0.000000 0.000000 0.074164 0.000000 0.000000
# 5 0.000000 0.000000 0.000000 0.000000 0.048442 0.000000
# 6 0.000000 0.000000 0.000000 0.000000 0.000000 0.043430
#
#
# Mechanical properties :
#
#
# Convention : Reuss Voigt Hill
#
# Bulk Modulus (GPa) = 25.97325 33.40356 29.68840
# Shear Modulus (GPa) = 21.02882 25.17002 23.09942
#
# Velocity S-wave (km/s) = 3.10169 3.39338 3.25081
# Velocity P-wave (km/s) = 4.97090 5.53491 5.26047
#
# Compressibility (1/GPa) = 0.03850116
#
# Stress axis : x y z
#
# Youngs Moduli (GPa) = 77.35942 111.92294 37.25936
#
# Poissons Ratio (x) = 0.16486 0.01497
# Poissons Ratio (y) = 0.11395 0.12015
# Poissons Ratio (z) = 0.03108 0.36093
#
# Static dielectric constant tensor:
#      x y z
#    x 1.853540 0.000000 0.000000 
#    y 0.000000 1.856490 0.000000 
#    z 0.000000 0.000000 1.787610 
# 
# From -- ./inp_files/17683.got.cif
#   From: 2010.05.17/outbox.cif.g08.bks.cpg/sg49_9_cif.got.tgz:17683.got - 2010.06.03 21:02:19.
