data_PCOD9393993
_publ_section_title
;
Structure prediction by ZEFSAII (Michael W. Deem and Ramdas Pophale) SiO2 
 PCOD9393993
Probable space group: P C C M
;
_chemical_formula_sum "Si O2"
_cell_formula_units_Z 64
_cell_length_a 9.050339
_cell_length_b 19.518877
_cell_length_c 20.676146
_cell_angle_alpha 90.000000
_cell_angle_beta 90.000000
_cell_angle_gamma 90.000000
_cell_volume 3652.491925
_symmetry_space_group_name_H-M "P C C M"
_symmetry_group_IT_number 49
_symmetry_cell_setting 'orthorhombic'
loop_
_space_group_symop_operation_xyz
x,y,z
-x,-y,z
x,-y,1/2-z
-x,y,1/2-z
-x,-y,-z
x,y,-z
-x,y,1/2+z
x,-y,1/2+z
loop_
_atom_site_type_symbol
_atom_site_label
_atom_site_fract_x
_atom_site_fract_y
_atom_site_fract_z
Si Si1 0.317308 0.428870 0.574234
Si Si2 0.711975 0.168276 0.696870
Si Si3 0.369853 0.815044 0.840203
Si Si4 0.163125 0.685699 0.323190
Si Si5 0.669690 0.409931 0.574383
Si Si6 0.170588 0.979232 0.679902
Si Si7 0.360658 0.948227 0.076014
Si Si8 0.810184 0.676329 0.326866
O O1 0.274588 0.411862 0.500000
O O2 0.491549 0.411003 0.580599
O O3 0.290610 0.509933 0.583176
O O4 0.235280 0.386379 0.628445
O O5 0.711875 0.159539 0.774762
O O6 0.543354 0.185978 0.677860
O O7 0.800001 0.234190 0.673808
O O8 0.784883 0.099663 0.669790
O O9 0.370114 0.870421 0.897632
O O10 0.288186 0.742004 0.850177
O O11 0.249586 0.639510 0.375099
O O12 0.214024 0.665484 0.250144
O O13 0.987013 0.682755 0.331890
O O14 0.705174 0.390637 0.500000
O O15 0.237822 0.000000 0.750000
O O16 0.235238 0.019944 0.620169
O O17 0.000000 0.000000 0.683154
O O18 0.500000 0.000000 0.087504
O O19 0.332336 0.948345 0.000000
#
# Coordination Sequence:
#
# PCOD9393993 Si02
#       8
#     8   8   8   8   8   8   8   8
#     4   9  19  37  61  85 112 151 198 239 280 338
#     4  10  20  36  59  85 109 145 193 241 282 337
#     4  10  20  36  59  82 111 148 193 237 284 337
#     4  10  22  37  55  85 122 150 186 235 293 344
#     4   9  19  38  61  85 114 150 194 242 284 335
#     4  11  23  36  62  88 112 150 193 237 289 347
#     4  11  23  39  58  84 116 148 188 239 291 340
#     4  10  22  36  57  85 119 153 185 237 287 342
#
# _framework density 17.522283999999999
#
# number of rings (size 3 to 8) (size 9 to 14) (size 15 to 20)
#    0.000    2.000    2.500    1.500    1.750    5.000 
#    0.000    5.000    0.000    0.000    0.000    0.000 
#    0.000    0.000    0.000    0.000    0.000    0.000 
#
# Total GULP energy -356484.664303 kJ/mol
# GULP energy per Si atom -5570.072880 kJ/mol
# Density = 1.748240 g / cm^3
# Si number density = 17.522284 Si / 1000 Ang^3
#
#
#
# Elastic Constant Matrix: (Units=GPa)
#
#
# Indices 1 2 3 4 5 6 
#
# 1 60.6330 48.7426 54.9721 0.0000 0.0000 0.0000
# 2 48.7426 101.5241 76.9426 0.0000 0.0000 0.0000
# 3 54.9721 76.9426 116.2665 0.0000 0.0000 0.0000
# 4 0.0000 0.0000 0.0000 24.9598 0.0000 0.0000
# 5 0.0000 0.0000 0.0000 0.0000 20.2084 0.0000
# 6 0.0000 0.0000 0.0000 0.0000 0.0000 -108.9568
#
#
#
# Elastic Compliance Matrix: (Units=1/GPa)
#
#
# Indices 1 2 3 4 5 6 
#
# 1 0.031624 -0.007726 -0.009839 0.000000 0.000000 0.000000
# 2 -0.007726 0.021648 -0.010673 0.000000 0.000000 0.000000
# 3 -0.009839 -0.010673 0.020317 0.000000 0.000000 0.000000
# 4 0.000000 0.000000 0.000000 0.040064 0.000000 0.000000
# 5 0.000000 0.000000 0.000000 0.000000 0.049484 0.000000
# 6 0.000000 0.000000 0.000000 0.000000 0.000000 -0.009178
#
#
# Mechanical properties :
#
#
# Convention : Reuss Voigt Hill
#
# Bulk Modulus (GPa) = 58.44038 71.08201 64.76120
# Shear Modulus (GPa) = 23.13294 -6.23997 8.44648
#
# Velocity S-wave (km/s) = 3.63740 -1.88915 2.19793
# Velocity P-wave (km/s) = 7.14600 5.99134 6.59399
#
# Compressibility (1/GPa) = 0.01711146
#
# Stress axis : x y z
#
# Youngs Moduli (GPa) = 31.62112 46.19278 49.22097
#
# Poissons Ratio (x) = 0.35689 0.48430
# Poissons Ratio (y) = 0.24431 0.52536
# Poissons Ratio (z) = 0.31113 0.49304
#
# Static dielectric constant tensor:
#      x y z
#    x 1.583540 0.000000 0.000000 
#    y 0.000000 1.604620 0.000000 
#    z 0.000000 0.000000 1.581520 
# 
# From -- ./inp_files/20019.got.cif
#   From: 2010.05.17/outbox.cif.g08.bks.cpg/sg49_11_cif.got.tgz:20019.got - 2010.06.03 21:02:19.
