data_PCOD9394919
_publ_section_title
;
Structure prediction by ZEFSAII (Michael W. Deem and Ramdas Pophale) SiO2 
 PCOD9394919
Probable space group: P C C M
;
_chemical_formula_sum "Si O2"
_cell_formula_units_Z 40
_cell_length_a 7.662854
_cell_length_b 8.193302
_cell_length_c 27.522581
_cell_angle_alpha 90.000000
_cell_angle_beta 90.000000
_cell_angle_gamma 90.000000
_cell_volume 1727.979845
_symmetry_space_group_name_H-M "P C C M"
_symmetry_group_IT_number 49
_symmetry_cell_setting 'orthorhombic'
loop_
_space_group_symop_operation_xyz
x,y,z
-x,-y,z
x,-y,1/2-z
-x,y,1/2-z
-x,-y,-z
x,y,-z
-x,y,1/2+z
x,-y,1/2+z
loop_
_atom_site_type_symbol
_atom_site_label
_atom_site_fract_x
_atom_site_fract_y
_atom_site_fract_z
Si Si1 0.197325 0.331932 0.730515
Si Si2 0.932697 0.687470 0.056170
Si Si3 0.671691 0.108872 0.309892
Si Si4 0.794068 0.174563 0.128961
Si Si5 0.436827 0.315260 0.895285
O O1 0.277998 0.500000 0.750000
O O2 0.277037 0.176415 0.757765
O O3 0.202939 0.307905 0.672868
O O4 0.000000 0.331685 0.750000
O O5 0.728366 0.705739 0.069358
O O6 0.000000 0.500000 0.062948
O O7 0.051035 0.793582 0.092029
O O8 0.960736 0.730236 0.000000
O O9 0.635900 0.268993 0.342202
O O10 0.500000 0.000000 0.308748
O O11 0.799147 0.995586 0.341763
O O12 0.609371 0.201001 0.100799
O O13 0.500000 0.500000 0.899113
#
# Coordination Sequence:
#
# PCOD9394919 Si02
#       5
#     8   8   8   8   8
#     4  11  24  40  68 103 141 188 236 285 341 424
#     4  11  25  44  73 104 136 181 242 309 370 425
#     4  10  24  44  66 101 145 193 230 284 349 427
#     4  11  24  43  69 100 144 185 233 293 352 424
#     4  11  22  41  69  97 137 182 236 291 351 427
#
# _framework density 23.148419000000001
#
# number of rings (size 3 to 8) (size 9 to 14) (size 15 to 20)
#    0.000    1.200    2.000    3.000    2.800   10.800 
#    0.000    7.000    0.000    3.600    0.000    0.000 
#    0.000    0.000    0.000    0.000    0.000    0.000 
#
# Total GULP energy -223834.308491 kJ/mol
# GULP energy per Si atom -5595.857712 kJ/mol
# Density = 2.309573 g / cm^3
# Si number density = 23.148419 Si / 1000 Ang^3
#
#
#
# Elastic Constant Matrix: (Units=GPa)
#
#
# Indices 1 2 3 4 5 6 
#
# 1 143.2437 43.9105 73.0004 0.0000 0.0000 0.0000
# 2 43.9105 96.2770 53.8602 0.0000 0.0000 0.0000
# 3 73.0004 53.8602 158.8947 0.0000 0.0000 0.0000
# 4 0.0000 0.0000 0.0000 35.1724 0.0000 0.0000
# 5 0.0000 0.0000 0.0000 0.0000 30.8409 0.0000
# 6 0.0000 0.0000 0.0000 0.0000 0.0000 34.3001
#
#
#
# Elastic Compliance Matrix: (Units=1/GPa)
#
#
# Indices 1 2 3 4 5 6 
#
# 1 0.009524 -0.002340 -0.003583 0.000000 0.000000 0.000000
# 2 -0.002340 0.013392 -0.003465 0.000000 0.000000 0.000000
# 3 -0.003583 -0.003465 0.009114 0.000000 0.000000 0.000000
# 4 0.000000 0.000000 0.000000 0.028431 0.000000 0.000000
# 5 0.000000 0.000000 0.000000 0.000000 0.032424 0.000000
# 6 0.000000 0.000000 0.000000 0.000000 0.000000 0.029154
#
#
# Mechanical properties :
#
#
# Convention : Reuss Voigt Hill
#
# Bulk Modulus (GPa) = 75.43565 82.21752 78.82658
# Shear Modulus (GPa) = 34.42761 35.23896 34.83328
#
# Velocity S-wave (km/s) = 3.86068 3.90591 3.88336
# Velocity P-wave (km/s) = 7.24787 7.47905 7.36437
#
# Compressibility (1/GPa) = 0.01325633
#
# Stress axis : x y z
#
# Youngs Moduli (GPa) = 104.99737 74.67186 109.72410
#
# Poissons Ratio (x) = 0.17470 0.39309
# Poissons Ratio (y) = 0.24565 0.38015
# Poissons Ratio (z) = 0.37616 0.25871
#
# Static dielectric constant tensor:
#      x y z
#    x -0.587490 0.000000 0.000000 
#    y 0.000000 1.983820 0.000000 
#    z 0.000000 0.000000 1.811680 
# 
# From -- ./inp_files/26175.got.cif
#   From: 2010.05.17/outbox.cif.g08.bks.cpg/sg49_14_cif.got.tgz:26175.got - 2010.06.03 21:02:19.
