data_PCOD9394904
_publ_section_title
;
Structure prediction by ZEFSAII (Michael W. Deem and Ramdas Pophale) SiO2 
 PCOD9394904
Probable space group: P C C M
;
_chemical_formula_sum "Si O2"
_cell_formula_units_Z 28
_cell_length_a 4.921756
_cell_length_b 11.818116
_cell_length_c 21.922297
_cell_angle_alpha 90.000000
_cell_angle_beta 90.000000
_cell_angle_gamma 90.000000
_cell_volume 1275.129770
_symmetry_space_group_name_H-M "P C C M"
_symmetry_group_IT_number 49
_symmetry_cell_setting 'orthorhombic'
loop_
_space_group_symop_operation_xyz
x,y,z
-x,-y,z
x,-y,1/2-z
-x,y,1/2-z
-x,-y,-z
x,y,-z
-x,y,1/2+z
x,-y,1/2+z
loop_
_atom_site_type_symbol
_atom_site_label
_atom_site_fract_x
_atom_site_fract_y
_atom_site_fract_z
Si Si1 0.843553 0.274784 0.071772
Si Si2 0.761208 0.921042 0.657800
Si Si3 0.500000 0.747425 0.250000
Si Si4 0.657742 0.381052 0.633378
O O1 0.876520 0.150458 0.100697
O O2 0.536349 0.306471 0.089792
O O3 0.044640 0.363568 0.105230
O O4 0.886720 0.278429 0.000000
O O5 0.682279 0.828917 0.708506
O O6 0.500000 0.000000 0.644529
O O7 0.000000 0.000000 0.680159
O O8 0.341771 0.670308 0.298584
O O9 0.500000 0.500000 0.635156
#
# Coordination Sequence:
#
# PCOD9394904 Si02
#       4
#     8   8   4   8
#     4  11  25  43  63  93 128 164 213 261 307 375
#     4  11  24  41  65  93 126 168 209 259 320 377
#     4  10  24  42  64  94 128 158 208 260 310 378
#     4  11  24  42  66  93 125 166 207 259 319 372
#
# _framework density 21.958549000000001
#
# number of rings (size 3 to 8) (size 9 to 14) (size 15 to 20)
#    0.000    1.143    0.000    6.000    0.000   18.286 
#    0.000    5.714    0.000    0.000    0.000    0.000 
#    0.000    0.000    0.000    0.000    0.000    0.000 
#
# Total GULP energy -156596.052475 kJ/mol
# GULP energy per Si atom -5592.716160 kJ/mol
# Density = 2.190857 g / cm^3
# Si number density = 21.958549 Si / 1000 Ang^3
#
#
#
# Elastic Constant Matrix: (Units=GPa)
#
#
# Indices 1 2 3 4 5 6 
#
# 1 91.9185 8.3056 12.5815 0.0000 0.0000 0.0000
# 2 8.3056 95.0857 40.7315 0.0000 0.0000 0.0000
# 3 12.5815 40.7315 161.2134 0.0000 0.0000 0.0000
# 4 0.0000 0.0000 0.0000 2.8764 0.0000 0.0000
# 5 0.0000 0.0000 0.0000 0.0000 9.9452 0.0000
# 6 0.0000 0.0000 0.0000 0.0000 0.0000 32.8109
#
#
#
# Elastic Compliance Matrix: (Units=1/GPa)
#
#
# Indices 1 2 3 4 5 6 
#
# 1 0.011034 -0.000667 -0.000693 0.000000 0.000000 0.000000
# 2 -0.000667 0.011834 -0.002938 0.000000 0.000000 0.000000
# 3 -0.000693 -0.002938 0.006999 0.000000 0.000000 0.000000
# 4 0.000000 0.000000 0.000000 0.347653 0.000000 0.000000
# 5 0.000000 0.000000 0.000000 0.000000 0.100551 0.000000
# 6 0.000000 0.000000 0.000000 0.000000 0.000000 0.030478
#
#
# Mechanical properties :
#
#
# Convention : Reuss Voigt Hill
#
# Bulk Modulus (GPa) = 47.00991 52.38387 49.69689
# Shear Modulus (GPa) = 9.53772 28.23312 18.88542
#
# Velocity S-wave (km/s) = 2.08637 3.58962 2.93584
# Velocity P-wave (km/s) = 5.22100 6.41000 5.84581
#
# Compressibility (1/GPa) = 0.02127211
#
# Stress axis : x y z
#
# Youngs Moduli (GPa) = 90.62663 84.50561 142.87249
#
# Poissons Ratio (x) = 0.05638 0.09895
# Poissons Ratio (y) = 0.06046 0.41972
# Poissons Ratio (z) = 0.06277 0.24826
#
# Static dielectric constant tensor:
#      x y z
#    x 1.795110 0.000000 0.000000 
#    y 0.000000 1.985200 0.000000 
#    z 0.000000 0.000000 1.776480 
# 
# From -- ./inp_files/18657.got.cif
#   From: 2010.05.17/outbox.cif.g08.bks.cpg/sg49_10_cif.got.tgz:18657.got - 2010.06.03 21:02:19.
