data_PCOD9394248
_publ_section_title
;
Structure prediction by ZEFSAII (Michael W. Deem and Ramdas Pophale) SiO2 
 PCOD9394248
Probable space group: P C C M
;
_chemical_formula_sum "Si O2"
_cell_formula_units_Z 40
_cell_length_a 8.989201
_cell_length_b 23.252459
_cell_length_c 10.053803
_cell_angle_alpha 90.000000
_cell_angle_beta 90.000000
_cell_angle_gamma 90.000000
_cell_volume 2101.456235
_symmetry_space_group_name_H-M "P C C M"
_symmetry_group_IT_number 49
_symmetry_cell_setting 'orthorhombic'
loop_
_space_group_symop_operation_xyz
x,y,z
-x,-y,z
x,-y,1/2-z
-x,y,1/2-z
-x,-y,-z
x,y,-z
-x,y,1/2+z
x,-y,1/2+z
loop_
_atom_site_type_symbol
_atom_site_label
_atom_site_fract_x
_atom_site_fract_y
_atom_site_fract_z
Si Si1 0.674753 0.634098 0.000000
Si Si2 0.798239 0.237753 0.500000
Si Si3 0.175278 0.430990 0.753564
Si Si4 0.823774 0.831485 0.736879
Si Si5 0.847240 0.254147 0.000000
Si Si6 0.679921 0.625200 0.500000
Si Si7 0.346893 0.053039 0.663966
O O1 0.748065 0.601148 0.876008
O O2 0.497236 0.628969 0.000000
O O3 0.711938 0.702079 0.000000
O O4 0.769622 0.196974 0.626299
O O5 0.972787 0.256769 0.500000
O O6 0.185806 0.500000 0.750000
O O7 0.260757 0.408324 0.626493
O O8 0.000000 0.415932 0.750000
O O9 0.803220 0.782392 0.627820
O O10 0.744749 0.889140 0.688570
O O11 0.000000 0.843002 0.750000
O O12 0.762451 0.313696 0.000000
O O13 0.500000 0.060865 0.750000
O O14 0.362641 0.043667 0.500000
O O15 0.276414 0.000000 0.750000
#
# Coordination Sequence:
#
# PCOD9394248 Si02
#       7
#     4   4   8   8   4   4   8
#     4  12  25  41  62 100 129 164 215 265 333 376
#     4  10  22  37  64  89 126 166 207 254 311 394
#     4  11  24  43  66  91 124 171 219 260 317 393
#     4  10  22  40  64  93 122 161 209 259 312 369
#     4  10  20  41  60  89 124 166 209 252 315 382
#     4  12  25  39  66  94 131 164 207 275 321 382
#     4  11  24  42  64  92 128 169 213 260 315 380
#
# _framework density 19.034417999999999
#
# number of rings (size 3 to 8) (size 9 to 14) (size 15 to 20)
#    0.000    1.200    1.000    5.400    2.800    7.600 
#    0.000    1.000    0.000    0.000    0.000    0.000 
#    0.000    0.000    0.000    0.000    0.000    0.000 
#
# Total GULP energy -223243.145621 kJ/mol
# GULP energy per Si atom -5581.078641 kJ/mol
# Density = 1.899109 g / cm^3
# Si number density = 19.034418 Si / 1000 Ang^3
#
#
#
# Elastic Constant Matrix: (Units=GPa)
#
#
# Indices 1 2 3 4 5 6 
#
# 1 87.4472 73.3727 59.9375 0.0000 0.0000 0.0000
# 2 73.3727 124.2572 66.8996 0.0000 0.0000 0.0000
# 3 59.9375 66.8996 207.8131 0.0000 0.0000 0.0000
# 4 0.0000 0.0000 0.0000 -7.4236 0.0000 0.0000
# 5 0.0000 0.0000 0.0000 0.0000 72.8838 0.0000
# 6 0.0000 0.0000 0.0000 0.0000 0.0000 53.9019
#
#
#
# Elastic Compliance Matrix: (Units=1/GPa)
#
#
# Indices 1 2 3 4 5 6 
#
# 1 0.023986 -0.012628 -0.002853 0.000000 0.000000 0.000000
# 2 -0.012628 0.016383 -0.001632 0.000000 0.000000 0.000000
# 3 -0.002853 -0.001632 0.006160 0.000000 0.000000 0.000000
# 4 0.000000 0.000000 0.000000 -0.134706 0.000000 0.000000
# 5 0.000000 0.000000 0.000000 0.000000 0.013720 0.000000
# 6 0.000000 0.000000 0.000000 0.000000 0.000000 0.018552
#
#
# Mechanical properties :
#
#
# Convention : Reuss Voigt Hill
#
# Bulk Modulus (GPa) = 81.27274 91.10413 86.18844
# Shear Modulus (GPa) = -284.45755 38.49294 -122.98230
#
# Velocity S-wave (km/s) = -12.23798 4.50186 -8.04679
# Velocity P-wave (km/s) = 12.52599 8.65962 6.39967
#
# Compressibility (1/GPa) = 0.01230425
#
# Stress axis : x y z
#
# Youngs Moduli (GPa) = 41.69074 61.03913 162.33108
#
# Poissons Ratio (x) = 0.77077 0.46313
# Poissons Ratio (y) = 0.52645 0.26492
# Poissons Ratio (z) = 0.11894 0.09961
#
# Static dielectric constant tensor:
#      x y z
#    x 1.665120 0.000000 0.000000 
#    y 0.000000 1.716940 0.000000 
#    z 0.000000 0.000000 1.667270 
# 
# From -- ./inp_files/1841.got.cif
#   From: 2010.05.17/outbox.cif.g08.bks.cpg/sg49_1_cif.got.tgz:1841.got - 2010.06.03 21:02:19.
