data_PCOD9394064
_publ_section_title
;
Structure prediction by ZEFSAII (Michael W. Deem and Ramdas Pophale) SiO2 
 PCOD9394064
Probable space group: P C C M
;
_chemical_formula_sum "Si O2"
_cell_formula_units_Z 48
_cell_length_a 31.372371
_cell_length_b 9.555411
_cell_length_c 8.668816
_cell_angle_alpha 90.000000
_cell_angle_beta 90.000000
_cell_angle_gamma 90.000000
_cell_volume 2598.702109
_symmetry_space_group_name_H-M "P C C M"
_symmetry_group_IT_number 49
_symmetry_cell_setting 'orthorhombic'
loop_
_space_group_symop_operation_xyz
x,y,z
-x,-y,z
x,-y,1/2-z
-x,y,1/2-z
-x,-y,-z
x,y,-z
-x,y,1/2+z
x,-y,1/2+z
loop_
_atom_site_type_symbol
_atom_site_label
_atom_site_fract_x
_atom_site_fract_y
_atom_site_fract_z
Si Si1 0.379889 0.344234 0.685598
Si Si2 0.282793 0.345030 0.685476
Si Si3 0.203541 0.843434 0.185615
Si Si4 0.126654 0.343394 0.185280
Si Si5 0.544736 0.843191 0.815705
Si Si6 0.046648 0.846731 0.315213
O O1 0.386537 0.500000 0.750000
O O2 0.383286 0.343381 0.500000
O O3 0.331181 0.304559 0.728811
O O4 0.415171 0.244628 0.757868
O O5 0.273782 0.500000 0.750000
O O6 0.281419 0.354331 0.500000
O O7 0.247318 0.233838 0.734554
O O8 0.164751 0.749892 0.247283
O O9 0.201115 0.000000 0.250000
O O10 0.202046 0.847782 0.000000
O O11 0.128409 0.500000 0.250000
O O12 0.082309 0.266548 0.226670
O O13 0.130038 0.346989 0.000000
O O14 0.500000 0.785015 0.750000
O O15 0.548572 0.000000 0.750000
O O16 0.542880 0.846889 0.000000
O O17 0.044225 0.856362 0.500000
O O18 0.000000 0.811424 0.250000
O O19 0.058384 0.000000 0.250000
#
# Coordination Sequence:
#
# PCOD9394064 Si02
#       6
#     8   8   8   8   8   8
#     4  10  20  37  58  84 115 148 186 230 278 331
#     4   9  20  37  58  83 113 147 185 228 278 332
#     4  11  23  39  59  85 115 150 190 234 280 333
#     4  11  24  40  59  85 115 151 190 234 284 337
#     4  11  22  38  58  82 111 147 187 231 281 334
#     4  10  21  37  59  85 114 148 188 231 281 334
#
# _framework density 18.470758
#
# number of rings (size 3 to 8) (size 9 to 14) (size 15 to 20)
#    0.000    1.667    0.000    5.500    0.000    8.667 
#    0.000    5.000    0.000    0.000    0.000    0.000 
#    0.000    0.000    0.000    0.000    0.000    0.000 
#
# Total GULP energy -268243.246648 kJ/mol
# GULP energy per Si atom -5588.400972 kJ/mol
# Density = 1.842872 g / cm^3
# Si number density = 18.470758 Si / 1000 Ang^3
#
#
#
# Elastic Constant Matrix: (Units=GPa)
#
#
# Indices 1 2 3 4 5 6 
#
# 1 161.2825 127.6461 65.1376 0.0000 0.0000 0.0000
# 2 127.6461 150.8278 56.3704 0.0000 0.0000 0.0000
# 3 65.1376 56.3704 89.1097 0.0000 0.0000 0.0000
# 4 0.0000 0.0000 0.0000 36.9239 0.0000 0.0000
# 5 0.0000 0.0000 0.0000 0.0000 27.0536 0.0000
# 6 0.0000 0.0000 0.0000 0.0000 0.0000 37.5746
#
#
#
# Elastic Compliance Matrix: (Units=1/GPa)
#
#
# Indices 1 2 3 4 5 6 
#
# 1 0.020496 -0.015384 -0.005251 0.000000 0.000000 0.000000
# 2 -0.015384 0.020229 -0.001552 0.000000 0.000000 0.000000
# 3 -0.005251 -0.001552 0.016042 0.000000 0.000000 0.000000
# 4 0.000000 0.000000 0.000000 0.027083 0.000000 0.000000
# 5 0.000000 0.000000 0.000000 0.000000 0.036964 0.000000
# 6 0.000000 0.000000 0.000000 0.000000 0.000000 0.026614
#
#
# Mechanical properties :
#
#
# Convention : Reuss Voigt Hill
#
# Bulk Modulus (GPa) = 80.67680 99.94757 90.31218
# Shear Modulus (GPa) = 25.51912 30.44814 27.98363
#
# Velocity S-wave (km/s) = 3.72101 4.06452 3.89655
# Velocity P-wave (km/s) = 7.88887 8.73246 8.32136
#
# Compressibility (1/GPa) = 0.01239514
#
# Stress axis : x y z
#
# Youngs Moduli (GPa) = 48.78956 49.43346 62.33631
#
# Poissons Ratio (x) = 0.76046 0.32731
# Poissons Ratio (y) = 0.75056 0.09673
# Poissons Ratio (z) = 0.25618 0.07671
#
# Static dielectric constant tensor:
#      x y z
#    x 1.639870 0.000000 0.000000 
#    y 0.000000 1.658090 0.000000 
#    z 0.000000 0.000000 1.620480 
# 
# From -- ./inp_files/2051.got.cif
#   From: 2010.05.17/outbox.cif.g08.bks.cpg/sg49_2_cif.got.tgz:2051.got - 2010.06.03 21:02:19.
