data_PCOD9394627
_publ_section_title
;
Structure prediction by ZEFSAII (Michael W. Deem and Ramdas Pophale) SiO2 
 PCOD9394627
Probable space group: P C C M
;
_chemical_formula_sum "Si O2"
_cell_formula_units_Z 48
_cell_length_a 8.740728
_cell_length_b 28.831171
_cell_length_c 10.207823
_cell_angle_alpha 90.000000
_cell_angle_beta 90.000000
_cell_angle_gamma 90.000000
_cell_volume 2572.426759
_symmetry_space_group_name_H-M "P C C M"
_symmetry_group_IT_number 49
_symmetry_cell_setting 'orthorhombic'
loop_
_space_group_symop_operation_xyz
x,y,z
-x,-y,z
x,-y,1/2-z
-x,y,1/2-z
-x,-y,-z
x,y,-z
-x,y,1/2+z
x,-y,1/2+z
loop_
_atom_site_type_symbol
_atom_site_label
_atom_site_fract_x
_atom_site_fract_y
_atom_site_fract_z
Si Si1 0.164428 0.064620 0.500000
Si Si2 0.145492 0.297212 0.153542
Si Si3 0.144759 0.194006 0.847313
Si Si4 0.669827 0.562645 0.500000
Si Si5 0.681460 0.896884 0.238033
Si Si6 0.306344 0.453389 0.000000
Si Si7 0.815375 0.604573 0.240072
Si Si8 0.805814 0.954374 0.000000
O O1 0.234752 0.088793 0.372238
O O2 0.980137 0.064604 0.500000
O O3 0.201501 0.009811 0.500000
O O4 0.215801 0.245785 0.165120
O O5 0.233705 0.343293 0.198104
O O6 0.000000 0.295348 0.250000
O O7 0.102151 0.303545 0.000000
O O8 0.257891 0.152882 0.809950
O O9 0.000000 0.190870 0.750000
O O10 0.097073 0.188955 0.000000
O O11 0.485830 0.559951 0.500000
O O12 0.716773 0.508535 0.500000
O O13 0.736878 0.588315 0.373397
O O14 0.500000 0.896090 0.250000
O O15 0.727125 0.934220 0.128608
O O16 0.232013 0.430834 0.127379
O O17 0.000000 0.604561 0.250000
#
# Coordination Sequence:
#
# PCOD9394627 Si02
#       8
#     4   8   8   4   8   4   8   4
#     4  11  25  41  68  89 122 159 214 251 296 363
#     4   9  19  36  62  92 122 155 198 254 306 358
#     4  10  21  40  66  92 121 162 208 247 296 367
#     4  11  25  39  60  85 122 167 202 243 302 369
#     4  12  25  40  61  94 129 161 197 252 314 359
#     4  11  23  43  58  83 124 165 204 243 300 371
#     4  11  22  38  63  93 119 152 202 258 306 354
#     4  11  23  45  64  91 118 165 210 255 292 361
#
# _framework density 18.659424000000001
#
# number of rings (size 3 to 8) (size 9 to 14) (size 15 to 20)
#    0.000    1.333    1.667    4.000    4.667    6.667 
#    0.000    1.667    0.000    0.000    0.000    0.000 
#    0.000    0.000    0.000    0.000    0.000    0.000 
#
# Total GULP energy -268072.942415 kJ/mol
# GULP energy per Si atom -5584.852967 kJ/mol
# Density = 1.861695 g / cm^3
# Si number density = 18.659424 Si / 1000 Ang^3
#
#
#
# Elastic Constant Matrix: (Units=GPa)
#
#
# Indices 1 2 3 4 5 6 
#
# 1 75.1666 52.8367 42.6112 0.0000 0.0000 0.0000
# 2 52.8367 134.6086 64.8110 0.0000 0.0000 0.0000
# 3 42.6112 64.8110 167.7645 0.0000 0.0000 0.0000
# 4 0.0000 0.0000 0.0000 44.4066 0.0000 0.0000
# 5 0.0000 0.0000 0.0000 0.0000 40.6279 0.0000
# 6 0.0000 0.0000 0.0000 0.0000 0.0000 -29.4875
#
#
#
# Elastic Compliance Matrix: (Units=1/GPa)
#
#
# Indices 1 2 3 4 5 6 
#
# 1 0.019132 -0.006351 -0.002406 0.000000 0.000000 0.000000
# 2 -0.006351 0.011235 -0.002727 0.000000 0.000000 0.000000
# 3 -0.002406 -0.002727 0.007625 0.000000 0.000000 0.000000
# 4 0.000000 0.000000 0.000000 0.022519 0.000000 0.000000
# 5 0.000000 0.000000 0.000000 0.000000 0.024614 0.000000
# 6 0.000000 0.000000 0.000000 0.000000 0.000000 -0.033913
#
#
# Mechanical properties :
#
#
# Convention : Reuss Voigt Hill
#
# Bulk Modulus (GPa) = 66.56054 77.56196 72.06125
# Shear Modulus (GPa) = 63.13971 25.59477 44.36724
#
# Velocity S-wave (km/s) = 5.82335 3.70764 4.88150
# Velocity P-wave (km/s) = 8.99800 7.74508 8.39494
#
# Compressibility (1/GPa) = 0.01502392
#
# Stress axis : x y z
#
# Youngs Moduli (GPa) = 52.26787 89.00698 131.14196
#
# Poissons Ratio (x) = 0.56533 0.31550
# Poissons Ratio (y) = 0.33198 0.35764
# Poissons Ratio (z) = 0.12574 0.24273
#
# Static dielectric constant tensor:
#      x y z
#    x 1.610240 0.000000 0.000000 
#    y 0.000000 1.665600 0.000000 
#    z 0.000000 0.000000 1.600660 
# 
# From -- ./inp_files/2184.got.cif
#   From: 2010.05.17/outbox.cif.g08.bks.cpg/sg49_2_cif.got.tgz:2184.got - 2010.06.03 21:02:19.
