data_PCOD9394445
_publ_section_title
;
Structure prediction by ZEFSAII (Michael W. Deem and Ramdas Pophale) SiO2 
 PCOD9394445
Probable space group: P C C M
;
_chemical_formula_sum "Si O2"
_cell_formula_units_Z 38
_cell_length_a 11.098514
_cell_length_b 6.026042
_cell_length_c 27.944252
_cell_angle_alpha 90.000000
_cell_angle_beta 90.000000
_cell_angle_gamma 90.000000
_cell_volume 1868.914690
_symmetry_space_group_name_H-M "P C C M"
_symmetry_group_IT_number 49
_symmetry_cell_setting 'orthorhombic'
loop_
_space_group_symop_operation_xyz
x,y,z
-x,-y,z
x,-y,1/2-z
-x,y,1/2-z
-x,-y,-z
x,y,-z
-x,y,1/2+z
x,-y,1/2+z
loop_
_atom_site_type_symbol
_atom_site_label
_atom_site_fract_x
_atom_site_fract_y
_atom_site_fract_z
Si Si1 0.858737 0.036785 0.357665
Si Si2 0.500000 0.000000 0.083145
Si Si3 0.304346 0.672429 0.292827
Si Si4 0.730576 0.728449 0.054070
Si Si5 0.322624 0.346754 0.622351
Si Si6 0.500000 0.000000 0.750000
O O1 0.805498 0.180097 0.313545
O O2 0.819544 0.163719 0.406605
O O3 0.789783 0.802340 0.361037
O O4 0.000000 0.000000 0.354342
O O5 0.393308 0.128297 0.055733
O O6 0.568057 0.181255 0.114575
O O7 0.276175 0.500000 0.250000
O O8 0.346850 0.525186 0.337206
O O9 0.410291 0.839147 0.278464
O O10 0.702577 0.482091 0.073675
O O11 0.776814 0.727275 0.000000
#
# Coordination Sequence:
#
# PCOD9394445 Si02
#       6
#     8   4   8   8   8   2
#     4  10  24  46  65  87 124 166 211 261 308 360
#     4  10  21  37  61  91 128 166 203 255 315 377
#     4  11  25  42  64  93 124 160 202 252 310 373
#     4  10  22  38  61  94 127 164 208 256 312 372
#     4  10  23  40  61  90 124 165 206 254 312 369
#     4  12  26  42  64  98 130 156 196 250 312 384
#
# _framework density 20.332657000000001
#
# number of rings (size 3 to 8) (size 9 to 14) (size 15 to 20)
#    0.000    1.684    0.000    2.526    0.000   29.053 
#    0.000    8.947    0.000    0.000    0.000    0.000 
#    0.000    0.000    0.000    0.000    0.000    0.000 
#
# Total GULP energy -212492.309645 kJ/mol
# GULP energy per Si atom -5591.902885 kJ/mol
# Density = 2.028638 g / cm^3
# Si number density = 20.332657 Si / 1000 Ang^3
#
#
#
# Elastic Constant Matrix: (Units=GPa)
#
#
# Indices 1 2 3 4 5 6 
#
# 1 159.8535 74.6181 72.0742 0.0000 0.0000 0.0000
# 2 74.6181 144.2080 58.2811 0.0000 0.0000 0.0000
# 3 72.0742 58.2811 121.7201 0.0000 0.0000 0.0000
# 4 0.0000 0.0000 0.0000 12.2756 0.0000 0.0000
# 5 0.0000 0.0000 0.0000 0.0000 12.7258 0.0000
# 6 0.0000 0.0000 0.0000 0.0000 0.0000 7.1561
#
#
#
# Elastic Compliance Matrix: (Units=1/GPa)
#
#
# Indices 1 2 3 4 5 6 
#
# 1 0.009676 -0.003337 -0.004132 0.000000 0.000000 0.000000
# 2 -0.003337 0.009749 -0.002692 0.000000 0.000000 0.000000
# 3 -0.004132 -0.002692 0.011951 0.000000 0.000000 0.000000
# 4 0.000000 0.000000 0.000000 0.081462 0.000000 0.000000
# 5 0.000000 0.000000 0.000000 0.000000 0.078581 0.000000
# 6 0.000000 0.000000 0.000000 0.000000 0.000000 0.139741
#
#
# Mechanical properties :
#
#
# Convention : Reuss Voigt Hill
#
# Bulk Modulus (GPa) = 90.45863 92.85871 91.65867
# Shear Modulus (GPa) = 14.07789 21.15205 17.61497
#
# Velocity S-wave (km/s) = 2.63416 3.22887 2.94656
# Velocity P-wave (km/s) = 7.33742 7.72461 7.53350
#
# Compressibility (1/GPa) = 0.01105478
#
# Stress axis : x y z
#
# Youngs Moduli (GPa) = 103.34442 102.57377 83.67381
#
# Poissons Ratio (x) = 0.34229 0.34573
# Poissons Ratio (y) = 0.34486 0.22525
# Poissons Ratio (z) = 0.42701 0.27613
#
# Static dielectric constant tensor:
#      x y z
#    x 1.687050 0.000000 0.000000 
#    y 0.000000 1.771720 0.000000 
#    z 0.000000 0.000000 1.747060 
# 
# From -- ./inp_files/24695.got.cif
#   From: 2010.05.17/outbox.cif.g08.bks.cpg/sg49_13_cif.got.tgz:24695.got - 2010.06.03 21:02:19.
