data_PCOD9394948
_publ_section_title
;
Structure prediction by ZEFSAII (Michael W. Deem and Ramdas Pophale) SiO2 
 PCOD9394948
Probable space group: P C C M
;
_chemical_formula_sum "Si O2"
_cell_formula_units_Z 14
_cell_length_a 4.870061
_cell_length_b 4.941247
_cell_length_c 23.904089
_cell_angle_alpha 90.000000
_cell_angle_beta 90.000000
_cell_angle_gamma 90.000000
_cell_volume 575.232164
_symmetry_space_group_name_H-M "P C C M"
_symmetry_group_IT_number 49
_symmetry_cell_setting 'orthorhombic'
loop_
_space_group_symop_operation_xyz
x,y,z
-x,-y,z
x,-y,1/2-z
-x,y,1/2-z
-x,-y,-z
x,y,-z
-x,y,1/2+z
x,-y,1/2+z
loop_
_atom_site_type_symbol
_atom_site_label
_atom_site_fract_x
_atom_site_fract_y
_atom_site_fract_z
Si Si1 0.754367 0.297432 0.000000
Si Si2 0.500000 0.500000 0.172720
Si Si3 0.500000 0.000000 0.597712
Si Si4 0.000000 0.500000 0.250000
O O1 0.500000 0.500000 0.000000
O O2 0.000000 0.500000 0.000000
O O3 0.724963 0.117923 0.055207
O O4 0.598900 0.751265 0.135614
O O5 0.235806 0.615576 0.207637
#
# Coordination Sequence:
#
# PCOD9394948 Si02
#       4
#     4   4   4   2
#     4  11  26  46  71 113 149 192 242 298 361 469
#     4  11  26  47  74 104 144 191 244 311 370 438
#     4  11  26  47  76 108 148 195 242 301 380 442
#     4  10  28  48  72 106 140 188 256 308 368 438
#
# _framework density 24.338001999999999
#
# number of rings (size 3 to 8) (size 9 to 14) (size 15 to 20)
#    0.000    1.143    2.857    0.000    4.000   18.286 
#    0.000    0.000    0.000    0.000    0.000    0.000 
#    0.000    0.000    0.000    0.000    0.000    0.000 
#
# Total GULP energy -78089.922868 kJ/mol
# GULP energy per Si atom -5577.851633 kJ/mol
# Density = 2.428261 g / cm^3
# Si number density = 24.338002 Si / 1000 Ang^3
#
#
#
# Elastic Constant Matrix: (Units=GPa)
#
#
# Indices 1 2 3 4 5 6 
#
# 1 206.7219 45.0558 47.3692 0.0000 0.0000 0.0000
# 2 45.0558 148.9642 62.1689 0.0000 0.0000 0.0000
# 3 47.3692 62.1689 129.4755 0.0000 0.0000 0.0000
# 4 0.0000 0.0000 0.0000 -21.4519 0.0000 0.0000
# 5 0.0000 0.0000 0.0000 0.0000 -126.2936 0.0000
# 6 0.0000 0.0000 0.0000 0.0000 0.0000 45.9557
#
#
#
# Elastic Compliance Matrix: (Units=1/GPa)
#
#
# Indices 1 2 3 4 5 6 
#
# 1 0.005399 -0.001011 -0.001490 0.000000 0.000000 0.000000
# 2 -0.001011 0.008585 -0.003752 0.000000 0.000000 0.000000
# 3 -0.001490 -0.003752 0.010070 0.000000 0.000000 0.000000
# 4 0.000000 0.000000 0.000000 -0.046616 0.000000 0.000000
# 5 0.000000 0.000000 0.000000 0.000000 -0.007918 0.000000
# 6 0.000000 0.000000 0.000000 0.000000 0.000000 0.021760
#
#
# Mechanical properties :
#
#
# Convention : Reuss Voigt Hill
#
# Bulk Modulus (GPa) = 86.59629 88.26105 87.42867
# Shear Modulus (GPa) = 654.81246 1.67987 328.24617
#
# Velocity S-wave (km/s) = 16.42052 0.83170 11.62595
# Velocity P-wave (km/s) = 19.87886 6.10457 14.70434
#
# Compressibility (1/GPa) = 0.01154784
#
# Stress axis : x y z
#
# Youngs Moduli (GPa) = 185.21263 116.48491 99.30402
#
# Poissons Ratio (x) = 0.11780 0.14794
# Poissons Ratio (y) = 0.18731 0.37260
# Poissons Ratio (z) = 0.27592 0.43706
#
# Static dielectric constant tensor:
#      x y z
#    x 1.915950 0.000000 0.000000 
#    y 0.000000 1.915470 0.000000 
#    z 0.000000 0.000000 2.019940 
# 
# From -- ./inp_files/21331.got.cif
#   From: 2010.05.17/outbox.cif.g08.bks.cpg/sg49_11_cif.got.tgz:21331.got - 2010.06.03 21:02:19.
