data_PCOD9394888
_publ_section_title
;
Structure prediction by ZEFSAII (Michael W. Deem and Ramdas Pophale) SiO2 
 PCOD9394888
Probable space group: P C C M
;
_chemical_formula_sum "Si O2"
_cell_formula_units_Z 64
_cell_length_a 11.919910
_cell_length_b 16.625428
_cell_length_c 15.517408
_cell_angle_alpha 90.000000
_cell_angle_beta 90.000000
_cell_angle_gamma 90.000000
_cell_volume 3075.140691
_symmetry_space_group_name_H-M "P C C M"
_symmetry_group_IT_number 49
_symmetry_cell_setting 'orthorhombic'
loop_
_space_group_symop_operation_xyz
x,y,z
-x,-y,z
x,-y,1/2-z
-x,y,1/2-z
-x,-y,-z
x,y,-z
-x,y,1/2+z
x,-y,1/2+z
loop_
_atom_site_type_symbol
_atom_site_label
_atom_site_fract_x
_atom_site_fract_y
_atom_site_fract_z
Si Si1 0.262675 0.824782 0.899536
Si Si2 0.188278 0.315776 0.098893
Si Si3 0.077495 0.704257 0.900326
Si Si4 0.349541 0.166869 0.902393
Si Si5 0.794928 0.413170 0.770572
Si Si6 0.369910 0.994580 0.852657
Si Si7 0.592360 0.432324 0.904200
Si Si8 0.460915 0.727819 0.837754
O O1 0.136292 0.791849 0.887853
O O2 0.338091 0.765516 0.841830
O O3 0.301408 0.915303 0.879194
O O4 0.292225 0.810826 0.000000
O O5 0.253297 0.232031 0.108842
O O6 0.226203 0.372198 0.177603
O O7 0.055974 0.298526 0.107192
O O8 0.209304 0.345462 0.000000
O O9 0.128492 0.643806 0.830121
O O10 0.105630 0.680491 0.000000
O O11 0.313204 0.076862 0.883292
O O12 0.455407 0.197349 0.848528
O O13 0.389868 0.170478 0.000000
O O14 0.847177 0.500000 0.750000
O O15 0.684692 0.428760 0.829072
O O16 0.500000 0.000000 0.884826
O O17 0.374798 0.000000 0.750000
O O18 0.500000 0.500000 0.887982
O O19 0.534552 0.344261 0.904870
O O20 0.641554 0.446433 0.000000
O O21 0.500000 0.688145 0.750000
#
# Coordination Sequence:
#
# PCOD9394888 Si02
#       8
#     8   8   8   8   8   8   8   8
#     4  11  22  39  66  96 126 173 225 276 335 401
#     4  10  25  47  69  98 133 177 229 283 341 400
#     4  10  23  46  73  98 130 173 230 287 336 402
#     4  11  23  39  62  91 129 171 214 268 331 399
#     4  12  26  43  70 100 132 173 226 276 342 400
#     4  11  23  37  58  93 133 171 214 269 333 405
#     4  11  26  43  64  98 140 180 223 276 339 410
#     4  12  23  37  63  92 129 174 222 270 337 403
#
# _framework density 20.812055999999998
#
# number of rings (size 3 to 8) (size 9 to 14) (size 15 to 20)
#    0.000    1.000    2.500    3.750    5.250    2.500 
#    0.000    1.875    0.000    4.125    0.000    0.000 
#    0.000    0.000    0.000    0.000    0.000    0.000 
#
# Total GULP energy -357528.655414 kJ/mol
# GULP energy per Si atom -5586.385241 kJ/mol
# Density = 2.076469 g / cm^3
# Si number density = 20.812056 Si / 1000 Ang^3
#
#
#
# Elastic Constant Matrix: (Units=GPa)
#
#
# Indices 1 2 3 4 5 6 
#
# 1 66.7621 18.4809 48.8324 0.0000 0.0000 0.0000
# 2 18.4809 104.7037 31.8560 0.0000 0.0000 0.0000
# 3 48.8324 31.8560 124.0997 0.0000 0.0000 0.0000
# 4 0.0000 0.0000 0.0000 32.8466 0.0000 0.0000
# 5 0.0000 0.0000 0.0000 0.0000 49.7186 0.0000
# 6 0.0000 0.0000 0.0000 0.0000 0.0000 13.9848
#
#
#
# Elastic Compliance Matrix: (Units=1/GPa)
#
#
# Indices 1 2 3 4 5 6 
#
# 1 0.021195 -0.001306 -0.008005 0.000000 0.000000 0.000000
# 2 -0.001306 0.010440 -0.002166 0.000000 0.000000 0.000000
# 3 -0.008005 -0.002166 0.011764 0.000000 0.000000 0.000000
# 4 0.000000 0.000000 0.000000 0.030445 0.000000 0.000000
# 5 0.000000 0.000000 0.000000 0.000000 0.020113 0.000000
# 6 0.000000 0.000000 0.000000 0.000000 0.000000 0.071506
#
#
# Mechanical properties :
#
#
# Convention : Reuss Voigt Hill
#
# Bulk Modulus (GPa) = 48.90986 54.87824 51.89405
# Shear Modulus (GPa) = 25.61053 32.40308 29.00681
#
# Velocity S-wave (km/s) = 3.51174 3.95009 3.73735
# Velocity P-wave (km/s) = 6.32415 6.87241 6.60397
#
# Compressibility (1/GPa) = 0.02044578
#
# Stress axis : x y z
#
# Youngs Moduli (GPa) = 47.18064 95.78282 85.00488
#
# Poissons Ratio (x) = 0.12505 0.68046
# Poissons Ratio (y) = 0.06160 0.18414
# Poissons Ratio (z) = 0.37768 0.20749
#
# Static dielectric constant tensor:
#      x y z
#    x 1.741890 0.000000 0.000000 
#    y 0.000000 1.741290 0.000000 
#    z 0.000000 0.000000 1.529700 
# 
# From -- ./inp_files/13108.got.cif
#   From: 2010.05.17/outbox.cif.g08.bks.cpg/sg49_7_cif.got.tgz:13108.got - 2010.06.03 21:02:19.
