data_PCOD9394677
_publ_section_title
;
Structure prediction by ZEFSAII (Michael W. Deem and Ramdas Pophale) SiO2 
 PCOD9394677
Probable space group: P C C M
;
_chemical_formula_sum "Si O2"
_cell_formula_units_Z 52
_cell_length_a 5.462064
_cell_length_b 20.464909
_cell_length_c 23.242849
_cell_angle_alpha 90.000000
_cell_angle_beta 90.000000
_cell_angle_gamma 90.000000
_cell_volume 2598.100600
_symmetry_space_group_name_H-M "P C C M"
_symmetry_group_IT_number 49
_symmetry_cell_setting 'orthorhombic'
loop_
_space_group_symop_operation_xyz
x,y,z
-x,-y,z
x,-y,1/2-z
-x,y,1/2-z
-x,-y,-z
x,y,-z
-x,y,1/2+z
x,-y,1/2+z
loop_
_atom_site_type_symbol
_atom_site_label
_atom_site_fract_x
_atom_site_fract_y
_atom_site_fract_z
Si Si1 0.753929 0.827195 0.360816
Si Si2 0.972089 0.597160 0.683213
Si Si3 0.500000 0.778892 0.250000
Si Si4 0.127247 0.733762 0.337617
Si Si5 0.495903 0.288592 0.432557
Si Si6 0.509171 0.570403 0.117051
Si Si7 0.249309 0.040402 0.431848
O O1 0.605480 0.822478 0.301544
O O2 0.671960 0.766438 0.401863
O O3 0.740841 0.894122 0.394427
O O4 0.022456 0.806221 0.340592
O O5 0.941700 0.675420 0.674874
O O6 0.225136 0.580917 0.648260
O O7 0.000000 0.581624 0.750000
O O8 0.720527 0.566350 0.660769
O O9 0.314036 0.732759 0.284657
O O10 0.250411 0.721506 0.398839
O O11 0.505237 0.276459 0.500000
O O12 0.446388 0.365269 0.420455
O O13 0.500000 0.500000 0.086108
O O14 0.240732 0.056786 0.500000
O O15 0.500000 0.000000 0.422212
O O16 0.000000 0.000000 0.419119
#
# Coordination Sequence:
#
# PCOD9394677 Si02
#       7
#     8   8   4   8   8   8   8
#     4  11  21  41  68  95 129 170 213 271 319 394
#     4  11  22  38  63  89 124 166 211 266 321 388
#     4  10  22  36  65  96 131 168 206 266 326 390
#     4  10  22  38  63  96 130 164 214 267 332 381
#     4  10  23  40  62  93 123 164 220 270 318 383
#     4  11  24  41  58  88 127 167 212 266 328 384
#     4  10  24  44  68  98 134 176 221 271 327 381
#
# _framework density 20.014621999999999
#
# number of rings (size 3 to 8) (size 9 to 14) (size 15 to 20)
#    0.000    1.538    1.538    2.769    8.615    3.385 
#    0.000    0.385    0.000    2.769    0.000    0.000 
#    0.000    0.000    0.000    0.000    0.000    0.000 
#
# Total GULP energy -289925.216536 kJ/mol
# GULP energy per Si atom -5575.484933 kJ/mol
# Density = 1.996907 g / cm^3
# Si number density = 20.014622 Si / 1000 Ang^3
#
#
#
# Elastic Constant Matrix: (Units=GPa)
#
#
# Indices 1 2 3 4 5 6 
#
# 1 72.9231 15.3677 36.6056 0.0000 0.0000 0.0000
# 2 15.3677 118.7971 60.5907 0.0000 0.0000 0.0000
# 3 36.6056 60.5907 122.9064 0.0000 0.0000 0.0000
# 4 0.0000 0.0000 0.0000 -26.7009 0.0000 0.0000
# 5 0.0000 0.0000 0.0000 0.0000 11.6629 0.0000
# 6 0.0000 0.0000 0.0000 0.0000 0.0000 106.2840
#
#
#
# Elastic Compliance Matrix: (Units=1/GPa)
#
#
# Indices 1 2 3 4 5 6 
#
# 1 0.016145 0.000486 -0.005048 0.000000 0.000000 0.000000
# 2 0.000486 0.011260 -0.005696 0.000000 0.000000 0.000000
# 3 -0.005048 -0.005696 0.012448 0.000000 0.000000 0.000000
# 4 0.000000 0.000000 0.000000 -0.037452 0.000000 0.000000
# 5 0.000000 0.000000 0.000000 0.000000 0.085742 0.000000
# 6 0.000000 0.000000 0.000000 0.000000 0.000000 0.009409
#
#
# Mechanical properties :
#
#
# Convention : Reuss Voigt Hill
#
# Bulk Modulus (GPa) = 51.71452 59.97274 55.84363
# Shear Modulus (GPa) = 40.15695 31.72006 35.93851
#
# Velocity S-wave (km/s) = 4.48412 3.98533 4.24206
# Velocity P-wave (km/s) = 7.25977 7.15588 7.20801
#
# Compressibility (1/GPa) = 0.01933693
#
# Stress axis : x y z
#
# Youngs Moduli (GPa) = 61.94012 88.81128 80.33643
#
# Poissons Ratio (x) = -0.04318 0.40555
# Poissons Ratio (y) = -0.03012 0.45757
# Poissons Ratio (z) = 0.31268 0.50584
#
# Static dielectric constant tensor:
#      x y z
#    x 1.852350 0.000000 0.000000 
#    y 0.000000 1.731280 0.000000 
#    z 0.000000 0.000000 1.653370 
# 
# From -- ./inp_files/19011.got.cif
#   From: 2010.05.17/outbox.cif.g08.bks.cpg/sg49_10_cif.got.tgz:19011.got - 2010.06.03 21:02:19.
