data_PCOD9394996
_publ_section_title
;
Structure prediction by ZEFSAII (Michael W. Deem and Ramdas Pophale) SiO2 
 PCOD9394996
Probable space group: P C C M
;
_chemical_formula_sum "Si O2"
_cell_formula_units_Z 48
_cell_length_a 9.201144
_cell_length_b 32.291025
_cell_length_c 8.590144
_cell_angle_alpha 90.000000
_cell_angle_beta 90.000000
_cell_angle_gamma 90.000000
_cell_volume 2552.255231
_symmetry_space_group_name_H-M "P C C M"
_symmetry_group_IT_number 49
_symmetry_cell_setting 'orthorhombic'
loop_
_space_group_symop_operation_xyz
x,y,z
-x,-y,z
x,-y,1/2-z
-x,y,1/2-z
-x,-y,-z
x,y,-z
-x,y,1/2+z
x,-y,1/2+z
loop_
_atom_site_type_symbol
_atom_site_label
_atom_site_fract_x
_atom_site_fract_y
_atom_site_fract_z
Si Si1 0.337190 0.123156 0.186444
Si Si2 0.334807 0.718916 0.686038
Si Si3 0.665674 0.457676 0.186075
Si Si4 0.665679 0.367402 0.187115
Si Si5 0.836830 0.797827 0.313631
Si Si6 0.163454 0.044909 0.686644
O O1 0.500000 0.126616 0.250000
O O2 0.246261 0.162312 0.246916
O O3 0.264291 0.081412 0.251086
O O4 0.337093 0.122599 0.000000
O O5 0.500000 0.721646 0.750000
O O6 0.338080 0.721071 0.500000
O O7 0.271478 0.674375 0.739506
O O8 0.244198 0.756606 0.755766
O O9 0.734720 0.500000 0.250000
O O10 0.500000 0.457073 0.250000
O O11 0.730662 0.412589 0.228080
O O12 0.659249 0.460199 0.000000
O O13 0.500000 0.368600 0.250000
O O14 0.663183 0.363507 0.000000
O O15 0.836602 0.799401 0.500000
O O16 0.000000 0.797895 0.250000
O O17 0.160945 0.044474 0.500000
O O18 0.000000 0.051748 0.750000
O O19 0.210862 0.000000 0.750000
#
# Coordination Sequence:
#
# PCOD9394996 Si02
#       6
#     8   8   8   8   8   8
#     4  12  25  43  64  91 122 156 195 239 286 337
#     4  11  21  35  55  80 108 143 182 226 276 331
#     4   9  15  21  32  51  81 120 164 208 257 312
#     4   9  16  26  40  62  91 128 170 216 265 320
#     4  12  25  43  63  86 114 147 185 230 279 335
#     4  11  22  40  64  93 125 163 203 244 289 338
#
# _framework density 18.806895999999998
#
# number of rings (size 3 to 8) (size 9 to 14) (size 15 to 20)
#    0.000    1.333    0.000   10.000    0.000    2.333 
#    0.000    1.667    0.000    0.000    0.000    0.000 
#    0.000    0.667    0.000    7.000    0.000    6.333 
#
# Total GULP energy -268126.611545 kJ/mol
# GULP energy per Si atom -5585.971074 kJ/mol
# Density = 1.876409 g / cm^3
# Si number density = 18.806896 Si / 1000 Ang^3
#
#
#
# Elastic Constant Matrix: (Units=GPa)
#
#
# Indices 1 2 3 4 5 6 
#
# 1 76.9148 87.2142 48.1040 0.0000 0.0000 0.0000
# 2 87.2142 211.3348 88.0347 0.0000 0.0000 0.0000
# 3 48.1040 88.0347 195.6940 0.0000 0.0000 0.0000
# 4 0.0000 0.0000 0.0000 43.2804 0.0000 0.0000
# 5 0.0000 0.0000 0.0000 0.0000 23.4634 0.0000
# 6 0.0000 0.0000 0.0000 0.0000 0.0000 -218.7285
#
#
#
# Elastic Compliance Matrix: (Units=1/GPa)
#
#
# Indices 1 2 3 4 5 6 
#
# 1 0.024968 -0.009534 -0.001849 0.000000 0.000000 0.000000
# 2 -0.009534 0.009463 -0.001914 0.000000 0.000000 0.000000
# 3 -0.001849 -0.001914 0.006425 0.000000 0.000000 0.000000
# 4 0.000000 0.000000 0.000000 0.023105 0.000000 0.000000
# 5 0.000000 0.000000 0.000000 0.000000 0.042620 0.000000
# 6 0.000000 0.000000 0.000000 0.000000 0.000000 -0.004572
#
#
# Mechanical properties :
#
#
# Convention : Reuss Voigt Hill
#
# Bulk Modulus (GPa) = 70.10358 103.40549 86.75453
# Shear Modulus (GPa) = 37.49347 -13.02424 12.23462
#
# Velocity S-wave (km/s) = 4.46982 -2.63444 2.55333
# Velocity P-wave (km/s) = 7.99972 6.77115 7.41093
#
# Compressibility (1/GPa) = 0.01426461
#
# Stress axis : x y z
#
# Youngs Moduli (GPa) = 40.05130 105.66990 155.63444
#
# Poissons Ratio (x) = 1.00744 0.28770
# Poissons Ratio (y) = 0.38184 0.29784
# Poissons Ratio (z) = 0.07404 0.20222
#
# Static dielectric constant tensor:
#      x y z
#    x 1.646240 0.000000 0.000000 
#    y 0.000000 1.693150 0.000000 
#    z 0.000000 0.000000 1.624570 
# 
# From -- ./inp_files/2108.got.cif
#   From: 2010.05.17/outbox.cif.g08.bks.cpg/sg49_2_cif.got.tgz:2108.got - 2010.06.03 21:02:19.
