data_PCOD9394075
_publ_section_title
;
Structure prediction by ZEFSAII (Michael W. Deem and Ramdas Pophale) SiO2 
 PCOD9394075
Probable space group: P C C M
;
_chemical_formula_sum "Si O2"
_cell_formula_units_Z 64
_cell_length_a 12.302176
_cell_length_b 16.620795
_cell_length_c 16.512920
_cell_angle_alpha 90.000000
_cell_angle_beta 90.000000
_cell_angle_gamma 90.000000
_cell_volume 3376.428876
_symmetry_space_group_name_H-M "P C C M"
_symmetry_group_IT_number 49
_symmetry_cell_setting 'orthorhombic'
loop_
_space_group_symop_operation_xyz
x,y,z
-x,-y,z
x,-y,1/2-z
-x,y,1/2-z
-x,-y,-z
x,y,-z
-x,y,1/2+z
x,-y,1/2+z
loop_
_atom_site_type_symbol
_atom_site_label
_atom_site_fract_x
_atom_site_fract_y
_atom_site_fract_z
Si Si1 0.279235 0.361615 0.339072
Si Si2 0.558493 0.764116 0.405473
Si Si3 0.626118 0.516564 0.094796
Si Si4 0.256480 0.121700 0.596719
Si Si5 0.858289 0.798136 0.097151
Si Si6 0.658920 0.306556 0.659304
Si Si7 0.120053 0.021683 0.155606
Si Si8 0.906345 0.263957 0.097690
O O1 0.356786 0.310290 0.399551
O O2 0.303067 0.454884 0.352949
O O3 0.315431 0.330782 0.251283
O O4 0.156459 0.336585 0.359644
O O5 0.527228 0.774678 0.500000
O O6 0.628473 0.841101 0.375283
O O7 0.453745 0.740875 0.353697
O O8 0.500000 0.500000 0.114785
O O9 0.649885 0.609370 0.111632
O O10 0.642710 0.498931 0.000000
O O11 0.262052 0.125683 0.500000
O O12 0.162154 0.184361 0.622199
O O13 0.215470 0.034083 0.620352
O O14 0.755292 0.747426 0.124643
O O15 0.859662 0.885125 0.138882
O O16 0.968984 0.750953 0.118907
O O17 0.858192 0.809736 0.000000
O O18 0.116706 0.000000 0.250000
O O19 0.000000 0.000000 0.120671
O O20 0.898519 0.272830 0.000000
#
# Coordination Sequence:
#
# PCOD9394075 Si02
#       8
#     8   8   8   8   8   8   8   8
#     4  11  22  36  62  91 122 158 203 255 307 356
#     4  10  20  37  59  85 118 161 205 245 298 368
#     4  11  22  39  63  89 121 161 209 256 299 363
#     4   9  18  35  60  84 112 154 206 250 289 354
#     4  11  24  41  63  90 125 167 203 249 311 373
#     4  12  25  38  60  93 131 158 198 258 317 366
#     4  11  23  36  59  91 125 155 203 259 317 357
#     4   9  19  37  62  89 118 159 207 246 299 371
#
# _framework density 18.954937999999999
#
# number of rings (size 3 to 8) (size 9 to 14) (size 15 to 20)
#    0.000    1.500    2.500    4.125    3.500    1.500 
#    0.000    1.250    0.000    6.750    0.000    0.000 
#    0.000    0.000    0.000    0.000    0.000    0.000 
#
# Total GULP energy -357478.530558 kJ/mol
# GULP energy per Si atom -5585.602040 kJ/mol
# Density = 1.891180 g / cm^3
# Si number density = 18.954938 Si / 1000 Ang^3
#
#
#
# Elastic Constant Matrix: (Units=GPa)
#
#
# Indices 1 2 3 4 5 6 
#
# 1 134.8876 84.9202 30.1108 0.0000 0.0000 0.0000
# 2 84.9202 121.9439 31.3269 0.0000 0.0000 0.0000
# 3 30.1108 31.3269 44.2457 0.0000 0.0000 0.0000
# 4 0.0000 0.0000 0.0000 7.3725 0.0000 0.0000
# 5 0.0000 0.0000 0.0000 0.0000 9.0614 0.0000
# 6 0.0000 0.0000 0.0000 0.0000 0.0000 24.7106
#
#
#
# Elastic Compliance Matrix: (Units=1/GPa)
#
#
# Indices 1 2 3 4 5 6 
#
# 1 0.013541 -0.008633 -0.003103 0.000000 0.000000 0.000000
# 2 -0.008633 0.015527 -0.005119 0.000000 0.000000 0.000000
# 3 -0.003103 -0.005119 0.028337 0.000000 0.000000 0.000000
# 4 0.000000 0.000000 0.000000 0.135638 0.000000 0.000000
# 5 0.000000 0.000000 0.000000 0.000000 0.110358 0.000000
# 6 0.000000 0.000000 0.000000 0.000000 0.000000 0.040468
#
#
# Mechanical properties :
#
#
# Convention : Reuss Voigt Hill
#
# Bulk Modulus (GPa) = 42.20068 65.97701 54.08884
# Shear Modulus (GPa) = 12.97090 18.54352 15.75721
#
# Velocity S-wave (km/s) = 2.61875 3.13116 2.88635
# Velocity P-wave (km/s) = 5.60855 6.92496 6.30123
#
# Compressibility (1/GPa) = 0.02369630
#
# Stress axis : x y z
#
# Youngs Moduli (GPa) = 73.84929 64.40324 35.28954
#
# Poissons Ratio (x) = 0.55597 0.10951
# Poissons Ratio (y) = 0.63752 0.18064
# Poissons Ratio (z) = 0.22916 0.32966
#
# Static dielectric constant tensor:
#      x y z
#    x 1.652680 0.000000 0.000000 
#    y 0.000000 1.651270 0.000000 
#    z 0.000000 0.000000 1.683220 
# 
# From -- ./inp_files/17311.got.cif
#   From: 2010.05.17/outbox.cif.g08.bks.cpg/sg49_9_cif.got.tgz:17311.got - 2010.06.03 21:02:19.
