data_PCOD9394564
_publ_section_title
;
Structure prediction by ZEFSAII (Michael W. Deem and Ramdas Pophale) SiO2 
 PCOD9394564
Probable space group: P C C M
;
_chemical_formula_sum "Si O2"
_cell_formula_units_Z 38
_cell_length_a 22.183561
_cell_length_b 8.849652
_cell_length_c 9.629825
_cell_angle_alpha 90.000000
_cell_angle_beta 90.000000
_cell_angle_gamma 90.000000
_cell_volume 1890.496380
_symmetry_space_group_name_H-M "P C C M"
_symmetry_group_IT_number 49
_symmetry_cell_setting 'orthorhombic'
loop_
_space_group_symop_operation_xyz
x,y,z
-x,-y,z
x,-y,1/2-z
-x,y,1/2-z
-x,-y,-z
x,y,-z
-x,y,1/2+z
x,-y,1/2+z
loop_
_atom_site_type_symbol
_atom_site_label
_atom_site_fract_x
_atom_site_fract_y
_atom_site_fract_z
Si Si1 0.307006 0.821219 0.265503
Si Si2 0.387367 0.702954 0.500000
Si Si3 0.811621 0.351151 0.341807
Si Si4 0.500000 0.000000 0.250000
Si Si5 0.650060 0.362332 0.000000
Si Si6 0.944568 0.338662 0.332187
Si Si7 0.474248 0.210815 0.500000
O O1 0.362529 0.789423 0.367187
O O2 0.243989 0.760458 0.324792
O O3 0.302994 0.000000 0.250000
O O4 0.320149 0.719773 0.130720
O O5 0.351559 0.543283 0.500000
O O6 0.459766 0.711893 0.500000
O O7 0.802704 0.500000 0.250000
O O8 0.814577 0.405160 0.500000
O O9 0.876974 0.275767 0.313253
O O10 0.532918 0.891421 0.361409
O O11 0.579092 0.327971 0.000000
O O12 0.940005 0.500000 0.250000
O O13 0.955903 0.352493 0.500000
O O14 0.000000 0.261087 0.250000
#
# Coordination Sequence:
#
# PCOD9394564 Si02
#       7
#     8   4   8   2   4   8   4
#     4  12  27  43  64  94 126 169 211 259 315 383
#     4  12  25  46  70  92 129 159 212 265 313 381
#     4  10  21  39  62  90 128 168 213 262 314 368
#     4  10  24  38  66  98 128 162 198 250 302 394
#     4  12  27  44  68  96 125 163 212 261 323 371
#     4   9  16  28  51  85 123 162 205 257 305 362
#     4  11  25  42  68  94 128 162 206 256 320 372
#
# _framework density 20.100542000000001
#
# number of rings (size 3 to 8) (size 9 to 14) (size 15 to 20)
#    0.000    1.263    1.053    5.368   10.316    0.842 
#    0.000    3.158    0.000    0.632    0.000    2.947 
#    0.000    0.000    0.000    0.000    0.000    0.000 
#
# Total GULP energy -211996.587027 kJ/mol
# GULP energy per Si atom -5578.857553 kJ/mol
# Density = 2.005479 g / cm^3
# Si number density = 20.100542 Si / 1000 Ang^3
#
#
#
# Elastic Constant Matrix: (Units=GPa)
#
#
# Indices 1 2 3 4 5 6 
#
# 1 134.2914 17.4040 30.0063 0.0000 0.0000 0.0000
# 2 17.4040 87.1341 21.1438 0.0000 0.0000 0.0000
# 3 30.0063 21.1438 128.9260 0.0000 0.0000 0.0000
# 4 0.0000 0.0000 0.0000 21.7659 0.0000 0.0000
# 5 0.0000 0.0000 0.0000 0.0000 34.9429 0.0000
# 6 0.0000 0.0000 0.0000 0.0000 0.0000 0.0501
#
#
#
# Elastic Compliance Matrix: (Units=1/GPa)
#
#
# Indices 1 2 3 4 5 6 
#
# 1 0.007972 -0.001189 -0.001660 0.000000 0.000000 0.000000
# 2 -0.001189 0.012130 -0.001712 0.000000 0.000000 0.000000
# 3 -0.001660 -0.001712 0.008424 0.000000 0.000000 0.000000
# 4 0.000000 0.000000 0.000000 0.045943 0.000000 0.000000
# 5 0.000000 0.000000 0.000000 0.000000 0.028618 0.000000
# 6 0.000000 0.000000 0.000000 0.000000 0.000000 19.970418
#
#
# Mechanical properties :
#
#
# Convention : Reuss Voigt Hill
#
# Bulk Modulus (GPa) = 51.54432 54.16217 52.85325
# Shear Modulus (GPa) = 0.24889 30.13826 15.19358
#
# Velocity S-wave (km/s) = 0.35227 3.87638 2.75231
# Velocity P-wave (km/s) = 5.08570 6.85851 6.03753
#
# Compressibility (1/GPa) = 0.01940078
#
# Stress axis : x y z
#
# Youngs Moduli (GPa) = 125.44525 82.44252 118.71353
#
# Poissons Ratio (x) = 0.09805 0.19710
# Poissons Ratio (y) = 0.14920 0.20329
# Poissons Ratio (z) = 0.20827 0.14118
#
# Static dielectric constant tensor:
#      x y z
#    x 1.770930 0.000000 0.000000 
#    y 0.000000 1.687860 0.000000 
#    z 0.000000 0.000000 1.712350 
# 
# From -- ./inp_files/1819.got.cif
#   From: 2010.05.17/outbox.cif.g08.bks.cpg/sg49_1_cif.got.tgz:1819.got - 2010.06.03 21:02:19.
