data_PCOD9394846
_publ_section_title
;
Structure prediction by ZEFSAII (Michael W. Deem and Ramdas Pophale) SiO2 
 PCOD9394846
Probable space group: P C C M
;
_chemical_formula_sum "Si O2"
_cell_formula_units_Z 64
_cell_length_a 17.075999
_cell_length_b 12.409028
_cell_length_c 15.069613
_cell_angle_alpha 90.000000
_cell_angle_beta 90.000000
_cell_angle_gamma 90.000000
_cell_volume 3193.199000
_symmetry_space_group_name_H-M "P C C M"
_symmetry_group_IT_number 49
_symmetry_cell_setting 'orthorhombic'
loop_
_space_group_symop_operation_xyz
x,y,z
-x,-y,z
x,-y,1/2-z
-x,y,1/2-z
-x,-y,-z
x,y,-z
-x,y,1/2+z
x,-y,1/2+z
loop_
_atom_site_type_symbol
_atom_site_label
_atom_site_fract_x
_atom_site_fract_y
_atom_site_fract_z
Si Si1 0.907565 0.632268 0.747282
Si Si2 0.221580 0.690966 0.101596
Si Si3 0.461441 0.603236 0.347282
Si Si4 0.285399 0.469755 0.150987
Si Si5 0.526152 0.158165 0.601487
Si Si6 0.806057 0.739679 0.897934
Si Si7 0.310379 0.069789 0.160931
Si Si8 0.649699 0.146003 0.098787
O O1 0.902360 0.500000 0.750000
O O2 0.854893 0.672639 0.663176
O O3 0.873185 0.700149 0.830480
O O4 0.000000 0.654945 0.750000
O O5 0.268020 0.578299 0.099001
O O6 0.285873 0.774839 0.141689
O O7 0.201249 0.722922 0.000000
O O8 0.500000 0.500000 0.391839
O O9 0.500000 0.618689 0.250000
O O10 0.372994 0.568403 0.336070
O O11 0.469931 0.713222 0.398358
O O12 0.256691 0.500000 0.250000
O O13 0.245665 0.368593 0.104951
O O14 0.533637 0.117061 0.500000
O O15 0.602124 0.119973 0.655748
O O16 0.438467 0.132470 0.636623
O O17 0.753432 0.839002 0.861151
O O18 0.829504 0.761766 0.000000
O O19 0.297814 0.000000 0.250000
O O20 0.312533 0.971116 0.092681
O O21 0.636095 0.191522 0.000000
#
# Coordination Sequence:
#
# PCOD9394846 Si02
#       8
#     8   8   8   8   8   8   8   8
#     4  11  24  43  69 103 143 174 209 271 340 416
#     4  11  22  40  68  96 132 181 223 272 342 413
#     4  11  23  35  56  85 123 175 227 275 328 395
#     4  12  21  37  61  88 132 171 227 274 331 402
#     4  11  24  40  58  86 128 170 224 284 336 383
#     4  12  24  43  71 100 134 177 223 274 337 408
#     4  12  26  40  64  91 126 174 230 286 334 389
#     4  10  23  40  59  86 125 168 223 280 326 387
#
# _framework density 20.042597000000001
#
# number of rings (size 3 to 8) (size 9 to 14) (size 15 to 20)
#    0.000    0.750    5.000    3.375    1.750    2.750 
#    0.000    1.250    0.000    3.375    0.000    5.250 
#    0.000    0.000    0.000    0.000    0.000    0.000 
#
# Total GULP energy -356884.291847 kJ/mol
# GULP energy per Si atom -5576.317060 kJ/mol
# Density = 1.999698 g / cm^3
# Si number density = 20.042597 Si / 1000 Ang^3
#
#
#
# Elastic Constant Matrix: (Units=GPa)
#
#
# Indices 1 2 3 4 5 6 
#
# 1 166.4996 51.1737 52.1941 0.0000 0.0000 0.0000
# 2 51.1737 145.9800 27.1990 0.0000 0.0000 0.0000
# 3 52.1941 27.1990 127.8126 0.0000 0.0000 0.0000
# 4 0.0000 0.0000 0.0000 29.2343 0.0000 0.0000
# 5 0.0000 0.0000 0.0000 0.0000 65.5547 0.0000
# 6 0.0000 0.0000 0.0000 0.0000 0.0000 4.4312
#
#
#
# Elastic Compliance Matrix: (Units=1/GPa)
#
#
# Indices 1 2 3 4 5 6 
#
# 1 0.007478 -0.002137 -0.002599 0.000000 0.000000 0.000000
# 2 -0.002137 0.007744 -0.000775 0.000000 0.000000 0.000000
# 3 -0.002599 -0.000775 0.009050 0.000000 0.000000 0.000000
# 4 0.000000 0.000000 0.000000 0.034206 0.000000 0.000000
# 5 0.000000 0.000000 0.000000 0.000000 0.015254 0.000000
# 6 0.000000 0.000000 0.000000 0.000000 0.000000 0.225671
#
#
# Mechanical properties :
#
#
# Convention : Reuss Voigt Hill
#
# Bulk Modulus (GPa) = 75.47501 77.93620 76.70560
# Shear Modulus (GPa) = 15.88100 40.49241 28.18670
#
# Velocity S-wave (km/s) = 2.81795 4.49967 3.75419
# Velocity P-wave (km/s) = 6.95175 8.12193 7.55952
#
# Compressibility (1/GPa) = 0.01324942
#
# Stress axis : x y z
#
# Youngs Moduli (GPa) = 133.73444 129.13477 110.49514
#
# Poissons Ratio (x) = 0.27597 0.28715
# Poissons Ratio (y) = 0.28580 0.08566
# Poissons Ratio (z) = 0.34755 0.10011
#
# Static dielectric constant tensor:
#      x y z
#    x 1.675410 0.000000 0.000000 
#    y 0.000000 1.712180 0.000000 
#    z 0.000000 0.000000 1.806260 
# 
# From -- ./inp_files/14165.got.cif
#   From: 2010.05.17/outbox.cif.g08.bks.cpg/sg49_8_cif.got.tgz:14165.got - 2010.06.03 21:02:19.
