data_PCOD9394323
_publ_section_title
;
Structure prediction by ZEFSAII (Michael W. Deem and Ramdas Pophale) SiO2 
 PCOD9394323
Probable space group: P C C M
;
_chemical_formula_sum "Si O2"
_cell_formula_units_Z 48
_cell_length_a 14.716146
_cell_length_b 17.975223
_cell_length_c 9.747179
_cell_angle_alpha 90.000000
_cell_angle_beta 90.000000
_cell_angle_gamma 90.000000
_cell_volume 2578.382331
_symmetry_space_group_name_H-M "P C C M"
_symmetry_group_IT_number 49
_symmetry_cell_setting 'orthorhombic'
loop_
_space_group_symop_operation_xyz
x,y,z
-x,-y,z
x,-y,1/2-z
-x,y,1/2-z
-x,-y,-z
x,y,-z
-x,y,1/2+z
x,-y,1/2+z
loop_
_atom_site_type_symbol
_atom_site_label
_atom_site_fract_x
_atom_site_fract_y
_atom_site_fract_z
Si Si1 0.913004 0.891309 0.500000
Si Si2 0.214301 0.860081 0.251788
Si Si3 0.751837 0.691521 0.157104
Si Si4 0.091691 0.571396 0.664360
Si Si5 0.416333 0.312098 0.342903
Si Si6 0.884101 0.067769 0.500000
Si Si7 0.416369 0.869288 0.155432
O O1 0.858907 0.859571 0.370266
O O2 0.022214 0.884087 0.500000
O O3 0.902167 0.980404 0.500000
O O4 0.225058 0.777177 0.311572
O O5 0.173653 0.912241 0.367559
O O6 0.314279 0.886895 0.204883
O O7 0.839025 0.639442 0.170789
O O8 0.675903 0.667446 0.265548
O O9 0.717435 0.686692 0.000000
O O10 0.128263 0.500000 0.750000
O O11 0.076892 0.556384 0.500000
O O12 0.000000 0.589204 0.750000
O O13 0.500000 0.337632 0.250000
O O14 0.420426 0.337471 0.500000
O O15 0.419335 0.221419 0.345545
O O16 0.500000 0.894676 0.250000
O O17 0.428980 0.895407 0.000000
#
# Coordination Sequence:
#
# PCOD9394323 Si02
#       7
#     4   8   8   8   8   4   8
#     4  11  24  42  59  83 112 148 201 236 285 355
#     4  11  21  39  59  87 117 145 192 244 288 334
#     4  10  21  36  55  85 117 147 189 235 282 330
#     4  10  21  38  57  81 113 153 193 232 282 343
#     4   9  17  29  51  81 115 150 184 227 278 333
#     4  11  24  40  63  81 108 158 191 236 293 347
#     4   9  18  31  53  82 112 145 181 228 283 342
#
# _framework density 18.616325
#
# number of rings (size 3 to 8) (size 9 to 14) (size 15 to 20)
#    0.000    2.000    1.667    2.500    2.333    6.000 
#    0.000    0.000    0.000    3.500    0.000    3.500 
#    0.000    0.000    0.000    0.000    0.000    0.000 
#
# Total GULP energy -267746.939708 kJ/mol
# GULP energy per Si atom -5578.061244 kJ/mol
# Density = 1.857395 g / cm^3
# Si number density = 18.616325 Si / 1000 Ang^3
#
#
#
# Elastic Constant Matrix: (Units=GPa)
#
#
# Indices 1 2 3 4 5 6 
#
# 1 104.1373 18.9325 64.4625 0.0000 0.0000 0.0000
# 2 18.9325 22.7229 18.2916 0.0000 0.0000 0.0000
# 3 64.4625 18.2916 173.4580 0.0000 0.0000 0.0000
# 4 0.0000 0.0000 0.0000 62.2534 0.0000 0.0000
# 5 0.0000 0.0000 0.0000 0.0000 24.3987 0.0000
# 6 0.0000 0.0000 0.0000 0.0000 0.0000 -103.3574
#
#
#
# Elastic Compliance Matrix: (Units=1/GPa)
#
#
# Indices 1 2 3 4 5 6 
#
# 1 0.013680 -0.007983 -0.004242 0.000000 0.000000 0.000000
# 2 -0.007983 0.052750 -0.002596 0.000000 0.000000 0.000000
# 3 -0.004242 -0.002596 0.007615 0.000000 0.000000 0.000000
# 4 0.000000 0.000000 0.000000 0.016063 0.000000 0.000000
# 5 0.000000 0.000000 0.000000 0.000000 0.040986 0.000000
# 6 0.000000 0.000000 0.000000 0.000000 0.000000 -0.009675
#
#
# Mechanical properties :
#
#
# Convention : Reuss Voigt Hill
#
# Bulk Modulus (GPa) = 22.52113 55.96572 39.24342
# Shear Modulus (GPa) = 30.14559 9.90108 20.02334
#
# Velocity S-wave (km/s) = 4.02843 2.30869 3.28316
# Velocity P-wave (km/s) = 5.81046 6.10202 5.95803
#
# Compressibility (1/GPa) = 0.04440275
#
# Stress axis : x y z
#
# Youngs Moduli (GPa) = 73.09954 18.95751 131.31464
#
# Poissons Ratio (x) = 0.15134 0.55704
# Poissons Ratio (y) = 0.58357 0.34086
# Poissons Ratio (z) = 0.31009 0.04921
#
# Static dielectric constant tensor:
#      x y z
#    x 1.638880 0.000000 0.000000 
#    y 0.000000 1.620470 0.000000 
#    z 0.000000 0.000000 1.661490 
# 
# From -- ./inp_files/3756.got.cif
#   From: 2010.05.17/outbox.cif.g08.bks.cpg/sg49_2_cif.got.tgz:3756.got - 2010.06.03 21:02:19.
