data_PCOD9394870
_publ_section_title
;
Structure prediction by ZEFSAII (Michael W. Deem and Ramdas Pophale) SiO2 
 PCOD9394870
Probable space group: P C C M
;
_chemical_formula_sum "Si O2"
_cell_formula_units_Z 40
_cell_length_a 11.034211
_cell_length_b 9.144384
_cell_length_c 17.775729
_cell_angle_alpha 90.000000
_cell_angle_beta 90.000000
_cell_angle_gamma 90.000000
_cell_volume 1793.589943
_symmetry_space_group_name_H-M "P C C M"
_symmetry_group_IT_number 49
_symmetry_cell_setting 'orthorhombic'
loop_
_space_group_symop_operation_xyz
x,y,z
-x,-y,z
x,-y,1/2-z
-x,y,1/2-z
-x,-y,-z
x,y,-z
-x,y,1/2+z
x,-y,1/2+z
loop_
_atom_site_type_symbol
_atom_site_label
_atom_site_fract_x
_atom_site_fract_y
_atom_site_fract_z
Si Si1 0.246512 0.014520 0.911089
Si Si2 0.778588 0.302946 0.911745
Si Si3 0.972538 0.813930 0.159784
Si Si4 0.785578 0.578819 0.818641
Si Si5 0.368632 0.850122 0.714146
O O1 0.116741 0.054221 0.869898
O O2 0.348566 0.116452 0.873975
O O3 0.293753 0.848144 0.899505
O O4 0.227861 0.035549 0.000000
O O5 0.736647 0.450407 0.871191
O O6 0.907358 0.244823 0.880609
O O7 0.787099 0.330435 0.000000
O O8 0.881262 0.680433 0.141655
O O9 0.000000 0.828335 0.250000
O O10 0.851602 0.500000 0.750000
O O11 0.694672 0.693317 0.778672
O O12 0.500000 0.842428 0.750000
O O13 0.310701 0.000000 0.750000
#
# Coordination Sequence:
#
# PCOD9394870 Si02
#       5
#     8   8   8   8   8
#     4  10  23  42  66 100 140 178 226 280 332 395
#     4  11  23  38  60  97 145 188 220 262 328 404
#     4  11  22  36  61  99 145 189 232 265 314 385
#     4  11  22  38  60  92 135 172 220 275 332 394
#     4  10  23  44  70  97 120 163 230 289 353 409
#
# _framework density 22.301641
#
# number of rings (size 3 to 8) (size 9 to 14) (size 15 to 20)
#    0.000    1.400    2.000    3.000    2.800    7.600 
#    0.000    3.000    0.000    1.200    0.000   18.200 
#    0.000    0.000    0.000    0.000    0.000    0.000 
#
# Total GULP energy -222787.891907 kJ/mol
# GULP energy per Si atom -5569.697298 kJ/mol
# Density = 2.225088 g / cm^3
# Si number density = 22.301641 Si / 1000 Ang^3
#
#
#
# Elastic Constant Matrix: (Units=GPa)
#
#
# Indices 1 2 3 4 5 6 
#
# 1 73.3944 26.3217 11.5655 0.0000 0.0000 0.0000
# 2 26.3217 155.8417 47.6633 0.0000 0.0000 0.0000
# 3 11.5655 47.6633 106.8921 0.0000 0.0000 0.0000
# 4 0.0000 0.0000 0.0000 36.3910 0.0000 0.0000
# 5 0.0000 0.0000 0.0000 0.0000 19.7189 0.0000
# 6 0.0000 0.0000 0.0000 0.0000 0.0000 0.5288
#
#
#
# Elastic Compliance Matrix: (Units=1/GPa)
#
#
# Indices 1 2 3 4 5 6 
#
# 1 0.014532 -0.002285 -0.000553 0.000000 0.000000 0.000000
# 2 -0.002285 0.007789 -0.003226 0.000000 0.000000 0.000000
# 3 -0.000553 -0.003226 0.010854 0.000000 0.000000 0.000000
# 4 0.000000 0.000000 0.000000 0.027479 0.000000 0.000000
# 5 0.000000 0.000000 0.000000 0.000000 0.050713 0.000000
# 6 0.000000 0.000000 0.000000 0.000000 0.000000 1.890980
#
#
# Mechanical properties :
#
#
# Convention : Reuss Voigt Hill
#
# Bulk Modulus (GPa) = 47.51586 56.35881 51.93733
# Shear Modulus (GPa) = 2.47342 28.03293 15.25317
#
# Velocity S-wave (km/s) = 1.05427 3.54925 2.61808
# Velocity P-wave (km/s) = 4.77852 6.49017 5.69897
#
# Compressibility (1/GPa) = 0.02104561
#
# Stress axis : x y z
#
# Youngs Moduli (GPa) = 68.81486 128.37953 92.13532
#
# Poissons Ratio (x) = 0.29337 0.05098
# Poissons Ratio (y) = 0.15725 0.29723
# Poissons Ratio (z) = 0.03808 0.41416
#
# Static dielectric constant tensor:
#      x y z
#    x 1.857530 0.000000 0.000000 
#    y 0.000000 1.929990 0.000000 
#    z 0.000000 0.000000 1.867570 
# 
# From -- ./inp_files/16846.got.cif
#   From: 2010.05.17/outbox.cif.g08.bks.cpg/sg49_9_cif.got.tgz:16846.got - 2010.06.03 21:02:19.
