data_PCOD9394444
_publ_section_title
;
Structure prediction by ZEFSAII (Michael W. Deem and Ramdas Pophale) SiO2 
 PCOD9394444
Probable space group: P C C M
;
_chemical_formula_sum "Si O2"
_cell_formula_units_Z 48
_cell_length_a 29.053863
_cell_length_b 9.192032
_cell_length_c 9.173542
_cell_angle_alpha 90.000000
_cell_angle_beta 90.000000
_cell_angle_gamma 90.000000
_cell_volume 2449.923173
_symmetry_space_group_name_H-M "P C C M"
_symmetry_group_IT_number 49
_symmetry_cell_setting 'orthorhombic'
loop_
_space_group_symop_operation_xyz
x,y,z
-x,-y,z
x,-y,1/2-z
-x,y,1/2-z
-x,-y,-z
x,y,-z
-x,y,1/2+z
x,-y,1/2+z
loop_
_atom_site_type_symbol
_atom_site_label
_atom_site_fract_x
_atom_site_fract_y
_atom_site_fract_z
Si Si1 0.205609 0.844667 0.668569
Si Si2 0.281454 0.342457 0.676453
Si Si3 0.638089 0.843866 0.174058
Si Si4 0.069545 0.358500 0.500000
Si Si5 0.546458 0.654663 0.172778
Si Si6 0.960388 0.310586 0.500000
Si Si7 0.100812 0.173669 0.768551
O O1 0.221515 0.853892 0.500000
O O2 0.235164 0.731831 0.762073
O O3 0.151771 0.802935 0.668036
O O4 0.209845 0.000000 0.750000
O O5 0.285544 0.500000 0.750000
O O6 0.282218 0.348777 0.500000
O O7 0.322922 0.246107 0.741093
O O8 0.589660 0.760379 0.190130
O O9 0.635401 0.000000 0.250000
O O10 0.648295 0.854445 0.000000
O O11 0.066187 0.533542 0.500000
O O12 0.094782 0.280491 0.632866
O O13 0.014989 0.322812 0.500000
O O14 0.556439 0.500000 0.250000
O O15 0.500000 0.710963 0.250000
O O16 0.538639 0.633280 0.000000
O O17 0.941823 0.221224 0.634694
O O18 0.097649 0.000000 0.750000
#
# Coordination Sequence:
#
# PCOD9394444 Si02
#       7
#     8   8   8   4   8   4   8
#     4  11  24  44  68  94 129 166 208 260 320 384
#     4  12  26  44  68  97 130 167 213 264 319 383
#     4  11  24  42  64  93 129 172 219 268 328 386
#     4  11  25  39  67  89 131 169 209 265 320 383
#     4  10  21  37  61  91 126 169 216 269 325 386
#     4  11  23  45  59  95 127 169 213 259 324 383
#     4  11  24  41  66  94 126 166 213 263 319 384
#
# _framework density 19.592451000000001
#
# number of rings (size 3 to 8) (size 9 to 14) (size 15 to 20)
#    0.000    1.000    0.833    6.000    4.667    9.000 
#    0.000    1.667    0.000    0.000    0.000    0.000 
#    0.000    0.000    0.000    0.000    0.000    0.000 
#
# Total GULP energy -268121.706938 kJ/mol
# GULP energy per Si atom -5585.868895 kJ/mol
# Density = 1.954786 g / cm^3
# Si number density = 19.592451 Si / 1000 Ang^3
#
#
#
# Elastic Constant Matrix: (Units=GPa)
#
#
# Indices 1 2 3 4 5 6 
#
# 1 94.5113 69.7924 47.0167 0.0000 0.0000 0.0000
# 2 69.7924 115.5068 54.6892 0.0000 0.0000 0.0000
# 3 47.0167 54.6892 167.8588 0.0000 0.0000 0.0000
# 4 0.0000 0.0000 0.0000 23.2906 0.0000 0.0000
# 5 0.0000 0.0000 0.0000 0.0000 29.1106 0.0000
# 6 0.0000 0.0000 0.0000 0.0000 0.0000 35.6758
#
#
#
# Elastic Compliance Matrix: (Units=1/GPa)
#
#
# Indices 1 2 3 4 5 6 
#
# 1 0.019621 -0.010941 -0.001931 0.000000 0.000000 0.000000
# 2 -0.010941 0.016338 -0.002258 0.000000 0.000000 0.000000
# 3 -0.001931 -0.002258 0.007234 0.000000 0.000000 0.000000
# 4 0.000000 0.000000 0.000000 0.042936 0.000000 0.000000
# 5 0.000000 0.000000 0.000000 0.000000 0.034352 0.000000
# 6 0.000000 0.000000 0.000000 0.000000 0.000000 0.028030
#
#
# Mechanical properties :
#
#
# Convention : Reuss Voigt Hill
#
# Bulk Modulus (GPa) = 77.33025 80.09706 78.71365
# Shear Modulus (GPa) = 27.31011 31.37398 29.34204
#
# Velocity S-wave (km/s) = 3.73756 4.00600 3.87411
# Velocity P-wave (km/s) = 7.62764 7.89733 7.76365
#
# Compressibility (1/GPa) = 0.01293155
#
# Stress axis : x y z
#
# Youngs Moduli (GPa) = 50.96567 61.20791 138.23532
#
# Poissons Ratio (x) = 0.66969 0.26694
# Poissons Ratio (y) = 0.55763 0.31218
# Poissons Ratio (z) = 0.09842 0.13823
#
# Static dielectric constant tensor:
#      x y z
#    x 1.661500 0.000000 0.000000 
#    y 0.000000 1.661240 0.000000 
#    z 0.000000 0.000000 1.654570 
# 
# From -- ./inp_files/6918.got.cif
#   From: 2010.05.17/outbox.cif.g08.bks.cpg/sg49_4_cif.got.tgz:6918.got - 2010.06.03 21:02:19.
