data_PCOD9394594
_publ_section_title
;
Structure prediction by ZEFSAII (Michael W. Deem and Ramdas Pophale) SiO2 
 PCOD9394594
Probable space group: P C C M
;
_chemical_formula_sum "Si O2"
_cell_formula_units_Z 40
_cell_length_a 11.157898
_cell_length_b 9.297900
_cell_length_c 18.050345
_cell_angle_alpha 90.000000
_cell_angle_beta 90.000000
_cell_angle_gamma 90.000000
_cell_volume 1872.633400
_symmetry_space_group_name_H-M "P C C M"
_symmetry_group_IT_number 49
_symmetry_cell_setting 'orthorhombic'
loop_
_space_group_symop_operation_xyz
x,y,z
-x,-y,z
x,-y,1/2-z
-x,y,1/2-z
-x,-y,-z
x,y,-z
-x,y,1/2+z
x,-y,1/2+z
loop_
_atom_site_type_symbol
_atom_site_label
_atom_site_fract_x
_atom_site_fract_y
_atom_site_fract_z
Si Si1 0.872841 0.160425 0.221830
Si Si2 0.492263 0.826752 0.411020
Si Si3 0.133287 0.468463 0.082415
Si Si4 0.680837 0.354734 0.700912
Si Si5 0.230976 0.786810 0.921410
O O1 0.756909 0.252119 0.244847
O O2 0.862658 0.146396 0.134382
O O3 0.000000 0.220808 0.250000
O O4 0.861365 0.000000 0.250000
O O5 0.458278 0.802394 0.500000
O O6 0.417083 0.735321 0.348867
O O7 0.629822 0.782379 0.401716
O O8 0.500000 0.000000 0.398795
O O9 0.218392 0.391650 0.139851
O O10 0.192085 0.623157 0.073347
O O11 0.000000 0.500000 0.110784
O O12 0.124270 0.400297 0.000000
O O13 0.646932 0.500000 0.750000
O O14 0.224068 0.863592 0.000000
#
# Coordination Sequence:
#
# PCOD9394594 Si02
#       5
#     8   8   8   8   8
#     4  11  24  43  65  97 136 180 228 283 350 416
#     4  10  23  45  71  99 137 188 238 288 348 420
#     4  10  21  39  64  96 132 173 222 278 341 408
#     4  12  24  40  68 100 138 173 229 290 358 417
#     4  10  21  42  67  91 131 175 220 275 339 403
#
# _framework density 21.360292999999999
#
# number of rings (size 3 to 8) (size 9 to 14) (size 15 to 20)
#    0.000    1.400    2.000    3.000    0.000    1.600 
#    3.600    9.000    0.000    0.000    0.000    0.000 
#    0.000    2.400    0.000    0.000    0.000    0.000 
#
# Total GULP energy -222785.948775 kJ/mol
# GULP energy per Si atom -5569.648719 kJ/mol
# Density = 2.131168 g / cm^3
# Si number density = 21.360293 Si / 1000 Ang^3
#
#
#
# Elastic Constant Matrix: (Units=GPa)
#
#
# Indices 1 2 3 4 5 6 
#
# 1 150.8880 47.4191 73.2160 0.0000 0.0000 0.0000
# 2 47.4191 78.5193 33.7131 0.0000 0.0000 0.0000
# 3 73.2160 33.7131 134.5919 0.0000 0.0000 0.0000
# 4 0.0000 0.0000 0.0000 33.9708 0.0000 0.0000
# 5 0.0000 0.0000 0.0000 0.0000 32.4974 0.0000
# 6 0.0000 0.0000 0.0000 0.0000 0.0000 10.5293
#
#
#
# Elastic Compliance Matrix: (Units=1/GPa)
#
#
# Indices 1 2 3 4 5 6 
#
# 1 0.010102 -0.004192 -0.004445 0.000000 0.000000 0.000000
# 2 -0.004192 0.016010 -0.001730 0.000000 0.000000 0.000000
# 3 -0.004445 -0.001730 0.010281 0.000000 0.000000 0.000000
# 4 0.000000 0.000000 0.000000 0.029437 0.000000 0.000000
# 5 0.000000 0.000000 0.000000 0.000000 0.030772 0.000000
# 6 0.000000 0.000000 0.000000 0.000000 0.000000 0.094973
#
#
# Mechanical properties :
#
#
# Convention : Reuss Voigt Hill
#
# Bulk Modulus (GPa) = 63.86104 74.74393 69.30249
# Shear Modulus (GPa) = 22.98548 29.37624 26.18086
#
# Velocity S-wave (km/s) = 3.28393 3.71249 3.50477
# Velocity P-wave (km/s) = 6.65890 7.31059 6.99234
#
# Compressibility (1/GPa) = 0.01565900
#
# Stress axis : x y z
#
# Youngs Moduli (GPa) = 98.99213 62.46055 97.26407
#
# Poissons Ratio (x) = 0.26184 0.43236
# Poissons Ratio (y) = 0.41498 0.16825
# Poissons Ratio (z) = 0.44004 0.10805
#
# Static dielectric constant tensor:
#      x y z
#    x 1.735220 0.000000 0.000000 
#    y 0.000000 1.553980 0.000000 
#    z 0.000000 0.000000 1.998020 
# 
# From -- ./inp_files/16835.got.cif
#   From: 2010.05.17/outbox.cif.g08.bks.cpg/sg49_9_cif.got.tgz:16835.got - 2010.06.03 21:02:19.
