data_PCOD9394041
_publ_section_title
;
Structure prediction by ZEFSAII (Michael W. Deem and Ramdas Pophale) SiO2 
 PCOD9394041
Probable space group: P C C M
;
_chemical_formula_sum "Si O2"
_cell_formula_units_Z 64
_cell_length_a 20.149235
_cell_length_b 8.717489
_cell_length_c 15.118736
_cell_angle_alpha 90.000000
_cell_angle_beta 90.000000
_cell_angle_gamma 90.000000
_cell_volume 2655.617083
_symmetry_space_group_name_H-M "P C C M"
_symmetry_group_IT_number 49
_symmetry_cell_setting 'orthorhombic'
loop_
_space_group_symop_operation_xyz
x,y,z
-x,-y,z
x,-y,1/2-z
-x,y,1/2-z
-x,-y,-z
x,y,-z
-x,y,1/2+z
x,-y,1/2+z
loop_
_atom_site_type_symbol
_atom_site_label
_atom_site_fract_x
_atom_site_fract_y
_atom_site_fract_z
Si Si1 0.516123 0.664457 0.647191
Si Si2 0.099617 0.329202 0.602401
Si Si3 0.278256 0.211781 0.107271
Si Si4 0.853247 0.347774 0.607204
Si Si5 0.788270 0.889865 0.608049
Si Si6 0.023357 0.836710 0.350982
Si Si7 0.347205 0.222874 0.599608
Si Si8 0.589801 0.912386 0.155929
O O1 0.500000 0.500000 0.605043
O O2 0.500000 0.658584 0.750000
O O3 0.594506 0.683089 0.642164
O O4 0.472887 0.815328 0.619306
O O5 0.119655 0.340530 0.500000
O O6 0.117078 0.493038 0.641714
O O7 0.143598 0.187349 0.639090
O O8 0.022456 0.292392 0.605705
O O9 0.224626 0.341110 0.128637
O O10 0.348147 0.205727 0.157662
O O11 0.235845 0.059249 0.132701
O O12 0.290333 0.212193 0.000000
O O13 0.857397 0.337253 0.500000
O O14 0.900510 0.209524 0.639450
O O15 0.788989 0.895978 0.500000
O O16 0.726136 0.785503 0.638190
O O17 0.000000 0.836971 0.250000
O O18 0.000000 0.000000 0.389616
O O19 0.339953 0.278576 0.500000
O O20 0.378205 0.050070 0.599039
O O21 0.576933 0.000000 0.250000
#
# Coordination Sequence:
#
# PCOD9394041 Si02
#       8
#     8   8   8   8   8   8   8   8
#     4  11  24  40  57  83 122 160 197 243 302 365
#     4  10  20  36  62  89 116 155 195 238 296 361
#     4   9  19  37  60  87 119 153 198 250 292 348
#     4  10  21  38  60  87 119 155 195 240 298 361
#     4   8  16  33  56  84 113 144 187 238 287 332
#     4  11  24  40  56  83 117 156 202 252 295 344
#     4  10  21  38  63  91 117 152 202 252 292 351
#     4  11  21  38  63  89 117 161 200 247 297 356
#
# _framework density 24.09986
#
# number of rings (size 3 to 8) (size 9 to 14) (size 15 to 20)
#    0.000    2.000    1.250    3.000    0.000    6.750 
#    6.750    1.250    0.000    0.000    0.000    0.000 
#    0.000    0.000    0.000    0.000    0.000    0.000 
#
# Total GULP energy -357196.409724 kJ/mol
# GULP energy per Si atom -5581.193902 kJ/mol
# Density = 2.404501 g / cm^3
# Si number density = 24.099860 Si / 1000 Ang^3
#
#
#
# Elastic Constant Matrix: (Units=GPa)
#
#
# Indices 1 2 3 4 5 6 
#
# 1 109.6026 -1.9834 -1.6096 0.0000 0.0000 0.0000
# 2 -1.9834 55.0736 -6.0263 0.0000 0.0000 0.0000
# 3 -1.6096 -6.0263 44.9930 0.0000 0.0000 0.0000
# 4 0.0000 0.0000 0.0000 -23.0647 0.0000 0.0000
# 5 0.0000 0.0000 0.0000 0.0000 11.0905 0.0000
# 6 0.0000 0.0000 0.0000 0.0000 0.0000 10.9521
#
#
#
# Elastic Compliance Matrix: (Units=1/GPa)
#
#
# Indices 1 2 3 4 5 6 
#
# 1 0.009136 0.000370 0.000376 0.000000 0.000000 0.000000
# 2 0.000370 0.018443 0.002483 0.000000 0.000000 0.000000
# 3 0.000376 0.002483 0.022572 0.000000 0.000000 0.000000
# 4 0.000000 0.000000 0.000000 -0.043356 0.000000 0.000000
# 5 0.000000 0.000000 0.000000 0.000000 0.090168 0.000000
# 6 0.000000 0.000000 0.000000 0.000000 0.000000 0.091306
#
#
# Mechanical properties :
#
#
# Convention : Reuss Voigt Hill
#
# Bulk Modulus (GPa) = 17.66457 21.15898 19.41177
# Shear Modulus (GPa) = 24.91550 14.41481 19.66516
#
# Velocity S-wave (km/s) = 3.21883 2.44832 2.85965
# Velocity P-wave (km/s) = 4.60002 4.09770 4.35610
#
# Compressibility (1/GPa) = 0.05661051
#
# Stress axis : x y z
#
# Youngs Moduli (GPa) = 109.45595 54.22236 44.30313
#
# Poissons Ratio (x) = -0.02007 -0.01668
# Poissons Ratio (y) = -0.04052 -0.11002
# Poissons Ratio (z) = -0.04120 -0.13466
#
# Static dielectric constant tensor:
#      x y z
#    x 1.921200 0.000000 0.000000 
#    y 0.000000 2.005120 0.000000 
#    z 0.000000 0.000000 1.986980 
# 
# From -- ./inp_files/18319.got.cif
#   From: 2010.05.17/outbox.cif.g08.bks.cpg/sg49_10_cif.got.tgz:18319.got - 2010.06.03 21:02:19.
