data_PCOD9394044
_publ_section_title
;
Structure prediction by ZEFSAII (Michael W. Deem and Ramdas Pophale) SiO2 
 PCOD9394044
Probable space group: P C C M
;
_chemical_formula_sum "Si O2"
_cell_formula_units_Z 64
_cell_length_a 22.126273
_cell_length_b 5.361861
_cell_length_c 27.002202
_cell_angle_alpha 90.000000
_cell_angle_beta 90.000000
_cell_angle_gamma 90.000000
_cell_volume 3203.487248
_symmetry_space_group_name_H-M "P C C M"
_symmetry_group_IT_number 49
_symmetry_cell_setting 'orthorhombic'
loop_
_space_group_symop_operation_xyz
x,y,z
-x,-y,z
x,-y,1/2-z
-x,y,1/2-z
-x,-y,-z
x,y,-z
-x,y,1/2+z
x,-y,1/2+z
loop_
_atom_site_type_symbol
_atom_site_label
_atom_site_fract_x
_atom_site_fract_y
_atom_site_fract_z
Si Si1 0.435137 0.626342 0.441383
Si Si2 0.960704 0.247842 0.557400
Si Si3 0.833845 0.657544 0.103309
Si Si4 0.636650 0.760552 0.778678
Si Si5 0.225227 0.153062 0.559088
Si Si6 0.664831 0.330652 0.118568
Si Si7 0.566769 0.957285 0.857312
Si Si8 0.755191 0.607310 0.195379
O O1 0.500000 0.500000 0.427249
O O2 0.431685 0.633977 0.500000
O O3 0.375519 0.499137 0.418297
O O4 0.436340 0.893645 0.415166
O O5 0.939190 0.216875 0.500000
O O6 0.904032 0.291617 0.593082
O O7 0.000000 0.500000 0.558906
O O8 0.000000 0.000000 0.568910
O O9 0.813247 0.389673 0.080551
O O10 0.811862 0.666357 0.160558
O O11 0.800833 0.886832 0.075820
O O12 0.637204 0.500000 0.750000
O O13 0.595386 0.730785 0.826825
O O14 0.706069 0.822517 0.793508
O O15 0.611788 0.000000 0.750000
O O16 0.226163 0.171822 0.500000
O O17 0.291593 0.172426 0.582841
O O18 0.711798 0.443455 0.158753
O O19 0.615398 0.171760 0.147635
O O20 0.500000 0.000000 0.838690
O O21 0.770794 0.500000 0.250000
#
# Coordination Sequence:
#
# PCOD9394044 Si02
#       8
#     8   8   8   8   8   8   8   8
#     4  11  24  41  60  85 119 160 208 261 321 396
#     4  10  20  36  62  95 135 179 215 253 301 358
#     4  11  23  40  63  97 134 171 220 260 314 381
#     4  11  24  43  67  94 120 155 206 267 330 391
#     4  11  23  38  61  92 130 169 208 268 325 380
#     4  11  23  42  60  89 118 160 217 262 328 393
#     4  12  24  41  62  84 118 161 205 270 323 401
#     4  10  22  43  67  92 124 164 209 267 328 380
#
# _framework density 19.97823
#
# number of rings (size 3 to 8) (size 9 to 14) (size 15 to 20)
#    0.000    1.125    2.500    4.500    1.750    4.500 
#    0.000    2.500    0.000    0.750    0.000    0.875 
#    0.000    0.000    0.000    0.000    0.000    0.000 
#
# Total GULP energy -357047.661873 kJ/mol
# GULP energy per Si atom -5578.869717 kJ/mol
# Density = 1.993276 g / cm^3
# Si number density = 19.978230 Si / 1000 Ang^3
#
#
#
# Elastic Constant Matrix: (Units=GPa)
#
#
# Indices 1 2 3 4 5 6 
#
# 1 128.0946 25.6175 53.4432 0.0000 0.0000 0.0000
# 2 25.6175 74.7507 24.2057 0.0000 0.0000 0.0000
# 3 53.4432 24.2057 131.9049 0.0000 0.0000 0.0000
# 4 0.0000 0.0000 0.0000 28.0300 0.0000 0.0000
# 5 0.0000 0.0000 0.0000 0.0000 29.4109 0.0000
# 6 0.0000 0.0000 0.0000 0.0000 0.0000 29.4965
#
#
#
# Elastic Compliance Matrix: (Units=1/GPa)
#
#
# Indices 1 2 3 4 5 6 
#
# 1 0.009719 -0.002186 -0.003537 0.000000 0.000000 0.000000
# 2 -0.002186 0.014714 -0.001815 0.000000 0.000000 0.000000
# 3 -0.003537 -0.001815 0.009347 0.000000 0.000000 0.000000
# 4 0.000000 0.000000 0.000000 0.035676 0.000000 0.000000
# 5 0.000000 0.000000 0.000000 0.000000 0.034001 0.000000
# 6 0.000000 0.000000 0.000000 0.000000 0.000000 0.033902
#
#
# Mechanical properties :
#
#
# Convention : Reuss Voigt Hill
#
# Bulk Modulus (GPa) = 53.45657 60.14254 56.79956
# Shear Modulus (GPa) = 31.51181 32.81973 32.16577
#
# Velocity S-wave (km/s) = 3.97584 4.05751 4.01688
# Velocity P-wave (km/s) = 6.92040 7.21946 7.07151
#
# Compressibility (1/GPa) = 0.01870677
#
# Stress axis : x y z
#
# Youngs Moduli (GPa) = 102.88613 67.96036 106.98318
#
# Poissons Ratio (x) = 0.14853 0.37839
# Poissons Ratio (y) = 0.22487 0.19414
# Poissons Ratio (z) = 0.36390 0.12333
#
# Static dielectric constant tensor:
#      x y z
#    x 1.711800 0.000000 0.000000 
#    y 0.000000 1.782830 0.000000 
#    z 0.000000 0.000000 1.759900 
# 
# From -- ./inp_files/25228.got.cif
#   From: 2010.05.17/outbox.cif.g08.bks.cpg/sg49_13_cif.got.tgz:25228.got - 2010.06.03 21:02:19.
