data_PCOD9394667
_publ_section_title
;
Structure prediction by ZEFSAII (Michael W. Deem and Ramdas Pophale) SiO2 
 PCOD9394667
Probable space group: P C C M
;
_chemical_formula_sum "Si O2"
_cell_formula_units_Z 26
_cell_length_a 4.847287
_cell_length_b 10.454269
_cell_length_c 19.877512
_cell_angle_alpha 90.000000
_cell_angle_beta 90.000000
_cell_angle_gamma 90.000000
_cell_volume 1007.289784
_symmetry_space_group_name_H-M "P C C M"
_symmetry_group_IT_number 49
_symmetry_cell_setting 'orthorhombic'
loop_
_space_group_symop_operation_xyz
x,y,z
-x,-y,z
x,-y,1/2-z
-x,y,1/2-z
-x,-y,-z
x,y,-z
-x,y,1/2+z
x,-y,1/2+z
loop_
_atom_site_type_symbol
_atom_site_label
_atom_site_fract_x
_atom_site_fract_y
_atom_site_fract_z
Si Si1 0.191854 0.621978 0.000000
Si Si2 0.202730 0.622343 0.853203
Si Si3 0.314688 0.202192 0.147745
Si Si4 0.187770 0.128307 0.000000
Si Si5 0.500000 0.000000 0.250000
O O1 0.327586 0.608786 0.928395
O O2 0.000000 0.500000 0.000000
O O3 0.017592 0.750971 0.000000
O O4 0.478515 0.686403 0.823666
O O5 0.000000 0.500000 0.836299
O O6 0.985570 0.736528 0.852288
O O7 0.326711 0.087796 0.199920
O O8 0.356499 0.147776 0.070539
O O9 0.000000 0.000000 0.000000
#
# Coordination Sequence:
#
# PCOD9394667 Si02
#       5
#     4   8   8   4   2
#     4   8  17  34  63 101 138 173 223 294 364 415
#     4  10  21  43  72 104 139 184 239 300 367 435
#     4  11  26  45  70 105 143 191 239 301 364 436
#     4  10  23  43  73 109 143 193 252 306 360 438
#     4  12  32  48  70  98 156 192 244 288 376 428
#
# _framework density 25.811834999999999
#
# number of rings (size 3 to 8) (size 9 to 14) (size 15 to 20)
#    0.000    1.846    0.000    1.846    8.615    3.077 
#    0.000   13.846    0.000    0.000    0.000    0.000 
#    0.000    0.000    0.000    0.000    0.000    0.000 
#
# Total GULP energy -144857.167679 kJ/mol
# GULP energy per Si atom -5571.429526 kJ/mol
# Density = 2.575309 g / cm^3
# Si number density = 25.811835 Si / 1000 Ang^3
#
#
#
# Elastic Constant Matrix: (Units=GPa)
#
#
# Indices 1 2 3 4 5 6 
#
# 1 108.3672 37.5894 33.9936 0.0000 0.0000 0.0000
# 2 37.5894 164.9575 47.5941 0.0000 0.0000 0.0000
# 3 33.9936 47.5941 176.2965 0.0000 0.0000 0.0000
# 4 0.0000 0.0000 0.0000 20.6693 0.0000 0.0000
# 5 0.0000 0.0000 0.0000 0.0000 30.9096 0.0000
# 6 0.0000 0.0000 0.0000 0.0000 0.0000 65.8264
#
#
#
# Elastic Compliance Matrix: (Units=1/GPa)
#
#
# Indices 1 2 3 4 5 6 
#
# 1 0.010362 -0.001936 -0.001475 0.000000 0.000000 0.000000
# 2 -0.001936 0.006936 -0.001499 0.000000 0.000000 0.000000
# 3 -0.001475 -0.001499 0.006362 0.000000 0.000000 0.000000
# 4 0.000000 0.000000 0.000000 0.048381 0.000000 0.000000
# 5 0.000000 0.000000 0.000000 0.000000 0.032352 0.000000
# 6 0.000000 0.000000 0.000000 0.000000 0.000000 0.015191
#
#
# Mechanical properties :
#
#
# Convention : Reuss Voigt Hill
#
# Bulk Modulus (GPa) = 72.26004 76.44170 74.35087
# Shear Modulus (GPa) = 37.30854 45.51067 41.40960
#
# Velocity S-wave (km/s) = 3.80597 4.20357 4.00970
# Velocity P-wave (km/s) = 6.88256 7.29652 7.09256
#
# Compressibility (1/GPa) = 0.01383891
#
# Stress axis : x y z
#
# Youngs Moduli (GPa) = 96.50545 144.17980 157.19549
#
# Poissons Ratio (x) = 0.27906 0.23194
# Poissons Ratio (y) = 0.18679 0.23567
# Poissons Ratio (z) = 0.14239 0.21616
#
# Static dielectric constant tensor:
#      x y z
#    x 2.000670 0.000000 0.000000 
#    y 0.000000 2.010740 0.000000 
#    z 0.000000 0.000000 10.547070 
# 
# From -- ./inp_files/18628.got.cif
#   From: 2010.05.17/outbox.cif.g08.bks.cpg/sg49_10_cif.got.tgz:18628.got - 2010.06.03 21:02:19.
