data_PCOD9394643
_publ_section_title
;
Structure prediction by ZEFSAII (Michael W. Deem and Ramdas Pophale) SiO2 
 PCOD9394643
Probable space group: P C C M
;
_chemical_formula_sum "Si O2"
_cell_formula_units_Z 40
_cell_length_a 15.729328
_cell_length_b 5.362533
_cell_length_c 20.325317
_cell_angle_alpha 90.000000
_cell_angle_beta 90.000000
_cell_angle_gamma 90.000000
_cell_volume 1714.420986
_symmetry_space_group_name_H-M "P C C M"
_symmetry_group_IT_number 49
_symmetry_cell_setting 'orthorhombic'
loop_
_space_group_symop_operation_xyz
x,y,z
-x,-y,z
x,-y,1/2-z
-x,y,1/2-z
-x,-y,-z
x,y,-z
-x,y,1/2+z
x,-y,1/2+z
loop_
_atom_site_type_symbol
_atom_site_label
_atom_site_fract_x
_atom_site_fract_y
_atom_site_fract_z
Si Si1 0.317649 0.087613 0.178724
Si Si2 0.089327 0.361362 0.071099
Si Si3 0.584942 0.657913 0.927943
Si Si4 0.857881 0.254990 0.709530
Si Si5 0.253948 0.712155 0.071548
O O1 0.395376 0.167091 0.133124
O O2 0.243125 0.286883 0.193957
O O3 0.346588 0.000000 0.250000
O O4 0.267613 0.887861 0.133707
O O5 0.096835 0.217690 0.139421
O O6 0.166475 0.559977 0.074303
O O7 0.000000 0.500000 0.070913
O O8 0.097349 0.226840 0.000000
O O9 0.500000 0.500000 0.919314
O O10 0.666747 0.477118 0.929107
O O11 0.579946 0.783458 0.000000
O O12 0.886612 0.500000 0.750000
O O13 0.866926 0.000000 0.750000
O O14 0.255996 0.846543 0.000000
#
# Coordination Sequence:
#
# PCOD9394643 Si02
#       5
#     8   8   8   8   8
#     4  11  23  38  67  93 134 176 224 283 350 420
#     4  10  21  41  70 104 141 183 239 298 355 425
#     4  10  22  41  67  94 127 170 225 284 343 421
#     4  11  24  44  71  99 138 187 233 284 352 429
#     4  10  21  41  66  92 129 178 224 282 350 415
#
# _framework density 23.331492000000001
#
# number of rings (size 3 to 8) (size 9 to 14) (size 15 to 20)
#    0.000    1.600    2.000    3.000    0.000    2.000 
#    0.000   15.000    0.000   10.800    0.000    0.000 
#    0.000    0.000    0.000    0.000    0.000    0.000 
#
# Total GULP energy -223654.950803 kJ/mol
# GULP energy per Si atom -5591.373770 kJ/mol
# Density = 2.327839 g / cm^3
# Si number density = 23.331492 Si / 1000 Ang^3
#
#
#
# Elastic Constant Matrix: (Units=GPa)
#
#
# Indices 1 2 3 4 5 6 
#
# 1 140.7285 22.8157 44.4742 0.0000 0.0000 0.0000
# 2 22.8157 54.1604 59.6787 0.0000 0.0000 0.0000
# 3 44.4742 59.6787 267.0990 0.0000 0.0000 0.0000
# 4 0.0000 0.0000 0.0000 34.6794 0.0000 0.0000
# 5 0.0000 0.0000 0.0000 0.0000 36.8773 0.0000
# 6 0.0000 0.0000 0.0000 0.0000 0.0000 18.7843
#
#
#
# Elastic Compliance Matrix: (Units=1/GPa)
#
#
# Indices 1 2 3 4 5 6 
#
# 1 0.007736 -0.002440 -0.000743 0.000000 0.000000 0.000000
# 2 -0.002440 0.025264 -0.005238 0.000000 0.000000 0.000000
# 3 -0.000743 -0.005238 0.005038 0.000000 0.000000 0.000000
# 4 0.000000 0.000000 0.000000 0.028836 0.000000 0.000000
# 5 0.000000 0.000000 0.000000 0.000000 0.027117 0.000000
# 6 0.000000 0.000000 0.000000 0.000000 0.000000 0.053236
#
#
# Mechanical properties :
#
#
# Convention : Reuss Voigt Hill
#
# Bulk Modulus (GPa) = 47.18148 79.54725 63.36437
# Shear Modulus (GPa) = 29.21667 40.40283 34.80975
#
# Velocity S-wave (km/s) = 3.54254 4.16587 3.86679
# Velocity P-wave (km/s) = 6.08268 7.57018 6.86683
#
# Compressibility (1/GPa) = 0.02119476
#
# Stress axis : x y z
#
# Youngs Moduli (GPa) = 129.26056 39.58217 198.48885
#
# Poissons Ratio (x) = 0.09660 0.14745
# Poissons Ratio (y) = 0.31545 1.03977
# Poissons Ratio (z) = 0.09603 0.20735
#
# Static dielectric constant tensor:
#      x y z
#    x 1.870340 0.000000 0.000000 
#    y 0.000000 1.918460 0.000000 
#    z 0.000000 0.000000 1.935550 
# 
# From -- ./inp_files/18064.got.cif
#   From: 2010.05.17/outbox.cif.g08.bks.cpg/sg49_10_cif.got.tgz:18064.got - 2010.06.03 21:02:19.
