data_PCOD9394620
_publ_section_title
;
Structure prediction by ZEFSAII (Michael W. Deem and Ramdas Pophale) SiO2 
 PCOD9394620
Probable space group: P C C M
;
_chemical_formula_sum "Si O2"
_cell_formula_units_Z 56
_cell_length_a 8.737766
_cell_length_b 16.180899
_cell_length_c 20.264658
_cell_angle_alpha 90.000000
_cell_angle_beta 90.000000
_cell_angle_gamma 90.000000
_cell_volume 2865.116830
_symmetry_space_group_name_H-M "P C C M"
_symmetry_group_IT_number 49
_symmetry_cell_setting 'orthorhombic'
loop_
_space_group_symop_operation_xyz
x,y,z
-x,-y,z
x,-y,1/2-z
-x,y,1/2-z
-x,-y,-z
x,y,-z
-x,y,1/2+z
x,-y,1/2+z
loop_
_atom_site_type_symbol
_atom_site_label
_atom_site_fract_x
_atom_site_fract_y
_atom_site_fract_z
Si Si1 0.829567 0.267076 0.241995
Si Si2 0.910681 0.415782 0.154415
Si Si3 0.180448 0.004436 0.169476
Si Si4 0.193337 0.688004 0.612013
Si Si5 0.322371 0.517126 0.572985
Si Si6 0.591734 0.856206 0.320183
Si Si7 0.324520 0.146195 0.923441
O O1 0.855899 0.357963 0.213030
O O2 0.769440 0.280809 0.314712
O O3 0.712026 0.215304 0.199123
O O4 0.000000 0.227067 0.250000
O O5 0.766199 0.450850 0.116232
O O6 0.000000 0.500000 0.172540
O O7 0.025094 0.354758 0.114038
O O8 0.301790 0.931535 0.155244
O O9 0.185137 0.000000 0.250000
O O10 0.241245 0.081426 0.126084
O O11 0.000000 0.000000 0.152904
O O12 0.298729 0.611256 0.594289
O O13 0.223462 0.770354 0.571643
O O14 0.500000 0.500000 0.572649
O O15 0.255126 0.509870 0.500000
O O16 0.500000 0.874472 0.250000
O O17 0.478248 0.835155 0.380602
O O18 0.350892 0.117975 0.000000
#
# Coordination Sequence:
#
# PCOD9394620 Si02
#       7
#     8   8   8   8   8   8   8
#     4  10  22  39  68  98 132 166 225 282 331 393
#     4   9  21  38  63  94 128 173 223 280 337 397
#     4  11  25  43  73 102 134 177 228 278 331 406
#     4  10  21  40  64  90 127 172 216 272 329 402
#     4  10  22  38  57  85 127 174 220 270 335 403
#     4  12  24  42  71 101 135 177 224 273 340 409
#     4  12  27  46  69 102 141 179 223 284 345 411
#
# _framework density 19.545451
#
# number of rings (size 3 to 8) (size 9 to 14) (size 15 to 20)
#    0.000    1.429    2.857    0.857    8.000   11.143 
#    0.000    0.714    0.000    0.000    0.000    0.000 
#    0.000    0.000    0.000    0.000    0.000    0.000 
#
# Total GULP energy -312010.240744 kJ/mol
# GULP energy per Si atom -5571.611442 kJ/mol
# Density = 1.950096 g / cm^3
# Si number density = 19.545451 Si / 1000 Ang^3
#
#
#
# Elastic Constant Matrix: (Units=GPa)
#
#
# Indices 1 2 3 4 5 6 
#
# 1 74.7667 49.2644 52.1622 0.0000 0.0000 0.0000
# 2 49.2644 111.1131 47.0871 0.0000 0.0000 0.0000
# 3 52.1622 47.0871 119.7481 0.0000 0.0000 0.0000
# 4 0.0000 0.0000 0.0000 2.7823 0.0000 0.0000
# 5 0.0000 0.0000 0.0000 0.0000 64.2211 0.0000
# 6 0.0000 0.0000 0.0000 0.0000 0.0000 2.4746
#
#
#
# Elastic Compliance Matrix: (Units=1/GPa)
#
#
# Indices 1 2 3 4 5 6 
#
# 1 0.023193 -0.007202 -0.007271 0.000000 0.000000 0.000000
# 2 -0.007202 0.013036 -0.001989 0.000000 0.000000 0.000000
# 3 -0.007271 -0.001989 0.012300 0.000000 0.000000 0.000000
# 4 0.000000 0.000000 0.000000 0.359416 0.000000 0.000000
# 5 0.000000 0.000000 0.000000 0.000000 0.015571 0.000000
# 6 0.000000 0.000000 0.000000 0.000000 0.000000 0.404105
#
#
# Mechanical properties :
#
#
# Convention : Reuss Voigt Hill
#
# Bulk Modulus (GPa) = 64.07921 66.96170 65.52046
# Shear Modulus (GPa) = 5.77537 24.36988 15.07262
#
# Velocity S-wave (km/s) = 1.72083 3.53488 2.77998
# Velocity P-wave (km/s) = 6.06665 7.14103 6.62565
#
# Compressibility (1/GPa) = 0.01560569
#
# Stress axis : x y z
#
# Youngs Moduli (GPa) = 43.11639 76.71221 81.30020
#
# Poissons Ratio (x) = 0.55247 0.59113
# Poissons Ratio (y) = 0.31052 0.16169
# Poissons Ratio (z) = 0.31350 0.15256
#
# Static dielectric constant tensor:
#      x y z
#    x 1.707120 0.000000 0.000000 
#    y 0.000000 1.761200 0.000000 
#    z 0.000000 0.000000 1.712940 
# 
# From -- ./inp_files/19888.got.cif
#   From: 2010.05.17/outbox.cif.g08.bks.cpg/sg49_10_cif.got.tgz:19888.got - 2010.06.03 21:02:19.
