data_PCOD9395090
_publ_section_title
;
Structure prediction by ZEFSAII (Michael W. Deem and Ramdas Pophale) SiO2 
 PCOD9395090
Probable space group: P C C M
;
_chemical_formula_sum "Si O2"
_cell_formula_units_Z 48
_cell_length_a 8.688219
_cell_length_b 14.652172
_cell_length_c 17.881440
_cell_angle_alpha 90.000000
_cell_angle_beta 90.000000
_cell_angle_gamma 90.000000
_cell_volume 2276.330185
_symmetry_space_group_name_H-M "P C C M"
_symmetry_group_IT_number 49
_symmetry_cell_setting 'orthorhombic'
loop_
_space_group_symop_operation_xyz
x,y,z
-x,-y,z
x,-y,1/2-z
-x,y,1/2-z
-x,-y,-z
x,y,-z
-x,y,1/2+z
x,-y,1/2+z
loop_
_atom_site_type_symbol
_atom_site_label
_atom_site_fract_x
_atom_site_fract_y
_atom_site_fract_z
Si Si1 0.151895 0.121911 0.364675
Si Si2 0.673602 0.829247 0.779792
Si Si3 0.827495 0.485400 0.160274
Si Si4 0.397991 0.360385 0.821353
Si Si5 0.191158 0.083031 0.087045
Si Si6 0.312786 0.308070 0.587432
O O1 0.209029 0.124552 0.278615
O O2 0.234559 0.210089 0.399400
O O3 0.968917 0.122564 0.378961
O O4 0.196796 0.025888 0.402049
O O5 0.500000 0.836415 0.750000
O O6 0.707329 0.721410 0.789173
O O7 0.680517 0.874894 0.860334
O O8 0.831583 0.500000 0.250000
O O9 0.699709 0.560917 0.139389
O O10 0.776387 0.386678 0.132757
O O11 0.000000 0.500000 0.131615
O O12 0.500000 0.393654 0.750000
O O13 0.516381 0.313633 0.878429
O O14 0.200383 0.105545 0.000000
O O15 0.312880 0.329186 0.500000
#
# Coordination Sequence:
#
# PCOD9395090 Si02
#       6
#     8   8   8   8   8   8
#     4  11  22  46  69  97 137 185 234 277 348 429
#     4  11  23  44  70 100 132 181 235 281 344 427
#     4  11  24  41  69 100 132 176 227 275 338 415
#     4  11  22  45  67  96 134 180 223 275 341 413
#     4  11  25  43  68 100 140 182 227 295 355 412
#     4  12  25  43  71 100 133 178 228 287 347 415
#
# _framework density 21.086573000000001
#
# number of rings (size 3 to 8) (size 9 to 14) (size 15 to 20)
#    0.000    0.833    5.000    3.500    2.333    5.000 
#    0.000    0.833    0.000    0.000    0.000    0.000 
#    0.000    0.000    0.000    0.000    0.000    0.000 
#
# Total GULP energy -268276.815039 kJ/mol
# GULP energy per Si atom -5589.100313 kJ/mol
# Density = 2.103858 g / cm^3
# Si number density = 21.086573 Si / 1000 Ang^3
#
#
#
# Elastic Constant Matrix: (Units=GPa)
#
#
# Indices 1 2 3 4 5 6 
#
# 1 75.2479 69.6089 35.0555 0.0000 0.0000 0.0000
# 2 69.6089 101.7443 40.9257 0.0000 0.0000 0.0000
# 3 35.0555 40.9257 131.1124 0.0000 0.0000 0.0000
# 4 0.0000 0.0000 0.0000 19.5050 0.0000 0.0000
# 5 0.0000 0.0000 0.0000 0.0000 12.0739 0.0000
# 6 0.0000 0.0000 0.0000 0.0000 0.0000 63.2073
#
#
#
# Elastic Compliance Matrix: (Units=1/GPa)
#
#
# Indices 1 2 3 4 5 6 
#
# 1 0.036778 -0.024251 -0.002263 0.000000 0.000000 0.000000
# 2 -0.024251 0.027231 -0.002016 0.000000 0.000000 0.000000
# 3 -0.002263 -0.002016 0.008861 0.000000 0.000000 0.000000
# 4 0.000000 0.000000 0.000000 0.051269 0.000000 0.000000
# 5 0.000000 0.000000 0.000000 0.000000 0.082823 0.000000
# 6 0.000000 0.000000 0.000000 0.000000 0.000000 0.015821
#
#
# Mechanical properties :
#
#
# Convention : Reuss Voigt Hill
#
# Bulk Modulus (GPa) = 63.25469 66.58721 64.92095
# Shear Modulus (GPa) = 17.53683 29.79152 23.66417
#
# Velocity S-wave (km/s) = 2.88698 3.76283 3.35362
# Velocity P-wave (km/s) = 6.41682 7.10810 6.77129
#
# Compressibility (1/GPa) = 0.01580910
#
# Stress axis : x y z
#
# Youngs Moduli (GPa) = 27.19042 36.72285 112.84811
#
# Poissons Ratio (x) = 0.89057 0.25542
# Poissons Ratio (y) = 0.65940 0.22749
# Poissons Ratio (z) = 0.06154 0.07403
#
# Static dielectric constant tensor:
#      x y z
#    x 1.797120 0.000000 0.000000 
#    y 0.000000 1.771920 0.000000 
#    z 0.000000 0.000000 1.764010 
# 
# From -- ./inp_files/16272.got.cif
#   From: 2010.05.17/outbox.cif.g08.bks.cpg/sg49_9_cif.got.tgz:16272.got - 2010.06.03 21:02:19.
