data_PCOD9395362
_publ_section_title
;
Structure prediction by ZEFSAII (Michael W. Deem and Ramdas Pophale) SiO2 
 PCOD9395362
Probable space group: P B A N
;
_chemical_formula_sum "Si O2"
_cell_formula_units_Z 32
_cell_length_a 5.463843
_cell_length_b 16.656502
_cell_length_c 14.782368
_cell_angle_alpha 90.000000
_cell_angle_beta 90.000000
_cell_angle_gamma 90.000000
_cell_volume 1345.321313
_symmetry_space_group_name_H-M "P B A N"
_symmetry_group_IT_number 50
_space_group.IT_coordinate_system_code '2'
_symmetry_cell_setting 'orthorhombic'
loop_
_space_group_symop_operation_xyz
x,y,z
1/2-x,1/2-y,z
x,1/2-y,-z
1/2-x,y,-z
-x,-y,-z
1/2+x,1/2+y,-z
-x,1/2+y,z
1/2+x,-y,z
loop_
_atom_site_type_symbol
_atom_site_label
_atom_site_fract_x
_atom_site_fract_y
_atom_site_fract_z
Si Si1 0.712694 0.399679 0.396486
Si Si2 0.498892 0.218418 0.103145
Si Si3 0.293342 0.423029 0.673620
Si Si4 0.362149 0.037319 0.118005
O O1 0.750000 0.375409 0.500000
O O2 0.456861 0.377072 0.349151
O O3 0.708582 0.497601 0.389806
O O4 0.958466 0.374797 0.344253
O O5 0.750000 0.250000 0.145351
O O6 0.474178 0.123624 0.097052
O O7 0.250000 0.250000 0.148360
O O8 0.498906 0.250000 0.000000
O O9 0.319525 0.459889 0.773557
O O10 0.580764 0.977126 0.087888
#
# Coordination Sequence:
#
# PCOD9395362 Si02
#       4
#     8   8   8   8
#     4  10  16  25  41  68 120 162 177 219 304 357
#     4  10  23  45  64  85 122 159 194 248 312 388
#     4  10  16  27  41  73 112 147 190 233 283 342
#     4  12  21  37  62  92 117 154 200 262 303 352
#
# _framework density 23.786138000000001
#
# number of rings (size 3 to 8) (size 9 to 14) (size 15 to 20)
#    0.000    1.500    5.000    5.250    0.000    0.000 
#    0.000   15.000    0.000    0.000    0.000    0.000 
#    0.000   24.000    0.000    0.000    0.000    0.000 
#
# Total GULP energy -178583.600738 kJ/mol
# GULP energy per Si atom -5580.737523 kJ/mol
# Density = 2.373200 g / cm^3
# Si number density = 23.786138 Si / 1000 Ang^3
#
#
#
# Elastic Constant Matrix: (Units=GPa)
#
#
# Indices 1 2 3 4 5 6 
#
# 1 301.2394 20.3598 40.7479 0.0000 0.0000 0.0000
# 2 20.3598 49.2567 1.9681 0.0000 0.0000 0.0000
# 3 40.7479 1.9681 52.8083 0.0000 0.0000 0.0000
# 4 0.0000 0.0000 0.0000 -4.5062 0.0000 0.0000
# 5 0.0000 0.0000 0.0000 0.0000 7.4826 0.0000
# 6 0.0000 0.0000 0.0000 0.0000 0.0000 20.3528
#
#
#
# Elastic Compliance Matrix: (Units=1/GPa)
#
#
# Indices 1 2 3 4 5 6 
#
# 1 0.003808 -0.001459 -0.002884 0.000000 0.000000 0.000000
# 2 -0.001459 0.020891 0.000347 0.000000 0.000000 0.000000
# 3 -0.002884 0.000347 0.021149 0.000000 0.000000 0.000000
# 4 0.000000 0.000000 0.000000 -0.221917 0.000000 0.000000
# 5 0.000000 0.000000 0.000000 0.000000 0.133644 0.000000
# 6 0.000000 0.000000 0.000000 0.000000 0.000000 0.049133
#
#
# Mechanical properties :
#
#
# Convention : Reuss Voigt Hill
#
# Bulk Modulus (GPa) = 26.41566 58.82844 42.62205
# Shear Modulus (GPa) = 183.02124 27.34774 105.18449
#
# Velocity S-wave (km/s) = 8.78132 3.39445 6.65710
# Velocity P-wave (km/s) = 10.67450 6.33632 8.77764
#
# Compressibility (1/GPa) = 0.03785633
#
# Stress axis : x y z
#
# Youngs Moduli (GPa) = 262.57989 47.86762 47.28351
#
# Poissons Ratio (x) = 0.06983 0.13638
# Poissons Ratio (y) = 0.38308 -0.01641
# Poissons Ratio (z) = 0.75734 -0.01662
#
# Static dielectric constant tensor:
#      x y z
#    x 2.026220 0.000000 0.000000 
#    y 0.000000 1.947990 0.000000 
#    z 0.000000 0.000000 1.933620 
# 
# From -- ./inp_files/23665.got.cif
#   From: 2010.05.17/outbox.cif.g08.bks.cpg/sg50_12_cif.got.tgz:23665.got - 2010.06.03 11:33:33.
