data_PCOD9395796
_publ_section_title
;
Structure prediction by ZEFSAII (Michael W. Deem and Ramdas Pophale) SiO2 
 PCOD9395796
Probable space group: P B A N
;
_chemical_formula_sum "Si O2"
_cell_formula_units_Z 40
_cell_length_a 17.296728
_cell_length_b 5.359537
_cell_length_c 19.031835
_cell_angle_alpha 90.000000
_cell_angle_beta 90.000000
_cell_angle_gamma 90.000000
_cell_volume 1764.297803
_symmetry_space_group_name_H-M "P B A N"
_symmetry_group_IT_number 50
_space_group.IT_coordinate_system_code '2'
_symmetry_cell_setting 'orthorhombic'
loop_
_space_group_symop_operation_xyz
x,y,z
1/2-x,1/2-y,z
x,1/2-y,-z
1/2-x,y,-z
-x,-y,-z
1/2+x,1/2+y,-z
-x,1/2+y,z
1/2+x,-y,z
loop_
_atom_site_type_symbol
_atom_site_label
_atom_site_fract_x
_atom_site_fract_y
_atom_site_fract_z
Si Si1 0.289430 0.000449 0.100924
Si Si2 0.222801 0.503573 0.743671
Si Si3 0.951242 0.274220 0.575722
Si Si4 0.447405 0.634802 0.271023
Si Si5 0.531086 0.009856 0.919844
O O1 0.250000 0.750000 0.075102
O O2 0.275166 0.001351 0.184918
O O3 0.378061 0.002871 0.081369
O O4 0.250000 0.250000 0.074772
O O5 0.250000 0.750000 0.704509
O O6 0.132805 0.542162 0.765333
O O7 0.250000 0.250000 0.706975
O O8 0.910751 0.250000 0.500000
O O9 0.979450 0.563407 0.575911
O O10 0.915341 0.184331 0.649019
O O11 0.492432 0.901974 0.261754
O O12 0.504310 0.265581 0.885344
O O13 0.500000 0.000000 0.000000
#
# Coordination Sequence:
#
# PCOD9395796 Si02
#       5
#     8   8   8   8   8
#     4  10  21  40  60  83 114 149 182 222 286 347
#     4  10  21  38  55  79 113 152 185 225 285 345
#     4   8  14  25  44  73 105 134 172 224 273 312
#     4  10  19  33  55  82 108 142 190 236 273 324
#     4  10  21  40  62  88 113 142 186 234 274 327
#
# _framework density 22.671911000000001
#
# number of rings (size 3 to 8) (size 9 to 14) (size 15 to 20)
#    0.000    2.400    0.000    2.400    0.000    0.000 
#    0.000   36.000    0.000    0.600    0.000    1.400 
#    0.000    0.000    0.000    0.000    0.000    0.000 
#
# Total GULP energy -222790.216459 kJ/mol
# GULP energy per Si atom -5569.755411 kJ/mol
# Density = 2.262031 g / cm^3
# Si number density = 22.671911 Si / 1000 Ang^3
#
#
#
# Elastic Constant Matrix: (Units=GPa)
#
#
# Indices 1 2 3 4 5 6 
#
# 1 187.5778 80.3167 0.2592 0.0000 0.0000 0.0000
# 2 80.3167 257.1378 -13.0056 0.0000 0.0000 0.0000
# 3 0.2592 -13.0056 78.7264 0.0000 0.0000 0.0000
# 4 0.0000 0.0000 0.0000 24.9979 0.0000 0.0000
# 5 0.0000 0.0000 0.0000 0.0000 12.9738 0.0000
# 6 0.0000 0.0000 0.0000 0.0000 0.0000 36.6209
#
#
#
# Elastic Compliance Matrix: (Units=1/GPa)
#
#
# Indices 1 2 3 4 5 6 
#
# 1 0.006163 -0.001942 -0.000341 0.000000 0.000000 0.000000
# 2 -0.001942 0.004534 0.000755 0.000000 0.000000 0.000000
# 3 -0.000341 0.000755 0.012828 0.000000 0.000000 0.000000
# 4 0.000000 0.000000 0.000000 0.040003 0.000000 0.000000
# 5 0.000000 0.000000 0.000000 0.000000 0.077078 0.000000
# 6 0.000000 0.000000 0.000000 0.000000 0.000000 0.027307
#
#
# Mechanical properties :
#
#
# Convention : Reuss Voigt Hill
#
# Bulk Modulus (GPa) = 48.85437 73.17585 61.01511
# Shear Modulus (GPa) = 28.12258 45.30996 36.71627
#
# Velocity S-wave (km/s) = 3.52577 4.47532 4.02862
# Velocity P-wave (km/s) = 6.17818 7.68444 6.97211
#
# Compressibility (1/GPa) = 0.02046900
#
# Stress axis : x y z
#
# Youngs Moduli (GPa) = 162.25176 220.56260 77.95372
#
# Poissons Ratio (x) = 0.42841 0.02660
# Poissons Ratio (y) = 0.31515 -0.05889
# Poissons Ratio (z) = 0.05536 -0.16661
#
# Static dielectric constant tensor:
#      x y z
#    x 1.790690 0.000000 0.000000 
#    y 0.000000 1.989880 0.000000 
#    z 0.000000 0.000000 2.266670 
# 
# From -- ./inp_files/31716.got.cif
#   From: 2010.05.17/outbox.cif.g08.bks.cpg/sg50_16_cif.got.tgz:31716.got - 2010.06.03 11:33:33.
