data_PCOD9395954
_publ_section_title
;
Structure prediction by ZEFSAII (Michael W. Deem and Ramdas Pophale) SiO2 
 PCOD9395954
Probable space group: P B A N
;
_chemical_formula_sum "Si O2"
_cell_formula_units_Z 48
_cell_length_a 9.244988
_cell_length_b 16.742250
_cell_length_c 15.012058
_cell_angle_alpha 90.000000
_cell_angle_beta 90.000000
_cell_angle_gamma 90.000000
_cell_volume 2323.594865
_symmetry_space_group_name_H-M "P B A N"
_symmetry_group_IT_number 50
_space_group.IT_coordinate_system_code '2'
_symmetry_cell_setting 'orthorhombic'
loop_
_space_group_symop_operation_xyz
x,y,z
1/2-x,1/2-y,z
x,1/2-y,-z
1/2-x,y,-z
-x,-y,-z
1/2+x,1/2+y,-z
-x,1/2+y,z
1/2+x,-y,z
loop_
_atom_site_type_symbol
_atom_site_label
_atom_site_fract_x
_atom_site_fract_y
_atom_site_fract_z
Si Si1 0.394306 0.056239 0.444568
Si Si2 0.250000 0.750000 0.756065
Si Si3 0.037379 0.005769 0.150044
Si Si4 0.250000 0.250000 0.668872
Si Si5 0.035374 0.776279 0.406010
Si Si6 0.790491 0.924058 0.259233
Si Si7 0.284473 0.614655 0.905581
O O1 0.250000 0.075353 0.500000
O O2 0.489430 0.132660 0.419052
O O3 0.332168 0.028116 0.349234
O O4 0.500000 0.000000 0.500000
O O5 0.121458 0.735754 0.685254
O O6 0.272167 0.674249 0.821367
O O7 0.133594 0.049450 0.225159
O O8 0.941408 0.071615 0.098435
O O9 0.159345 0.953259 0.101240
O O10 0.916407 0.947216 0.190705
O O11 0.386295 0.228451 0.607952
O O12 0.212261 0.170797 0.723647
O O13 0.100899 0.750000 0.500000
O O14 0.250000 0.655156 0.000000
#
# Coordination Sequence:
#
# PCOD9395954 Si02
#       7
#     8   4   8   4   8   8   8
#     4  11  23  37  58  88 126 169 214 264 314 374
#     4  12  26  42  64  92 126 166 210 262 322 386
#     4  10  22  38  63  91 122 157 199 259 318 380
#     4  10  19  36  60  84 119 168 209 248 300 362
#     4  11  23  40  59  86 121 162 206 253 304 363
#     4  10  20  37  57  88 124 163 209 252 307 375
#     4  11  23  43  66  93 123 160 206 261 324 392
#
# _framework density 20.657646
#
# number of rings (size 3 to 8) (size 9 to 14) (size 15 to 20)
#    0.000    1.333    0.000    7.250    0.000    5.333 
#    0.000    0.000    0.000    0.000    0.000   15.167 
#    0.000    0.000    0.000    0.000    0.000    0.000 
#
# Total GULP energy -267821.906520 kJ/mol
# GULP energy per Si atom -5579.623053 kJ/mol
# Density = 2.061063 g / cm^3
# Si number density = 20.657646 Si / 1000 Ang^3
#
#
#
# Elastic Constant Matrix: (Units=GPa)
#
#
# Indices 1 2 3 4 5 6 
#
# 1 147.1447 45.5236 54.0648 0.0000 0.0000 0.0000
# 2 45.5236 82.3844 43.5795 0.0000 0.0000 0.0000
# 3 54.0648 43.5795 133.1950 0.0000 0.0000 0.0000
# 4 0.0000 0.0000 0.0000 14.9916 0.0000 0.0000
# 5 0.0000 0.0000 0.0000 0.0000 27.6413 0.0000
# 6 0.0000 0.0000 0.0000 0.0000 0.0000 2.9607
#
#
#
# Elastic Compliance Matrix: (Units=1/GPa)
#
#
# Indices 1 2 3 4 5 6 
#
# 1 0.008785 -0.003589 -0.002392 0.000000 0.000000 0.000000
# 2 -0.003589 0.016145 -0.003826 0.000000 0.000000 0.000000
# 3 -0.002392 -0.003826 0.009730 0.000000 0.000000 0.000000
# 4 0.000000 0.000000 0.000000 0.066704 0.000000 0.000000
# 5 0.000000 0.000000 0.000000 0.000000 0.036178 0.000000
# 6 0.000000 0.000000 0.000000 0.000000 0.000000 0.337760
#
#
# Mechanical properties :
#
#
# Convention : Reuss Voigt Hill
#
# Bulk Modulus (GPa) = 66.45554 72.11776 69.28665
# Shear Modulus (GPa) = 10.00137 23.75579 16.87858
#
# Velocity S-wave (km/s) = 2.20272 3.39481 2.86153
# Velocity P-wave (km/s) = 6.22166 7.09599 6.67316
#
# Compressibility (1/GPa) = 0.01504766
#
# Stress axis : x y z
#
# Youngs Moduli (GPa) = 113.82702 61.93765 102.77270
#
# Poissons Ratio (x) = 0.22232 0.24579
# Poissons Ratio (y) = 0.40857 0.39316
# Poissons Ratio (z) = 0.27223 0.23694
#
# Static dielectric constant tensor:
#      x y z
#    x 1.791320 0.000000 0.000000 
#    y 0.000000 1.750410 0.000000 
#    z 0.000000 0.000000 1.796260 
# 
# From -- ./inp_files/25058.got.cif
#   From: 2010.05.17/outbox.cif.g08.bks.cpg/sg50_13_cif.got.tgz:25058.got - 2010.06.03 11:33:33.
