data_PCOD9395676
_publ_section_title
;
Structure prediction by ZEFSAII (Michael W. Deem and Ramdas Pophale) SiO2 
 PCOD9395676
Probable space group: P B A N
;
_chemical_formula_sum "Si O2"
_cell_formula_units_Z 48
_cell_length_a 14.439217
_cell_length_b 36.164072
_cell_length_c 4.995583
_cell_angle_alpha 90.000000
_cell_angle_beta 90.000000
_cell_angle_gamma 90.000000
_cell_volume 2608.597943
_symmetry_space_group_name_H-M "P B A N"
_symmetry_group_IT_number 50
_space_group.IT_coordinate_system_code '2'
_symmetry_cell_setting 'orthorhombic'
loop_
_space_group_symop_operation_xyz
x,y,z
1/2-x,1/2-y,z
x,1/2-y,-z
1/2-x,y,-z
-x,-y,-z
1/2+x,1/2+y,-z
-x,1/2+y,z
1/2+x,-y,z
loop_
_atom_site_type_symbol
_atom_site_label
_atom_site_fract_x
_atom_site_fract_y
_atom_site_fract_z
Si Si1 0.853310 0.936108 0.566754
Si Si2 0.030644 0.041152 0.933754
Si Si3 0.944928 0.635620 0.550654
Si Si4 0.555249 0.113838 0.949548
Si Si5 0.529183 0.291600 0.434569
Si Si6 0.853450 0.314072 0.065612
O O1 0.750000 0.948373 0.500000
O O2 0.888683 0.946258 0.860772
O O3 0.862272 0.891808 0.521704
O O4 0.926932 0.953969 0.360532
O O5 0.947260 0.070622 0.981005
O O6 0.000000 0.000000 0.000000
O O7 0.027544 0.619764 0.358899
O O8 0.947232 0.678749 0.481187
O O9 0.972903 0.629708 0.858770
O O10 0.637729 0.141524 0.022029
O O11 0.502266 0.250000 0.500000
O O12 0.573550 0.296335 0.142339
O O13 0.610738 0.303536 0.641348
O O14 0.750000 0.301749 0.000000
#
# Coordination Sequence:
#
# PCOD9395676 Si02
#       6
#     8   8   8   8   8   8
#     4  10  19  33  53  76  98 123 161 202 236 276
#     4  10  19  33  53  74 100 130 158 194 241 291
#     4   8  16  30  47  65  88 119 152 186 227 279
#     4   8  16  30  46  63  86 122 158 183 222 279
#     4  10  19  30  45  65  89 119 155 193 235 283
#     4  10  19  30  43  62  90 122 157 194 230 272
#
# _framework density 18.400687999999999
#
# number of rings (size 3 to 8) (size 9 to 14) (size 15 to 20)
#    0.000    2.667    0.000    2.000    0.000    2.000 
#    0.000    1.667    0.000    0.500    0.000    0.000 
#    0.000   16.000    0.000    0.000    0.000    2.667 
#
# Total GULP energy -267333.323994 kJ/mol
# GULP energy per Si atom -5569.444250 kJ/mol
# Density = 1.835881 g / cm^3
# Si number density = 18.400688 Si / 1000 Ang^3
#
#
#
# Elastic Constant Matrix: (Units=GPa)
#
#
# Indices 1 2 3 4 5 6 
#
# 1 22.6519 8.1520 -7.0277 0.0000 0.0000 0.0000
# 2 8.1520 138.3869 -12.9126 0.0000 0.0000 0.0000
# 3 -7.0277 -12.9126 64.2090 0.0000 0.0000 0.0000
# 4 0.0000 0.0000 0.0000 21.0668 0.0000 0.0000
# 5 0.0000 0.0000 0.0000 0.0000 11.8289 0.0000
# 6 0.0000 0.0000 0.0000 0.0000 0.0000 8.5594
#
#
#
# Elastic Compliance Matrix: (Units=1/GPa)
#
#
# Indices 1 2 3 4 5 6 
#
# 1 0.046407 -0.002303 0.004616 0.000000 0.000000 0.000000
# 2 -0.002303 0.007479 0.001252 0.000000 0.000000 0.000000
# 3 0.004616 0.001252 0.016331 0.000000 0.000000 0.000000
# 4 0.000000 0.000000 0.000000 0.047468 0.000000 0.000000
# 5 0.000000 0.000000 0.000000 0.000000 0.084539 0.000000
# 6 0.000000 0.000000 0.000000 0.000000 0.000000 0.116831
#
#
# Mechanical properties :
#
#
# Convention : Reuss Voigt Hill
#
# Bulk Modulus (GPa) = 12.92873 22.40793 17.66833
# Shear Modulus (GPa) = 14.80571 24.09341 19.44956
#
# Velocity S-wave (km/s) = 2.83967 3.62245 3.25468
# Velocity P-wave (km/s) = 4.21819 5.44981 4.87307
#
# Compressibility (1/GPa) = 0.07734712
#
# Stress axis : x y z
#
# Youngs Moduli (GPa) = 21.54833 133.71498 61.23271
#
# Poissons Ratio (x) = 0.30795 -0.28266
# Poissons Ratio (y) = 0.04963 -0.07666
# Poissons Ratio (z) = -0.09947 -0.16740
#
# Static dielectric constant tensor:
#      x y z
#    x 1.590810 0.000000 0.000000 
#    y 0.000000 1.689330 0.000000 
#    z 0.000000 0.000000 1.625260 
# 
# From -- ./inp_files/3698.got.cif
#   From: 2010.05.17/outbox.cif.g08.bks.cpg/sg50_2_cif.got.tgz:3698.got - 2010.06.03 11:33:33.
