data_PCOD9395476
_publ_section_title
;
Structure prediction by ZEFSAII (Michael W. Deem and Ramdas Pophale) SiO2 
 PCOD9395476
Probable space group: P B A N
;
_chemical_formula_sum "Si O2"
_cell_formula_units_Z 32
_cell_length_a 9.841342
_cell_length_b 16.738348
_cell_length_c 8.319595
_cell_angle_alpha 90.000000
_cell_angle_beta 90.000000
_cell_angle_gamma 90.000000
_cell_volume 1370.468641
_symmetry_space_group_name_H-M "P B A N"
_symmetry_group_IT_number 50
_space_group.IT_coordinate_system_code '2'
_symmetry_cell_setting 'orthorhombic'
loop_
_space_group_symop_operation_xyz
x,y,z
1/2-x,1/2-y,z
x,1/2-y,-z
1/2-x,y,-z
-x,-y,-z
1/2+x,1/2+y,-z
-x,1/2+y,z
1/2+x,-y,z
loop_
_atom_site_type_symbol
_atom_site_label
_atom_site_fract_x
_atom_site_fract_y
_atom_site_fract_z
Si Si1 0.250000 0.124811 0.000000
Si Si2 0.250000 0.750000 0.000000
Si Si3 0.868490 0.991523 0.730203
Si Si4 0.750000 0.250000 0.500000
Si Si5 0.115721 0.603807 0.318661
Si Si6 0.038164 0.633495 0.944657
O O1 0.386713 0.167087 0.056621
O O2 0.200257 0.069063 0.144740
O O3 0.149752 0.697227 0.892125
O O4 0.744140 0.044334 0.664578
O O5 0.954419 0.055424 0.835418
O O6 0.975103 0.939354 0.626342
O O7 0.846843 0.312881 0.596587
O O8 0.086974 0.614849 0.126900
#
# Coordination Sequence:
#
# PCOD9395476 Si02
#       6
#     4   2   8   2   8   8
#     4  10  17  33  56 103 131 154 200 276 359 405
#     4  12  20  30  52  94 142 180 194 256 360 410
#     4  11  18  37  70 100 121 164 219 293 341 402
#     4  12  30  44  58  94 136 200 224 276 332 396
#     4  11  22  40  65  92 133 169 230 272 334 405
#     4  11  20  33  63 100 132 165 210 283 367 406
#
# _framework density 23.349678999999998
#
# number of rings (size 3 to 8) (size 9 to 14) (size 15 to 20)
#    0.000    1.000    7.500    2.250    0.000    1.500 
#    0.000    0.000    0.000    3.000    0.000    0.000 
#    0.000    0.000    0.000    0.000    0.000    0.000 
#
# Total GULP energy -178742.678863 kJ/mol
# GULP energy per Si atom -5585.708714 kJ/mol
# Density = 2.329653 g / cm^3
# Si number density = 23.349679 Si / 1000 Ang^3
#
#
#
# Elastic Constant Matrix: (Units=GPa)
#
#
# Indices 1 2 3 4 5 6 
#
# 1 240.4740 83.9305 20.3262 0.0000 0.0000 0.0000
# 2 83.9305 147.5598 24.9026 0.0000 0.0000 0.0000
# 3 20.3262 24.9026 60.3781 0.0000 0.0000 0.0000
# 4 0.0000 0.0000 0.0000 26.2274 0.0000 0.0000
# 5 0.0000 0.0000 0.0000 0.0000 -2.3091 0.0000
# 6 0.0000 0.0000 0.0000 0.0000 0.0000 23.6869
#
#
#
# Elastic Compliance Matrix: (Units=1/GPa)
#
#
# Indices 1 2 3 4 5 6 
#
# 1 0.005207 -0.002865 -0.000571 0.000000 0.000000 0.000000
# 2 -0.002865 0.008861 -0.002690 0.000000 0.000000 0.000000
# 3 -0.000571 -0.002690 0.017864 0.000000 0.000000 0.000000
# 4 0.000000 0.000000 0.000000 0.038128 0.000000 0.000000
# 5 0.000000 0.000000 0.000000 0.000000 -0.433060 0.000000
# 6 0.000000 0.000000 0.000000 0.000000 0.000000 0.042217
#
#
# Mechanical properties :
#
#
# Convention : Reuss Voigt Hill
#
# Bulk Modulus (GPa) = 50.81594 78.52563 64.67079
# Shear Modulus (GPa) = -16.55786 30.80454 7.12334
#
# Velocity S-wave (km/s) = -2.66583 3.63612 1.74853
# Velocity P-wave (km/s) = 3.51208 7.16462 5.64210
#
# Compressibility (1/GPa) = 0.01967887
#
# Stress axis : x y z
#
# Youngs Moduli (GPa) = 192.05935 112.85999 55.97849
#
# Poissons Ratio (x) = 0.32336 0.03197
# Poissons Ratio (y) = 0.55028 0.15058
# Poissons Ratio (z) = 0.10969 0.30359
#
# Static dielectric constant tensor:
#      x y z
#    x 1.952600 0.000000 0.000000 
#    y 0.000000 1.952940 0.000000 
#    z 0.000000 0.000000 2.027840 
# 
# From -- ./inp_files/9186.got.cif
#   From: 2010.05.17/outbox.cif.g08.bks.cpg/sg50_5_cif.got.tgz:9186.got - 2010.06.03 11:33:33.
