data_PCOD9395610
_publ_section_title
;
Structure prediction by ZEFSAII (Michael W. Deem and Ramdas Pophale) SiO2 
 PCOD9395610
Probable space group: P B A N
;
_chemical_formula_sum "Si O2"
_cell_formula_units_Z 52
_cell_length_a 17.581936
_cell_length_b 10.083799
_cell_length_c 14.782075
_cell_angle_alpha 90.000000
_cell_angle_beta 90.000000
_cell_angle_gamma 90.000000
_cell_volume 2620.754116
_symmetry_space_group_name_H-M "P B A N"
_symmetry_group_IT_number 50
_space_group.IT_coordinate_system_code '2'
_symmetry_cell_setting 'orthorhombic'
loop_
_space_group_symop_operation_xyz
x,y,z
1/2-x,1/2-y,z
x,1/2-y,-z
1/2-x,y,-z
-x,-y,-z
1/2+x,1/2+y,-z
-x,1/2+y,z
1/2+x,-y,z
loop_
_atom_site_type_symbol
_atom_site_label
_atom_site_fract_x
_atom_site_fract_y
_atom_site_fract_z
Si Si1 0.664765 0.701727 0.173477
Si Si2 0.750000 0.250000 0.000000
Si Si3 0.750000 0.750000 0.500000
Si Si4 0.474469 0.128604 0.814181
Si Si5 0.164829 0.798436 0.673533
Si Si6 0.474604 0.630288 0.314141
Si Si7 0.633980 0.410379 0.123286
Si Si8 0.866006 0.589662 0.623346
O O1 0.750000 0.750000 0.160855
O O2 0.606657 0.820870 0.151082
O O3 0.646860 0.567619 0.119913
O O4 0.653517 0.651832 0.277576
O O5 0.692435 0.339661 0.057544
O O6 0.807579 0.660466 0.557613
O O7 0.499893 0.248247 0.749191
O O8 0.543002 0.111916 0.885523
O O9 0.469405 0.998367 0.750780
O O10 0.250000 0.750000 0.660959
O O11 0.106721 0.679418 0.650964
O O12 0.153585 0.848229 0.777664
O O13 0.147022 0.932518 0.619963
O O14 0.542995 0.611693 0.385408
#
# Coordination Sequence:
#
# PCOD9395610 Si02
#       8
#     8   2   2   8   8   8   8   8
#     4  10  20  36  65  92 120 161 227 264 305 377
#     4  12  24  40  66  88 142 166 204 270 344 388
#     4  12  24  40  66  88 142 166 204 270 344 388
#     4  10  18  34  62  90 122 154 215 270 304 365
#     4  10  20  36  65  92 120 161 227 264 305 377
#     4  10  18  34  62  90 122 154 215 270 304 365
#     4  10  21  38  57  95 122 168 213 258 322 392
#     4  10  21  38  57  95 122 168 213 258 322 392
#
# _framework density 19.841616999999999
#
# number of rings (size 3 to 8) (size 9 to 14) (size 15 to 20)
#    0.000    1.846    7.692    0.000    4.308    0.000 
#    0.000    2.308    0.000    0.000    0.000    0.000 
#    0.000    0.000    0.000    0.000    0.000    0.000 
#
# Total GULP energy -289924.741242 kJ/mol
# GULP energy per Si atom -5575.475793 kJ/mol
# Density = 1.979646 g / cm^3
# Si number density = 19.841617 Si / 1000 Ang^3
#
#
#
# Elastic Constant Matrix: (Units=GPa)
#
#
# Indices 1 2 3 4 5 6 
#
# 1 246.5065 97.1439 33.4146 0.0000 0.0000 0.0000
# 2 97.1439 167.9748 33.0743 0.0000 0.0000 0.0000
# 3 33.4146 33.0743 31.3470 0.0000 0.0000 0.0000
# 4 0.0000 0.0000 0.0000 5.8237 0.0000 0.0000
# 5 0.0000 0.0000 0.0000 0.0000 23.5750 0.0000
# 6 0.0000 0.0000 0.0000 0.0000 0.0000 9.1253
#
#
#
# Elastic Compliance Matrix: (Units=1/GPa)
#
#
# Indices 1 2 3 4 5 6 
#
# 1 0.005491 -0.002554 -0.003159 0.000000 0.000000 0.000000
# 2 -0.002554 0.008702 -0.006459 0.000000 0.000000 0.000000
# 3 -0.003159 -0.006459 0.042084 0.000000 0.000000 0.000000
# 4 0.000000 0.000000 0.000000 0.171713 0.000000 0.000000
# 5 0.000000 0.000000 0.000000 0.000000 0.042418 0.000000
# 6 0.000000 0.000000 0.000000 0.000000 0.000000 0.109586
#
#
# Mechanical properties :
#
#
# Convention : Reuss Voigt Hill
#
# Bulk Modulus (GPa) = 31.31580 85.89935 58.60757
# Shear Modulus (GPa) = 12.04871 26.51782 19.28326
#
# Velocity S-wave (km/s) = 2.46691 3.65975 3.12085
# Velocity P-wave (km/s) = 4.89196 7.82591 6.52595
#
# Compressibility (1/GPa) = 0.03193276
#
# Stress axis : x y z
#
# Youngs Moduli (GPa) = 182.10678 114.91598 23.76215
#
# Poissons Ratio (x) = 0.29346 0.07507
# Poissons Ratio (y) = 0.46505 0.15349
# Poissons Ratio (z) = 0.57528 0.74228
#
# Static dielectric constant tensor:
#      x y z
#    x 2.236030 0.000000 0.000000 
#    y 0.000000 1.676660 0.000000 
#    z 0.000000 0.000000 1.465540 
# 
# From -- ./inp_files/29694.got.cif
#   From: 2010.05.17/outbox.cif.g08.bks.cpg/sg50_15_cif.got.tgz:29694.got - 2010.06.03 11:33:33.
