data_PCOD9395499
_publ_section_title
;
Structure prediction by ZEFSAII (Michael W. Deem and Ramdas Pophale) SiO2 
 PCOD9395499
Probable space group: P B A N
;
_chemical_formula_sum "Si O2"
_cell_formula_units_Z 40
_cell_length_a 21.539834
_cell_length_b 9.075667
_cell_length_c 10.634272
_cell_angle_alpha 90.000000
_cell_angle_beta 90.000000
_cell_angle_gamma 90.000000
_cell_volume 2078.876400
_symmetry_space_group_name_H-M "P B A N"
_symmetry_group_IT_number 50
_space_group.IT_coordinate_system_code '2'
_symmetry_cell_setting 'orthorhombic'
loop_
_space_group_symop_operation_xyz
x,y,z
1/2-x,1/2-y,z
x,1/2-y,-z
1/2-x,y,-z
-x,-y,-z
1/2+x,1/2+y,-z
-x,1/2+y,z
1/2+x,-y,z
loop_
_atom_site_type_symbol
_atom_site_label
_atom_site_fract_x
_atom_site_fract_y
_atom_site_fract_z
Si Si1 0.679227 0.572532 0.366677
Si Si2 0.502275 0.250000 0.000000
Si Si3 0.750000 0.750000 0.000000
Si Si4 0.173611 0.427487 0.648945
Si Si5 0.670070 0.497542 0.113643
Si Si6 0.250000 0.750000 0.000000
Si Si7 0.419499 0.002492 0.878620
O O1 0.752439 0.536233 0.339007
O O2 0.671771 0.749041 0.356128
O O3 0.659567 0.523683 0.505533
O O4 0.642442 0.501378 0.251824
O O5 0.462634 0.355960 0.092718
O O6 0.541040 0.145700 0.095993
O O7 0.710669 0.644107 0.089312
O O8 0.126042 0.483429 0.756703
O O9 0.710363 0.354048 0.089218
O O10 0.623485 0.502052 0.000456
#
# Coordination Sequence:
#
# PCOD9395499 Si02
#       7
#     8   4   2   8   8   2   8
#     4   9  17  29  53  89 116 141 176 211 279 373
#     4  10  24  38  56  80 102 146 214 252 268 306
#     4  10  18  26  52  90 112 146 198 220 268 364
#     4   9  17  31  54  85 117 142 175 230 282 334
#     4  11  19  32  54  81 115 148 179 229 283 337
#     4  10  22  30  48  90 128 146 174 212 280 368
#     4  11  21  37  58  78 107 146 192 245 283 310
#
# _framework density 19.241161999999999
#
# number of rings (size 3 to 8) (size 9 to 14) (size 15 to 20)
#    0.000    2.000    0.000    8.400    0.000    0.000 
#    0.000    0.000    0.000   39.600    0.000    5.600 
#    0.000    0.000    0.000    0.000    0.000    0.000 
#
# Total GULP energy -222887.204647 kJ/mol
# GULP energy per Si atom -5572.180116 kJ/mol
# Density = 1.919737 g / cm^3
# Si number density = 19.241162 Si / 1000 Ang^3
#
#
#
# Elastic Constant Matrix: (Units=GPa)
#
#
# Indices 1 2 3 4 5 6 
#
# 1 80.8204 48.1966 61.3263 0.0000 0.0000 0.0000
# 2 48.1966 91.2553 42.3172 0.0000 0.0000 0.0000
# 3 61.3263 42.3172 206.9090 0.0000 0.0000 0.0000
# 4 0.0000 0.0000 0.0000 -14.1020 0.0000 0.0000
# 5 0.0000 0.0000 0.0000 0.0000 45.6482 0.0000
# 6 0.0000 0.0000 0.0000 0.0000 0.0000 30.7902
#
#
#
# Elastic Compliance Matrix: (Units=1/GPa)
#
#
# Indices 1 2 3 4 5 6 
#
# 1 0.021162 -0.009135 -0.004404 0.000000 0.000000 0.000000
# 2 -0.009135 0.016049 -0.000575 0.000000 0.000000 0.000000
# 3 -0.004404 -0.000575 0.006256 0.000000 0.000000 0.000000
# 4 0.000000 0.000000 0.000000 -0.070912 0.000000 0.000000
# 5 0.000000 0.000000 0.000000 0.000000 0.021907 0.000000
# 6 0.000000 0.000000 0.000000 0.000000 0.000000 0.032478
#
#
# Mechanical properties :
#
#
# Convention : Reuss Voigt Hill
#
# Bulk Modulus (GPa) = 65.61595 75.85163 70.73379
# Shear Modulus (GPa) = 82.99062 27.61026 55.30044
#
# Velocity S-wave (km/s) = 6.57461 3.79219 5.36685
# Velocity P-wave (km/s) = 9.58174 7.66038 8.67442
#
# Compressibility (1/GPa) = 0.01524020
#
# Stress axis : x y z
#
# Youngs Moduli (GPa) = 47.25385 62.30782 159.84669
#
# Poissons Ratio (x) = 0.56916 0.70399
# Poissons Ratio (y) = 0.43164 0.09191
# Poissons Ratio (z) = 0.20811 0.03583
#
# Static dielectric constant tensor:
#      x y z
#    x 1.832640 0.000000 0.000000 
#    y 0.000000 1.692440 0.000000 
#    z 0.000000 0.000000 1.722670 
# 
# From -- ./inp_files/22287.got.cif
#   From: 2010.05.17/outbox.cif.g08.bks.cpg/sg50_12_cif.got.tgz:22287.got - 2010.06.03 11:33:33.
