data_PCOD9395697
_publ_section_title
;
Structure prediction by ZEFSAII (Michael W. Deem and Ramdas Pophale) SiO2 
 PCOD9395697
Probable space group: P B A N
;
_chemical_formula_sum "Si O2"
_cell_formula_units_Z 52
_cell_length_a 21.374561
_cell_length_b 5.658646
_cell_length_c 18.636217
_cell_angle_alpha 90.000000
_cell_angle_beta 90.000000
_cell_angle_gamma 90.000000
_cell_volume 2254.070463
_symmetry_space_group_name_H-M "P B A N"
_symmetry_group_IT_number 50
_space_group.IT_coordinate_system_code '2'
_symmetry_cell_setting 'orthorhombic'
loop_
_space_group_symop_operation_xyz
x,y,z
1/2-x,1/2-y,z
x,1/2-y,-z
1/2-x,y,-z
-x,-y,-z
1/2+x,1/2+y,-z
-x,1/2+y,z
1/2+x,-y,z
loop_
_atom_site_type_symbol
_atom_site_label
_atom_site_fract_x
_atom_site_fract_y
_atom_site_fract_z
Si Si1 0.478442 0.481805 0.773108
Si Si2 0.820687 0.250606 0.861953
Si Si3 0.323335 0.251543 0.914209
Si Si4 0.846949 0.864178 0.428820
Si Si5 0.439214 0.977762 0.635233
Si Si6 0.936557 0.250000 0.500000
Si Si7 0.148470 0.593400 0.290182
O O1 0.491018 0.744373 0.807775
O O2 0.512851 0.534166 0.697236
O O3 0.406174 0.440876 0.750040
O O4 0.750000 0.250000 0.893298
O O5 0.850812 0.493633 0.891495
O O6 0.816722 0.289804 0.776596
O O7 0.849461 0.995877 0.882476
O O8 0.250000 0.250000 0.889735
O O9 0.324895 0.250000 0.000000
O O10 0.815661 0.750000 0.500000
O O11 0.895449 0.680291 0.395176
O O12 0.889282 0.067045 0.463406
O O13 0.814769 0.965577 0.355713
O O14 0.472904 0.866493 0.565597
O O15 0.390992 0.796175 0.671052
#
# Coordination Sequence:
#
# PCOD9395697 Si02
#       7
#     8   8   8   8   8   4   8
#     4  10  19  31  45  67  97 135 173 215 262 318
#     4  10  21  34  55  85 115 145 173 204 260 314
#     4   9  18  35  58  85 116 141 163 199 256 330
#     4   9  16  30  46  66  95 139 174 222 276 320
#     4   9  17  30  45  66  97 135 175 218 274 320
#     4   8  16  28  44  64  91 132 168 219 276 338
#     4  10  20  31  48  72 106 140 176 226 258 315
#
# _framework density 23.069378
#
# number of rings (size 3 to 8) (size 9 to 14) (size 15 to 20)
#    0.000    2.615    1.538    0.462    2.154    1.846 
#    1.385    3.077    0.000    0.000    0.000   24.769 
#    0.000   49.231    0.000    0.000    0.000    0.000 
#
# Total GULP energy -289617.978595 kJ/mol
# GULP energy per Si atom -5569.576511 kJ/mol
# Density = 2.301687 g / cm^3
# Si number density = 23.069378 Si / 1000 Ang^3
#
#
#
# Elastic Constant Matrix: (Units=GPa)
#
#
# Indices 1 2 3 4 5 6 
#
# 1 28.6967 5.3462 2.8376 0.0000 0.0000 0.0000
# 2 5.3462 165.4078 47.3117 0.0000 0.0000 0.0000
# 3 2.8376 47.3117 96.3194 0.0000 0.0000 0.0000
# 4 0.0000 0.0000 0.0000 34.4233 0.0000 0.0000
# 5 0.0000 0.0000 0.0000 0.0000 7.5791 0.0000
# 6 0.0000 0.0000 0.0000 0.0000 0.0000 -4.4187
#
#
#
# Elastic Compliance Matrix: (Units=1/GPa)
#
#
# Indices 1 2 3 4 5 6 
#
# 1 0.035084 -0.000975 -0.000554 0.000000 0.000000 0.000000
# 2 -0.000975 0.007061 -0.003440 0.000000 0.000000 0.000000
# 3 -0.000554 -0.003440 0.012088 0.000000 0.000000 0.000000
# 4 0.000000 0.000000 0.000000 0.029050 0.000000 0.000000
# 5 0.000000 0.000000 0.000000 0.000000 0.131942 0.000000
# 6 0.000000 0.000000 0.000000 0.000000 0.000000 -0.226313
#
#
# Mechanical properties :
#
#
# Convention : Reuss Voigt Hill
#
# Bulk Modulus (GPa) = 22.57650 44.60164 33.58907
# Shear Modulus (GPa) = 367.25556 23.17865 195.21710
#
# Velocity S-wave (km/s) = 12.63098 3.17320 9.20899
# Velocity P-wave (km/s) = 14.91744 5.72724 11.29892
#
# Compressibility (1/GPa) = 0.04429384
#
# Stress axis : x y z
#
# Youngs Moduli (GPa) = 28.50325 141.62255 82.72684
#
# Poissons Ratio (x) = 0.13813 0.04587
# Poissons Ratio (y) = 0.02780 0.28455
# Poissons Ratio (z) = 0.01580 0.48713
#
# Static dielectric constant tensor:
#      x y z
#    x 1.854930 0.000000 0.000000 
#    y 0.000000 2.046880 0.000000 
#    z 0.000000 0.000000 1.888530 
# 
# From -- ./inp_files/28411.got.cif
#   From: 2010.05.17/outbox.cif.g08.bks.cpg/sg50_15_cif.got.tgz:28411.got - 2010.06.03 11:33:33.
