data_PCOD9395220
_publ_section_title
;
Structure prediction by ZEFSAII (Michael W. Deem and Ramdas Pophale) SiO2 
 PCOD9395220
Probable space group: P C C M
;
_chemical_formula_sum "Si O2"
_cell_formula_units_Z 64
_cell_length_a 21.000000
_cell_length_b 18.000000
_cell_length_c 9.000000
_cell_angle_alpha 90.000000
_cell_angle_beta 90.000000
_cell_angle_gamma 90.000000
_cell_volume 3402.000000
_symmetry_space_group_name_H-M "P C C M"
_symmetry_group_IT_number 49
_symmetry_cell_setting 'orthorhombic'
loop_
_space_group_symop_operation_xyz
x,y,z
-x,-y,z
x,-y,1/2-z
-x,y,1/2-z
-x,-y,-z
x,y,-z
-x,y,1/2+z
x,-y,1/2+z
loop_
_atom_site_type_symbol
_atom_site_label
_atom_site_fract_x
_atom_site_fract_y
_atom_site_fract_z
Si Si1 0.430927 0.690172 0.827339
Si Si2 0.934939 0.212269 0.330609
Si Si3 0.802328 0.610266 0.670830
Si Si4 0.933821 0.393468 0.671544
Si Si5 0.561037 0.079810 0.325925
Si Si6 0.193998 0.210481 0.669392
Si Si7 0.337277 0.832072 0.170910
Si Si8 0.666697 0.577232 0.177501
O O1 0.500000 0.699498 0.750000
O O2 0.385343 0.762345 0.831482
O O3 0.386146 0.634185 0.736067
O O4 0.440246 0.667060 0.000000
O O5 0.938032 0.188635 0.500000
O O6 0.934068 0.302874 0.327131
O O7 0.868070 0.186956 0.260555
O O8 0.000000 0.189126 0.250000
O O9 0.796958 0.583711 0.500000
O O10 0.868772 0.584652 0.744313
O O11 0.805400 0.699865 0.668159
O O12 0.738311 0.592054 0.760909
O O13 0.932640 0.417834 0.500000
O O14 0.000000 0.415911 0.750000
O O15 0.500000 0.119587 0.250000
O O16 0.549877 0.076009 0.500000
O O17 0.628162 0.115109 0.286231
O O18 0.563006 0.000000 0.250000
O O19 0.185433 0.185268 0.500000
O O20 0.265057 0.186773 0.716127
O O21 0.336160 0.861003 0.000000
O O22 0.647475 0.500000 0.250000
O O23 0.668440 0.575806 0.000000
#
# Coordination Sequence:
#
# PCOD9395220 Si02
#       8
#     8   8   8   8   8   8   8   8
#     4  11  23  41  61  85 111 139 174 217 270 324
#     4   9  16  25  39  63  97 136 176 217 260 312
#     4  10  18  33  53  75 102 135 172 217 268 321
#     4   9  16  26  42  69  99 133 171 213 260 313
#     4  11  22  37  57  81 111 149 189 228 268 317
#     4   9  17  30  49  73 104 140 173 215 266 315
#     4  10  20  36  57  83 115 147 180 221 268 319
#     4  12  25  41  60  80 103 135 175 222 272 329
#
# _framework density 18.812463000000001
#
# number of rings (size 3 to 8) (size 9 to 14) (size 15 to 20)
#    0.000    1.875    1.250    4.500    0.000    6.250 
#    0.000    1.250    0.000    0.375    0.000    2.625 
#    0.000    0.500    0.000    5.250    0.000    2.500 
#
# Total GULP energy -356978.668950 kJ/mol
# GULP energy per Si atom -5577.791702 kJ/mol
# Density = 1.876965 g / cm^3
# Si number density = 18.812463 Si / 1000 Ang^3
#
#
#
# Elastic Constant Matrix: (Units=GPa)
#
#
# Indices 1 2 3 4 5 6 
#
# 1 193.6277 32.8353 101.1432 0.0000 0.0000 0.0000
# 2 32.8353 25.9656 35.1022 0.0000 0.0000 0.0000
# 3 101.1432 35.1022 176.5966 0.0000 0.0000 0.0000
# 4 0.0000 0.0000 0.0000 10.2402 0.0000 0.0000
# 5 0.0000 0.0000 0.0000 0.0000 45.3549 0.0000
# 6 0.0000 0.0000 0.0000 0.0000 0.0000 18.2232
#
#
#
# Elastic Compliance Matrix: (Units=1/GPa)
#
#
# Indices 1 2 3 4 5 6 
#
# 1 0.007864 -0.005272 -0.003456 0.000000 0.000000 0.000000
# 2 -0.005272 0.056199 -0.008151 0.000000 0.000000 0.000000
# 3 -0.003456 -0.008151 0.009262 0.000000 0.000000 0.000000
# 4 0.000000 0.000000 0.000000 0.097654 0.000000 0.000000
# 5 0.000000 0.000000 0.000000 0.000000 0.022048 0.000000
# 6 0.000000 0.000000 0.000000 0.000000 0.000000 0.054875
#
#
# Mechanical properties :
#
#
# Convention : Reuss Voigt Hill
#
# Bulk Modulus (GPa) = 25.27409 81.59457 53.43433
# Shear Modulus (GPa) = 16.95777 29.90428 23.43102
#
# Velocity S-wave (km/s) = 3.00561 3.99130 3.53300
# Velocity P-wave (km/s) = 5.05063 8.04409 6.71626
#
# Compressibility (1/GPa) = 0.03956621
#
# Stress axis : x y z
#
# Youngs Moduli (GPa) = 127.16362 17.79396 107.96667
#
# Poissons Ratio (x) = 0.09382 0.37312
# Poissons Ratio (y) = 0.67047 0.88003
# Poissons Ratio (z) = 0.43947 0.14504
#
# Static dielectric constant tensor:
#      x y z
#    x 1.661330 0.000000 0.000000 
#    y 0.000000 1.744760 0.000000 
#    z 0.000000 0.000000 1.653580 
# 
# From -- ./inp_files/5985.got.cif
#   From: 2010.05.17/outbox.ucp.g08.bks.cvg/sg49_3_cif.got.tgz:5985.got - 2010.06.11 16:40:14.
