data_PCOD9395455
_publ_section_title
;
Structure prediction by ZEFSAII (Michael W. Deem and Ramdas Pophale) SiO2 
 PCOD9395455
Probable space group: P B A N
;
_chemical_formula_sum "Si O2"
_cell_formula_units_Z 48
_cell_length_a 7.987790
_cell_length_b 20.259923
_cell_length_c 13.391437
_cell_angle_alpha 90.000000
_cell_angle_beta 90.000000
_cell_angle_gamma 90.000000
_cell_volume 2167.163171
_symmetry_space_group_name_H-M "P B A N"
_symmetry_group_IT_number 50
_space_group.IT_coordinate_system_code '2'
_symmetry_cell_setting 'orthorhombic'
loop_
_space_group_symop_operation_xyz
x,y,z
1/2-x,1/2-y,z
x,1/2-y,-z
1/2-x,y,-z
-x,-y,-z
1/2+x,1/2+y,-z
-x,1/2+y,z
1/2+x,-y,z
loop_
_atom_site_type_symbol
_atom_site_label
_atom_site_fract_x
_atom_site_fract_y
_atom_site_fract_z
Si Si1 0.502721 0.575383 0.956913
Si Si2 0.149475 0.380605 0.139319
Si Si3 0.974848 0.202468 0.408570
Si Si4 0.750000 0.894836 0.500000
Si Si5 0.745628 0.964378 0.303783
Si Si6 0.250000 0.250000 0.743422
Si Si7 0.877930 0.402915 0.741967
O O1 0.684574 0.588569 0.910343
O O2 0.382800 0.596347 0.864422
O O3 0.500000 0.500000 0.000000
O O4 0.505261 0.620539 0.056467
O O5 0.122184 0.432535 0.226884
O O6 0.205451 0.311909 0.187187
O O7 0.919381 0.250000 0.500000
O O8 0.098444 0.150836 0.463506
O O9 0.093779 0.240340 0.330116
O O10 0.857429 0.161046 0.330523
O O11 0.804651 0.941633 0.411072
O O12 0.563808 0.931524 0.285488
O O13 0.747904 0.041795 0.290288
#
# Coordination Sequence:
#
# PCOD9395455 Si02
#       7
#     8   8   8   4   8   4   8
#     4  10  18  32  49  72 113 143 177 227 292 342
#     4  10  20  30  51  81 112 147 182 233 286 348
#     4  11  18  31  52  77 113 149 182 229 289 341
#     4  10  17  30  54  80 105 144 184 230 280 334
#     4  10  19  34  51  83 117 143 188 236 285 343
#     4  12  17  33  50  80 118 144 188 236 288 340
#     4  10  21  35  54  83 115 148 189 237 290 348
#
# _framework density 22.148769999999999
#
# number of rings (size 3 to 8) (size 9 to 14) (size 15 to 20)
#    0.000    1.667    8.333    0.000    0.000    4.000 
#    0.000    0.000    0.000    0.000    0.000   18.083 
#    0.000    5.667    0.000    0.000    0.000    0.000 
#
# Total GULP energy -267364.184408 kJ/mol
# GULP energy per Si atom -5570.087175 kJ/mol
# Density = 2.209836 g / cm^3
# Si number density = 22.148770 Si / 1000 Ang^3
#
#
#
# Elastic Constant Matrix: (Units=GPa)
#
#
# Indices 1 2 3 4 5 6 
#
# 1 42.6531 33.6533 35.8144 0.0000 0.0000 0.0000
# 2 33.6533 107.5643 65.6356 0.0000 0.0000 0.0000
# 3 35.8144 65.6356 181.0728 0.0000 0.0000 0.0000
# 4 0.0000 0.0000 0.0000 75.8661 0.0000 0.0000
# 5 0.0000 0.0000 0.0000 0.0000 -22.3134 0.0000
# 6 0.0000 0.0000 0.0000 0.0000 0.0000 14.4951
#
#
#
# Elastic Compliance Matrix: (Units=1/GPa)
#
#
# Indices 1 2 3 4 5 6 
#
# 1 0.032821 -0.008099 -0.003556 0.000000 0.000000 0.000000
# 2 -0.008099 0.013935 -0.003450 0.000000 0.000000 0.000000
# 3 -0.003556 -0.003450 0.007476 0.000000 0.000000 0.000000
# 4 0.000000 0.000000 0.000000 0.013181 0.000000 0.000000
# 5 0.000000 0.000000 0.000000 0.000000 -0.044816 0.000000
# 6 0.000000 0.000000 0.000000 0.000000 0.000000 0.068989
#
#
# Mechanical properties :
#
#
# Convention : Reuss Voigt Hill
#
# Bulk Modulus (GPa) = 41.62479 66.83299 54.22889
# Shear Modulus (GPa) = 38.52010 26.68869 32.60439
#
# Velocity S-wave (km/s) = 4.17484 3.47504 3.84091
# Velocity P-wave (km/s) = 6.48638 6.80744 6.64885
#
# Compressibility (1/GPa) = 0.02402415
#
# Stress axis : x y z
#
# Youngs Moduli (GPa) = 30.46869 71.75944 133.75487
#
# Poissons Ratio (x) = 0.58115 0.47563
# Poissons Ratio (y) = 0.24675 0.46139
# Poissons Ratio (z) = 0.10835 0.24754
#
# Static dielectric constant tensor:
#      x y z
#    x 1.523590 0.000000 0.000000 
#    y 0.000000 1.860200 0.000000 
#    z 0.000000 0.000000 1.733150 
# 
# From -- ./inp_files/26002.got.cif
#   From: 2010.05.17/outbox.cif.g08.bks.cpg/sg50_14_cif.got.tgz:26002.got - 2010.06.03 11:33:33.
