data_PCOD9395813
_publ_section_title
;
Structure prediction by ZEFSAII (Michael W. Deem and Ramdas Pophale) SiO2 
 PCOD9395813
Probable space group: P B A N
;
_chemical_formula_sum "Si O2"
_cell_formula_units_Z 52
_cell_length_a 15.514749
_cell_length_b 17.040373
_cell_length_c 8.639480
_cell_angle_alpha 90.000000
_cell_angle_beta 90.000000
_cell_angle_gamma 90.000000
_cell_volume 2284.080754
_symmetry_space_group_name_H-M "P B A N"
_symmetry_group_IT_number 50
_space_group.IT_coordinate_system_code '2'
_symmetry_cell_setting 'orthorhombic'
loop_
_space_group_symop_operation_xyz
x,y,z
1/2-x,1/2-y,z
x,1/2-y,-z
1/2-x,y,-z
-x,-y,-z
1/2+x,1/2+y,-z
-x,1/2+y,z
1/2+x,-y,z
loop_
_atom_site_type_symbol
_atom_site_label
_atom_site_fract_x
_atom_site_fract_y
_atom_site_fract_z
Si Si1 0.750000 0.049101 0.500000
Si Si2 0.179025 0.073340 0.678163
Si Si3 0.552955 0.379673 0.899634
Si Si4 0.124749 0.214758 0.837859
Si Si5 0.072971 0.152792 0.414730
Si Si6 0.528916 0.039244 0.805173
Si Si7 0.109088 0.829497 0.420118
O O1 0.834690 0.101626 0.505138
O O2 0.748154 0.989930 0.355149
O O3 0.191221 0.146376 0.790211
O O4 0.146685 0.117720 0.523308
O O5 0.102496 0.016335 0.735711
O O6 0.465188 0.330171 0.877934
O O7 0.535835 0.471586 0.866358
O O8 0.613119 0.341922 0.766349
O O9 0.569305 0.392442 0.082791
O O10 0.106276 0.277401 0.698892
O O11 0.151376 0.250000 0.000000
O O12 0.030767 0.086635 0.310119
O O13 0.991388 0.168289 0.529895
O O14 0.142075 0.750000 0.500000
#
# Coordination Sequence:
#
# PCOD9395813 Si02
#       7
#     4   8   8   8   8   8   8
#     4  12  27  42  63  90 132 180 222 258 321 402
#     4  11  23  41  61  96 127 172 221 266 323 398
#     4  10  20  34  59  98 131 157 199 268 334 377
#     4  11  21  37  65 102 128 157 210 284 342 378
#     4  12  19  37  69  97 124 158 214 278 327 374
#     4  10  19  33  59  95 131 157 202 260 322 392
#     4  12  22  40  65  98 129 166 218 270 328 389
#
# _framework density 22.766269999999999
#
# number of rings (size 3 to 8) (size 9 to 14) (size 15 to 20)
#    0.000    0.923    7.692    2.077    0.000    0.000 
#    0.000    2.308    0.000    0.923    4.000    0.000 
#    0.000    0.000    0.000    0.000    0.000    0.000 
#
# Total GULP energy -289734.563550 kJ/mol
# GULP energy per Si atom -5571.818530 kJ/mol
# Density = 2.271445 g / cm^3
# Si number density = 22.766270 Si / 1000 Ang^3
#
#
#
# Elastic Constant Matrix: (Units=GPa)
#
#
# Indices 1 2 3 4 5 6 
#
# 1 45.2020 34.5554 12.6421 0.0000 0.0000 0.0000
# 2 34.5554 109.6486 85.0582 0.0000 0.0000 0.0000
# 3 12.6421 85.0582 118.4152 0.0000 0.0000 0.0000
# 4 0.0000 0.0000 0.0000 42.5972 0.0000 0.0000
# 5 0.0000 0.0000 0.0000 0.0000 4.5594 0.0000
# 6 0.0000 0.0000 0.0000 0.0000 0.0000 11.9196
#
#
#
# Elastic Compliance Matrix: (Units=1/GPa)
#
#
# Indices 1 2 3 4 5 6 
#
# 1 0.032802 -0.017211 0.008861 0.000000 0.000000 0.000000
# 2 -0.017211 0.029628 -0.019444 0.000000 0.000000 0.000000
# 3 0.008861 -0.019444 0.021466 0.000000 0.000000 0.000000
# 4 0.000000 0.000000 0.000000 0.023476 0.000000 0.000000
# 5 0.000000 0.000000 0.000000 0.000000 0.219327 0.000000
# 6 0.000000 0.000000 0.000000 0.000000 0.000000 0.083895
#
#
# Mechanical properties :
#
#
# Convention : Reuss Voigt Hill
#
# Bulk Modulus (GPa) = 35.32761 59.75302 47.54031
# Shear Modulus (GPa) = 10.51265 21.21592 15.86429
#
# Velocity S-wave (km/s) = 2.15120 3.05602 2.64262
# Velocity P-wave (km/s) = 4.66063 6.22540 5.49896
#
# Compressibility (1/GPa) = 0.02830647
#
# Stress axis : x y z
#
# Youngs Moduli (GPa) = 30.48590 33.75232 46.58595
#
# Poissons Ratio (x) = 0.58092 -0.41279
# Poissons Ratio (y) = 0.52470 0.90582
# Poissons Ratio (z) = -0.27013 0.65629
#
# Static dielectric constant tensor:
#      x y z
#    x 1.835370 0.000000 0.000000 
#    y 0.000000 1.845100 0.000000 
#    z 0.000000 0.000000 2.240840 
# 
# From -- ./inp_files/14434.got.cif
#   From: 2010.05.17/outbox.cif.g08.bks.cpg/sg50_8_cif.got.tgz:14434.got - 2010.06.03 11:33:33.
