data_PCOD9395493
_publ_section_title
;
Structure prediction by ZEFSAII (Michael W. Deem and Ramdas Pophale) SiO2 
 PCOD9395493
Probable space group: P B A N
;
_chemical_formula_sum "Si O2"
_cell_formula_units_Z 48
_cell_length_a 5.587424
_cell_length_b 17.914159
_cell_length_c 20.079565
_cell_angle_alpha 90.000000
_cell_angle_beta 90.000000
_cell_angle_gamma 90.000000
_cell_volume 2009.844018
_symmetry_space_group_name_H-M "P B A N"
_symmetry_group_IT_number 50
_space_group.IT_coordinate_system_code '2'
_symmetry_cell_setting 'orthorhombic'
loop_
_space_group_symop_operation_xyz
x,y,z
1/2-x,1/2-y,z
x,1/2-y,-z
1/2-x,y,-z
-x,-y,-z
1/2+x,1/2+y,-z
-x,1/2+y,z
1/2+x,-y,z
loop_
_atom_site_type_symbol
_atom_site_label
_atom_site_fract_x
_atom_site_fract_y
_atom_site_fract_z
Si Si1 0.338120 0.506067 0.883039
Si Si2 0.801538 0.084669 0.368086
Si Si3 0.505273 0.834051 0.972980
Si Si4 0.792575 0.586180 0.578999
Si Si5 0.363953 0.864773 0.222220
Si Si6 0.874536 0.652099 0.819287
O O1 0.587370 0.497223 0.919808
O O2 0.347571 0.582988 0.843141
O O3 0.346335 0.438836 0.827983
O O4 0.548224 0.117383 0.394861
O O5 0.843141 0.086899 0.289101
O O6 0.046634 0.122021 0.394292
O O7 0.797520 0.999444 0.394405
O O8 0.558413 0.825695 0.894595
O O9 0.501559 0.750000 0.000000
O O10 0.250000 0.864908 0.000000
O O11 0.750000 0.870541 0.000000
O O12 0.750000 0.583983 0.500000
O O13 0.619032 0.825245 0.211106
O O14 0.106892 0.824754 0.222154
#
# Coordination Sequence:
#
# PCOD9395493 Si02
#       6
#     8   8   8   8   8   8
#     4   8  16  25  41  59  92 114 146 174 239 278
#     4  10  18  25  41  55  83 120 168 207 254 284
#     4  10  21  38  59  76  90 116 153 192 236 300
#     4  10  19  27  37  55  86 125 172 226 247 254
#     4  10  19  28  45  69  94 125 156 198 256 291
#     4  10  19  31  48  70  96 112 147 202 246 288
#
# _framework density 23.882452000000001
#
# number of rings (size 3 to 8) (size 9 to 14) (size 15 to 20)
#    0.000    2.333    0.000    4.500   14.000    0.000 
#    0.000    0.000    0.000   27.000    0.000    0.000 
#    0.000    0.000    0.000    0.000    0.000    0.000 
#
# Total GULP energy -267538.510475 kJ/mol
# GULP energy per Si atom -5573.718968 kJ/mol
# Density = 2.382809 g / cm^3
# Si number density = 23.882452 Si / 1000 Ang^3
#
#
#
# Elastic Constant Matrix: (Units=GPa)
#
#
# Indices 1 2 3 4 5 6 
#
# 1 329.9142 20.9933 43.7760 0.0000 0.0000 0.0000
# 2 20.9933 42.8854 -2.3015 0.0000 0.0000 0.0000
# 3 43.7760 -2.3015 108.4275 0.0000 0.0000 0.0000
# 4 0.0000 0.0000 0.0000 -9.9239 0.0000 0.0000
# 5 0.0000 0.0000 0.0000 0.0000 34.3915 0.0000
# 6 0.0000 0.0000 0.0000 0.0000 0.0000 21.5382
#
#
#
# Elastic Compliance Matrix: (Units=1/GPa)
#
#
# Indices 1 2 3 4 5 6 
#
# 1 0.003322 -0.001700 -0.001377 0.000000 0.000000 0.000000
# 2 -0.001700 0.024215 0.001200 0.000000 0.000000 0.000000
# 3 -0.001377 0.001200 0.009804 0.000000 0.000000 0.000000
# 4 0.000000 0.000000 0.000000 -0.100767 0.000000 0.000000
# 5 0.000000 0.000000 0.000000 0.000000 0.029077 0.000000
# 6 0.000000 0.000000 0.000000 0.000000 0.000000 0.046429
#
#
# Mechanical properties :
#
#
# Convention : Reuss Voigt Hill
#
# Bulk Modulus (GPa) = 29.77353 67.35142 48.56247
# Shear Modulus (GPa) = 184.98199 37.11843 111.05021
#
# Velocity S-wave (km/s) = 8.81041 3.94663 6.82639
# Velocity P-wave (km/s) = 10.76994 7.00216 9.08355
#
# Compressibility (1/GPa) = 0.03358688
#
# Stress axis : x y z
#
# Youngs Moduli (GPa) = 301.02092 41.29731 101.99611
#
# Poissons Ratio (x) = 0.07021 0.14048
# Poissons Ratio (y) = 0.51177 -0.12243
# Poissons Ratio (z) = 0.41460 -0.04957
#
# Static dielectric constant tensor:
#      x y z
#    x 2.087190 0.000000 0.000000 
#    y 0.000000 1.934320 0.000000 
#    z 0.000000 0.000000 2.058420 
# 
# From -- ./inp_files/28287.got.cif
#   From: 2010.05.17/outbox.cif.g08.bks.cpg/sg50_15_cif.got.tgz:28287.got - 2010.06.03 11:33:33.
