data_PCOD9395643
_publ_section_title
;
Structure prediction by ZEFSAII (Michael W. Deem and Ramdas Pophale) SiO2 
 PCOD9395643
Probable space group: P B A N
;
_chemical_formula_sum "Si O2"
_cell_formula_units_Z 44
_cell_length_a 8.522010
_cell_length_b 29.678859
_cell_length_c 6.982332
_cell_angle_alpha 90.000000
_cell_angle_beta 90.000000
_cell_angle_gamma 90.000000
_cell_volume 1765.996079
_symmetry_space_group_name_H-M "P B A N"
_symmetry_group_IT_number 50
_space_group.IT_coordinate_system_code '2'
_symmetry_cell_setting 'orthorhombic'
loop_
_space_group_symop_operation_xyz
x,y,z
1/2-x,1/2-y,z
x,1/2-y,-z
1/2-x,y,-z
-x,-y,-z
1/2+x,1/2+y,-z
-x,1/2+y,z
1/2+x,-y,z
loop_
_atom_site_type_symbol
_atom_site_label
_atom_site_fract_x
_atom_site_fract_y
_atom_site_fract_z
Si Si1 0.750000 0.827038 0.000000
Si Si2 0.702034 0.311649 0.215904
Si Si3 0.718484 0.529120 0.773114
Si Si4 0.991327 0.893431 0.831934
Si Si5 0.250000 0.863517 0.500000
Si Si6 0.944324 0.434595 0.256245
Si Si7 0.013864 0.250000 0.000000
O O1 0.657844 0.860447 0.139832
O O2 0.882190 0.791925 0.068735
O O3 0.615160 0.359846 0.274965
O O4 0.832681 0.318613 0.370119
O O5 0.591193 0.269428 0.174723
O O6 0.750000 0.321158 0.000000
O O7 0.572556 0.562050 0.732162
O O8 0.669032 0.477999 0.743791
O O9 0.882153 0.547022 0.691116
O O10 0.750000 0.533529 0.000000
O O11 0.048302 0.910767 0.042800
O O12 0.371548 0.899899 0.599318
#
# Coordination Sequence:
#
# PCOD9395643 Si02
#       7
#     4   8   8   8   4   8   4
#     4   9  16  36  70 106 122 160 228 272 352 431
#     4  11  23  43  69  97 133 177 221 286 355 420
#     4  10  21  36  65  98 136 188 238 286 335 406
#     4  10  18  37  70  97 132 180 228 281 345 409
#     4  12  28  42  67 102 142 182 240 285 342 434
#     4  11  23  39  61  97 145 185 240 289 338 398
#     4   9  21  38  72 100 123 165 214 282 358 424
#
# _framework density 24.915116000000001
#
# number of rings (size 3 to 8) (size 9 to 14) (size 15 to 20)
#    0.000    1.636    4.545    2.455    5.091    0.727 
#    0.000    1.818    0.000    0.000    9.455    0.000 
#    0.000    0.000    0.000    0.000    0.000    0.000 
#
# Total GULP energy -245061.958610 kJ/mol
# GULP energy per Si atom -5569.589968 kJ/mol
# Density = 2.485841 g / cm^3
# Si number density = 24.915116 Si / 1000 Ang^3
#
#
#
# Elastic Constant Matrix: (Units=GPa)
#
#
# Indices 1 2 3 4 5 6 
#
# 1 97.1675 45.4773 24.2829 0.0000 0.0000 0.0000
# 2 45.4773 189.4576 61.6092 0.0000 0.0000 0.0000
# 3 24.2829 61.6092 115.0773 0.0000 0.0000 0.0000
# 4 0.0000 0.0000 0.0000 -48.2471 0.0000 0.0000
# 5 0.0000 0.0000 0.0000 0.0000 27.0560 0.0000
# 6 0.0000 0.0000 0.0000 0.0000 0.0000 73.8419
#
#
#
# Elastic Compliance Matrix: (Units=1/GPa)
#
#
# Indices 1 2 3 4 5 6 
#
# 1 0.011723 -0.002433 -0.001171 0.000000 0.000000 0.000000
# 2 -0.002433 0.006896 -0.003178 0.000000 0.000000 0.000000
# 3 -0.001171 -0.003178 0.010639 0.000000 0.000000 0.000000
# 4 0.000000 0.000000 0.000000 -0.020727 0.000000 0.000000
# 5 0.000000 0.000000 0.000000 0.000000 0.036960 0.000000
# 6 0.000000 0.000000 0.000000 0.000000 0.000000 0.013542
#
#
# Mechanical properties :
#
#
# Convention : Reuss Voigt Hill
#
# Bulk Modulus (GPa) = 63.72638 73.82682 68.77660
# Shear Modulus (GPa) = 64.24297 28.55236 46.39767
#
# Velocity S-wave (km/s) = 5.08338 3.38891 4.32004
# Velocity P-wave (km/s) = 7.75159 6.70885 7.24899
#
# Compressibility (1/GPa) = 0.01569209
#
# Stress axis : x y z
#
# Youngs Moduli (GPa) = 85.30274 145.01446 93.99762
#
# Poissons Ratio (x) = 0.35284 0.11008
# Poissons Ratio (y) = 0.20756 0.29876
# Poissons Ratio (z) = 0.09989 0.46092
#
# Static dielectric constant tensor:
#      x y z
#    x 2.253590 0.000000 0.000000 
#    y 0.000000 1.983010 0.000000 
#    z 0.000000 0.000000 2.338540 
# 
# From -- ./inp_files/10003.got.cif
#   From: 2010.05.17/outbox.cif.g08.bks.cpg/sg50_6_cif.got.tgz:10003.got - 2010.06.03 11:33:33.
