data_PCOD9395846
_publ_section_title
;
Structure prediction by ZEFSAII (Michael W. Deem and Ramdas Pophale) SiO2 
 PCOD9395846
Probable space group: P B A N
;
_chemical_formula_sum "Si O2"
_cell_formula_units_Z 48
_cell_length_a 16.025686
_cell_length_b 5.311702
_cell_length_c 25.100476
_cell_angle_alpha 90.000000
_cell_angle_beta 90.000000
_cell_angle_gamma 90.000000
_cell_volume 2136.644595
_symmetry_space_group_name_H-M "P B A N"
_symmetry_group_IT_number 50
_space_group.IT_coordinate_system_code '2'
_symmetry_cell_setting 'orthorhombic'
loop_
_space_group_symop_operation_xyz
x,y,z
1/2-x,1/2-y,z
x,1/2-y,-z
1/2-x,y,-z
-x,-y,-z
1/2+x,1/2+y,-z
-x,1/2+y,z
1/2+x,-y,z
loop_
_atom_site_type_symbol
_atom_site_label
_atom_site_fract_x
_atom_site_fract_y
_atom_site_fract_z
Si Si1 0.971840 0.614370 0.938867
Si Si2 0.441664 0.872485 0.671541
Si Si3 0.694010 0.496685 0.763075
Si Si4 0.534501 0.095662 0.181494
Si Si5 0.783249 0.002640 0.061211
Si Si6 0.056268 0.662372 0.552739
O O1 0.881691 0.493408 0.939315
O O2 0.966019 0.899031 0.960044
O O3 0.004384 0.647923 0.878465
O O4 0.494662 0.611449 0.676444
O O5 0.367871 0.935601 0.713118
O O6 0.404751 0.842448 0.611524
O O7 0.750000 0.250000 0.770355
O O8 0.627250 0.508782 0.811564
O O9 0.750000 0.750000 0.758056
O O10 0.476154 0.875509 0.205551
O O11 0.750000 0.750000 0.086925
O O12 0.750000 0.250000 0.088420
O O13 0.750000 0.001979 0.000000
O O14 0.107150 0.750000 0.500000
O O15 0.014261 0.384826 0.550769
#
# Coordination Sequence:
#
# PCOD9395846 Si02
#       6
#     8   8   8   8   8   8
#     4  10  21  40  63  88 117 156 195 233 281 347
#     4  10  19  34  57  81 111 151 192 237 288 348
#     4  12  24  38  57  85 117 151 193 246 297 347
#     4  10  21  41  62  84 113 152 196 238 287 350
#     4  10  21  40  62  91 123 152 188 238 291 342
#     4   8  14  25  45  76 106 135 181 235 278 322
#
# _framework density 22.465132000000001
#
# number of rings (size 3 to 8) (size 9 to 14) (size 15 to 20)
#    0.000    2.000    0.000    4.000    0.000    0.000 
#    0.000   30.000    0.000    0.500    0.000    1.167 
#    0.000    0.000    0.000    0.000    0.000    0.000 
#
# Total GULP energy -267579.531324 kJ/mol
# GULP energy per Si atom -5574.573569 kJ/mol
# Density = 2.241400 g / cm^3
# Si number density = 22.465132 Si / 1000 Ang^3
#
#
#
# Elastic Constant Matrix: (Units=GPa)
#
#
# Indices 1 2 3 4 5 6 
#
# 1 109.0382 34.9178 31.3070 0.0000 0.0000 0.0000
# 2 34.9178 198.3098 14.0940 0.0000 0.0000 0.0000
# 3 31.3070 14.0940 97.3515 0.0000 0.0000 0.0000
# 4 0.0000 0.0000 0.0000 13.6332 0.0000 0.0000
# 5 0.0000 0.0000 0.0000 0.0000 13.8022 0.0000
# 6 0.0000 0.0000 0.0000 0.0000 0.0000 44.2194
#
#
#
# Elastic Compliance Matrix: (Units=1/GPa)
#
#
# Indices 1 2 3 4 5 6 
#
# 1 0.010608 -0.001642 -0.003174 0.000000 0.000000 0.000000
# 2 -0.001642 0.005349 -0.000246 0.000000 0.000000 0.000000
# 3 -0.003174 -0.000246 0.011328 0.000000 0.000000 0.000000
# 4 0.000000 0.000000 0.000000 0.073350 0.000000 0.000000
# 5 0.000000 0.000000 0.000000 0.000000 0.072452 0.000000
# 6 0.000000 0.000000 0.000000 0.000000 0.000000 0.022614
#
#
# Mechanical properties :
#
#
# Convention : Reuss Voigt Hill
#
# Bulk Modulus (GPa) = 58.27083 62.81524 60.54304
# Shear Modulus (GPa) = 23.63533 35.95636 29.79585
#
# Velocity S-wave (km/s) = 3.24711 4.00502 3.64581
# Velocity P-wave (km/s) = 6.32874 7.02914 6.68811
#
# Compressibility (1/GPa) = 0.01716125
#
# Stress axis : x y z
#
# Youngs Moduli (GPa) = 94.26616 186.94057 88.27421
#
# Poissons Ratio (x) = 0.30702 0.28016
# Poissons Ratio (y) = 0.15481 0.02174
# Poissons Ratio (z) = 0.29917 0.04604
#
# Static dielectric constant tensor:
#      x y z
#    x 1.777020 0.000000 0.000000 
#    y 0.000000 1.895650 0.000000 
#    z 0.000000 0.000000 2.334540 
# 
# From -- ./inp_files/32251.got.cif
#   From: 2010.05.17/outbox.cif.g08.bks.cpg/sg50_17_cif.got.tgz:32251.got - 2010.06.03 11:33:33.
