data_PCOD9395602
_publ_section_title
;
Structure prediction by ZEFSAII (Michael W. Deem and Ramdas Pophale) SiO2 
 PCOD9395602
Probable space group: P B A N
;
_chemical_formula_sum "Si O2"
_cell_formula_units_Z 60
_cell_length_a 13.314931
_cell_length_b 14.739872
_cell_length_c 13.446322
_cell_angle_alpha 90.000000
_cell_angle_beta 90.000000
_cell_angle_gamma 90.000000
_cell_volume 2638.980247
_symmetry_space_group_name_H-M "P B A N"
_symmetry_group_IT_number 50
_space_group.IT_coordinate_system_code '2'
_symmetry_cell_setting 'orthorhombic'
loop_
_space_group_symop_operation_xyz
x,y,z
1/2-x,1/2-y,z
x,1/2-y,-z
1/2-x,y,-z
-x,-y,-z
1/2+x,1/2+y,-z
-x,1/2+y,z
1/2+x,-y,z
loop_
_atom_site_type_symbol
_atom_site_label
_atom_site_fract_x
_atom_site_fract_y
_atom_site_fract_z
Si Si1 0.351587 0.781605 0.776021
Si Si2 0.611752 0.369376 0.067741
Si Si3 0.566527 0.788377 0.708893
Si Si4 0.988805 0.511284 0.671654
Si Si5 0.088046 0.376143 0.831265
Si Si6 0.295516 0.545186 0.133617
Si Si7 0.370118 0.921001 0.497601
Si Si8 0.980511 0.750000 0.500000
O O1 0.250000 0.750000 0.725498
O O2 0.357336 0.728091 0.883146
O O3 0.450656 0.755588 0.720287
O O4 0.343614 0.889399 0.784466
O O5 0.492812 0.370421 0.079303
O O6 0.677318 0.436053 0.137368
O O7 0.652254 0.407138 0.963154
O O8 0.555342 0.896219 0.721419
O O9 0.618075 0.721859 0.788150
O O10 0.589820 0.764944 0.595718
O O11 0.899219 0.476840 0.600785
O O12 0.028309 0.435755 0.748351
O O13 0.082052 0.529652 0.594897
O O14 0.178326 0.441054 0.861918
O O15 0.250000 0.905269 0.500000
O O16 0.443296 0.834023 0.492099
#
# Coordination Sequence:
#
# PCOD9395602 Si02
#       8
#     8   8   8   8   8   8   8   4
#     4   9  17  30  51  80 112 142 176 227 290 343
#     4   9  20  32  53  83 114 142 188 230 282 347
#     4  10  20  34  53  80 112 146 190 227 271 335
#     4  10  21  37  55  81 115 150 182 236 277 330
#     4  11  20  35  57  82 110 152 186 230 279 334
#     4  10  18  34  54  81 113 148 180 233 288 338
#     4  10  21  36  57  84 112 148 188 230 288 336
#     4  10  19  34  54  84 117 142 177 232 288 338
#
# _framework density 22.736056000000001
#
# number of rings (size 3 to 8) (size 9 to 14) (size 15 to 20)
#    0.000    2.133    2.667    1.000    0.000    4.800 
#    0.000    0.000    0.000    4.000    0.000    1.867 
#    0.000    0.000    0.000    0.000    0.000    0.000 
#
# Total GULP energy -334296.855299 kJ/mol
# GULP energy per Si atom -5571.614255 kJ/mol
# Density = 2.268431 g / cm^3
# Si number density = 22.736056 Si / 1000 Ang^3
#
#
#
# Elastic Constant Matrix: (Units=GPa)
#
#
# Indices 1 2 3 4 5 6 
#
# 1 27.2416 6.5315 -16.3956 0.0000 0.0000 0.0000
# 2 6.5315 102.0230 -4.0381 0.0000 0.0000 0.0000
# 3 -16.3956 -4.0381 39.5289 0.0000 0.0000 0.0000
# 4 0.0000 0.0000 0.0000 11.7068 0.0000 0.0000
# 5 0.0000 0.0000 0.0000 0.0000 12.1729 0.0000
# 6 0.0000 0.0000 0.0000 0.0000 0.0000 18.7538
#
#
#
# Elastic Compliance Matrix: (Units=1/GPa)
#
#
# Indices 1 2 3 4 5 6 
#
# 1 0.049483 -0.002365 0.020283 0.000000 0.000000 0.000000
# 2 -0.002365 0.009955 0.000036 0.000000 0.000000 0.000000
# 3 0.020283 0.000036 0.033714 0.000000 0.000000 0.000000
# 4 0.000000 0.000000 0.000000 0.085420 0.000000 0.000000
# 5 0.000000 0.000000 0.000000 0.000000 0.082150 0.000000
# 6 0.000000 0.000000 0.000000 0.000000 0.000000 0.053322
#
#
# Mechanical properties :
#
#
# Convention : Reuss Voigt Hill
#
# Bulk Modulus (GPa) = 7.74844 15.66547 11.70696
# Shear Modulus (GPa) = 15.56872 20.70642 18.13757
#
# Velocity S-wave (km/s) = 2.61963 3.02111 2.82750
# Velocity P-wave (km/s) = 3.54476 4.36744 3.97743
#
# Compressibility (1/GPa) = 0.12905824
#
# Stress axis : x y z
#
# Youngs Moduli (GPa) = 20.20908 100.45658 29.66105
#
# Poissons Ratio (x) = 0.23759 -0.60160
# Poissons Ratio (y) = 0.04780 -0.00107
# Poissons Ratio (z) = -0.40989 -0.00361
#
# Static dielectric constant tensor:
#      x y z
#    x 1.827890 0.000000 0.000000 
#    y 0.000000 1.896390 0.000000 
#    z 0.000000 0.000000 1.978410 
# 
# From -- ./inp_files/26600.got.cif
#   From: 2010.05.17/outbox.cif.g08.bks.cpg/sg50_14_cif.got.tgz:26600.got - 2010.06.03 11:33:33.
