data_PCOD9395027
_publ_section_title
;
Structure prediction by ZEFSAII (Michael W. Deem and Ramdas Pophale) SiO2 
 PCOD9395027
Probable space group: P C C M
;
_chemical_formula_sum "Si O2"
_cell_formula_units_Z 26
_cell_length_a 4.995509
_cell_length_b 14.841203
_cell_length_c 14.621582
_cell_angle_alpha 90.000000
_cell_angle_beta 90.000000
_cell_angle_gamma 90.000000
_cell_volume 1084.034778
_symmetry_space_group_name_H-M "P C C M"
_symmetry_group_IT_number 49
_symmetry_cell_setting 'orthorhombic'
loop_
_space_group_symop_operation_xyz
x,y,z
-x,-y,z
x,-y,1/2-z
-x,y,1/2-z
-x,-y,-z
x,y,-z
-x,y,1/2+z
x,-y,1/2+z
loop_
_atom_site_type_symbol
_atom_site_label
_atom_site_fract_x
_atom_site_fract_y
_atom_site_fract_z
Si Si1 0.500000 0.000000 0.000000
Si Si2 0.411708 0.132149 0.149867
Si Si3 0.919816 0.752075 0.394136
Si Si4 0.736850 0.560690 0.393181
O O1 0.666966 0.946274 0.080792
O O2 0.500000 0.103161 0.250000
O O3 0.673584 0.178782 0.106045
O O4 0.173152 0.204465 0.155407
O O5 0.005418 0.735792 0.500000
O O6 0.809575 0.658210 0.354027
O O7 0.500000 0.500000 0.353684
O O8 0.661412 0.578907 0.500000
O O9 0.000000 0.500000 0.391362
#
# Coordination Sequence:
#
# PCOD9395027 Si02
#       4
#     2   8   8   8
#     4  12  26  50  72 100 132 178 242 294 356 436
#     4  12  26  44  70 100 137 181 230 293 357 422
#     4  11  21  42  67  98 141 184 226 285 350 417
#     4   9  17  30  57  96 132 173 225 269 316 393
#
# _framework density 23.984473000000001
#
# number of rings (size 3 to 8) (size 9 to 14) (size 15 to 20)
#    0.000    1.231    3.077    3.231    0.000    7.385 
#    0.000    3.077    0.000   13.846    0.000    0.000 
#    0.000    0.000    0.000    0.308    0.000    0.000 
#
# Total GULP energy -144981.431121 kJ/mol
# GULP energy per Si atom -5576.208889 kJ/mol
# Density = 2.392988 g / cm^3
# Si number density = 23.984473 Si / 1000 Ang^3
#
#
#
# Elastic Constant Matrix: (Units=GPa)
#
#
# Indices 1 2 3 4 5 6 
#
# 1 116.7710 32.9176 32.0798 0.0000 0.0000 0.0000
# 2 32.9176 94.9212 33.2046 0.0000 0.0000 0.0000
# 3 32.0798 33.2046 135.8512 0.0000 0.0000 0.0000
# 4 0.0000 0.0000 0.0000 -719.4640 0.0000 0.0000
# 5 0.0000 0.0000 0.0000 0.0000 -78.3853 0.0000
# 6 0.0000 0.0000 0.0000 0.0000 0.0000 32.9654
#
#
#
# Elastic Compliance Matrix: (Units=1/GPa)
#
#
# Indices 1 2 3 4 5 6 
#
# 1 0.009809 -0.002834 -0.001624 0.000000 0.000000 0.000000
# 2 -0.002834 0.012339 -0.002347 0.000000 0.000000 0.000000
# 3 -0.001624 -0.002347 0.008318 0.000000 0.000000 0.000000
# 4 0.000000 0.000000 0.000000 -0.001390 0.000000 0.000000
# 5 0.000000 0.000000 0.000000 0.000000 -0.012757 0.000000
# 6 0.000000 0.000000 0.000000 0.000000 0.000000 0.030335
#
#
# Mechanical properties :
#
#
# Convention : Reuss Voigt Hill
#
# Bulk Modulus (GPa) = 59.32090 60.43861 59.87976
# Shear Modulus (GPa) = 75.89629 -136.35401 -30.22886
#
# Velocity S-wave (km/s) = 5.63140 -7.54814 -3.55399
# Velocity P-wave (km/s) = 8.18964 7.12124 2.85991
#
# Compressibility (1/GPa) = 0.01685746
#
# Stress axis : x y z
#
# Youngs Moduli (GPa) = 101.95147 81.04648 120.22174
#
# Poissons Ratio (x) = 0.22965 0.19519
# Poissons Ratio (y) = 0.28888 0.28212
# Poissons Ratio (z) = 0.16553 0.19019
#
# Static dielectric constant tensor:
#      x y z
#    x 1.876510 0.000000 0.000000 
#    y 0.000000 1.991990 0.000000 
#    z 0.000000 0.000000 1.938100 
# 
# From -- ./inp_files/15024.got.cif
#   From: 2010.05.17/outbox.cif.g08.bks.cpg/sg49_8_cif.got.tgz:15024.got - 2010.06.03 21:02:19.
