data_PCOD9395081
_publ_section_title
;
Structure prediction by ZEFSAII (Michael W. Deem and Ramdas Pophale) SiO2 
 PCOD9395081
Probable space group: P C C M
;
_chemical_formula_sum "Si O2"
_cell_formula_units_Z 40
_cell_length_a 9.272938
_cell_length_b 23.961455
_cell_length_c 9.045527
_cell_angle_alpha 90.000000
_cell_angle_beta 90.000000
_cell_angle_gamma 90.000000
_cell_volume 2009.853564
_symmetry_space_group_name_H-M "P C C M"
_symmetry_group_IT_number 49
_symmetry_cell_setting 'orthorhombic'
loop_
_space_group_symop_operation_xyz
x,y,z
-x,-y,z
x,-y,1/2-z
-x,y,1/2-z
-x,-y,-z
x,y,-z
-x,y,1/2+z
x,-y,1/2+z
loop_
_atom_site_type_symbol
_atom_site_label
_atom_site_fract_x
_atom_site_fract_y
_atom_site_fract_z
Si Si1 0.154714 0.251186 0.169944
Si Si2 0.638021 0.584725 0.500000
Si Si3 0.827416 0.621699 0.231502
Si Si4 0.688913 0.452452 0.500000
Si Si5 0.159447 0.058835 0.180496
Si Si6 0.342473 0.840985 0.821187
O O1 0.195489 0.316481 0.167276
O O2 0.264123 0.215276 0.266897
O O3 0.000000 0.246607 0.250000
O O4 0.147611 0.230745 0.000000
O O5 0.717703 0.615072 0.366318
O O6 0.672354 0.518465 0.500000
O O7 0.464228 0.580965 0.500000
O O8 0.000000 0.617887 0.250000
O O9 0.780122 0.569408 0.135558
O O10 0.255591 0.108335 0.245375
O O11 0.000000 0.066786 0.250000
O O12 0.211276 0.000000 0.250000
O O13 0.155785 0.057533 0.000000
O O14 0.500000 0.841491 0.750000
O O15 0.344372 0.845274 0.000000
#
# Coordination Sequence:
#
# PCOD9395081 Si02
#       6
#     8   4   8   4   8   8
#     4  11  24  44  68  94 128 168 215 270 330 392
#     4  11  25  39  67  89 131 169 212 261 334 397
#     4  11  24  41  66  94 126 164 218 271 329 392
#     4  11  23  45  59  95 127 171 210 265 326 409
#     4  11  22  41  68 100 136 178 228 276 331 390
#     4  12  26  44  66  97 135 175 222 272 330 392
#
# _framework density 19.901948000000001
#
# number of rings (size 3 to 8) (size 9 to 14) (size 15 to 20)
#    0.000    0.800    1.000    7.200    5.600    6.000 
#    0.000    2.000    0.000    0.000    0.000    0.000 
#    0.000    0.000    0.000    0.000    0.000    0.000 
#
# Total GULP energy -223299.788585 kJ/mol
# GULP energy per Si atom -5582.494715 kJ/mol
# Density = 1.985665 g / cm^3
# Si number density = 19.901948 Si / 1000 Ang^3
#
#
#
# Elastic Constant Matrix: (Units=GPa)
#
#
# Indices 1 2 3 4 5 6 
#
# 1 97.8455 66.4123 34.9513 0.0000 0.0000 0.0000
# 2 66.4123 92.6065 34.0365 0.0000 0.0000 0.0000
# 3 34.9513 34.0365 176.0935 0.0000 0.0000 0.0000
# 4 0.0000 0.0000 0.0000 37.7703 0.0000 0.0000
# 5 0.0000 0.0000 0.0000 0.0000 23.7445 0.0000
# 6 0.0000 0.0000 0.0000 0.0000 0.0000 245.3392
#
#
#
# Elastic Compliance Matrix: (Units=1/GPa)
#
#
# Indices 1 2 3 4 5 6 
#
# 1 0.020186 -0.013998 -0.001301 0.000000 0.000000 0.000000
# 2 -0.013998 0.021331 -0.001345 0.000000 0.000000 0.000000
# 3 -0.001301 -0.001345 0.006197 0.000000 0.000000 0.000000
# 4 0.000000 0.000000 0.000000 0.026476 0.000000 0.000000
# 5 0.000000 0.000000 0.000000 0.000000 0.042115 0.000000
# 6 0.000000 0.000000 0.000000 0.000000 0.000000 0.004076
#
#
# Mechanical properties :
#
#
# Convention : Reuss Voigt Hill
#
# Bulk Modulus (GPa) = 69.31557 70.81618 70.06588
# Shear Modulus (GPa) = 31.55015 76.78052 54.16533
#
# Velocity S-wave (km/s) = 3.98588 6.21797 5.22256
# Velocity P-wave (km/s) = 7.48913 9.33866 8.46457
#
# Compressibility (1/GPa) = 0.01442677
#
# Stress axis : x y z
#
# Youngs Moduli (GPa) = 49.53884 46.87928 161.37065
#
# Poissons Ratio (x) = 0.65623 0.20993
# Poissons Ratio (y) = 0.69346 0.21699
# Poissons Ratio (z) = 0.06445 0.06304
#
# Static dielectric constant tensor:
#      x y z
#    x 1.682830 0.000000 0.000000 
#    y 0.000000 1.680060 0.000000 
#    z 0.000000 0.000000 1.634340 
# 
# From -- ./inp_files/1716.got.cif
#   From: 2010.05.17/outbox.cif.g08.bks.cpg/sg49_1_cif.got.tgz:1716.got - 2010.06.03 21:02:19.
