data_PCOD9395996
_publ_section_title
;
Structure prediction by ZEFSAII (Michael W. Deem and Ramdas Pophale) SiO2 
 PCOD9395996
Probable space group: P B A N
;
_chemical_formula_sum "Si O2"
_cell_formula_units_Z 64
_cell_length_a 9.033348
_cell_length_b 16.652262
_cell_length_c 21.067457
_cell_angle_alpha 90.000000
_cell_angle_beta 90.000000
_cell_angle_gamma 90.000000
_cell_volume 3169.086495
_symmetry_space_group_name_H-M "P B A N"
_symmetry_group_IT_number 50
_space_group.IT_coordinate_system_code '2'
_symmetry_cell_setting 'orthorhombic'
loop_
_space_group_symop_operation_xyz
x,y,z
1/2-x,1/2-y,z
x,1/2-y,-z
1/2-x,y,-z
-x,-y,-z
1/2+x,1/2+y,-z
-x,1/2+y,z
1/2+x,-y,z
loop_
_atom_site_type_symbol
_atom_site_label
_atom_site_fract_x
_atom_site_fract_y
_atom_site_fract_z
Si Si1 0.709402 0.059539 0.669281
Si Si2 0.381035 0.038201 0.453535
Si Si3 0.968328 0.347028 0.762202
Si Si4 0.631543 0.526275 0.953415
Si Si5 0.419445 0.219798 0.431712
Si Si6 0.366652 0.544836 0.865349
Si Si7 0.539857 0.189440 0.305027
Si Si8 0.714105 0.584962 0.237579
O O1 0.564204 0.097268 0.701008
O O2 0.829840 0.129842 0.674474
O O3 0.673478 0.022534 0.600697
O O4 0.759356 0.986821 0.714720
O O5 0.250000 0.061787 0.500000
O O6 0.432035 0.123425 0.426860
O O7 0.500000 0.000000 0.500000
O O8 0.859373 0.383800 0.815106
O O9 0.928996 0.255926 0.747913
O O10 0.141559 0.361632 0.777317
O O11 0.527931 0.558151 0.896874
O O12 0.737849 0.461575 0.918023
O O13 0.750000 0.571110 0.000000
O O14 0.500000 0.500000 0.000000
O O15 0.250000 0.250000 0.428705
O O16 0.478675 0.250000 0.500000
O O17 0.497623 0.243397 0.366643
O O18 0.353415 0.461790 0.824085
O O19 0.406142 0.136868 0.275965
#
# Coordination Sequence:
#
# PCOD9395996 Si02
#       8
#     8   8   8   8   8   8   8   8
#     4  11  25  43  61  92 125 163 212 281 340 399
#     4  12  26  42  66  90 116 162 217 274 337 405
#     4  11  24  39  62  91 135 171 212 274 338 390
#     4   9  18  34  63 101 141 178 226 271 308 366
#     4  11  23  43  65  90 119 163 219 273 332 412
#     4  10  19  37  61 101 140 171 226 276 318 375
#     4  12  25  42  65  94 126 173 220 276 347 408
#     4  11  22  39  67  90 130 172 220 269 324 393
#
# _framework density 20.195094000000001
#
# number of rings (size 3 to 8) (size 9 to 14) (size 15 to 20)
#    0.000    1.125    3.750    3.750    5.250    0.000 
#    0.000    0.000    0.000    0.000    0.000   13.125 
#    0.000    0.000    0.000    0.000    0.000    0.000 
#
# Total GULP energy -356637.413241 kJ/mol
# GULP energy per Si atom -5572.459582 kJ/mol
# Density = 2.014913 g / cm^3
# Si number density = 20.195094 Si / 1000 Ang^3
#
#
#
# Elastic Constant Matrix: (Units=GPa)
#
#
# Indices 1 2 3 4 5 6 
#
# 1 86.6780 30.1476 34.7176 0.0000 0.0000 0.0000
# 2 30.1476 96.6207 35.0368 0.0000 0.0000 0.0000
# 3 34.7176 35.0368 110.1673 0.0000 0.0000 0.0000
# 4 0.0000 0.0000 0.0000 7.8194 0.0000 0.0000
# 5 0.0000 0.0000 0.0000 0.0000 37.0852 0.0000
# 6 0.0000 0.0000 0.0000 0.0000 0.0000 23.7350
#
#
#
# Elastic Compliance Matrix: (Units=1/GPa)
#
#
# Indices 1 2 3 4 5 6 
#
# 1 0.013993 -0.003128 -0.003415 0.000000 0.000000 0.000000
# 2 -0.003128 0.012398 -0.002957 0.000000 0.000000 0.000000
# 3 -0.003415 -0.002957 0.011094 0.000000 0.000000 0.000000
# 4 0.000000 0.000000 0.000000 0.127886 0.000000 0.000000
# 5 0.000000 0.000000 0.000000 0.000000 0.026965 0.000000
# 6 0.000000 0.000000 0.000000 0.000000 0.000000 0.042132
#
#
# Mechanical properties :
#
#
# Convention : Reuss Voigt Hill
#
# Bulk Modulus (GPa) = 54.09891 54.80778 54.45335
# Shear Modulus (GPa) = 19.25826 26.63220 22.94523
#
# Velocity S-wave (km/s) = 3.09141 3.63539 3.37438
# Velocity P-wave (km/s) = 6.29196 6.69474 6.49647
#
# Compressibility (1/GPa) = 0.01848466
#
# Stress axis : x y z
#
# Youngs Moduli (GPa) = 71.46656 80.65790 90.14059
#
# Poissons Ratio (x) = 0.25227 0.30782
# Poissons Ratio (y) = 0.22352 0.26658
# Poissons Ratio (z) = 0.24405 0.23853
#
# Static dielectric constant tensor:
#      x y z
#    x 1.739360 0.000000 0.000000 
#    y 0.000000 1.711020 0.000000 
#    z 0.000000 0.000000 1.801840 
# 
# From -- ./inp_files/31602.got.cif
#   From: 2010.05.17/outbox.cif.g08.bks.cpg/sg50_16_cif.got.tgz:31602.got - 2010.06.03 11:33:33.
