data_PCOD9395015
_publ_section_title
;
Structure prediction by ZEFSAII (Michael W. Deem and Ramdas Pophale) SiO2 
 PCOD9395015
Probable space group: P C C M
;
_chemical_formula_sum "Si O2"
_cell_formula_units_Z 48
_cell_length_a 9.509934
_cell_length_b 14.510296
_cell_length_c 16.909843
_cell_angle_alpha 90.000000
_cell_angle_beta 90.000000
_cell_angle_gamma 90.000000
_cell_volume 2333.422333
_symmetry_space_group_name_H-M "P C C M"
_symmetry_group_IT_number 49
_symmetry_cell_setting 'orthorhombic'
loop_
_space_group_symop_operation_xyz
x,y,z
-x,-y,z
x,-y,1/2-z
-x,y,1/2-z
-x,-y,-z
x,y,-z
-x,y,1/2+z
x,-y,1/2+z
loop_
_atom_site_type_symbol
_atom_site_label
_atom_site_fract_x
_atom_site_fract_y
_atom_site_fract_z
Si Si1 0.080686 0.091045 0.593064
Si Si2 0.113365 0.274124 0.314820
Si Si3 0.279295 0.569025 0.092759
Si Si4 0.354434 0.201890 0.203034
Si Si5 0.608761 0.623946 0.907119
Si Si6 0.662531 0.010936 0.344752
O O1 0.052271 0.097783 0.500000
O O2 0.052130 0.189884 0.632456
O O3 0.241618 0.060334 0.608825
O O4 0.000000 0.000000 0.625798
O O5 0.178273 0.360755 0.361715
O O6 0.240616 0.225529 0.268557
O O7 0.000000 0.304049 0.250000
O O8 0.292922 0.462158 0.118443
O O9 0.442721 0.600169 0.098765
O O10 0.241677 0.570572 0.000000
O O11 0.500000 0.179288 0.250000
O O12 0.370841 0.290473 0.148982
O O13 0.305080 0.118736 0.146710
O O14 0.636958 0.641294 0.000000
O O15 0.500000 0.000000 0.365402
O O16 0.681498 0.000000 0.250000
#
# Coordination Sequence:
#
# PCOD9395015 Si02
#       6
#     8   8   8   8   8   8
#     4  11  25  43  64  92 126 176 227 264 316 396
#     4  12  24  39  64  96 130 170 213 271 326 385
#     4   9  19  40  65  92 125 167 214 267 327 386
#     4  12  21  37  62  93 128 168 218 266 327 384
#     4   9  20  39  65  93 125 165 214 267 324 390
#     4  11  21  38  60  91 130 170 209 269 333 380
#
# _framework density 20.570644000000001
#
# number of rings (size 3 to 8) (size 9 to 14) (size 15 to 20)
#    0.000    1.333    5.000    2.500    0.000    1.667 
#    0.000    3.333    0.000    2.000    0.000    0.000 
#    0.000    0.000    0.000    0.000    0.000    0.000 
#
# Total GULP energy -267975.188568 kJ/mol
# GULP energy per Si atom -5582.816429 kJ/mol
# Density = 2.052382 g / cm^3
# Si number density = 20.570644 Si / 1000 Ang^3
#
#
#
# Elastic Constant Matrix: (Units=GPa)
#
#
# Indices 1 2 3 4 5 6 
#
# 1 55.0087 11.0283 14.9153 0.0000 0.0000 0.0000
# 2 11.0283 141.0511 53.1897 0.0000 0.0000 0.0000
# 3 14.9153 53.1897 49.6822 0.0000 0.0000 0.0000
# 4 0.0000 0.0000 0.0000 19.2775 0.0000 0.0000
# 5 0.0000 0.0000 0.0000 0.0000 21.6603 0.0000
# 6 0.0000 0.0000 0.0000 0.0000 0.0000 25.5840
#
#
#
# Elastic Compliance Matrix: (Units=1/GPa)
#
#
# Indices 1 2 3 4 5 6 
#
# 1 0.019904 0.001169 -0.007227 0.000000 0.000000 0.000000
# 2 0.001169 0.011958 -0.013154 0.000000 0.000000 0.000000
# 3 -0.007227 -0.013154 0.036380 0.000000 0.000000 0.000000
# 4 0.000000 0.000000 0.000000 0.051874 0.000000 0.000000
# 5 0.000000 0.000000 0.000000 0.000000 0.046167 0.000000
# 6 0.000000 0.000000 0.000000 0.000000 0.000000 0.039087
#
#
# Mechanical properties :
#
#
# Convention : Reuss Voigt Hill
#
# Bulk Modulus (GPa) = 33.53558 44.88986 39.21272
# Shear Modulus (GPa) = 19.70571 24.41161 22.05866
#
# Velocity S-wave (km/s) = 3.09844 3.44862 3.27821
# Velocity P-wave (km/s) = 5.39801 6.14223 5.78210
#
# Compressibility (1/GPa) = 0.02981908
#
# Stress axis : x y z
#
# Youngs Moduli (GPa) = 50.24073 83.62341 27.48776
#
# Poissons Ratio (x) = -0.09776 0.19866
# Poissons Ratio (y) = -0.05874 0.36156
# Poissons Ratio (z) = 0.36310 1.09995
#
# Static dielectric constant tensor:
#      x y z
#    x 1.824470 0.000000 0.000000 
#    y 0.000000 1.776960 0.000000 
#    z 0.000000 0.000000 1.716920 
# 
# From -- ./inp_files/16319.got.cif
#   From: 2010.05.17/outbox.cif.g08.bks.cpg/sg49_9_cif.got.tgz:16319.got - 2010.06.03 21:02:19.
