data_PCOD9395578
_publ_section_title
;
Structure prediction by ZEFSAII (Michael W. Deem and Ramdas Pophale) SiO2 
 PCOD9395578
Probable space group: P B A N
;
_chemical_formula_sum "Si O2"
_cell_formula_units_Z 44
_cell_length_a 19.480336
_cell_length_b 15.212628
_cell_length_c 8.508843
_cell_angle_alpha 90.000000
_cell_angle_beta 90.000000
_cell_angle_gamma 90.000000
_cell_volume 2521.570989
_symmetry_space_group_name_H-M "P B A N"
_symmetry_group_IT_number 50
_space_group.IT_coordinate_system_code '2'
_symmetry_cell_setting 'orthorhombic'
loop_
_space_group_symop_operation_xyz
x,y,z
1/2-x,1/2-y,z
x,1/2-y,-z
1/2-x,y,-z
-x,-y,-z
1/2+x,1/2+y,-z
-x,1/2+y,z
1/2+x,-y,z
loop_
_atom_site_type_symbol
_atom_site_label
_atom_site_fract_x
_atom_site_fract_y
_atom_site_fract_z
Si Si1 0.953473 0.076384 0.430798
Si Si2 0.072157 0.506105 0.089086
Si Si3 0.960578 0.750000 0.500000
Si Si4 0.448801 0.189009 0.156369
Si Si5 0.824092 0.346181 0.431264
Si Si6 0.887560 0.336039 0.105959
O O1 0.940608 0.057500 0.249790
O O2 0.880618 0.084335 0.514819
O O3 0.993405 0.166326 0.457856
O O4 0.000000 0.000000 0.500000
O O5 0.088607 0.404531 0.126139
O O6 0.118069 0.571492 0.985656
O O7 0.000000 0.500000 0.000000
O O8 0.926754 0.726617 0.671482
O O9 0.532325 0.172268 0.166081
O O10 0.439298 0.250000 0.000000
O O11 0.841630 0.250000 0.500000
O O12 0.750000 0.368659 0.500000
O O13 0.833366 0.336642 0.246118
O O14 0.877081 0.250000 0.000000
#
# Coordination Sequence:
#
# PCOD9395578 Si02
#       6
#     8   8   4   8   8   8
#     4  12  20  34  57  83 119 155 198 242 292 355
#     4  10  19  32  49  78 107 150 197 243 292 349
#     4  12  18  32  53  82 117 154 186 240 310 338
#     4  10  19  31  50  79 116 145 191 248 293 354
#     4  11  22  37  54  83 122 159 197 240 294 366
#     4  10  18  33  53  72 107 155 194 236 285 346
#
# _framework density 17.449439000000002
#
# number of rings (size 3 to 8) (size 9 to 14) (size 15 to 20)
#    0.000    1.273    4.545    5.455    0.000    0.000 
#    0.000    6.364    0.000    0.000    0.000    0.636 
#    0.000    1.455    0.000    0.000    0.000    0.000 
#
# Total GULP energy -245225.623199 kJ/mol
# GULP energy per Si atom -5573.309618 kJ/mol
# Density = 1.740972 g / cm^3
# Si number density = 17.449439 Si / 1000 Ang^3
#
#
#
# Elastic Constant Matrix: (Units=GPa)
#
#
# Indices 1 2 3 4 5 6 
#
# 1 56.6811 33.5670 26.2116 0.0000 0.0000 0.0000
# 2 33.5670 134.5540 59.7344 0.0000 0.0000 0.0000
# 3 26.2116 59.7344 149.9161 0.0000 0.0000 0.0000
# 4 0.0000 0.0000 0.0000 38.9717 0.0000 0.0000
# 5 0.0000 0.0000 0.0000 0.0000 14.3541 0.0000
# 6 0.0000 0.0000 0.0000 0.0000 0.0000 12.6859
#
#
#
# Elastic Compliance Matrix: (Units=1/GPa)
#
#
# Indices 1 2 3 4 5 6 
#
# 1 0.021155 -0.004417 -0.001939 0.000000 0.000000 0.000000
# 2 -0.004417 0.009951 -0.003193 0.000000 0.000000 0.000000
# 3 -0.001939 -0.003193 0.008282 0.000000 0.000000 0.000000
# 4 0.000000 0.000000 0.000000 0.025660 0.000000 0.000000
# 5 0.000000 0.000000 0.000000 0.000000 0.069666 0.000000
# 6 0.000000 0.000000 0.000000 0.000000 0.000000 0.078828
#
#
# Mechanical properties :
#
#
# Convention : Reuss Voigt Hill
#
# Bulk Modulus (GPa) = 49.28361 64.46412 56.87386
# Shear Modulus (GPa) = 20.88539 27.97822 24.43181
#
# Velocity S-wave (km/s) = 3.46339 4.00858 3.74592
# Velocity P-wave (km/s) = 6.65571 7.64516 7.16753
#
# Compressibility (1/GPa) = 0.02029072
#
# Stress axis : x y z
#
# Youngs Moduli (GPa) = 47.27058 100.48997 120.74955
#
# Poissons Ratio (x) = 0.44383 0.23412
# Poissons Ratio (y) = 0.20878 0.38554
# Poissons Ratio (z) = 0.09165 0.32085
#
# Static dielectric constant tensor:
#      x y z
#    x 1.564750 0.000000 0.000000 
#    y 0.000000 1.609540 0.000000 
#    z 0.000000 0.000000 1.639570 
# 
# From -- ./inp_files/14147.got.cif
#   From: 2010.05.17/outbox.cif.g08.bks.cpg/sg50_8_cif.got.tgz:14147.got - 2010.06.03 11:33:33.
