data_PCOD9395353
_publ_section_title
;
Structure prediction by ZEFSAII (Michael W. Deem and Ramdas Pophale) SiO2 
 PCOD9395353
Probable space group: P B A N
;
_chemical_formula_sum "Si O2"
_cell_formula_units_Z 56
_cell_length_a 5.562781
_cell_length_b 18.090331
_cell_length_c 25.676015
_cell_angle_alpha 90.000000
_cell_angle_beta 90.000000
_cell_angle_gamma 90.000000
_cell_volume 2583.842852
_symmetry_space_group_name_H-M "P B A N"
_symmetry_group_IT_number 50
_space_group.IT_coordinate_system_code '2'
_symmetry_cell_setting 'orthorhombic'
loop_
_space_group_symop_operation_xyz
x,y,z
1/2-x,1/2-y,z
x,1/2-y,-z
1/2-x,y,-z
-x,-y,-z
1/2+x,1/2+y,-z
-x,1/2+y,z
1/2+x,-y,z
loop_
_atom_site_type_symbol
_atom_site_label
_atom_site_fract_x
_atom_site_fract_y
_atom_site_fract_z
Si Si1 0.840914 0.995848 0.601094
Si Si2 0.118808 0.656281 0.641551
Si Si3 0.003449 0.666084 0.520749
Si Si4 0.285976 0.913137 0.938254
Si Si5 0.292730 0.417482 0.103787
Si Si6 0.836305 0.544435 0.225074
Si Si7 0.626978 0.644459 0.677709
O O1 0.847958 0.066040 0.640535
O O2 0.590797 0.999078 0.571305
O O3 0.846173 0.922014 0.635175
O O4 0.041407 0.672375 0.582347
O O5 0.381799 0.682696 0.658813
O O6 0.891047 0.679563 0.675383
O O7 0.001034 0.750000 0.500000
O O8 0.250000 0.630656 0.500000
O O9 0.750000 0.634378 0.500000
O O10 0.540209 0.883355 0.915956
O O11 0.040907 0.880300 0.914396
O O12 0.290930 0.999861 0.921395
O O13 0.250000 0.908816 0.000000
O O14 0.318285 0.428785 0.165480
O O15 0.570375 0.508578 0.233419
O O16 0.890308 0.609595 0.265479
#
# Coordination Sequence:
#
# PCOD9395353 Si02
#       7
#     8   8   8   8   8   8   8
#     4   8  14  25  39  59  80 109 139 157 186 226
#     4  10  18  32  48  67  90 110 141 163 200 256
#     4  10  21  37  57  77  92 109 133 169 214 253
#     4  10  16  25  33  43  63  96 137 181 235 284
#     4  10  16  24  31  49  63  93 127 183 225 270
#     4  12  18  27  38  55  83 103 144 178 222 261
#     4  10  19  28  45  64  85 122 140 169 202 256
#
# _framework density 21.673143
#
# number of rings (size 3 to 8) (size 9 to 14) (size 15 to 20)
#    0.000    2.000    2.857    6.429    0.000    0.000 
#    0.000    0.000    0.000   23.143    0.000    0.000 
#    0.000    0.000    0.000    0.000    0.000    0.000 
#
# Total GULP energy -312215.969983 kJ/mol
# GULP energy per Si atom -5575.285178 kJ/mol
# Density = 2.162381 g / cm^3
# Si number density = 21.673143 Si / 1000 Ang^3
#
#
#
# Elastic Constant Matrix: (Units=GPa)
#
#
# Indices 1 2 3 4 5 6 
#
# 1 266.7009 20.6329 37.6092 0.0000 0.0000 0.0000
# 2 20.6329 39.4631 5.8637 0.0000 0.0000 0.0000
# 3 37.6092 5.8637 91.5285 0.0000 0.0000 0.0000
# 4 0.0000 0.0000 0.0000 8.3686 0.0000 0.0000
# 5 0.0000 0.0000 0.0000 0.0000 31.1740 0.0000
# 6 0.0000 0.0000 0.0000 0.0000 0.0000 29.6085
#
#
#
# Elastic Compliance Matrix: (Units=1/GPa)
#
#
# Indices 1 2 3 4 5 6 
#
# 1 0.004119 -0.001921 -0.001570 0.000000 0.000000 0.000000
# 2 -0.001921 0.026479 -0.000907 0.000000 0.000000 0.000000
# 3 -0.001570 -0.000907 0.011629 0.000000 0.000000 0.000000
# 4 0.000000 0.000000 0.000000 0.119494 0.000000 0.000000
# 5 0.000000 0.000000 0.000000 0.000000 0.032078 0.000000
# 6 0.000000 0.000000 0.000000 0.000000 0.000000 0.033774
#
#
# Mechanical properties :
#
#
# Convention : Reuss Voigt Hill
#
# Bulk Modulus (GPa) = 29.91120 58.43378 44.17249
# Shear Modulus (GPa) = 20.20099 36.06934 28.13516
#
# Velocity S-wave (km/s) = 3.05630 4.08394 3.60690
# Velocity P-wave (km/s) = 5.12695 7.01840 6.14588
#
# Compressibility (1/GPa) = 0.03343230
#
# Stress axis : x y z
#
# Youngs Moduli (GPa) = 242.75104 37.76571 85.99453
#
# Poissons Ratio (x) = 0.07253 0.13498
# Poissons Ratio (y) = 0.46622 0.07801
# Poissons Ratio (z) = 0.38103 0.03426
#
# Static dielectric constant tensor:
#      x y z
#    x 1.971040 0.000000 0.000000 
#    y 0.000000 1.838610 0.000000 
#    z 0.000000 0.000000 1.757850 
# 
# From -- ./inp_files/31537.got.cif
#   From: 2010.05.17/outbox.cif.g08.bks.cpg/sg50_16_cif.got.tgz:31537.got - 2010.06.03 11:33:33.
