data_PCOD9395632
_publ_section_title
;
Structure prediction by ZEFSAII (Michael W. Deem and Ramdas Pophale) SiO2 
 PCOD9395632
Probable space group: P B A N
;
_chemical_formula_sum "Si O2"
_cell_formula_units_Z 56
_cell_length_a 28.631371
_cell_length_b 14.050621
_cell_length_c 6.873451
_cell_angle_alpha 90.000000
_cell_angle_beta 90.000000
_cell_angle_gamma 90.000000
_cell_volume 2765.110586
_symmetry_space_group_name_H-M "P B A N"
_symmetry_group_IT_number 50
_space_group.IT_coordinate_system_code '2'
_symmetry_cell_setting 'orthorhombic'
loop_
_space_group_symop_operation_xyz
x,y,z
1/2-x,1/2-y,z
x,1/2-y,-z
1/2-x,y,-z
-x,-y,-z
1/2+x,1/2+y,-z
-x,1/2+y,z
1/2+x,-y,z
loop_
_atom_site_type_symbol
_atom_site_label
_atom_site_fract_x
_atom_site_fract_y
_atom_site_fract_z
Si Si1 0.068790 0.347800 0.618523
Si Si2 0.320064 0.144327 0.559307
Si Si3 0.541846 0.975951 0.716711
Si Si4 0.001986 0.853536 0.948119
Si Si5 0.295166 0.995532 0.862884
Si Si6 0.193934 0.639061 0.516707
Si Si7 0.349695 0.011474 0.236938
O O1 0.059461 0.250000 0.500000
O O2 0.124934 0.358798 0.624062
O O3 0.042541 0.435317 0.505141
O O4 0.046375 0.338999 0.830373
O O5 0.306567 0.250000 0.500000
O O6 0.291026 0.086780 0.720689
O O7 0.319843 0.086399 0.359548
O O8 0.531992 0.082056 0.798824
O O9 0.596594 0.961480 0.756269
O O10 0.509243 0.910615 0.853952
O O11 0.021845 0.750000 0.000000
O O12 0.312913 0.910079 0.725297
O O13 0.250000 0.975965 0.000000
O O14 0.335204 0.012457 0.016833
O O15 0.183868 0.750000 0.500000
O O16 0.250000 0.625748 0.500000
O O17 0.164360 0.584849 0.351568
#
# Coordination Sequence:
#
# PCOD9395632 Si02
#       7
#     8   8   8   8   8   8   8
#     4  10  18  36  61  84 112 158 199 237 287 349
#     4   9  21  37  59  88 122 156 199 244 287 347
#     4  10  22  38  58  84 121 158 187 245 302 341
#     4  11  21  36  58  88 119 151 201 244 285 356
#     4  11  21  38  63  87 117 156 193 245 295 346
#     4  10  21  40  63  88 117 148 196 244 290 351
#     4  10  21  40  60  87 121 153 198 244 294 353
#
# _framework density 20.252355000000001
#
# number of rings (size 3 to 8) (size 9 to 14) (size 15 to 20)
#    0.000    1.857    2.857    1.286    0.000    1.143 
#    2.571    2.857    0.000    0.000    0.000    0.000 
#    0.000    0.000    0.000    0.000    0.000    0.000 
#
# Total GULP energy -312139.574636 kJ/mol
# GULP energy per Si atom -5573.920976 kJ/mol
# Density = 2.020626 g / cm^3
# Si number density = 20.252355 Si / 1000 Ang^3
#
#
#
# Elastic Constant Matrix: (Units=GPa)
#
#
# Indices 1 2 3 4 5 6 
#
# 1 20.3567 -9.7796 3.9082 0.0000 0.0000 0.0000
# 2 -9.7796 111.0265 38.0076 0.0000 0.0000 0.0000
# 3 3.9082 38.0076 106.9689 0.0000 0.0000 0.0000
# 4 0.0000 0.0000 0.0000 24.0429 0.0000 0.0000
# 5 0.0000 0.0000 0.0000 0.0000 19.4735 0.0000
# 6 0.0000 0.0000 0.0000 0.0000 0.0000 17.7519
#
#
#
# Elastic Compliance Matrix: (Units=1/GPa)
#
#
# Indices 1 2 3 4 5 6 
#
# 1 0.052812 0.006048 -0.004079 0.000000 0.000000 0.000000
# 2 0.006048 0.010947 -0.004111 0.000000 0.000000 0.000000
# 3 -0.004079 -0.004111 0.010958 0.000000 0.000000 0.000000
# 4 0.000000 0.000000 0.000000 0.041592 0.000000 0.000000
# 5 0.000000 0.000000 0.000000 0.000000 0.051352 0.000000
# 6 0.000000 0.000000 0.000000 0.000000 0.000000 0.056332
#
#
# Mechanical properties :
#
#
# Convention : Reuss Voigt Hill
#
# Bulk Modulus (GPa) = 14.19744 33.62496 23.91120
# Shear Modulus (GPa) = 19.86069 26.00139 22.93104
#
# Velocity S-wave (km/s) = 3.13495 3.58700 3.36857
# Velocity P-wave (km/s) = 4.48657 5.81330 5.19249
#
# Compressibility (1/GPa) = 0.07043524
#
# Stress axis : x y z
#
# Youngs Moduli (GPa) = 18.93496 91.35136 91.25713
#
# Poissons Ratio (x) = -0.55250 0.37219
# Poissons Ratio (y) = -0.11452 0.37511
# Poissons Ratio (z) = 0.07723 0.37550
#
# Static dielectric constant tensor:
#      x y z
#    x 1.738840 0.000000 0.000000 
#    y 0.000000 1.718100 0.000000 
#    z 0.000000 0.000000 1.729270 
# 
# From -- ./inp_files/7203.got.cif
#   From: 2010.05.17/outbox.cif.g08.bks.cpg/sg50_4_cif.got.tgz:7203.got - 2010.06.03 11:33:33.
