data_PCOD9395959
_publ_section_title
;
Structure prediction by ZEFSAII (Michael W. Deem and Ramdas Pophale) SiO2 
 PCOD9395959
Probable space group: P B A N
;
_chemical_formula_sum "Si O2"
_cell_formula_units_Z 30
_cell_length_a 13.290295
_cell_length_b 8.358453
_cell_length_c 12.532989
_cell_angle_alpha 90.000000
_cell_angle_beta 90.000000
_cell_angle_gamma 90.000000
_cell_volume 1392.243453
_symmetry_space_group_name_H-M "P B A N"
_symmetry_group_IT_number 50
_space_group.IT_coordinate_system_code '2'
_symmetry_cell_setting 'orthorhombic'
loop_
_space_group_symop_operation_xyz
x,y,z
1/2-x,1/2-y,z
x,1/2-y,-z
1/2-x,y,-z
-x,-y,-z
1/2+x,1/2+y,-z
-x,1/2+y,z
1/2+x,-y,z
loop_
_atom_site_type_symbol
_atom_site_label
_atom_site_fract_x
_atom_site_fract_y
_atom_site_fract_z
Si Si1 0.750000 0.250000 0.500000
Si Si2 0.128059 0.565654 0.322830
Si Si3 0.425196 0.970920 0.900963
Si Si4 0.750000 0.250000 0.138581
Si Si5 0.559775 0.748369 0.749293
O O1 0.815937 0.362326 0.576082
O O2 0.183998 0.636245 0.217600
O O3 0.126797 0.373438 0.315712
O O4 0.015321 0.640077 0.320943
O O5 0.327307 0.865857 0.922068
O O6 0.490182 0.866967 0.818542
O O7 0.393081 0.130566 0.837507
O O8 0.500000 0.000000 0.000000
#
# Coordination Sequence:
#
# PCOD9395959 Si02
#       5
#     2   8   8   4   8
#     4  10  20  36  62  94 126 160 214 260 320 412
#     4   9  19  37  60  86 120 163 206 265 324 386
#     4  10  19  36  61  88 121 167 214 258 317 397
#     4   9  20  37  58  86 124 164 209 267 329 381
#     4   9  19  36  58  83 121 161 201 258 328 375
#
# _framework density 21.547954000000001
#
# number of rings (size 3 to 8) (size 9 to 14) (size 15 to 20)
#    0.000    2.667    0.000    0.800    0.000    2.133 
#    0.000   29.333    0.000   41.600    0.000    0.000 
#    0.000    0.000    0.000    0.000    0.000    0.000 
#
# Total GULP energy -167424.682774 kJ/mol
# GULP energy per Si atom -5580.822759 kJ/mol
# Density = 2.149891 g / cm^3
# Si number density = 21.547954 Si / 1000 Ang^3
#
#
#
# Elastic Constant Matrix: (Units=GPa)
#
#
# Indices 1 2 3 4 5 6 
#
# 1 92.2313 63.3071 54.0876 0.0000 0.0000 0.0000
# 2 63.3071 181.7784 64.2452 0.0000 0.0000 0.0000
# 3 54.0876 64.2452 101.6414 0.0000 0.0000 0.0000
# 4 0.0000 0.0000 0.0000 25.3187 0.0000 0.0000
# 5 0.0000 0.0000 0.0000 0.0000 14.8462 0.0000
# 6 0.0000 0.0000 0.0000 0.0000 0.0000 38.4611
#
#
#
# Elastic Compliance Matrix: (Units=1/GPa)
#
#
# Indices 1 2 3 4 5 6 
#
# 1 0.017409 -0.003591 -0.006994 0.000000 0.000000 0.000000
# 2 -0.003591 0.007824 -0.003035 0.000000 0.000000 0.000000
# 3 -0.006994 -0.003035 0.015479 0.000000 0.000000 0.000000
# 4 0.000000 0.000000 0.000000 0.039497 0.000000 0.000000
# 5 0.000000 0.000000 0.000000 0.000000 0.067357 0.000000
# 6 0.000000 0.000000 0.000000 0.000000 0.000000 0.026000
#
#
# Mechanical properties :
#
#
# Convention : Reuss Voigt Hill
#
# Bulk Modulus (GPa) = 74.22782 82.10344 78.16563
# Shear Modulus (GPa) = 24.35506 28.65926 26.50716
#
# Velocity S-wave (km/s) = 3.36560 3.65090 3.51115
# Velocity P-wave (km/s) = 7.04454 7.48047 7.26578
#
# Compressibility (1/GPa) = 0.01347204
#
# Stress axis : x y z
#
# Youngs Moduli (GPa) = 57.44244 127.80614 64.60554
#
# Poissons Ratio (x) = 0.45894 0.45186
# Poissons Ratio (y) = 0.20627 0.19606
# Poissons Ratio (z) = 0.40176 0.38785
#
# Static dielectric constant tensor:
#      x y z
#    x 1.845130 0.000000 0.000000 
#    y 0.000000 1.829330 0.000000 
#    z 0.000000 0.000000 1.824570 
# 
# From -- ./inp_files/18414.got.cif
#   From: 2010.05.17/outbox.cif.g08.bks.cpg/sg50_10_cif.got.tgz:18414.got - 2010.06.03 11:33:33.
