data_PCOD9395249
_publ_section_title
;
Structure prediction by ZEFSAII (Michael W. Deem and Ramdas Pophale) SiO2 
 PCOD9395249
Probable space group: P C C M
;
_chemical_formula_sum "Si O2"
_cell_formula_units_Z 56
_cell_length_a 15.000000
_cell_length_b 21.000000
_cell_length_c 9.000000
_cell_angle_alpha 90.000000
_cell_angle_beta 90.000000
_cell_angle_gamma 90.000000
_cell_volume 2835.000000
_symmetry_space_group_name_H-M "P C C M"
_symmetry_group_IT_number 49
_symmetry_cell_setting 'orthorhombic'
loop_
_space_group_symop_operation_xyz
x,y,z
-x,-y,z
x,-y,1/2-z
-x,y,1/2-z
-x,-y,-z
x,y,-z
-x,y,1/2+z
x,-y,1/2+z
loop_
_atom_site_type_symbol
_atom_site_label
_atom_site_fract_x
_atom_site_fract_y
_atom_site_fract_z
Si Si1 0.269171 0.434321 0.822150
Si Si2 0.339403 0.802933 0.171472
Si Si3 0.289616 0.066643 0.179360
Si Si4 0.869241 0.768122 0.330558
Si Si5 0.590392 0.677178 0.177045
Si Si6 0.093252 0.379994 0.677828
Si Si7 0.088793 0.104063 0.825113
O O1 0.302924 0.500000 0.750000
O O2 0.331892 0.373563 0.789567
O O3 0.173738 0.418252 0.751194
O O4 0.262807 0.441155 0.000000
O O5 0.338451 0.871120 0.253840
O O6 0.237042 0.778374 0.170093
O O7 0.390862 0.746768 0.254829
O O8 0.368588 0.809653 0.000000
O O9 0.184375 0.075229 0.221229
O O10 0.320523 0.000000 0.250000
O O11 0.296218 0.066042 0.000000
O O12 0.900659 0.780978 0.500000
O O13 0.892195 0.695704 0.291622
O O14 0.905425 0.821472 0.220003
O O15 0.500000 0.652580 0.250000
O O16 0.582336 0.682409 0.000000
O O17 0.093103 0.388140 0.500000
O O18 0.000000 0.399149 0.750000
O O19 0.000000 0.077245 0.750000
O O20 0.081144 0.096914 0.000000
#
# Coordination Sequence:
#
# PCOD9395249 Si02
#       7
#     8   8   8   8   8   8   8
#     4  11  25  44  66  92 126 167 208 256 310 367
#     4  10  19  36  62  90 121 157 198 249 305 362
#     4  10  21  36  54  80 113 156 204 251 305 367
#     4   9  18  32  53  80 111 151 196 247 305 360
#     4  11  24  42  68 100 130 162 202 250 306 370
#     4  11  22  37  58  87 122 163 211 260 309 365
#     4  10  20  31  46  70 105 147 196 253 306 361
#
# _framework density 19.753086
#
# number of rings (size 3 to 8) (size 9 to 14) (size 15 to 20)
#    0.000    1.714    1.429    3.000    0.000    7.143 
#    0.000    4.286    0.000    0.429    0.000    3.000 
#    0.000    0.000    0.000    0.000    0.000    0.000 
#
# Total GULP energy -312940.984614 kJ/mol
# GULP energy per Si atom -5588.231868 kJ/mol
# Density = 1.970813 g / cm^3
# Si number density = 19.753086 Si / 1000 Ang^3
#
#
#
# Elastic Constant Matrix: (Units=GPa)
#
#
# Indices 1 2 3 4 5 6 
#
# 1 65.5712 29.7011 38.4565 0.0000 0.0000 0.0000
# 2 29.7011 116.0540 59.1088 0.0000 0.0000 0.0000
# 3 38.4565 59.1088 82.9245 0.0000 0.0000 0.0000
# 4 0.0000 0.0000 0.0000 30.2535 0.0000 0.0000
# 5 0.0000 0.0000 0.0000 0.0000 26.9366 0.0000
# 6 0.0000 0.0000 0.0000 0.0000 0.0000 2.1900
#
#
#
# Elastic Compliance Matrix: (Units=1/GPa)
#
#
# Indices 1 2 3 4 5 6 
#
# 1 0.020979 -0.000650 -0.009266 0.000000 0.000000 0.000000
# 2 -0.000650 0.013548 -0.009356 0.000000 0.000000 0.000000
# 3 -0.009266 -0.009356 0.023025 0.000000 0.000000 0.000000
# 4 0.000000 0.000000 0.000000 0.033054 0.000000 0.000000
# 5 0.000000 0.000000 0.000000 0.000000 0.037124 0.000000
# 6 0.000000 0.000000 0.000000 0.000000 0.000000 0.456616
#
#
# Mechanical properties :
#
#
# Convention : Reuss Voigt Hill
#
# Bulk Modulus (GPa) = 52.60570 57.67583 55.14076
# Shear Modulus (GPa) = 7.94627 21.02824 14.48726
#
# Velocity S-wave (km/s) = 2.00787 3.26629 2.71111
# Velocity P-wave (km/s) = 5.66258 6.59444 6.14620
#
# Compressibility (1/GPa) = 0.01900935
#
# Stress axis : x y z
#
# Youngs Moduli (GPa) = 47.66602 73.81133 43.43069
#
# Poissons Ratio (x) = 0.04795 0.40243
# Poissons Ratio (y) = 0.03097 0.40633
# Poissons Ratio (z) = 0.44168 0.69056
#
# Static dielectric constant tensor:
#      x y z
#    x 1.714320 0.000000 0.000000 
#    y 0.000000 1.674310 0.000000 
#    z 0.000000 0.000000 1.664550 
# 
# From -- ./inp_files/4072.got.cif
#   From: 2010.05.17/outbox.ucp.g08.bks.cvg/sg49_3_cif.got.tgz:4072.got - 2010.06.11 16:40:14.
