data_PCOD9395627
_publ_section_title
;
Structure prediction by ZEFSAII (Michael W. Deem and Ramdas Pophale) SiO2 
 PCOD9395627
Probable space group: P B A N
;
_chemical_formula_sum "Si O2"
_cell_formula_units_Z 64
_cell_length_a 12.405622
_cell_length_b 16.179464
_cell_length_c 14.955400
_cell_angle_alpha 90.000000
_cell_angle_beta 90.000000
_cell_angle_gamma 90.000000
_cell_volume 3001.792771
_symmetry_space_group_name_H-M "P B A N"
_symmetry_group_IT_number 50
_space_group.IT_coordinate_system_code '2'
_symmetry_cell_setting 'orthorhombic'
loop_
_space_group_symop_operation_xyz
x,y,z
1/2-x,1/2-y,z
x,1/2-y,-z
1/2-x,y,-z
-x,-y,-z
1/2+x,1/2+y,-z
-x,1/2+y,z
1/2+x,-y,z
loop_
_atom_site_type_symbol
_atom_site_label
_atom_site_fract_x
_atom_site_fract_y
_atom_site_fract_z
Si Si1 0.332858 0.583387 0.427779
Si Si2 0.620236 0.651905 0.900457
Si Si3 0.297439 0.101284 0.591188
Si Si4 0.583787 0.592106 0.289300
Si Si5 0.879779 0.843005 0.100216
Si Si6 0.683772 0.322670 0.303737
Si Si7 0.975132 0.581178 0.272297
Si Si8 0.511442 0.217922 0.410100
O O1 0.250000 0.616988 0.500000
O O2 0.340034 0.487057 0.441808
O O3 0.273743 0.612410 0.337362
O O4 0.442969 0.629294 0.442392
O O5 0.749795 0.655555 0.900652
O O6 0.585478 0.747469 0.884220
O O7 0.584260 0.590910 0.822003
O O8 0.583769 0.630299 0.001155
O O9 0.250000 0.142183 0.500000
O O10 0.197576 0.082963 0.658606
O O11 0.398831 0.128365 0.653639
O O12 0.588660 0.600440 0.182886
O O13 0.506294 0.512008 0.303577
O O14 0.549667 0.683846 0.323994
O O15 0.750000 0.250000 0.255438
O O16 0.588802 0.373138 0.258893
O O17 0.614508 0.272780 0.380452
O O18 0.456173 0.250000 0.500000
#
# Coordination Sequence:
#
# PCOD9395627 Si02
#       8
#     8   8   8   8   8   8   8   8
#     4  10  18  36  56  81 112 164 218 267 294 364
#     4   9  19  39  69  91 118 164 206 266 329 409
#     4  11  25  39  56  85 132 174 213 268 330 381
#     4  12  24  39  60  93 130 165 216 278 326 397
#     4   9  19  40  65  93 122 157 213 262 331 401
#     4  10  22  36  59  87 119 160 217 266 305 381
#     4  12  23  40  65  93 127 172 214 269 340 385
#     4  11  22  35  57  86 118 165 218 264 311 371
#
# _framework density 21.320591
#
# number of rings (size 3 to 8) (size 9 to 14) (size 15 to 20)
#    0.000    1.500    5.000    1.500    1.750    1.000 
#    0.000    0.000    0.000    0.000    0.000    2.625 
#    0.000    0.000    0.000    0.000    0.000    0.000 
#
# Total GULP energy -356374.604319 kJ/mol
# GULP energy per Si atom -5568.353192 kJ/mol
# Density = 2.127206 g / cm^3
# Si number density = 21.320591 Si / 1000 Ang^3
#
#
#
# Elastic Constant Matrix: (Units=GPa)
#
#
# Indices 1 2 3 4 5 6 
#
# 1 61.2478 17.4676 26.3252 0.0000 0.0000 0.0000
# 2 17.4676 60.0084 16.3824 0.0000 0.0000 0.0000
# 3 26.3252 16.3824 111.7755 0.0000 0.0000 0.0000
# 4 0.0000 0.0000 0.0000 28.6949 0.0000 0.0000
# 5 0.0000 0.0000 0.0000 0.0000 26.4230 0.0000
# 6 0.0000 0.0000 0.0000 0.0000 0.0000 22.4354
#
#
#
# Elastic Compliance Matrix: (Units=1/GPa)
#
#
# Indices 1 2 3 4 5 6 
#
# 1 0.019293 -0.004558 -0.003876 0.000000 0.000000 0.000000
# 2 -0.004558 0.018436 -0.001629 0.000000 0.000000 0.000000
# 3 -0.003876 -0.001629 0.010098 0.000000 0.000000 0.000000
# 4 0.000000 0.000000 0.000000 0.034849 0.000000 0.000000
# 5 0.000000 0.000000 0.000000 0.000000 0.037846 0.000000
# 6 0.000000 0.000000 0.000000 0.000000 0.000000 0.044572
#
#
# Mechanical properties :
#
#
# Convention : Reuss Voigt Hill
#
# Bulk Modulus (GPa) = 36.09825 39.26468 37.68147
# Shear Modulus (GPa) = 25.71319 27.03441 26.37380
#
# Velocity S-wave (km/s) = 3.47656 3.56476 3.52093
# Velocity P-wave (km/s) = 5.75180 5.94976 5.85161
#
# Compressibility (1/GPa) = 0.02770217
#
# Stress axis : x y z
#
# Youngs Moduli (GPa) = 51.83260 54.24270 99.02929
#
# Poissons Ratio (x) = 0.24723 0.38382
# Poissons Ratio (y) = 0.23624 0.16128
# Poissons Ratio (z) = 0.20089 0.08834
#
# Static dielectric constant tensor:
#      x y z
#    x 1.838480 0.000000 0.000000 
#    y 0.000000 1.864380 0.000000 
#    z 0.000000 0.000000 1.817750 
# 
# From -- ./inp_files/26053.got.cif
#   From: 2010.05.17/outbox.cif.g08.bks.cpg/sg50_14_cif.got.tgz:26053.got - 2010.06.03 11:33:33.
