data_PCOD9395844
_publ_section_title
;
Structure prediction by ZEFSAII (Michael W. Deem and Ramdas Pophale) SiO2 
 PCOD9395844
Probable space group: P B A N
;
_chemical_formula_sum "Si O2"
_cell_formula_units_Z 44
_cell_length_a 8.270904
_cell_length_b 14.664306
_cell_length_c 19.282271
_cell_angle_alpha 90.000000
_cell_angle_beta 90.000000
_cell_angle_gamma 90.000000
_cell_volume 2338.690098
_symmetry_space_group_name_H-M "P B A N"
_symmetry_group_IT_number 50
_space_group.IT_coordinate_system_code '2'
_symmetry_cell_setting 'orthorhombic'
loop_
_space_group_symop_operation_xyz
x,y,z
1/2-x,1/2-y,z
x,1/2-y,-z
1/2-x,y,-z
-x,-y,-z
1/2+x,1/2+y,-z
-x,1/2+y,z
1/2+x,-y,z
loop_
_atom_site_type_symbol
_atom_site_label
_atom_site_fract_x
_atom_site_fract_y
_atom_site_fract_z
Si Si1 0.080936 0.372414 0.386631
Si Si2 0.750000 0.750000 0.726453
Si Si3 0.250000 0.053298 0.000000
Si Si4 0.479463 0.408390 0.238944
Si Si5 0.750000 0.750000 0.500000
Si Si6 0.269296 0.544228 0.331205
Si Si7 0.050748 0.900928 0.919647
Si Si8 0.750000 0.250000 0.000000
O O1 0.133397 0.309724 0.322108
O O2 0.137978 0.315441 0.453007
O O3 0.183883 0.465500 0.376987
O O4 0.894104 0.398498 0.377294
O O5 0.637540 0.678669 0.765346
O O6 0.129890 0.106861 0.049993
O O7 0.361231 0.988162 0.046868
O O8 0.374297 0.491752 0.271437
O O9 0.628111 0.399529 0.293002
O O10 0.547092 0.419071 0.162038
O O11 0.146336 0.814210 0.949075
#
# Coordination Sequence:
#
# PCOD9395844 Si02
#       8
#     8   4   4   8   2   8   8   2
#     4   9  19  36  55  80 112 145 177 217 268 316
#     4   9  20  33  50  81 112 135 170 226 278 317
#     4   9  20  36  54  71 104 142 186 231 268 330
#     4  10  19  34  57  80 106 142 182 227 281 330
#     4  10  20  36  60  82 120 154 172 214 272 340
#     4   9  19  35  57  82 108 138 184 232 264 315
#     4  10  20  36  53  76 104 144 185 227 281 334
#     4  10  24  34  44  74 112 140 180 232 276 326
#
# _framework density 18.813953000000001
#
# number of rings (size 3 to 8) (size 9 to 14) (size 15 to 20)
#    0.000    2.545    0.000    1.091    0.000    4.727 
#    0.000    3.636    0.000   17.455    0.000    0.000 
#    0.000    0.000    0.000    0.000    0.000    0.000 
#
# Total GULP energy -245307.692471 kJ/mol
# GULP energy per Si atom -5575.174829 kJ/mol
# Density = 1.877113 g / cm^3
# Si number density = 18.813953 Si / 1000 Ang^3
#
#
#
# Elastic Constant Matrix: (Units=GPa)
#
#
# Indices 1 2 3 4 5 6 
#
# 1 107.6215 36.2755 37.9659 0.0000 0.0000 0.0000
# 2 36.2755 61.1491 29.7650 0.0000 0.0000 0.0000
# 3 37.9659 29.7650 102.0509 0.0000 0.0000 0.0000
# 4 0.0000 0.0000 0.0000 -1.9179 0.0000 0.0000
# 5 0.0000 0.0000 0.0000 0.0000 12.7555 0.0000
# 6 0.0000 0.0000 0.0000 0.0000 0.0000 -37.3328
#
#
#
# Elastic Compliance Matrix: (Units=1/GPa)
#
#
# Indices 1 2 3 4 5 6 
#
# 1 0.012286 -0.005902 -0.002850 0.000000 0.000000 0.000000
# 2 -0.005902 0.021894 -0.004190 0.000000 0.000000 0.000000
# 3 -0.002850 -0.004190 0.012081 0.000000 0.000000 0.000000
# 4 0.000000 0.000000 0.000000 -0.521401 0.000000 0.000000
# 5 0.000000 0.000000 0.000000 0.000000 0.078398 0.000000
# 6 0.000000 0.000000 0.000000 0.000000 0.000000 -0.026786
#
#
# Mechanical properties :
#
#
# Convention : Reuss Voigt Hill
#
# Bulk Modulus (GPa) = 49.07019 53.20379 51.13699
# Shear Modulus (GPa) = -12.79259 5.82196 -3.48532
#
# Velocity S-wave (km/s) = -2.61042 1.76102 -1.36255
# Velocity P-wave (km/s) = 4.12949 5.69870 4.97634
#
# Compressibility (1/GPa) = 0.02037897
#
# Stress axis : x y z
#
# Youngs Moduli (GPa) = 81.39167 45.67443 82.77243
#
# Poissons Ratio (x) = 0.26955 0.23587
# Poissons Ratio (y) = 0.48034 0.34684
# Poissons Ratio (z) = 0.23193 0.19139
#
# Static dielectric constant tensor:
#      x y z
#    x 1.677160 0.000000 0.000000 
#    y 0.000000 1.661900 0.000000 
#    z 0.000000 0.000000 1.628160 
# 
# From -- ./inp_files/28669.got.cif
#   From: 2010.05.17/outbox.cif.g08.bks.cpg/sg50_15_cif.got.tgz:28669.got - 2010.06.03 11:33:33.
