data_PCOD9395422
_publ_section_title
;
Structure prediction by ZEFSAII (Michael W. Deem and Ramdas Pophale) SiO2 
 PCOD9395422
Probable space group: P B A N
;
_chemical_formula_sum "Si O2"
_cell_formula_units_Z 40
_cell_length_a 8.958411
_cell_length_b 26.428367
_cell_length_c 8.101474
_cell_angle_alpha 90.000000
_cell_angle_beta 90.000000
_cell_angle_gamma 90.000000
_cell_volume 1918.073985
_symmetry_space_group_name_H-M "P B A N"
_symmetry_group_IT_number 50
_space_group.IT_coordinate_system_code '2'
_symmetry_cell_setting 'orthorhombic'
loop_
_space_group_symop_operation_xyz
x,y,z
1/2-x,1/2-y,z
x,1/2-y,-z
1/2-x,y,-z
-x,-y,-z
1/2+x,1/2+y,-z
-x,1/2+y,z
1/2+x,-y,z
loop_
_atom_site_type_symbol
_atom_site_label
_atom_site_fract_x
_atom_site_fract_y
_atom_site_fract_z
Si Si1 0.250000 0.250000 0.500000
Si Si2 0.004293 0.722351 0.734441
Si Si3 0.576550 0.323957 0.060309
Si Si4 0.250000 0.750000 0.500000
Si Si5 0.250000 0.988666 0.500000
Si Si6 0.011006 0.975766 0.266291
Si Si7 0.419548 0.076064 0.935674
O O1 0.359394 0.220175 0.378685
O O2 0.991343 0.685611 0.887939
O O3 0.144852 0.715707 0.614310
O O4 0.038253 0.777405 0.818212
O O5 0.750000 0.323891 0.000000
O O6 0.508806 0.375431 0.129018
O O7 0.357816 0.956887 0.616457
O O8 0.137473 0.019296 0.621505
O O9 0.997380 0.942820 0.103733
O O10 0.060867 0.031157 0.197698
O O11 0.250000 0.084449 0.000000
#
# Coordination Sequence:
#
# PCOD9395422 Si02
#       7
#     2   8   8   2   4   8   8
#     4  10  24  36  66  94 116 170 184 250 318 352
#     4  10  21  42  63  87 124 156 204 243 301 352
#     4  11  23  40  66  89 115 164 209 247 290 354
#     4  10  16  40  66  78 124 158 196 258 286 344
#     4  10  20  40  66  86 114 164 196 246 300 358
#     4  10  22  42  64  84 124 158 200 244 306 350
#     4  11  24  40  62  91 122 158 201 249 296 361
#
# _framework density 20.854253
#
# number of rings (size 3 to 8) (size 9 to 14) (size 15 to 20)
#    0.000    1.600    4.000    0.600    5.600    0.800 
#    0.000   12.000    0.000    0.000    0.000    0.000 
#    0.000    0.000    0.000    0.000    0.000    0.000 
#
# Total GULP energy -223081.087991 kJ/mol
# GULP energy per Si atom -5577.027200 kJ/mol
# Density = 2.080679 g / cm^3
# Si number density = 20.854253 Si / 1000 Ang^3
#
#
#
# Elastic Constant Matrix: (Units=GPa)
#
#
# Indices 1 2 3 4 5 6 
#
# 1 110.0835 7.5009 36.3507 0.0000 0.0000 0.0000
# 2 7.5009 65.4319 -3.4508 0.0000 0.0000 0.0000
# 3 36.3507 -3.4508 97.8636 0.0000 0.0000 0.0000
# 4 0.0000 0.0000 0.0000 1.5564 0.0000 0.0000
# 5 0.0000 0.0000 0.0000 0.0000 35.2424 0.0000
# 6 0.0000 0.0000 0.0000 0.0000 0.0000 5.4450
#
#
#
# Elastic Compliance Matrix: (Units=1/GPa)
#
#
# Indices 1 2 3 4 5 6 
#
# 1 0.010482 -0.001410 -0.003943 0.000000 0.000000 0.000000
# 2 -0.001410 0.015501 0.001070 0.000000 0.000000 0.000000
# 3 -0.003943 0.001070 0.011721 0.000000 0.000000 0.000000
# 4 0.000000 0.000000 0.000000 0.642508 0.000000 0.000000
# 5 0.000000 0.000000 0.000000 0.000000 0.028375 0.000000
# 6 0.000000 0.000000 0.000000 0.000000 0.000000 0.183653
#
#
# Mechanical properties :
#
#
# Convention : Reuss Voigt Hill
#
# Bulk Modulus (GPa) = 34.31865 39.35340 36.83603
# Shear Modulus (GPa) = 5.49138 23.98064 14.73601
#
# Velocity S-wave (km/s) = 1.62448 3.39472 2.66111
# Velocity P-wave (km/s) = 4.47334 5.85467 5.20998
#
# Compressibility (1/GPa) = 0.02913868
#
# Stress axis : x y z
#
# Youngs Moduli (GPa) = 95.40025 64.51156 85.31902
#
# Poissons Ratio (x) = 0.09094 0.33643
# Poissons Ratio (y) = 0.13448 -0.09131
# Poissons Ratio (z) = 0.37618 -0.06904
#
# Static dielectric constant tensor:
#      x y z
#    x 1.800660 0.000000 0.000000 
#    y 0.000000 1.712580 0.000000 
#    z 0.000000 0.000000 1.750150 
# 
# From -- ./inp_files/9838.got.cif
#   From: 2010.05.17/outbox.cif.g08.bks.cpg/sg50_5_cif.got.tgz:9838.got - 2010.06.03 11:33:33.
