data_PCOD9395129
_publ_section_title
;
Structure prediction by ZEFSAII (Michael W. Deem and Ramdas Pophale) SiO2 
 PCOD9395129
Probable space group: P C C M
;
_chemical_formula_sum "Si O2"
_cell_formula_units_Z 58
_cell_length_a 16.829856
_cell_length_b 9.295306
_cell_length_c 18.298960
_cell_angle_alpha 90.000000
_cell_angle_beta 90.000000
_cell_angle_gamma 90.000000
_cell_volume 2862.664808
_symmetry_space_group_name_H-M "P C C M"
_symmetry_group_IT_number 49
_symmetry_cell_setting 'orthorhombic'
loop_
_space_group_symop_operation_xyz
x,y,z
-x,-y,z
x,-y,1/2-z
-x,y,1/2-z
-x,-y,-z
x,y,-z
-x,y,1/2+z
x,-y,1/2+z
loop_
_atom_site_type_symbol
_atom_site_label
_atom_site_fract_x
_atom_site_fract_y
_atom_site_fract_z
Si Si1 0.246341 0.116057 0.807152
Si Si2 0.500000 0.500000 0.000000
Si Si3 0.036099 0.351940 0.412771
Si Si4 0.472432 0.239866 0.614435
Si Si5 0.135837 0.731629 0.417387
Si Si6 0.663732 0.650220 0.291143
Si Si7 0.204347 0.597516 0.085358
Si Si8 0.382058 0.948942 0.416170
O O1 0.177556 0.183798 0.854213
O O2 0.292812 0.238297 0.762179
O O3 0.305584 0.044237 0.865699
O O4 0.217473 0.000000 0.750000
O O5 0.481091 0.622763 0.937093
O O6 0.048182 0.377502 0.500000
O O7 0.125072 0.316154 0.387839
O O8 0.000000 0.500000 0.380222
O O9 0.959076 0.253548 0.407655
O O10 0.421049 0.288239 0.683677
O O11 0.558972 0.167196 0.621190
O O12 0.422866 0.104876 0.582058
O O13 0.155130 0.779580 0.500000
O O14 0.170660 0.567373 0.412720
O O15 0.654214 0.500000 0.250000
O O16 0.721049 0.623535 0.362021
O O17 0.224365 0.629435 0.000000
O O18 0.367127 0.902353 0.500000
#
# Coordination Sequence:
#
# PCOD9395129 Si02
#       8
#     8   2   8   8   8   8   8   8
#     4  12  25  43  61  91 132 180 213 260 323 402
#     4  12  24  42  70 108 120 146 210 280 328 374
#     4   7  12  27  56  94 125 158 204 259 312 368
#     4  11  25  44  68  93 127 160 210 268 325 386
#     4   9  17  35  64  96 127 166 221 266 311 380
#     4  12  26  43  60  95 139 167 209 269 329 390
#     4   9  18  34  63  94 131 168 208 270 331 376
#     4  11  23  48  70  90 122 172 225 261 319 396
#
# _framework density 20.260843000000001
#
# number of rings (size 3 to 8) (size 9 to 14) (size 15 to 20)
#    0.000    1.793    4.138    2.483    2.897    0.552 
#    2.483    0.690    0.000    1.655    0.000    2.897 
#    0.000    0.000    0.000    0.000    0.000    0.000 
#
# Total GULP energy -322936.887038 kJ/mol
# GULP energy per Si atom -5567.877363 kJ/mol
# Density = 2.021473 g / cm^3
# Si number density = 20.260843 Si / 1000 Ang^3
#
#
#
# Elastic Constant Matrix: (Units=GPa)
#
#
# Indices 1 2 3 4 5 6 
#
# 1 54.8464 17.2111 49.6759 0.0000 0.0000 0.0000
# 2 17.2111 82.9910 41.6872 0.0000 0.0000 0.0000
# 3 49.6759 41.6872 100.0090 0.0000 0.0000 0.0000
# 4 0.0000 0.0000 0.0000 0.0537 0.0000 0.0000
# 5 0.0000 0.0000 0.0000 0.0000 -0.4698 0.0000
# 6 0.0000 0.0000 0.0000 0.0000 0.0000 10.0414
#
#
#
# Elastic Compliance Matrix: (Units=1/GPa)
#
#
# Indices 1 2 3 4 5 6 
#
# 1 0.033349 0.001777 -0.017306 0.000000 0.000000 0.000000
# 2 0.001777 0.015335 -0.007275 0.000000 0.000000 0.000000
# 3 -0.017306 -0.007275 0.021627 0.000000 0.000000 0.000000
# 4 0.000000 0.000000 0.000000 18.617140 0.000000 0.000000
# 5 0.000000 0.000000 0.000000 0.000000 -2.128477 0.000000
# 6 0.000000 0.000000 0.000000 0.000000 0.000000 0.099588
#
#
# Mechanical properties :
#
#
# Convention : Reuss Voigt Hill
#
# Bulk Modulus (GPa) = 40.47841 50.55496 45.51669
# Shear Modulus (GPa) = 0.29918 10.54320 5.42119
#
# Velocity S-wave (km/s) = 0.38469 2.28364 1.63753
# Velocity P-wave (km/s) = 4.49659 5.65328 5.10778
#
# Compressibility (1/GPa) = 0.02470453
#
# Stress axis : x y z
#
# Youngs Moduli (GPa) = 29.98548 65.20940 46.23755
#
# Poissons Ratio (x) = -0.11585 0.80017
# Poissons Ratio (y) = -0.05327 0.33637
# Poissons Ratio (z) = 0.51892 0.47438
#
# Static dielectric constant tensor:
#      x y z
#    x 1.787080 0.000000 0.000000 
#    y 0.000000 1.738750 0.000000 
#    z 0.000000 0.000000 1.695520 
# 
# From -- ./inp_files/18178.got.cif
#   From: 2010.05.17/outbox.cif.g08.bks.cpg/sg49_10_cif.got.tgz:18178.got - 2010.06.03 21:02:19.
