data_PCOD9395448
_publ_section_title
;
Structure prediction by ZEFSAII (Michael W. Deem and Ramdas Pophale) SiO2 
 PCOD9395448
Probable space group: P B A N
;
_chemical_formula_sum "Si O2"
_cell_formula_units_Z 56
_cell_length_a 18.947153
_cell_length_b 19.510837
_cell_length_c 8.099964
_cell_angle_alpha 90.000000
_cell_angle_beta 90.000000
_cell_angle_gamma 90.000000
_cell_volume 2994.352683
_symmetry_space_group_name_H-M "P B A N"
_symmetry_group_IT_number 50
_space_group.IT_coordinate_system_code '2'
_symmetry_cell_setting 'orthorhombic'
loop_
_space_group_symop_operation_xyz
x,y,z
1/2-x,1/2-y,z
x,1/2-y,-z
1/2-x,y,-z
-x,-y,-z
1/2+x,1/2+y,-z
-x,1/2+y,z
1/2+x,-y,z
loop_
_atom_site_type_symbol
_atom_site_label
_atom_site_fract_x
_atom_site_fract_y
_atom_site_fract_z
Si Si1 0.961802 0.593272 0.832613
Si Si2 0.522003 0.236450 0.199949
Si Si3 0.509514 0.885670 0.211997
Si Si4 0.119675 0.967791 0.698972
Si Si5 0.587320 0.008623 0.328020
Si Si6 0.727577 0.443703 0.817759
Si Si7 0.681654 0.285412 0.817992
O O1 0.900092 0.543754 0.766054
O O2 0.974413 0.670030 0.765928
O O3 0.032958 0.552446 0.781779
O O4 0.958513 0.602024 0.029980
O O5 0.492759 0.307599 0.267232
O O6 0.603262 0.224401 0.253771
O O7 0.523372 0.250000 0.000000
O O8 0.429166 0.914090 0.201966
O O9 0.553679 0.933547 0.333114
O O10 0.094224 0.962832 0.511212
O O11 0.201303 0.949545 0.712284
O O12 0.664168 0.010930 0.249353
O O13 0.699074 0.365764 0.827640
O O14 0.750000 0.465262 0.000000
O O15 0.750000 0.250000 0.734505
O O16 0.678031 0.250000 0.000000
#
# Coordination Sequence:
#
# PCOD9395448 Si02
#       7
#     8   8   8   8   8   8   8
#     4  10  18  36  58  81 106 143 192 234 274 332
#     4   9  18  30  55  85 110 138 182 241 279 320
#     4  10  19  35  59  83 105 144 196 233 276 329
#     4  11  23  35  52  79 116 151 184 233 286 326
#     4  11  22  37  51  78 117 148 186 234 280 331
#     4  12  21  35  59  81 106 149 191 230 273 333
#     4  10  17  29  51  83 113 138 177 227 281 318
#
# _framework density 18.701872000000002
#
# number of rings (size 3 to 8) (size 9 to 14) (size 15 to 20)
#    0.000    1.571    2.857    6.429    2.000    0.000 
#    0.000    2.857    0.000    1.714    0.000    6.000 
#    0.000    0.000    0.000    0.000    0.000    0.000 
#
# Total GULP energy -312575.978575 kJ/mol
# GULP energy per Si atom -5581.713903 kJ/mol
# Density = 1.865931 g / cm^3
# Si number density = 18.701872 Si / 1000 Ang^3
#
#
#
# Elastic Constant Matrix: (Units=GPa)
#
#
# Indices 1 2 3 4 5 6 
#
# 1 74.4905 28.6020 -1.1327 0.0000 0.0000 0.0000
# 2 28.6020 106.5174 -13.8101 0.0000 0.0000 0.0000
# 3 -1.1327 -13.8101 26.2380 0.0000 0.0000 0.0000
# 4 0.0000 0.0000 0.0000 -1.4123 0.0000 0.0000
# 5 0.0000 0.0000 0.0000 0.0000 13.3881 0.0000
# 6 0.0000 0.0000 0.0000 0.0000 0.0000 11.6311
#
#
#
# Elastic Compliance Matrix: (Units=1/GPa)
#
#
# Indices 1 2 3 4 5 6 
#
# 1 0.015029 -0.004241 -0.001583 0.000000 0.000000 0.000000
# 2 -0.004241 0.011272 0.005750 0.000000 0.000000 0.000000
# 3 -0.001583 0.005750 0.041071 0.000000 0.000000 0.000000
# 4 0.000000 0.000000 0.000000 -0.708078 0.000000 0.000000
# 5 0.000000 0.000000 0.000000 0.000000 0.074693 0.000000
# 6 0.000000 0.000000 0.000000 0.000000 0.000000 0.085976
#
#
# Mechanical properties :
#
#
# Convention : Reuss Voigt Hill
#
# Bulk Modulus (GPa) = 14.87570 26.06270 20.46920
# Shear Modulus (GPa) = -10.92941 17.62719 3.34889
#
# Velocity S-wave (km/s) = -2.42006 3.07341 1.33961
# Velocity P-wave (km/s) = 0.40305 5.15369 3.65534
#
# Compressibility (1/GPa) = 0.06722373
#
# Stress axis : x y z
#
# Youngs Moduli (GPa) = 66.53902 88.71251 24.34824
#
# Poissons Ratio (x) = 0.37621 0.03855
# Poissons Ratio (y) = 0.28218 -0.14000
# Poissons Ratio (z) = 0.10535 -0.51010
#
# Static dielectric constant tensor:
#      x y z
#    x 1.661450 0.000000 0.000000 
#    y 0.000000 1.669930 0.000000 
#    z 0.000000 0.000000 1.676060 
# 
# From -- ./inp_files/15557.got.cif
#   From: 2010.05.17/outbox.cif.g08.bks.cpg/sg50_8_cif.got.tgz:15557.got - 2010.06.03 11:33:33.
