data_PCOD9395659
_publ_section_title
;
Structure prediction by ZEFSAII (Michael W. Deem and Ramdas Pophale) SiO2 
 PCOD9395659
Probable space group: P B A N
;
_chemical_formula_sum "Si O2"
_cell_formula_units_Z 38
_cell_length_a 25.249263
_cell_length_b 12.436403
_cell_length_c 5.245652
_cell_angle_alpha 90.000000
_cell_angle_beta 90.000000
_cell_angle_gamma 90.000000
_cell_volume 1647.187238
_symmetry_space_group_name_H-M "P B A N"
_symmetry_group_IT_number 50
_space_group.IT_coordinate_system_code '2'
_symmetry_cell_setting 'orthorhombic'
loop_
_space_group_symop_operation_xyz
x,y,z
1/2-x,1/2-y,z
x,1/2-y,-z
1/2-x,y,-z
-x,-y,-z
1/2+x,1/2+y,-z
-x,1/2+y,z
1/2+x,-y,z
loop_
_atom_site_type_symbol
_atom_site_label
_atom_site_fract_x
_atom_site_fract_y
_atom_site_fract_z
Si Si1 0.961551 0.554486 0.704756
Si Si2 0.360808 0.137447 0.606347
Si Si3 0.062756 0.250000 0.000000
Si Si4 0.750000 0.250000 0.500000
Si Si5 0.098800 0.873651 0.957002
Si Si6 0.665730 0.082059 0.442869
O O1 0.905713 0.587563 0.576283
O O2 0.947526 0.457354 0.893747
O O3 0.000000 0.500000 0.500000
O O4 0.973079 0.671306 0.827550
O O5 0.339912 0.250000 0.500000
O O6 0.396564 0.171341 0.849302
O O7 0.318061 0.042428 0.597341
O O8 0.710837 0.166612 0.363716
O O9 0.141777 0.886443 0.722197
O O10 0.085069 0.750000 0.000000
O O11 0.121289 0.907665 0.228799
#
# Coordination Sequence:
#
# PCOD9395659 Si02
#       6
#     8   8   4   2   8   8
#     4  10  22  39  65  98 136 182 247 304 353 421
#     4   9  20  40  65  93 128 188 234 286 356 428
#     4  10  18  40  68  88 129 192 238 293 358 434
#     4  12  24  42  74 110 148 174 232 300 356 454
#     4  11  21  43  67  95 142 184 236 278 366 439
#     4  11  23  40  67 104 137 182 227 288 355 434
#
# _framework density 23.06963
#
# number of rings (size 3 to 8) (size 9 to 14) (size 15 to 20)
#    0.000    1.684    4.211    0.000    0.000    2.526 
#    1.895    8.947    0.000    0.000    0.000    0.000 
#    0.000    0.000    0.000    0.000    0.000    0.000 
#
# Total GULP energy -211845.046211 kJ/mol
# GULP energy per Si atom -5574.869637 kJ/mol
# Density = 2.301712 g / cm^3
# Si number density = 23.069630 Si / 1000 Ang^3
#
#
#
# Elastic Constant Matrix: (Units=GPa)
#
#
# Indices 1 2 3 4 5 6 
#
# 1 35.8789 51.6898 -0.6306 0.0000 0.0000 0.0000
# 2 51.6898 251.5197 49.0055 0.0000 0.0000 0.0000
# 3 -0.6306 49.0055 79.6408 0.0000 0.0000 0.0000
# 4 0.0000 0.0000 0.0000 47.5245 0.0000 0.0000
# 5 0.0000 0.0000 0.0000 0.0000 -12.7371 0.0000
# 6 0.0000 0.0000 0.0000 0.0000 0.0000 35.8523
#
#
#
# Elastic Compliance Matrix: (Units=1/GPa)
#
#
# Indices 1 2 3 4 5 6 
#
# 1 0.042333 -0.009959 0.006463 0.000000 0.000000 0.000000
# 2 -0.009959 0.006860 -0.004300 0.000000 0.000000 0.000000
# 3 0.006463 -0.004300 0.015254 0.000000 0.000000 0.000000
# 4 0.000000 0.000000 0.000000 0.021042 0.000000 0.000000
# 5 0.000000 0.000000 0.000000 0.000000 -0.078511 0.000000
# 6 0.000000 0.000000 0.000000 0.000000 0.000000 0.027892
#
#
# Mechanical properties :
#
#
# Convention : Reuss Voigt Hill
#
# Bulk Modulus (GPa) = 20.46873 63.01875 41.74374
# Shear Modulus (GPa) = 74.90935 31.92625 53.41780
#
# Velocity S-wave (km/s) = 5.70451 3.72413 4.81719
# Velocity P-wave (km/s) = 7.23052 6.77261 7.00531
#
# Compressibility (1/GPa) = 0.04885501
#
# Stress axis : x y z
#
# Youngs Moduli (GPa) = 23.62218 145.76412 65.55806
#
# Poissons Ratio (x) = 1.45169 -0.42373
# Poissons Ratio (y) = 0.23526 0.28192
# Poissons Ratio (z) = -0.15268 0.62683
#
# Static dielectric constant tensor:
#      x y z
#    x 1.943340 0.000000 0.000000 
#    y 0.000000 2.096520 0.000000 
#    z 0.000000 0.000000 1.894460 
# 
# From -- ./inp_files/6432.got.cif
#   From: 2010.05.17/outbox.cif.g08.bks.cpg/sg50_4_cif.got.tgz:6432.got - 2010.06.03 11:33:33.
