data_PCOD9395834
_publ_section_title
;
Structure prediction by ZEFSAII (Michael W. Deem and Ramdas Pophale) SiO2 
 PCOD9395834
Probable space group: P B A N
;
_chemical_formula_sum "Si O2"
_cell_formula_units_Z 64
_cell_length_a 25.330955
_cell_length_b 14.570075
_cell_length_c 8.122612
_cell_angle_alpha 90.000000
_cell_angle_beta 90.000000
_cell_angle_gamma 90.000000
_cell_volume 2997.844204
_symmetry_space_group_name_H-M "P B A N"
_symmetry_group_IT_number 50
_space_group.IT_coordinate_system_code '2'
_symmetry_cell_setting 'orthorhombic'
loop_
_space_group_symop_operation_xyz
x,y,z
1/2-x,1/2-y,z
x,1/2-y,-z
1/2-x,y,-z
-x,-y,-z
1/2+x,1/2+y,-z
-x,1/2+y,z
1/2+x,-y,z
loop_
_atom_site_type_symbol
_atom_site_label
_atom_site_fract_x
_atom_site_fract_y
_atom_site_fract_z
Si Si1 0.192842 0.222840 0.805209
Si Si2 0.354561 0.907381 0.305261
Si Si3 0.163574 0.531238 0.680869
Si Si4 0.550456 0.959425 0.705083
Si Si5 0.810226 0.269469 0.193880
Si Si6 0.054143 0.441124 0.690445
Si Si7 0.578536 0.752985 0.802996
Si Si8 0.231248 0.030275 0.814239
O O1 0.250000 0.250000 0.737185
O O2 0.138516 0.261062 0.736380
O O3 0.192088 0.113968 0.780275
O O4 0.193803 0.250000 0.000000
O O5 0.344716 0.938746 0.492528
O O6 0.351947 0.798107 0.283927
O O7 0.405364 0.964840 0.246052
O O8 0.302894 0.939881 0.206058
O O9 0.174886 0.625145 0.777149
O O10 0.111617 0.478617 0.743794
O O11 0.216522 0.471474 0.703323
O O12 0.552225 0.952707 0.506516
O O13 0.560282 0.855512 0.761601
O O14 0.493558 0.997640 0.758716
O O15 0.750000 0.250000 0.254242
O O16 0.811848 0.250000 0.000000
O O17 0.047019 0.334432 0.736124
O O18 0.580036 0.750000 0.000000
O O19 0.250000 0.041847 0.000000
#
# Coordination Sequence:
#
# PCOD9395834 Si02
#       8
#     8   8   8   8   8   8   8   8
#     4  10  19  34  55  88 124 165 202 235 299 369
#     4  11  23  40  63  91 124 164 210 261 310 364
#     4  11  24  39  63  93 126 162 212 261 310 366
#     4  10  23  46  67  90 124 168 213 253 312 373
#     4  11  23  40  61  89 125 168 208 255 317 376
#     4  10  24  44  68  91 123 169 210 256 311 374
#     4  11  23  39  65  95 129 161 205 262 311 361
#     4  12  21  35  61  89 128 165 200 251 306 377
#
# _framework density 21.348673999999999
#
# number of rings (size 3 to 8) (size 9 to 14) (size 15 to 20)
#    0.000    1.250    3.750    2.625    1.750    3.000 
#    0.000    5.000    0.000    0.000    0.000    0.000 
#    0.000    0.000    0.000    0.000    0.000    0.000 
#
# Total GULP energy -357497.356160 kJ/mol
# GULP energy per Si atom -5585.896190 kJ/mol
# Density = 2.130008 g / cm^3
# Si number density = 21.348674 Si / 1000 Ang^3
#
#
#
# Elastic Constant Matrix: (Units=GPa)
#
#
# Indices 1 2 3 4 5 6 
#
# 1 116.0005 57.3483 9.0232 0.0000 0.0000 0.0000
# 2 57.3483 134.1900 8.4064 0.0000 0.0000 0.0000
# 3 9.0232 8.4064 22.8958 0.0000 0.0000 0.0000
# 4 0.0000 0.0000 0.0000 26.4546 0.0000 0.0000
# 5 0.0000 0.0000 0.0000 0.0000 8.3800 0.0000
# 6 0.0000 0.0000 0.0000 0.0000 0.0000 33.3470
#
#
#
# Elastic Compliance Matrix: (Units=1/GPa)
#
#
# Indices 1 2 3 4 5 6 
#
# 1 0.011090 -0.004571 -0.002692 0.000000 0.000000 0.000000
# 2 -0.004571 0.009511 -0.001691 0.000000 0.000000 0.000000
# 3 -0.002692 -0.001691 0.045358 0.000000 0.000000 0.000000
# 4 0.000000 0.000000 0.000000 0.037801 0.000000 0.000000
# 5 0.000000 0.000000 0.000000 0.000000 0.119331 0.000000
# 6 0.000000 0.000000 0.000000 0.000000 0.000000 0.029988
#
#
# Mechanical properties :
#
#
# Convention : Reuss Voigt Hill
#
# Bulk Modulus (GPa) = 20.81106 46.96023 33.88565
# Shear Modulus (GPa) = 17.42139 26.85690 22.13914
#
# Velocity S-wave (km/s) = 2.85974 3.55069 3.22378
# Velocity P-wave (km/s) = 4.54681 6.23333 5.45564
#
# Compressibility (1/GPa) = 0.04805137
#
# Stress axis : x y z
#
# Youngs Moduli (GPa) = 90.17343 105.13673 22.04685
#
# Poissons Ratio (x) = 0.48055 0.05936
# Poissons Ratio (y) = 0.41216 0.03728
# Poissons Ratio (z) = 0.24277 0.17778
#
# Static dielectric constant tensor:
#      x y z
#    x 1.784880 0.000000 0.000000 
#    y 0.000000 1.789040 0.000000 
#    z 0.000000 0.000000 1.717610 
# 
# From -- ./inp_files/16131.got.cif
#   From: 2010.05.17/outbox.cif.g08.bks.cpg/sg50_9_cif.got.tgz:16131.got - 2010.06.03 11:33:33.
