data_PCOD9395689
_publ_section_title
;
Structure prediction by ZEFSAII (Michael W. Deem and Ramdas Pophale) SiO2 
 PCOD9395689
Probable space group: P B A N
;
_chemical_formula_sum "Si O2"
_cell_formula_units_Z 64
_cell_length_a 23.692561
_cell_length_b 9.316688
_cell_length_c 16.610642
_cell_angle_alpha 90.000000
_cell_angle_beta 90.000000
_cell_angle_gamma 90.000000
_cell_volume 3666.569974
_symmetry_space_group_name_H-M "P B A N"
_symmetry_group_IT_number 50
_space_group.IT_coordinate_system_code '2'
_symmetry_cell_setting 'orthorhombic'
loop_
_space_group_symop_operation_xyz
x,y,z
1/2-x,1/2-y,z
x,1/2-y,-z
1/2-x,y,-z
-x,-y,-z
1/2+x,1/2+y,-z
-x,1/2+y,z
1/2+x,-y,z
loop_
_atom_site_type_symbol
_atom_site_label
_atom_site_fract_x
_atom_site_fract_y
_atom_site_fract_z
Si Si1 0.571723 0.819093 0.081601
Si Si2 0.930902 0.944206 0.190172
Si Si3 0.249746 0.923090 0.407657
Si Si4 0.061143 0.074841 0.500752
Si Si5 0.125330 0.585346 0.644206
Si Si6 0.061648 0.823975 0.921388
Si Si7 0.626484 0.065229 0.649720
Si Si8 0.064771 0.936776 0.189479
O O1 0.575866 0.718563 0.160838
O O2 0.505119 0.843680 0.062759
O O3 0.590174 0.971406 0.115791
O O4 0.595907 0.750000 0.000000
O O5 0.914295 0.027139 0.108133
O O6 0.896825 0.004259 0.265816
O O7 0.998199 0.970063 0.203701
O O8 0.250000 0.750000 0.413064
O O9 0.250000 0.978020 0.500000
O O10 0.191051 0.955823 0.364117
O O11 0.306987 0.965048 0.362562
O O12 0.058365 0.250000 0.500000
O O13 0.093671 0.003345 0.425319
O O14 0.093136 0.018787 0.580132
O O15 0.000000 0.000000 0.500000
O O16 0.118882 0.760837 0.637938
O O17 0.098813 0.544817 0.729406
O O18 0.066510 0.724009 0.843453
O O19 0.086209 0.750000 0.000000
#
# Coordination Sequence:
#
# PCOD9395689 Si02
#       8
#     8   8   8   8   8   8   8   8
#     4   9  18  30  48  74 111 148 178 218 271 341
#     4  10  19  30  50  78 112 144 179 223 277 333
#     4   9  18  36  60  80 101 144 192 240 280 329
#     4  12  26  39  58  83 115 152 182 220 277 342
#     4  11  21  38  59  81 110 146 190 236 283 327
#     4   9  16  30  48  74 105 142 182 218 267 331
#     4  11  21  38  59  81 110 146 190 236 283 327
#     4  10  19  30  50  78 112 144 179 223 277 333
#
# _framework density 17.455006000000001
#
# number of rings (size 3 to 8) (size 9 to 14) (size 15 to 20)
#    0.000    1.875    2.500    2.625    1.750    3.000 
#    0.000    1.250    0.000    0.000    0.000    5.250 
#    0.000    0.000    0.000    0.000    0.000    0.000 
#
# Total GULP energy -356388.033688 kJ/mol
# GULP energy per Si atom -5568.563026 kJ/mol
# Density = 1.741528 g / cm^3
# Si number density = 17.455006 Si / 1000 Ang^3
#
#
#
# Elastic Constant Matrix: (Units=GPa)
#
#
# Indices 1 2 3 4 5 6 
#
# 1 99.3588 23.2031 40.5938 0.0000 0.0000 0.0000
# 2 23.2031 77.8174 19.0907 0.0000 0.0000 0.0000
# 3 40.5938 19.0907 96.1861 0.0000 0.0000 0.0000
# 4 0.0000 0.0000 0.0000 21.8443 0.0000 0.0000
# 5 0.0000 0.0000 0.0000 0.0000 -7.7184 0.0000
# 6 0.0000 0.0000 0.0000 0.0000 0.0000 15.3921
#
#
#
# Elastic Compliance Matrix: (Units=1/GPa)
#
#
# Indices 1 2 3 4 5 6 
#
# 1 0.012638 -0.002586 -0.004820 0.000000 0.000000 0.000000
# 2 -0.002586 0.014037 -0.001695 0.000000 0.000000 0.000000
# 3 -0.004820 -0.001695 0.012767 0.000000 0.000000 0.000000
# 4 0.000000 0.000000 0.000000 0.045778 0.000000 0.000000
# 5 0.000000 0.000000 0.000000 0.000000 -0.129561 0.000000
# 6 0.000000 0.000000 0.000000 0.000000 0.000000 0.064969
#
#
# Mechanical properties :
#
#
# Convention : Reuss Voigt Hill
#
# Bulk Modulus (GPa) = 47.07966 48.79307 47.93637
# Shear Modulus (GPa) = 108.90735 18.60192 63.75463
#
# Velocity S-wave (km/s) = 7.90751 3.26806 6.05016
# Velocity P-wave (km/s) = 10.50724 6.50035 8.73661
#
# Compressibility (1/GPa) = 0.02124059
#
# Stress axis : x y z
#
# Youngs Moduli (GPa) = 79.12794 71.23844 78.32538
#
# Poissons Ratio (x) = 0.18420 0.37756
# Poissons Ratio (y) = 0.20460 0.13275
# Poissons Ratio (z) = 0.38143 0.12074
#
# Static dielectric constant tensor:
#      x y z
#    x 1.571940 0.000000 0.000000 
#    y 0.000000 1.638920 0.000000 
#    z 0.000000 0.000000 1.609510 
# 
# From -- ./inp_files/29861.got.cif
#   From: 2010.05.17/outbox.cif.g08.bks.cpg/sg50_15_cif.got.tgz:29861.got - 2010.06.03 11:33:33.
