data_PCOD9395991
_publ_section_title
;
Structure prediction by ZEFSAII (Michael W. Deem and Ramdas Pophale) SiO2 
 PCOD9395991
Probable space group: P B A N
;
_chemical_formula_sum "Si O2"
_cell_formula_units_Z 54
_cell_length_a 14.410610
_cell_length_b 12.704401
_cell_length_c 14.792094
_cell_angle_alpha 90.000000
_cell_angle_beta 90.000000
_cell_angle_gamma 90.000000
_cell_volume 2708.109472
_symmetry_space_group_name_H-M "P B A N"
_symmetry_group_IT_number 50
_space_group.IT_coordinate_system_code '2'
_symmetry_cell_setting 'orthorhombic'
loop_
_space_group_symop_operation_xyz
x,y,z
1/2-x,1/2-y,z
x,1/2-y,-z
1/2-x,y,-z
-x,-y,-z
1/2+x,1/2+y,-z
-x,1/2+y,z
1/2+x,-y,z
loop_
_atom_site_type_symbol
_atom_site_label
_atom_site_fract_x
_atom_site_fract_y
_atom_site_fract_z
Si Si1 0.217507 0.471679 0.602515
Si Si2 0.750000 0.750000 0.000000
Si Si3 0.750000 0.750000 0.302167
Si Si4 0.564989 0.306493 0.804714
Si Si5 0.111895 0.183023 0.155409
Si Si6 0.231788 0.876165 0.096895
Si Si7 0.461127 0.011196 0.710144
Si Si8 0.839846 0.109585 0.271089
O O1 0.250000 0.479539 0.500000
O O2 0.248607 0.357347 0.640846
O O3 0.107906 0.478117 0.625303
O O4 0.265310 0.566818 0.658231
O O5 0.820282 0.813382 0.931780
O O6 0.836664 0.749069 0.233939
O O7 0.488284 0.237848 0.856405
O O8 0.625490 0.373611 0.874540
O O9 0.524024 0.390662 0.736269
O O10 0.634734 0.231512 0.747585
O O11 0.089859 0.073843 0.207080
O O12 0.250000 0.750000 0.091758
O O13 0.297623 0.924400 0.173710
O O14 0.250000 0.924445 0.000000
O O15 0.561724 0.061631 0.701137
#
# Coordination Sequence:
#
# PCOD9395991 Si02
#       8
#     8   2   4   8   8   8   8   8
#     4  11  22  38  63  91 120 159 207 258 317 383
#     4  10  20  40  58  88 136 158 214 268 310 366
#     4   9  19  39  59  84 122 162 196 246 310 368
#     4  10  19  37  60  84 120 162 205 250 309 370
#     4   9  20  36  60  85 118 168 201 256 313 364
#     4   9  18  34  58  84 115 157 204 246 293 359
#     4  10  21  38  60  85 118 162 207 252 320 372
#     4  10  21  38  61  86 123 159 202 262 307 366
#
# _framework density 19.940110000000001
#
# number of rings (size 3 to 8) (size 9 to 14) (size 15 to 20)
#    0.000    2.222    1.481    1.111    0.000    4.148 
#    1.333    2.963    0.000    0.000    0.000    0.000 
#    0.000    0.000    0.000    0.000    0.000    0.000 
#
# Total GULP energy -300761.139908 kJ/mol
# GULP energy per Si atom -5569.650739 kJ/mol
# Density = 1.989473 g / cm^3
# Si number density = 19.940110 Si / 1000 Ang^3
#
#
#
# Elastic Constant Matrix: (Units=GPa)
#
#
# Indices 1 2 3 4 5 6 
#
# 1 108.7643 16.2404 47.2566 0.0000 0.0000 0.0000
# 2 16.2404 40.2943 16.1300 0.0000 0.0000 0.0000
# 3 47.2566 16.1300 122.5543 0.0000 0.0000 0.0000
# 4 0.0000 0.0000 0.0000 23.0627 0.0000 0.0000
# 5 0.0000 0.0000 0.0000 0.0000 12.2616 0.0000
# 6 0.0000 0.0000 0.0000 0.0000 0.0000 20.7315
#
#
#
# Elastic Compliance Matrix: (Units=1/GPa)
#
#
# Indices 1 2 3 4 5 6 
#
# 1 0.011375 -0.002986 -0.003993 0.000000 0.000000 0.000000
# 2 -0.002986 0.026982 -0.002400 0.000000 0.000000 0.000000
# 3 -0.003993 -0.002400 0.010015 0.000000 0.000000 0.000000
# 4 0.000000 0.000000 0.000000 0.043360 0.000000 0.000000
# 5 0.000000 0.000000 0.000000 0.000000 0.081555 0.000000
# 6 0.000000 0.000000 0.000000 0.000000 0.000000 0.048236
#
#
# Mechanical properties :
#
#
# Convention : Reuss Voigt Hill
#
# Bulk Modulus (GPa) = 33.76807 47.87410 40.82108
# Shear Modulus (GPa) = 19.98781 24.01023 21.99902
#
# Velocity S-wave (km/s) = 3.16949 3.47380 3.32513
# Velocity P-wave (km/s) = 5.51051 6.33647 5.93787
#
# Compressibility (1/GPa) = 0.02961377
#
# Stress axis : x y z
#
# Youngs Moduli (GPa) = 87.91163 37.06230 99.84782
#
# Poissons Ratio (x) = 0.11067 0.39871
# Poissons Ratio (y) = 0.26252 0.23961
# Poissons Ratio (z) = 0.35105 0.08894
#
# Static dielectric constant tensor:
#      x y z
#    x 1.752580 0.000000 0.000000 
#    y 0.000000 1.724090 0.000000 
#    z 0.000000 0.000000 1.698120 
# 
# From -- ./inp_files/26514.got.cif
#   From: 2010.05.17/outbox.cif.g08.bks.cpg/sg50_14_cif.got.tgz:26514.got - 2010.06.03 11:33:33.
