data_PCOD9395703
_publ_section_title
;
Structure prediction by ZEFSAII (Michael W. Deem and Ramdas Pophale) SiO2 
 PCOD9395703
Probable space group: P B A N
;
_chemical_formula_sum "Si O2"
_cell_formula_units_Z 64
_cell_length_a 20.793591
_cell_length_b 20.058304
_cell_length_c 8.767916
_cell_angle_alpha 90.000000
_cell_angle_beta 90.000000
_cell_angle_gamma 90.000000
_cell_volume 3656.958963
_symmetry_space_group_name_H-M "P B A N"
_symmetry_group_IT_number 50
_space_group.IT_coordinate_system_code '2'
_symmetry_cell_setting 'orthorhombic'
loop_
_space_group_symop_operation_xyz
x,y,z
1/2-x,1/2-y,z
x,1/2-y,-z
1/2-x,y,-z
-x,-y,-z
1/2+x,1/2+y,-z
-x,1/2+y,z
1/2+x,-y,z
loop_
_atom_site_type_symbol
_atom_site_label
_atom_site_fract_x
_atom_site_fract_y
_atom_site_fract_z
Si Si1 0.989861 0.900800 0.665316
Si Si2 0.936374 0.182786 0.566010
Si Si3 0.674218 0.938197 0.030157
Si Si4 0.115465 0.505800 0.685242
Si Si5 0.882650 0.062252 0.154726
Si Si6 0.557742 0.124142 0.124599
Si Si7 0.678474 0.107362 0.548966
Si Si8 0.066510 0.328288 0.953326
O O1 0.961494 0.844893 0.783000
O O2 0.018716 0.873274 0.508868
O O3 0.048681 0.937250 0.755767
O O4 0.932429 0.950039 0.626074
O O5 0.963656 0.250000 0.500000
O O6 0.930053 0.179679 0.747153
O O7 0.867577 0.168820 0.490347
O O8 0.632698 0.869893 0.028254
O O9 0.664113 0.971413 0.196517
O O10 0.750000 0.929668 0.000000
O O11 0.640632 0.992134 0.915846
O O12 0.071068 0.556138 0.783722
O O13 0.151209 0.547229 0.555925
O O14 0.830855 0.087442 0.276204
O O15 0.894752 0.115488 0.018791
O O16 0.486841 0.136668 0.061209
O O17 0.750000 0.121044 0.500000
O O18 0.070926 0.250000 0.000000
#
# Coordination Sequence:
#
# PCOD9395703 Si02
#       8
#     8   8   8   8   8   8   8   8
#     4   9  18  32  50  72  95 120 157 205 251 291
#     4  10  20  33  50  72  98 130 163 197 241 294
#     4  10  19  31  48  70  98 130 161 197 241 293
#     4   9  18  32  50  72  95 120 157 205 251 291
#     4   9  18  32  51  74  97 121 158 206 252 289
#     4   9  18  32  51  74  97 121 158 206 252 289
#     4  10  20  33  50  72  98 130 163 197 241 294
#     4  10  19  31  48  70  98 130 161 197 241 293
#
# _framework density 17.500879999999999
#
# number of rings (size 3 to 8) (size 9 to 14) (size 15 to 20)
#    0.000    2.500    0.000    2.250    0.000    9.000 
#    0.000    0.000    0.000    0.000    0.000   14.000 
#    0.000    6.000    0.000    0.000    0.000    0.000 
#
# Total GULP energy -356471.103560 kJ/mol
# GULP energy per Si atom -5569.860993 kJ/mol
# Density = 1.746105 g / cm^3
# Si number density = 17.500880 Si / 1000 Ang^3
#
#
#
# Elastic Constant Matrix: (Units=GPa)
#
#
# Indices 1 2 3 4 5 6 
#
# 1 81.1560 22.7511 15.6218 0.0000 0.0000 0.0000
# 2 22.7511 40.6541 10.3611 0.0000 0.0000 0.0000
# 3 15.6218 10.3611 72.7559 0.0000 0.0000 0.0000
# 4 0.0000 0.0000 0.0000 7.8944 0.0000 0.0000
# 5 0.0000 0.0000 0.0000 0.0000 18.5995 0.0000
# 6 0.0000 0.0000 0.0000 0.0000 0.0000 3.7240
#
#
#
# Elastic Compliance Matrix: (Units=1/GPa)
#
#
# Indices 1 2 3 4 5 6 
#
# 1 0.014915 -0.007814 -0.002090 0.000000 0.000000 0.000000
# 2 -0.007814 0.029618 -0.002540 0.000000 0.000000 0.000000
# 3 -0.002090 -0.002540 0.014555 0.000000 0.000000 0.000000
# 4 0.000000 0.000000 0.000000 0.126672 0.000000 0.000000
# 5 0.000000 0.000000 0.000000 0.000000 0.053765 0.000000
# 6 0.000000 0.000000 0.000000 0.000000 0.000000 0.268530
#
#
# Mechanical properties :
#
#
# Convention : Reuss Voigt Hill
#
# Bulk Modulus (GPa) = 29.23959 32.44823 30.84391
# Shear Modulus (GPa) = 9.18539 15.76571 12.47555
#
# Velocity S-wave (km/s) = 2.29345 3.00468 2.67283
# Velocity P-wave (km/s) = 4.87412 5.53341 5.21419
#
# Compressibility (1/GPa) = 0.03420020
#
# Stress axis : x y z
#
# Youngs Moduli (GPa) = 67.04765 33.76313 68.70497
#
# Poissons Ratio (x) = 0.26383 0.14357
# Poissons Ratio (y) = 0.52392 0.17452
# Poissons Ratio (z) = 0.14010 0.08576
#
# Static dielectric constant tensor:
#      x y z
#    x 1.572020 0.000000 0.000000 
#    y 0.000000 1.613150 0.000000 
#    z 0.000000 0.000000 1.626450 
# 
# From -- ./inp_files/15509.got.cif
#   From: 2010.05.17/outbox.cif.g08.bks.cpg/sg50_8_cif.got.tgz:15509.got - 2010.06.03 11:33:33.
