data_PCOD9396770
_publ_section_title
;
Structure prediction by ZEFSAII (Michael W. Deem and Ramdas Pophale) SiO2 
 PCOD9396770
Probable space group: P B A N
;
_chemical_formula_sum "Si O2"
_cell_formula_units_Z 64
_cell_length_a 12.286349
_cell_length_b 30.986533
_cell_length_c 8.519754
_cell_angle_alpha 90.000000
_cell_angle_beta 90.000000
_cell_angle_gamma 90.000000
_cell_volume 3243.567121
_symmetry_space_group_name_H-M "P B A N"
_symmetry_group_IT_number 50
_space_group.IT_coordinate_system_code '2'
_symmetry_cell_setting 'orthorhombic'
loop_
_space_group_symop_operation_xyz
x,y,z
1/2-x,1/2-y,z
x,1/2-y,-z
1/2-x,y,-z
-x,-y,-z
1/2+x,1/2+y,-z
-x,1/2+y,z
1/2+x,-y,z
loop_
_atom_site_type_symbol
_atom_site_label
_atom_site_fract_x
_atom_site_fract_y
_atom_site_fract_z
Si Si1 0.260364 0.339140 0.817468
Si Si2 0.626980 0.245879 0.309771
Si Si3 0.536425 0.037201 0.617480
Si Si4 0.223482 0.981999 0.818416
Si Si5 0.501897 0.838874 0.676234
Si Si6 0.828211 0.092375 0.617295
Si Si7 0.805901 0.571720 0.331002
Si Si8 0.920208 0.791016 0.618015
O O1 0.386611 0.337068 0.770664
O O2 0.223598 0.388129 0.778730
O O3 0.183993 0.307226 0.714163
O O4 0.250000 0.329117 0.000000
O O5 0.750000 0.250000 0.247170
O O6 0.635061 0.250000 0.500000
O O7 0.578894 0.199204 0.272518
O O8 0.525154 0.277971 0.275471
O O9 0.595912 0.020697 0.773477
O O10 0.627105 0.060690 0.515666
O O11 0.435047 0.067487 0.651312
O O12 0.500000 0.000000 0.500000
O O13 0.277596 0.937835 0.751978
O O14 0.267075 0.024992 0.731780
O O15 0.250000 0.985925 0.000000
O O16 0.430387 0.881580 0.682871
O O17 0.539172 0.828734 0.497839
O O18 0.750000 0.121000 0.500000
O O19 0.750000 0.579203 0.500000
O O20 0.897397 0.750000 0.500000
#
# Coordination Sequence:
#
# PCOD9396770 Si02
#       8
#     8   8   8   8   8   8   8   8
#     4  12  26  40  59  98 134 168 209 263 331 386
#     4   8  17  34  63  97 120 147 200 262 314 368
#     4  11  20  38  60  86 114 163 222 261 309 376
#     4  11  24  39  57  88 125 167 208 263 325 380
#     4  10  21  37  65  92 122 163 210 264 317 377
#     4  10  21  37  59  87 120 158 213 259 310 382
#     4  12  22  40  66  87 123 162 217 265 315 384
#     4   9  20  40  66  91 123 157 205 260 311 380
#
# _framework density 19.731363000000002
#
# number of rings (size 3 to 8) (size 9 to 14) (size 15 to 20)
#    0.000    1.875    2.500    3.375    3.500    5.500 
#    0.000    5.000    0.000    0.750    0.000    0.000 
#    0.000    0.000    0.000    0.000    0.000    0.000 
#
# Total GULP energy -356818.680833 kJ/mol
# GULP energy per Si atom -5575.291888 kJ/mol
# Density = 1.968645 g / cm^3
# Si number density = 19.731363 Si / 1000 Ang^3
#
#
#
# Elastic Constant Matrix: (Units=GPa)
#
#
# Indices 1 2 3 4 5 6 
#
# 1 126.9260 32.7899 42.7972 0.0000 0.0000 0.0000
# 2 32.7899 68.7988 22.6687 0.0000 0.0000 0.0000
# 3 42.7972 22.6687 65.8597 0.0000 0.0000 0.0000
# 4 0.0000 0.0000 0.0000 -2.0486 0.0000 0.0000
# 5 0.0000 0.0000 0.0000 0.0000 14.1039 0.0000
# 6 0.0000 0.0000 0.0000 0.0000 0.0000 32.2236
#
#
#
# Elastic Compliance Matrix: (Units=1/GPa)
#
#
# Indices 1 2 3 4 5 6 
#
# 1 0.010665 -0.003157 -0.005843 0.000000 0.000000 0.000000
# 2 -0.003157 0.017329 -0.003913 0.000000 0.000000 0.000000
# 3 -0.005843 -0.003913 0.020328 0.000000 0.000000 0.000000
# 4 0.000000 0.000000 0.000000 -0.488139 0.000000 0.000000
# 5 0.000000 0.000000 0.000000 0.000000 0.070902 0.000000
# 6 0.000000 0.000000 0.000000 0.000000 0.000000 0.031033
#
#
# Mechanical properties :
#
#
# Convention : Reuss Voigt Hill
#
# Bulk Modulus (GPa) = 44.45581 50.89957 47.67769
# Shear Modulus (GPa) = -16.41733 19.74435 1.66351
#
# Velocity S-wave (km/s) = -2.88764 3.16675 0.91919
# Velocity P-wave (km/s) = 3.38548 6.26286 5.03412
#
# Compressibility (1/GPa) = 0.02249425
#
# Stress axis : x y z
#
# Youngs Moduli (GPa) = 93.76862 57.70578 49.19399
#
# Poissons Ratio (x) = 0.18220 0.28745
# Poissons Ratio (y) = 0.29607 0.19249
# Poissons Ratio (z) = 0.54792 0.22580
#
# Static dielectric constant tensor:
#      x y z
#    x 1.830170 0.000000 0.000000 
#    y 0.000000 1.723920 0.000000 
#    z 0.000000 0.000000 1.535150 
# 
# From -- ./inp_files/11863.got.cif
#   From: 2010.05.17/outbox.cif.g08.bks.cpg/sg50_6_cif.got.tgz:11863.got - 2010.06.03 11:33:33.
