data_PCOD9396089
_publ_section_title
;
Structure prediction by ZEFSAII (Michael W. Deem and Ramdas Pophale) SiO2 
 PCOD9396089
Probable space group: P B A N
;
_chemical_formula_sum "Si O2"
_cell_formula_units_Z 64
_cell_length_a 22.608920
_cell_length_b 9.335445
_cell_length_c 13.915928
_cell_angle_alpha 90.000000
_cell_angle_beta 90.000000
_cell_angle_gamma 90.000000
_cell_volume 2937.156008
_symmetry_space_group_name_H-M "P B A N"
_symmetry_group_IT_number 50
_space_group.IT_coordinate_system_code '2'
_symmetry_cell_setting 'orthorhombic'
loop_
_space_group_symop_operation_xyz
x,y,z
1/2-x,1/2-y,z
x,1/2-y,-z
1/2-x,y,-z
-x,-y,-z
1/2+x,1/2+y,-z
-x,1/2+y,z
1/2+x,-y,z
loop_
_atom_site_type_symbol
_atom_site_label
_atom_site_fract_x
_atom_site_fract_y
_atom_site_fract_z
Si Si1 0.177334 0.396597 0.133400
Si Si2 0.071078 0.967365 0.181225
Si Si3 0.403042 0.905246 0.026564
Si Si4 0.844263 0.679261 0.402975
Si Si5 0.892571 0.551469 0.674670
Si Si6 0.527592 0.339003 0.224662
Si Si7 0.179589 0.916743 0.512146
Si Si8 0.195298 0.407680 0.802235
O O1 0.148202 0.481148 0.046736
O O2 0.132032 0.416700 0.220601
O O3 0.183450 0.226020 0.126417
O O4 0.240235 0.459905 0.167468
O O5 0.042427 0.828890 0.232600
O O6 0.141408 0.981411 0.194761
O O7 0.060570 0.950558 0.067215
O O8 0.040137 0.113158 0.215301
O O9 0.441934 0.882574 0.122384
O O10 0.377146 0.750000 0.000000
O O11 0.816762 0.750000 0.500000
O O12 0.855778 0.517207 0.437009
O O13 0.806180 0.659414 0.305962
O O14 0.896191 0.793230 0.377379
O O15 0.945015 0.439164 0.691941
O O16 0.841931 0.469492 0.615328
O O17 0.167320 0.750000 0.500000
O O18 0.250000 0.939183 0.500000
#
# Coordination Sequence:
#
# PCOD9396089 Si02
#       8
#     8   8   8   8   8   8   8   8
#     4   9  19  38  61  89 130 157 205 255 324 394
#     4  11  24  39  63  90 121 166 219 268 323 384
#     4   9  20  41  61  89 122 162 211 262 326 386
#     4   9  19  35  60  86 124 166 212 252 312 387
#     4   9  19  37  59  87 122 162 204 262 320 381
#     4  10  23  41  62  90 122 165 217 276 321 380
#     4  10  20  32  54  92 128 161 203 260 323 392
#     4  10  21  36  61  96 122 168 209 262 322 393
#
# _framework density 21.789784999999998
#
# number of rings (size 3 to 8) (size 9 to 14) (size 15 to 20)
#    0.000    2.375    0.000    1.125    7.000    6.250 
#    0.000    8.125    0.000    3.750    0.000    0.000 
#    0.000    0.000    0.000    0.000    0.000    0.000 
#
# Total GULP energy -356749.707752 kJ/mol
# GULP energy per Si atom -5574.214184 kJ/mol
# Density = 2.174019 g / cm^3
# Si number density = 21.789785 Si / 1000 Ang^3
#
#
#
# Elastic Constant Matrix: (Units=GPa)
#
#
# Indices 1 2 3 4 5 6 
#
# 1 35.4111 30.7910 1.7352 0.0000 0.0000 0.0000
# 2 30.7910 134.4658 37.2361 0.0000 0.0000 0.0000
# 3 1.7352 37.2361 62.0294 0.0000 0.0000 0.0000
# 4 0.0000 0.0000 0.0000 31.6240 0.0000 0.0000
# 5 0.0000 0.0000 0.0000 0.0000 15.4057 0.0000
# 6 0.0000 0.0000 0.0000 0.0000 0.0000 30.2247
#
#
#
# Elastic Compliance Matrix: (Units=1/GPa)
#
#
# Indices 1 2 3 4 5 6 
#
# 1 0.036405 -0.009660 0.004781 0.000000 0.000000 0.000000
# 2 -0.009660 0.011483 -0.006623 0.000000 0.000000 0.000000
# 3 0.004781 -0.006623 0.019963 0.000000 0.000000 0.000000
# 4 0.000000 0.000000 0.000000 0.031622 0.000000 0.000000
# 5 0.000000 0.000000 0.000000 0.000000 0.064911 0.000000
# 6 0.000000 0.000000 0.000000 0.000000 0.000000 0.033085
#
#
# Mechanical properties :
#
#
# Convention : Reuss Voigt Hill
#
# Bulk Modulus (GPa) = 22.29825 41.27010 31.78417
# Shear Modulus (GPa) = 21.23829 26.26047 23.74938
#
# Velocity S-wave (km/s) = 3.12539 3.47533 3.30499
# Velocity P-wave (km/s) = 4.82490 5.92327 5.40207
#
# Compressibility (1/GPa) = 0.04484656
#
# Stress axis : x y z
#
# Youngs Moduli (GPa) = 27.46850 87.08588 50.09171
#
# Poissons Ratio (x) = 0.84127 -0.23947
# Poissons Ratio (y) = 0.26535 0.33175
# Poissons Ratio (z) = -0.13132 0.57676
#
# Static dielectric constant tensor:
#      x y z
#    x 1.805450 0.000000 0.000000 
#    y 0.000000 1.835670 0.000000 
#    z 0.000000 0.000000 1.836660 
# 
# From -- ./inp_files/27502.got.cif
#   From: 2010.05.17/outbox.cif.g08.bks.cpg/sg50_14_cif.got.tgz:27502.got - 2010.06.03 11:33:33.
