data_PCOD9396979
_publ_section_title
;
Structure prediction by ZEFSAII (Michael W. Deem and Ramdas Pophale) SiO2 
 PCOD9396979
Probable space group: P B A N
;
_chemical_formula_sum "Si O2"
_cell_formula_units_Z 56
_cell_length_a 16.657103
_cell_length_b 15.350685
_cell_length_c 11.131099
_cell_angle_alpha 90.000000
_cell_angle_beta 90.000000
_cell_angle_gamma 90.000000
_cell_volume 2846.199097
_symmetry_space_group_name_H-M "P B A N"
_symmetry_group_IT_number 50
_space_group.IT_coordinate_system_code '2'
_symmetry_cell_setting 'orthorhombic'
loop_
_space_group_symop_operation_xyz
x,y,z
1/2-x,1/2-y,z
x,1/2-y,-z
1/2-x,y,-z
-x,-y,-z
1/2+x,1/2+y,-z
-x,1/2+y,z
1/2+x,-y,z
loop_
_atom_site_type_symbol
_atom_site_label
_atom_site_fract_x
_atom_site_fract_y
_atom_site_fract_z
Si Si1 0.415482 0.421986 0.923931
Si Si2 0.053809 0.385570 0.681475
Si Si3 0.343755 0.228244 0.219571
Si Si4 0.840189 0.899704 0.448547
Si Si5 0.911498 0.461543 0.144733
Si Si6 0.759390 0.352872 0.139227
Si Si7 0.620884 0.059406 0.712034
O O1 0.374348 0.332193 0.888735
O O2 0.512090 0.415151 0.917770
O O3 0.399616 0.492234 0.819503
O O4 0.386290 0.465734 0.046446
O O5 0.099138 0.311582 0.759342
O O6 0.094923 0.381022 0.551600
O O7 0.070113 0.480969 0.738338
O O8 0.957062 0.381887 0.683249
O O9 0.250000 0.250000 0.204144
O O10 0.349605 0.168573 0.339771
O O11 0.750000 0.891395 0.500000
O O12 0.854591 0.996784 0.397483
O O13 0.845396 0.390685 0.173969
O O14 0.750000 0.250000 0.138419
O O15 0.694374 0.388250 0.232331
O O16 0.750000 0.382759 0.000000
#
# Coordination Sequence:
#
# PCOD9396979 Si02
#       7
#     8   8   8   8   8   8   8
#     4   9  21  40  62  90 126 164 202 262 322 382
#     4  11  23  37  64  95 125 168 209 264 317 385
#     4  11  23  38  64  96 125 164 209 269 327 385
#     4  11  21  40  67  89 124 169 218 260 319 394
#     4  10  21  41  63  89 128 166 211 257 319 388
#     4  11  23  38  64  92 122 167 215 264 316 381
#     4  10  22  41  61  91 123 163 213 263 317 375
#
# _framework density 19.675363999999998
#
# number of rings (size 3 to 8) (size 9 to 14) (size 15 to 20)
#    0.000    1.571    2.857    1.714    4.000    0.571 
#    0.000    0.714    3.143    0.857    0.000    0.000 
#    0.000    0.000    0.000    0.000    0.000    0.000 
#
# Total GULP energy -312635.029441 kJ/mol
# GULP energy per Si atom -5582.768383 kJ/mol
# Density = 1.963058 g / cm^3
# Si number density = 19.675364 Si / 1000 Ang^3
#
#
#
# Elastic Constant Matrix: (Units=GPa)
#
#
# Indices 1 2 3 4 5 6 
#
# 1 101.3174 55.9113 11.8901 0.0000 0.0000 0.0000
# 2 55.9113 84.2255 12.5102 0.0000 0.0000 0.0000
# 3 11.8901 12.5102 48.0818 0.0000 0.0000 0.0000
# 4 0.0000 0.0000 0.0000 24.8751 0.0000 0.0000
# 5 0.0000 0.0000 0.0000 0.0000 27.0129 0.0000
# 6 0.0000 0.0000 0.0000 0.0000 0.0000 21.0919
#
#
#
# Elastic Compliance Matrix: (Units=1/GPa)
#
#
# Indices 1 2 3 4 5 6 
#
# 1 0.015644 -0.010204 -0.001213 0.000000 0.000000 0.000000
# 2 -0.010204 0.019007 -0.002422 0.000000 0.000000 0.000000
# 3 -0.001213 -0.002422 0.021728 0.000000 0.000000 0.000000
# 4 0.000000 0.000000 0.000000 0.040201 0.000000 0.000000
# 5 0.000000 0.000000 0.000000 0.000000 0.037019 0.000000
# 6 0.000000 0.000000 0.000000 0.000000 0.000000 0.047412
#
#
# Mechanical properties :
#
#
# Convention : Reuss Voigt Hill
#
# Bulk Modulus (GPa) = 34.84452 43.80535 39.32494
# Shear Modulus (GPa) = 22.90889 24.81685 23.86287
#
# Velocity S-wave (km/s) = 3.41595 3.55535 3.48635
# Velocity P-wave (km/s) = 5.77117 6.25831 6.01967
#
# Compressibility (1/GPa) = 0.02869891
#
# Stress axis : x y z
#
# Youngs Moduli (GPa) = 63.92379 52.61328 46.02338
#
# Poissons Ratio (x) = 0.53689 0.05585
# Poissons Ratio (y) = 0.65231 0.11146
# Poissons Ratio (z) = 0.07757 0.12742
#
# Static dielectric constant tensor:
#      x y z
#    x 1.720960 0.000000 0.000000 
#    y 0.000000 1.674530 0.000000 
#    z 0.000000 0.000000 1.700530 
# 
# From -- ./inp_files/21144.got.cif
#   From: 2010.05.17/outbox.cif.g08.bks.cpg/sg50_11_cif.got.tgz:21144.got - 2010.06.03 11:33:33.
