data_PCOD9396593
_publ_section_title
;
Structure prediction by ZEFSAII (Michael W. Deem and Ramdas Pophale) SiO2 
 PCOD9396593
Probable space group: P B A N
;
_chemical_formula_sum "Si O2"
_cell_formula_units_Z 40
_cell_length_a 11.508548
_cell_length_b 19.120650
_cell_length_c 7.869616
_cell_angle_alpha 90.000000
_cell_angle_beta 90.000000
_cell_angle_gamma 90.000000
_cell_volume 1731.716228
_symmetry_space_group_name_H-M "P B A N"
_symmetry_group_IT_number 50
_space_group.IT_coordinate_system_code '2'
_symmetry_cell_setting 'orthorhombic'
loop_
_space_group_symop_operation_xyz
x,y,z
1/2-x,1/2-y,z
x,1/2-y,-z
1/2-x,y,-z
-x,-y,-z
1/2+x,1/2+y,-z
-x,1/2+y,z
1/2+x,-y,z
loop_
_atom_site_type_symbol
_atom_site_label
_atom_site_fract_x
_atom_site_fract_y
_atom_site_fract_z
Si Si1 0.369641 0.171135 0.442076
Si Si2 0.475784 0.170525 0.069904
Si Si3 0.920555 0.405366 0.602670
Si Si4 0.690566 0.089368 0.234613
Si Si5 0.423962 0.460861 0.138631
O O1 0.358370 0.250000 0.500000
O O2 0.250000 0.133461 0.500000
O O3 0.398760 0.166394 0.242489
O O4 0.479499 0.147453 0.550916
O O5 0.602064 0.138333 0.128127
O O6 0.483543 0.250000 0.000000
O O7 0.418676 0.118393 0.929717
O O8 0.859450 0.417978 0.424373
O O9 0.821048 0.383129 0.737269
O O10 0.994559 0.464909 0.694519
O O11 0.687474 0.009582 0.166723
O O12 0.500000 0.500000 0.000000
#
# Coordination Sequence:
#
# PCOD9396593 Si02
#       5
#     8   8   8   8   8
#     4  10  22  44  67  92 131 178 228 274 337 423
#     4  10  21  41  69  99 132 173 225 280 344 405
#     4  10  20  42  66  96 130 175 230 269 334 410
#     4   9  21  41  67  95 135 174 223 277 332 412
#     4  10  21  39  60  95 132 171 215 275 339 399
#
# _framework density 23.098472999999998
#
# number of rings (size 3 to 8) (size 9 to 14) (size 15 to 20)
#    0.000    2.200    0.000    1.800    0.000    3.200 
#   18.000   24.000    4.400    0.000    0.000    0.000 
#    0.000    0.000    0.000    0.000    0.000    0.000 
#
# Total GULP energy -223056.758454 kJ/mol
# GULP energy per Si atom -5576.418961 kJ/mol
# Density = 2.304590 g / cm^3
# Si number density = 23.098473 Si / 1000 Ang^3
#
#
#
# Elastic Constant Matrix: (Units=GPa)
#
#
# Indices 1 2 3 4 5 6 
#
# 1 156.4334 54.6645 53.2418 0.0000 0.0000 0.0000
# 2 54.6645 118.7745 42.7943 0.0000 0.0000 0.0000
# 3 53.2418 42.7943 139.9236 0.0000 0.0000 0.0000
# 4 0.0000 0.0000 0.0000 23.3204 0.0000 0.0000
# 5 0.0000 0.0000 0.0000 0.0000 38.7553 0.0000
# 6 0.0000 0.0000 0.0000 0.0000 0.0000 44.5547
#
#
#
# Elastic Compliance Matrix: (Units=1/GPa)
#
#
# Indices 1 2 3 4 5 6 
#
# 1 0.008181 -0.002971 -0.002204 0.000000 0.000000 0.000000
# 2 -0.002971 0.010541 -0.002093 0.000000 0.000000 0.000000
# 3 -0.002204 -0.002093 0.008626 0.000000 0.000000 0.000000
# 4 0.000000 0.000000 0.000000 0.042881 0.000000 0.000000
# 5 0.000000 0.000000 0.000000 0.000000 0.025803 0.000000
# 6 0.000000 0.000000 0.000000 0.000000 0.000000 0.022444
#
#
# Mechanical properties :
#
#
# Convention : Reuss Voigt Hill
#
# Bulk Modulus (GPa) = 78.06175 79.61475 78.83825
# Shear Modulus (GPa) = 36.42114 38.95481 37.68797
#
# Velocity S-wave (km/s) = 3.97517 4.11112 4.04372
# Velocity P-wave (km/s) = 7.41201 7.55496 7.48383
#
# Compressibility (1/GPa) = 0.01281037
#
# Stress axis : x y z
#
# Youngs Moduli (GPa) = 122.23614 94.86853 115.93240
#
# Poissons Ratio (x) = 0.28185 0.25554
# Poissons Ratio (y) = 0.36316 0.24269
# Poissons Ratio (z) = 0.26944 0.19859
#
# Static dielectric constant tensor:
#      x y z
#    x 1.519500 0.000000 0.000000 
#    y 0.000000 1.842540 0.000000 
#    z 0.000000 0.000000 1.934180 
# 
# From -- ./inp_files/11312.got.cif
#   From: 2010.05.17/outbox.cif.g08.bks.cpg/sg50_6_cif.got.tgz:11312.got - 2010.06.03 11:33:33.
