data_PCOD9396866
_publ_section_title
;
Structure prediction by ZEFSAII (Michael W. Deem and Ramdas Pophale) SiO2 
 PCOD9396866
Probable space group: P B A N
;
_chemical_formula_sum "Si O2"
_cell_formula_units_Z 26
_cell_length_a 8.282195
_cell_length_b 10.662687
_cell_length_c 14.249184
_cell_angle_alpha 90.000000
_cell_angle_beta 90.000000
_cell_angle_gamma 90.000000
_cell_volume 1258.351893
_symmetry_space_group_name_H-M "P B A N"
_symmetry_group_IT_number 50
_space_group.IT_coordinate_system_code '2'
_symmetry_cell_setting 'orthorhombic'
loop_
_space_group_symop_operation_xyz
x,y,z
1/2-x,1/2-y,z
x,1/2-y,-z
1/2-x,y,-z
-x,-y,-z
1/2+x,1/2+y,-z
-x,1/2+y,z
1/2+x,-y,z
loop_
_atom_site_type_symbol
_atom_site_label
_atom_site_fract_x
_atom_site_fract_y
_atom_site_fract_z
Si Si1 0.621566 0.104579 0.826328
Si Si2 0.069843 0.374310 0.459290
Si Si3 0.750000 0.250000 0.000000
Si Si4 0.482522 0.644719 0.243881
O O1 0.500100 0.208451 0.782536
O O2 0.790815 0.116902 0.769310
O O3 0.564052 0.962023 0.820416
O O4 0.652564 0.158942 0.930230
O O5 0.985459 0.250000 0.500000
O O6 0.250000 0.372005 0.500000
O O7 0.000000 0.500000 0.500000
O O8 0.050261 0.373947 0.347830
#
# Coordination Sequence:
#
# PCOD9396866 Si02
#       4
#     8   8   2   8
#     4  10  22  38  64  85 124 153 200 245 299 363
#     4  11  23  37  57  83 115 151 199 243 286 349
#     4   8  20  40  60  96 118 156 196 252 300 356
#     4  10  21  39  57  87 116 159 191 246 301 345
#
# _framework density 20.661947999999999
#
# number of rings (size 3 to 8) (size 9 to 14) (size 15 to 20)
#    0.000    2.154    0.000    3.692    0.000   11.692 
#    0.000    0.000    0.000   14.769    0.000    0.000 
#    0.000    0.000    0.000    0.000    0.000    0.000 
#
# Total GULP energy -145013.419940 kJ/mol
# GULP energy per Si atom -5577.439228 kJ/mol
# Density = 2.061492 g / cm^3
# Si number density = 20.661948 Si / 1000 Ang^3
#
#
#
# Elastic Constant Matrix: (Units=GPa)
#
#
# Indices 1 2 3 4 5 6 
#
# 1 51.5792 27.8144 27.9818 0.0000 0.0000 0.0000
# 2 27.8144 113.5751 31.0680 0.0000 0.0000 0.0000
# 3 27.9818 31.0680 161.0368 0.0000 0.0000 0.0000
# 4 0.0000 0.0000 0.0000 39.0567 0.0000 0.0000
# 5 0.0000 0.0000 0.0000 0.0000 -19.8673 0.0000
# 6 0.0000 0.0000 0.0000 0.0000 0.0000 20.7396
#
#
#
# Elastic Compliance Matrix: (Units=1/GPa)
#
#
# Indices 1 2 3 4 5 6 
#
# 1 0.023783 -0.004956 -0.003177 0.000000 0.000000 0.000000
# 2 -0.004956 0.010328 -0.001131 0.000000 0.000000 0.000000
# 3 -0.003177 -0.001131 0.006980 0.000000 0.000000 0.000000
# 4 0.000000 0.000000 0.000000 0.025604 0.000000 0.000000
# 5 0.000000 0.000000 0.000000 0.000000 -0.050334 0.000000
# 6 0.000000 0.000000 0.000000 0.000000 0.000000 0.048217
#
#
# Mechanical properties :
#
#
# Convention : Reuss Voigt Hill
#
# Bulk Modulus (GPa) = 44.31828 55.54662 49.93245
# Shear Modulus (GPa) = 55.17172 23.94094 39.55633
#
# Velocity S-wave (km/s) = 5.17301 3.40766 4.38019
# Velocity P-wave (km/s) = 7.56147 6.51343 7.05693
#
# Compressibility (1/GPa) = 0.02256405
#
# Stress axis : x y z
#
# Youngs Moduli (GPa) = 42.04643 96.82553 143.26657
#
# Poissons Ratio (x) = 0.47983 0.45509
# Poissons Ratio (y) = 0.20836 0.16209
# Poissons Ratio (z) = 0.13356 0.10955
#
# Static dielectric constant tensor:
#      x y z
#    x 1.759220 0.000000 0.000000 
#    y 0.000000 1.821210 0.000000 
#    z 0.000000 0.000000 1.689320 
# 
# From -- ./inp_files/18188.got.cif
#   From: 2010.05.17/outbox.cif.g08.bks.cpg/sg50_10_cif.got.tgz:18188.got - 2010.06.03 11:33:33.
