data_PCOD9396065
_publ_section_title
;
Structure prediction by ZEFSAII (Michael W. Deem and Ramdas Pophale) SiO2 
 PCOD9396065
Probable space group: P B A N
;
_chemical_formula_sum "Si O2"
_cell_formula_units_Z 32
_cell_length_a 30.896237
_cell_length_b 9.215927
_cell_length_c 6.127785
_cell_angle_alpha 90.000000
_cell_angle_beta 90.000000
_cell_angle_gamma 90.000000
_cell_volume 1744.809966
_symmetry_space_group_name_H-M "P B A N"
_symmetry_group_IT_number 50
_space_group.IT_coordinate_system_code '2'
_symmetry_cell_setting 'orthorhombic'
loop_
_space_group_symop_operation_xyz
x,y,z
1/2-x,1/2-y,z
x,1/2-y,-z
1/2-x,y,-z
-x,-y,-z
1/2+x,1/2+y,-z
-x,1/2+y,z
1/2+x,-y,z
loop_
_atom_site_type_symbol
_atom_site_label
_atom_site_fract_x
_atom_site_fract_y
_atom_site_fract_z
Si Si1 0.928854 0.250000 0.000000
Si Si2 0.037934 0.908140 0.392086
Si Si3 0.250000 0.250000 0.000000
Si Si4 0.376726 0.900413 0.385499
Si Si5 0.284796 0.001795 0.302448
Si Si6 0.250000 0.750000 0.000000
O O1 0.957739 0.364331 0.138439
O O2 0.898554 0.154359 0.159921
O O3 0.034637 0.750000 0.500000
O O4 0.084486 0.967612 0.471138
O O5 0.000000 0.000000 0.500000
O O6 0.223266 0.357449 0.154876
O O7 0.362963 0.750000 0.500000
O O8 0.334476 0.997165 0.373774
O O9 0.250000 0.999841 0.500000
O O10 0.277105 0.857972 0.154662
#
# Coordination Sequence:
#
# PCOD9396065 Si02
#       6
#     4   8   2   8   8   2
#     4   8  17  34  55  79 114 138 175 235 273 326
#     4   9  19  34  53  80 108 141 181 222 275 327
#     4  10  26  38  50  76 116 160 184 214 288 344
#     4   9  18  32  55  81 104 140 184 228 279 322
#     4  11  21  38  56  80 114 145 185 235 278 334
#     4  10  20  30  60  88 100 136 190 230 282 332
#
# _framework density 18.340108000000001
#
# number of rings (size 3 to 8) (size 9 to 14) (size 15 to 20)
#    0.000    3.000    0.000    3.000    0.000   10.000 
#    0.000    6.250    0.000    0.000    0.000    0.000 
#    0.000    0.000    0.000    0.000    0.000    0.000 
#
# Total GULP energy -178176.832190 kJ/mol
# GULP energy per Si atom -5568.026006 kJ/mol
# Density = 1.829836 g / cm^3
# Si number density = 18.340108 Si / 1000 Ang^3
#
#
#
# Elastic Constant Matrix: (Units=GPa)
#
#
# Indices 1 2 3 4 5 6 
#
# 1 159.5925 61.0171 56.5059 0.0000 0.0000 0.0000
# 2 61.0171 79.6174 36.5976 0.0000 0.0000 0.0000
# 3 56.5059 36.5976 114.7782 0.0000 0.0000 0.0000
# 4 0.0000 0.0000 0.0000 15.0544 0.0000 0.0000
# 5 0.0000 0.0000 0.0000 0.0000 9.8334 0.0000
# 6 0.0000 0.0000 0.0000 0.0000 0.0000 5.9413
#
#
#
# Elastic Compliance Matrix: (Units=1/GPa)
#
#
# Indices 1 2 3 4 5 6 
#
# 1 0.009564 -0.006052 -0.002778 0.000000 0.000000 0.000000
# 2 -0.006052 0.018547 -0.002934 0.000000 0.000000 0.000000
# 3 -0.002778 -0.002934 0.011016 0.000000 0.000000 0.000000
# 4 0.000000 0.000000 0.000000 0.066426 0.000000 0.000000
# 5 0.000000 0.000000 0.000000 0.000000 0.101694 0.000000
# 6 0.000000 0.000000 0.000000 0.000000 0.000000 0.168313
#
#
# Mechanical properties :
#
#
# Convention : Reuss Voigt Hill
#
# Bulk Modulus (GPa) = 64.11586 73.58104 68.84845
# Shear Modulus (GPa) = 12.36739 19.49032 15.92885
#
# Velocity S-wave (km/s) = 2.59961 3.26347 2.95027
# Velocity P-wave (km/s) = 6.63671 7.37616 7.01618
#
# Compressibility (1/GPa) = 0.01559676
#
# Stress axis : x y z
#
# Youngs Moduli (GPa) = 104.56250 53.91659 90.77761
#
# Poissons Ratio (x) = 0.32631 0.25222
# Poissons Ratio (y) = 0.63283 0.26637
# Poissons Ratio (z) = 0.29052 0.15821
#
# Static dielectric constant tensor:
#      x y z
#    x 1.674590 0.000000 0.000000 
#    y 0.000000 1.610730 0.000000 
#    z 0.000000 0.000000 1.715010 
# 
# From -- ./inp_files/1200.got.cif
#   From: 2010.05.17/outbox.cif.g08.bks.cpg/sg50_1_cif.got.tgz:1200.got - 2010.06.03 11:33:33.
