data_PCOD9396898
_publ_section_title
;
Structure prediction by ZEFSAII (Michael W. Deem and Ramdas Pophale) SiO2 
 PCOD9396898
Probable space group: P B A N
;
_chemical_formula_sum "Si O2"
_cell_formula_units_Z 60
_cell_length_a 25.542118
_cell_length_b 5.612741
_cell_length_c 18.975898
_cell_angle_alpha 90.000000
_cell_angle_beta 90.000000
_cell_angle_gamma 90.000000
_cell_volume 2720.409272
_symmetry_space_group_name_H-M "P B A N"
_symmetry_group_IT_number 50
_space_group.IT_coordinate_system_code '2'
_symmetry_cell_setting 'orthorhombic'
loop_
_space_group_symop_operation_xyz
x,y,z
1/2-x,1/2-y,z
x,1/2-y,-z
1/2-x,y,-z
-x,-y,-z
1/2+x,1/2+y,-z
-x,1/2+y,z
1/2+x,-y,z
loop_
_atom_site_type_symbol
_atom_site_label
_atom_site_fract_x
_atom_site_fract_y
_atom_site_fract_z
Si Si1 0.193254 0.216051 0.778300
Si Si2 0.356560 0.250000 0.000000
Si Si3 0.137443 0.231076 0.636606
Si Si4 0.985823 0.676923 0.613044
Si Si5 0.189300 0.763198 0.415475
Si Si6 0.695441 0.379027 0.091243
Si Si7 0.378704 0.512215 0.132273
Si Si8 0.975741 0.358848 0.226356
O O1 0.250000 0.250000 0.744415
O O2 0.149834 0.202652 0.718990
O O3 0.174242 0.426680 0.828875
O O4 0.197688 0.999132 0.831646
O O5 0.315757 0.442441 0.971453
O O6 0.389891 0.171896 0.931196
O O7 0.075579 0.224529 0.624157
O O8 0.162542 0.485207 0.609973
O O9 0.161536 0.985086 0.606112
O O10 0.992091 0.417287 0.578490
O O11 0.016944 0.651575 0.688460
O O12 0.250000 0.750000 0.390441
O O13 0.189401 0.750000 0.500000
O O14 0.750000 0.250000 0.081192
O O15 0.640267 0.243135 0.092723
O O16 0.421138 0.566601 0.191451
O O17 0.011453 0.586707 0.203968
#
# Coordination Sequence:
#
# PCOD9396898 Si02
#       8
#     8   4   8   8   8   8   8   8
#     4  11  23  38  59 101 140 170 220 283 360 418
#     4  10  26  43  64  92 124 178 246 278 347 428
#     4  12  25  41  75 106 146 192 239 294 351 422
#     4  10  21  39  64 100 135 177 234 289 353 419
#     4  11  25  47  73 108 152 199 241 278 333 417
#     4  11  24  42  64  93 134 183 224 289 353 433
#     4  11  24  42  66  90 132 174 226 290 352 420
#     4  10  23  41  66  93 125 169 218 281 353 414
#
# _framework density 22.055505
#
# number of rings (size 3 to 8) (size 9 to 14) (size 15 to 20)
#    0.000    1.200    1.333    4.400    9.333    3.200 
#    0.000    0.667    0.000    8.000    0.000    0.000 
#    0.000    0.000    0.000    0.000    0.000    0.000 
#
# Total GULP energy -334558.023680 kJ/mol
# GULP energy per Si atom -5575.967061 kJ/mol
# Density = 2.200531 g / cm^3
# Si number density = 22.055505 Si / 1000 Ang^3
#
#
#
# Elastic Constant Matrix: (Units=GPa)
#
#
# Indices 1 2 3 4 5 6 
#
# 1 87.5917 55.8668 27.6864 0.0000 0.0000 0.0000
# 2 55.8668 156.6500 35.5404 0.0000 0.0000 0.0000
# 3 27.6864 35.5404 69.3385 0.0000 0.0000 0.0000
# 4 0.0000 0.0000 0.0000 19.7763 0.0000 0.0000
# 5 0.0000 0.0000 0.0000 0.0000 16.1083 0.0000
# 6 0.0000 0.0000 0.0000 0.0000 0.0000 13.2049
#
#
#
# Elastic Compliance Matrix: (Units=1/GPa)
#
#
# Indices 1 2 3 4 5 6 
#
# 1 0.015627 -0.004705 -0.003828 0.000000 0.000000 0.000000
# 2 -0.004705 0.008640 -0.002550 0.000000 0.000000 0.000000
# 3 -0.003828 -0.002550 0.017258 0.000000 0.000000 0.000000
# 4 0.000000 0.000000 0.000000 0.050565 0.000000 0.000000
# 5 0.000000 0.000000 0.000000 0.000000 0.062080 0.000000
# 6 0.000000 0.000000 0.000000 0.000000 0.000000 0.075729
#
#
# Mechanical properties :
#
#
# Convention : Reuss Voigt Hill
#
# Bulk Modulus (GPa) = 51.65596 61.30747 56.48171
# Shear Modulus (GPa) = 19.34092 22.78369 21.06231
#
# Velocity S-wave (km/s) = 2.96450 3.21754 3.09361
# Velocity P-wave (km/s) = 5.93206 6.45451 6.19879
#
# Compressibility (1/GPa) = 0.01935885
#
# Stress axis : x y z
#
# Youngs Moduli (GPa) = 63.99012 115.74007 57.94503
#
# Poissons Ratio (x) = 0.54452 0.22184
# Poissons Ratio (y) = 0.30105 0.14776
# Poissons Ratio (z) = 0.24498 0.29514
#
# Static dielectric constant tensor:
#      x y z
#    x 1.779590 0.000000 0.000000 
#    y 0.000000 1.951000 0.000000 
#    z 0.000000 0.000000 1.782400 
# 
# From -- ./inp_files/31261.got.cif
#   From: 2010.05.17/outbox.cif.g08.bks.cpg/sg50_16_cif.got.tgz:31261.got - 2010.06.03 11:33:33.
