data_PCOD9396026
_publ_section_title
;
Structure prediction by ZEFSAII (Michael W. Deem and Ramdas Pophale) SiO2 
 PCOD9396026
Probable space group: P B A N
;
_chemical_formula_sum "Si O2"
_cell_formula_units_Z 48
_cell_length_a 18.575113
_cell_length_b 5.523981
_cell_length_c 22.622942
_cell_angle_alpha 90.000000
_cell_angle_beta 90.000000
_cell_angle_gamma 90.000000
_cell_volume 2321.307757
_symmetry_space_group_name_H-M "P B A N"
_symmetry_group_IT_number 50
_space_group.IT_coordinate_system_code '2'
_symmetry_cell_setting 'orthorhombic'
loop_
_space_group_symop_operation_xyz
x,y,z
1/2-x,1/2-y,z
x,1/2-y,-z
1/2-x,y,-z
-x,-y,-z
1/2+x,1/2+y,-z
-x,1/2+y,z
1/2+x,-y,z
loop_
_atom_site_type_symbol
_atom_site_label
_atom_site_fract_x
_atom_site_fract_y
_atom_site_fract_z
Si Si1 0.162089 0.725359 0.068368
Si Si2 0.046247 0.250000 0.500000
Si Si3 0.250000 0.750000 0.238464
Si Si4 0.880257 0.945100 0.740456
Si Si5 0.454634 0.265454 0.629551
Si Si6 0.325051 0.126097 0.155753
Si Si7 0.543128 0.119510 0.156979
O O1 0.250000 0.750000 0.073897
O O2 0.144495 0.459895 0.094030
O O3 0.112343 0.886354 0.111998
O O4 0.144236 0.750000 0.000000
O O5 0.000000 0.500000 0.500000
O O6 0.082564 0.250703 0.564640
O O7 0.304110 0.574874 0.272830
O O8 0.197856 0.604589 0.194995
O O9 0.904744 0.790884 0.685070
O O10 0.868948 0.776768 0.797446
O O11 0.936960 0.125185 0.772080
O O12 0.490111 0.533688 0.632499
O O13 0.250000 0.250000 0.142780
O O14 0.504338 0.378804 0.146139
#
# Coordination Sequence:
#
# PCOD9396026 Si02
#       7
#     8   4   4   8   8   8   8
#     4  11  23  44  70  92 120 165 223 270 324 402
#     4   8  16  34  54  84 127 167 210 260 306 368
#     4  10  20  36  63  88 123 156 214 264 322 378
#     4  11  22  36  62  91 126 169 209 265 325 392
#     4  10  21  35  59  92 132 169 215 263 321 383
#     4  10  19  38  62  88 121 157 207 273 320 378
#     4  12  26  43  64  92 130 167 207 267 333 390
#
# _framework density 20.678000000000001
#
# number of rings (size 3 to 8) (size 9 to 14) (size 15 to 20)
#    0.000    1.500    2.500    3.000    2.333    0.667 
#    0.000   10.833    0.000    0.000    0.000    6.417 
#    0.000    0.000    0.000    0.000    0.000    0.000 
#
# Total GULP energy -267285.386938 kJ/mol
# GULP energy per Si atom -5568.445561 kJ/mol
# Density = 2.063094 g / cm^3
# Si number density = 20.678000 Si / 1000 Ang^3
#
#
#
# Elastic Constant Matrix: (Units=GPa)
#
#
# Indices 1 2 3 4 5 6 
#
# 1 62.6665 16.0282 37.8820 0.0000 0.0000 0.0000
# 2 16.0282 88.5268 19.0631 0.0000 0.0000 0.0000
# 3 37.8820 19.0631 158.7445 0.0000 0.0000 0.0000
# 4 0.0000 0.0000 0.0000 -283.6855 0.0000 0.0000
# 5 0.0000 0.0000 0.0000 0.0000-1265.2290 0.0000
# 6 0.0000 0.0000 0.0000 0.0000 0.0000 31.1163
#
#
#
# Elastic Compliance Matrix: (Units=1/GPa)
#
#
# Indices 1 2 3 4 5 6 
#
# 1 0.019194 -0.002555 -0.004274 0.000000 0.000000 0.000000
# 2 -0.002555 0.011936 -0.000824 0.000000 0.000000 0.000000
# 3 -0.004274 -0.000824 0.007418 0.000000 0.000000 0.000000
# 4 0.000000 0.000000 0.000000 -0.003525 0.000000 0.000000
# 5 0.000000 0.000000 0.000000 0.000000 -0.000790 0.000000
# 6 0.000000 0.000000 0.000000 0.000000 0.000000 0.032138
#
#
# Mechanical properties :
#
#
# Convention : Reuss Voigt Hill
#
# Bulk Modulus (GPa) = 43.02176 50.65381 46.83778
# Shear Modulus (GPa) = 55.91391 -287.76201 -115.92405
#
# Velocity S-wave (km/s) = 5.20567 -11.80955 -7.49555
# Velocity P-wave (km/s) = 7.54869 12.70450 7.22570
#
# Compressibility (1/GPa) = 0.02324405
#
# Stress axis : x y z
#
# Youngs Moduli (GPa) = 52.09852 83.78042 134.80398
#
# Poissons Ratio (x) = 0.21406 0.57610
# Poissons Ratio (y) = 0.13311 0.11103
# Poissons Ratio (z) = 0.22265 0.06901
#
# Static dielectric constant tensor:
#      x y z
#    x 1.869270 0.000000 0.000000 
#    y 0.000000 1.936220 0.000000 
#    z 0.000000 0.000000 1.725950 
# 
# From -- ./inp_files/31163.got.cif
#   From: 2010.05.17/outbox.cif.g08.bks.cpg/sg50_16_cif.got.tgz:31163.got - 2010.06.03 11:33:33.
