data_PCOD9396993
_publ_section_title
;
Structure prediction by ZEFSAII (Michael W. Deem and Ramdas Pophale) SiO2 
 PCOD9396993
Probable space group: P B A N
;
_chemical_formula_sum "Si O2"
_cell_formula_units_Z 48
_cell_length_a 15.070084
_cell_length_b 8.903968
_cell_length_c 18.317036
_cell_angle_alpha 90.000000
_cell_angle_beta 90.000000
_cell_angle_gamma 90.000000
_cell_volume 2457.844837
_symmetry_space_group_name_H-M "P B A N"
_symmetry_group_IT_number 50
_space_group.IT_coordinate_system_code '2'
_symmetry_cell_setting 'orthorhombic'
loop_
_space_group_symop_operation_xyz
x,y,z
1/2-x,1/2-y,z
x,1/2-y,-z
1/2-x,y,-z
-x,-y,-z
1/2+x,1/2+y,-z
-x,1/2+y,z
1/2+x,-y,z
loop_
_atom_site_type_symbol
_atom_site_label
_atom_site_fract_x
_atom_site_fract_y
_atom_site_fract_z
Si Si1 0.735244 0.425725 0.413301
Si Si2 0.875076 0.881829 0.160562
Si Si3 0.543573 0.115608 0.054894
Si Si4 0.079733 0.088985 0.674783
Si Si5 0.816373 0.965620 0.841375
Si Si6 0.110855 0.051987 0.319534
O O1 0.750000 0.250000 0.393270
O O2 0.750000 0.436470 0.500000
O O3 0.645132 0.498954 0.380058
O O4 0.813755 0.518377 0.377139
O O5 0.896919 0.944864 0.240768
O O6 0.841334 0.710579 0.158373
O O7 0.787858 0.977429 0.139259
O O8 0.964382 0.868673 0.113883
O O9 0.626589 0.054656 0.099818
O O10 0.566220 0.250000 0.000000
O O11 0.500000 0.000000 0.000000
O O12 0.090901 0.269802 0.674455
O O13 0.978852 0.038009 0.663754
O O14 0.847626 0.001880 0.758465
#
# Coordination Sequence:
#
# PCOD9396993 Si02
#       6
#     8   8   8   8   8   8
#     4  11  25  45  67  99 139 175 221 283 340 398
#     4  10  21  41  67  92 128 173 221 269 331 393
#     4  12  24  42  64  94 135 171 213 273 331 388
#     4  11  22  40  69 100 132 176 227 271 337 403
#     4  10  21  41  67  94 126 174 222 268 328 398
#     4  11  22  40  69 100 132 176 226 275 333 406
#
# _framework density 19.529305000000001
#
# number of rings (size 3 to 8) (size 9 to 14) (size 15 to 20)
#    0.000    1.167    5.000    1.500    0.000    2.667 
#    3.000    1.667    0.000    0.000    0.000    0.000 
#    0.000    0.000    0.000    0.000    0.000    0.000 
#
# Total GULP energy -267558.453222 kJ/mol
# GULP energy per Si atom -5574.134442 kJ/mol
# Density = 1.948486 g / cm^3
# Si number density = 19.529305 Si / 1000 Ang^3
#
#
#
# Elastic Constant Matrix: (Units=GPa)
#
#
# Indices 1 2 3 4 5 6 
#
# 1 120.1363 -2.1552 22.2165 0.0000 0.0000 0.0000
# 2 -2.1552 32.5883 15.2117 0.0000 0.0000 0.0000
# 3 22.2165 15.2117 79.5714 0.0000 0.0000 0.0000
# 4 0.0000 0.0000 0.0000 27.9018 0.0000 0.0000
# 5 0.0000 0.0000 0.0000 0.0000 35.6256 0.0000
# 6 0.0000 0.0000 0.0000 0.0000 0.0000 20.0840
#
#
#
# Elastic Compliance Matrix: (Units=1/GPa)
#
#
# Indices 1 2 3 4 5 6 
#
# 1 0.008885 0.001917 -0.002847 0.000000 0.000000 0.000000
# 2 0.001917 0.034106 -0.007055 0.000000 0.000000 0.000000
# 3 -0.002847 -0.007055 0.014711 0.000000 0.000000 0.000000
# 4 0.000000 0.000000 0.000000 0.035840 0.000000 0.000000
# 5 0.000000 0.000000 0.000000 0.000000 0.028070 0.000000
# 6 0.000000 0.000000 0.000000 0.000000 0.000000 0.049791
#
#
# Mechanical properties :
#
#
# Convention : Reuss Voigt Hill
#
# Bulk Modulus (GPa) = 23.96339 33.64910 28.80625
# Shear Modulus (GPa) = 24.84059 29.85714 27.34886
#
# Velocity S-wave (km/s) = 3.57033 3.91428 3.74625
# Velocity P-wave (km/s) = 5.41234 6.13972 5.78747
#
# Compressibility (1/GPa) = 0.04173032
#
# Stress axis : x y z
#
# Youngs Moduli (GPa) = 112.55234 29.32047 67.97650
#
# Poissons Ratio (x) = -0.05619 0.19353
# Poissons Ratio (y) = -0.21571 0.47958
# Poissons Ratio (z) = 0.32044 0.20686
#
# Static dielectric constant tensor:
#      x y z
#    x 1.596750 0.000000 0.000000 
#    y 0.000000 1.696180 0.000000 
#    z 0.000000 0.000000 1.670760 
# 
# From -- ./inp_files/28724.got.cif
#   From: 2010.05.17/outbox.cif.g08.bks.cpg/sg50_15_cif.got.tgz:28724.got - 2010.06.03 11:33:33.
