data_PCOD9396925
_publ_section_title
;
Structure prediction by ZEFSAII (Michael W. Deem and Ramdas Pophale) SiO2 
 PCOD9396925
Probable space group: P B A N
;
_chemical_formula_sum "Si O2"
_cell_formula_units_Z 40
_cell_length_a 15.047032
_cell_length_b 15.923435
_cell_length_c 7.208128
_cell_angle_alpha 90.000000
_cell_angle_beta 90.000000
_cell_angle_gamma 90.000000
_cell_volume 1727.070612
_symmetry_space_group_name_H-M "P B A N"
_symmetry_group_IT_number 50
_space_group.IT_coordinate_system_code '2'
_symmetry_cell_setting 'orthorhombic'
loop_
_space_group_symop_operation_xyz
x,y,z
1/2-x,1/2-y,z
x,1/2-y,-z
1/2-x,y,-z
-x,-y,-z
1/2+x,1/2+y,-z
-x,1/2+y,z
1/2+x,-y,z
loop_
_atom_site_type_symbol
_atom_site_label
_atom_site_fract_x
_atom_site_fract_y
_atom_site_fract_z
Si Si1 0.029742 0.076985 0.233359
Si Si2 0.514762 0.262213 0.776134
Si Si3 0.204816 0.669348 0.703233
Si Si4 0.772444 0.517182 0.283371
Si Si5 0.084022 0.420791 0.191472
O O1 0.131904 0.060425 0.280905
O O2 0.996983 0.168003 0.299036
O O3 0.036832 0.080752 0.009252
O O4 0.964704 0.000273 0.288918
O O5 0.601920 0.307740 0.700087
O O6 0.435599 0.327639 0.733699
O O7 0.523715 0.250000 0.000000
O O8 0.250000 0.750000 0.796219
O O9 0.250000 0.664322 0.500000
O O10 0.217596 0.578042 0.789832
O O11 0.750000 0.513467 0.500000
O O12 0.688647 0.560754 0.184911
#
# Coordination Sequence:
#
# PCOD9396925 Si02
#       5
#     8   8   8   8   8
#     4  10  21  40  64  91 124 166 209 264 311 366
#     4  10  21  40  64  92 123 167 213 259 312 371
#     4  10  21  40  59  91 128 157 208 256 317 372
#     4  11  23  40  62  93 127 168 207 255 318 382
#     4  10  21  40  63  90 127 162 213 258 314 369
#
# _framework density 23.160605
#
# number of rings (size 3 to 8) (size 9 to 14) (size 15 to 20)
#    0.000    1.800    2.000    1.800    0.000    2.000 
#   10.800    4.000    0.000    0.000    0.000    0.000 
#    0.000    0.000    0.000    0.000    0.000    0.000 
#
# Total GULP energy -223517.449589 kJ/mol
# GULP energy per Si atom -5587.936240 kJ/mol
# Density = 2.310789 g / cm^3
# Si number density = 23.160605 Si / 1000 Ang^3
#
#
#
# Elastic Constant Matrix: (Units=GPa)
#
#
# Indices 1 2 3 4 5 6 
#
# 1 148.0615 73.4902 0.4079 0.0000 0.0000 0.0000
# 2 73.4902 162.6730 22.2327 0.0000 0.0000 0.0000
# 3 0.4079 22.2327 57.4416 0.0000 0.0000 0.0000
# 4 0.0000 0.0000 0.0000 -5.4948 0.0000 0.0000
# 5 0.0000 0.0000 0.0000 0.0000 23.9528 0.0000
# 6 0.0000 0.0000 0.0000 0.0000 0.0000 49.8375
#
#
#
# Elastic Compliance Matrix: (Units=1/GPa)
#
#
# Indices 1 2 3 4 5 6 
#
# 1 0.008837 -0.004206 0.001565 0.000000 0.000000 0.000000
# 2 -0.004206 0.008493 -0.003257 0.000000 0.000000 0.000000
# 3 0.001565 -0.003257 0.018659 0.000000 0.000000 0.000000
# 4 0.000000 0.000000 0.000000 -0.181991 0.000000 0.000000
# 5 0.000000 0.000000 0.000000 0.000000 0.041749 0.000000
# 6 0.000000 0.000000 0.000000 0.000000 0.000000 0.020065
#
#
# Mechanical properties :
#
#
# Convention : Reuss Voigt Hill
#
# Bulk Modulus (GPa) = 41.33563 62.27084 51.80324
# Shear Modulus (GPa) = -77.72715 31.79547 -22.96584
#
# Velocity S-wave (km/s) = -5.79939 3.70919 -3.15237
# Velocity P-wave (km/s) = 5.19209 6.72971 3.02748
#
# Compressibility (1/GPa) = 0.02419220
#
# Stress axis : x y z
#
# Youngs Moduli (GPa) = 113.15436 117.74693 53.59460
#
# Poissons Ratio (x) = 0.49529 -0.08389
# Poissons Ratio (y) = 0.47597 0.17457
# Poissons Ratio (z) = -0.17712 0.38353
#
# Static dielectric constant tensor:
#      x y z
#    x 1.821000 0.000000 0.000000 
#    y 0.000000 1.891540 0.000000 
#    z 0.000000 0.000000 1.968810 
# 
# From -- ./inp_files/12541.got.cif
#   From: 2010.05.17/outbox.cif.g08.bks.cpg/sg50_7_cif.got.tgz:12541.got - 2010.06.03 11:33:33.
