data_PCOD9396288
_publ_section_title
;
Structure prediction by ZEFSAII (Michael W. Deem and Ramdas Pophale) SiO2 
 PCOD9396288
Probable space group: P B A N
;
_chemical_formula_sum "Si O2"
_cell_formula_units_Z 36
_cell_length_a 14.462066
_cell_length_b 9.143355
_cell_length_c 14.098343
_cell_angle_alpha 90.000000
_cell_angle_beta 90.000000
_cell_angle_gamma 90.000000
_cell_volume 1864.249321
_symmetry_space_group_name_H-M "P B A N"
_symmetry_group_IT_number 50
_space_group.IT_coordinate_system_code '2'
_symmetry_cell_setting 'orthorhombic'
loop_
_space_group_symop_operation_xyz
x,y,z
1/2-x,1/2-y,z
x,1/2-y,-z
1/2-x,y,-z
-x,-y,-z
1/2+x,1/2+y,-z
-x,1/2+y,z
1/2+x,-y,z
loop_
_atom_site_type_symbol
_atom_site_label
_atom_site_fract_x
_atom_site_fract_y
_atom_site_fract_z
Si Si1 0.932635 0.974576 0.800640
Si Si2 0.499855 0.750000 0.500000
Si Si3 0.226748 0.419653 0.226575
Si Si4 0.067599 0.172382 0.899317
Si Si5 0.072929 0.500308 0.370399
O O1 0.823554 0.998910 0.791340
O O2 0.945385 0.804038 0.824539
O O3 0.981062 0.066147 0.884342
O O4 0.988471 0.007206 0.704904
O O5 0.439418 0.646804 0.568504
O O6 0.561701 0.861012 0.561341
O O7 0.250000 0.250000 0.250891
O O8 0.160730 0.410231 0.133865
O O9 0.165827 0.490118 0.309278
O O10 0.076474 0.250000 0.000000
#
# Coordination Sequence:
#
# PCOD9396288 Si02
#       5
#     8   4   8   8   8
#     4  10  20  37  59  81 113 152 183 228 287 335
#     4  10  20  36  60  82 110 148 188 240 286 334
#     4   9  19  35  58  81 110 151 189 227 280 342
#     4  10  20  36  59  86 113 147 190 230 272 331
#     4  10  20  38  57  81 113 147 189 234 286 341
#
# _framework density 19.310722999999999
#
# number of rings (size 3 to 8) (size 9 to 14) (size 15 to 20)
#    0.000    2.222    0.000    4.667    0.000    4.000 
#    0.000   21.667    0.000    5.333    0.000    0.000 
#    0.000    0.000    0.000    0.000    0.000    0.000 
#
# Total GULP energy -200936.691617 kJ/mol
# GULP energy per Si atom -5581.574767 kJ/mol
# Density = 1.926677 g / cm^3
# Si number density = 19.310723 Si / 1000 Ang^3
#
#
#
# Elastic Constant Matrix: (Units=GPa)
#
#
# Indices 1 2 3 4 5 6 
#
# 1 164.3171 41.0087 48.8540 0.0000 0.0000 0.0000
# 2 41.0087 60.2165 25.3245 0.0000 0.0000 0.0000
# 3 48.8540 25.3245 90.2450 0.0000 0.0000 0.0000
# 4 0.0000 0.0000 0.0000 39.4070 0.0000 0.0000
# 5 0.0000 0.0000 0.0000 0.0000 5.0776 0.0000
# 6 0.0000 0.0000 0.0000 0.0000 0.0000 25.6386
#
#
#
# Elastic Compliance Matrix: (Units=1/GPa)
#
#
# Indices 1 2 3 4 5 6 
#
# 1 0.008075 -0.004151 -0.003207 0.000000 0.000000 0.000000
# 2 -0.004151 0.020962 -0.003635 0.000000 0.000000 0.000000
# 3 -0.003207 -0.003635 0.013837 0.000000 0.000000 0.000000
# 4 0.000000 0.000000 0.000000 0.025376 0.000000 0.000000
# 5 0.000000 0.000000 0.000000 0.000000 0.196944 0.000000
# 6 0.000000 0.000000 0.000000 0.000000 0.000000 0.039004
#
#
# Mechanical properties :
#
#
# Convention : Reuss Voigt Hill
#
# Bulk Modulus (GPa) = 47.87249 60.57257 54.22253
# Shear Modulus (GPa) = 15.00836 27.33071 21.16954
#
# Velocity S-wave (km/s) = 2.79086 3.76615 3.31457
# Velocity P-wave (km/s) = 5.93546 7.09558 6.54129
#
# Compressibility (1/GPa) = 0.02088882
#
# Stress axis : x y z
#
# Youngs Moduli (GPa) = 123.83777 47.70445 72.26976
#
# Poissons Ratio (x) = 0.19801 0.23174
# Poissons Ratio (y) = 0.51402 0.26274
# Poissons Ratio (z) = 0.39711 0.17343
#
# Static dielectric constant tensor:
#      x y z
#    x 1.665550 0.000000 0.000000 
#    y 0.000000 1.681510 0.000000 
#    z 0.000000 0.000000 1.698340 
# 
# From -- ./inp_files/24578.got.cif
#   From: 2010.05.17/outbox.cif.g08.bks.cpg/sg50_13_cif.got.tgz:24578.got - 2010.06.03 11:33:33.
