data_PCOD9396537
_publ_section_title
;
Structure prediction by ZEFSAII (Michael W. Deem and Ramdas Pophale) SiO2 
 PCOD9396537
Probable space group: P B A N
;
_chemical_formula_sum "Si O2"
_cell_formula_units_Z 54
_cell_length_a 14.037839
_cell_length_b 12.735890
_cell_length_c 15.242090
_cell_angle_alpha 90.000000
_cell_angle_beta 90.000000
_cell_angle_gamma 90.000000
_cell_volume 2725.047509
_symmetry_space_group_name_H-M "P B A N"
_symmetry_group_IT_number 50
_space_group.IT_coordinate_system_code '2'
_symmetry_cell_setting 'orthorhombic'
loop_
_space_group_symop_operation_xyz
x,y,z
1/2-x,1/2-y,z
x,1/2-y,-z
1/2-x,y,-z
-x,-y,-z
1/2+x,1/2+y,-z
-x,1/2+y,z
1/2+x,-y,z
loop_
_atom_site_type_symbol
_atom_site_label
_atom_site_fract_x
_atom_site_fract_y
_atom_site_fract_z
Si Si1 0.148487 0.789379 0.100430
Si Si2 0.242371 0.427025 0.642767
Si Si3 0.032214 0.844064 0.775073
Si Si4 0.553051 0.666186 0.329879
Si Si5 0.250000 0.250000 0.500000
Si Si6 0.595864 0.027696 0.221697
Si Si7 0.819042 0.148438 0.377810
Si Si8 0.971473 0.250000 0.500000
O O1 0.250000 0.750000 0.135391
O O2 0.063670 0.728254 0.146226
O O3 0.137581 0.906600 0.139996
O O4 0.146659 0.750000 0.000000
O O5 0.343797 0.384767 0.680073
O O6 0.209863 0.337583 0.572010
O O7 0.172494 0.462436 0.721546
O O8 0.265437 0.541071 0.600789
O O9 0.124022 0.864119 0.713677
O O10 0.957710 0.778345 0.716622
O O11 0.984556 0.948143 0.809807
O O12 0.463277 0.602217 0.289456
O O13 0.533946 0.684063 0.432415
O O14 0.750000 0.250000 0.374163
O O15 0.901652 0.173734 0.446831
#
# Coordination Sequence:
#
# PCOD9396537 Si02
#       8
#     8   8   8   8   2   8   8   4
#     4  10  22  41  69 103 132 159 211 280 335 407
#     4  12  24  42  58  87 135 178 233 276 347 396
#     4  10  20  40  61  93 129 161 222 258 335 417
#     4  10  22  39  59  90 124 173 215 288 326 391
#     4  12  30  36  54  94 132 188 230 286 324 390
#     4  11  23  39  68  93 122 182 214 266 345 405
#     4  11  22  37  65  90 121 176 229 299 336 396
#     4  10  22  36  58  92 124 160 239 283 351 373
#
# _framework density 19.81617
#
# number of rings (size 3 to 8) (size 9 to 14) (size 15 to 20)
#    0.000    1.333    1.481    5.556    4.148    2.370 
#    0.000    0.000    0.000    0.000    0.000    0.000 
#    0.000    0.000    0.000    0.000    0.000    0.000 
#
# Total GULP energy -301050.951496 kJ/mol
# GULP energy per Si atom -5575.017620 kJ/mol
# Density = 1.977107 g / cm^3
# Si number density = 19.816170 Si / 1000 Ang^3
#
#
#
# Elastic Constant Matrix: (Units=GPa)
#
#
# Indices 1 2 3 4 5 6 
#
# 1 86.4928 43.9020 39.0398 0.0000 0.0000 0.0000
# 2 43.9020 131.4967 35.1586 0.0000 0.0000 0.0000
# 3 39.0398 35.1586 86.4428 0.0000 0.0000 0.0000
# 4 0.0000 0.0000 0.0000 22.6976 0.0000 0.0000
# 5 0.0000 0.0000 0.0000 0.0000 17.1876 0.0000
# 6 0.0000 0.0000 0.0000 0.0000 0.0000 44.3768
#
#
#
# Elastic Compliance Matrix: (Units=1/GPa)
#
#
# Indices 1 2 3 4 5 6 
#
# 1 0.016087 -0.003847 -0.005701 0.000000 0.000000 0.000000
# 2 -0.003847 0.009452 -0.002107 0.000000 0.000000 0.000000
# 3 -0.005701 -0.002107 0.015000 0.000000 0.000000 0.000000
# 4 0.000000 0.000000 0.000000 0.044058 0.000000 0.000000
# 5 0.000000 0.000000 0.000000 0.000000 0.058181 0.000000
# 6 0.000000 0.000000 0.000000 0.000000 0.000000 0.022534
#
#
# Mechanical properties :
#
#
# Convention : Reuss Voigt Hill
#
# Bulk Modulus (GPa) = 58.03797 60.07036 59.05416
# Shear Modulus (GPa) = 25.72463 29.27454 27.49958
#
# Velocity S-wave (km/s) = 3.60691 3.84774 3.72927
# Velocity P-wave (km/s) = 6.83361 7.07953 6.95766
#
# Compressibility (1/GPa) = 0.01723010
#
# Stress axis : x y z
#
# Youngs Moduli (GPa) = 62.16064 105.79247 66.66624
#
# Poissons Ratio (x) = 0.40695 0.38006
# Poissons Ratio (y) = 0.23911 0.14049
# Poissons Ratio (z) = 0.35437 0.22294
#
# Static dielectric constant tensor:
#      x y z
#    x 1.765800 0.000000 0.000000 
#    y 0.000000 1.757510 0.000000 
#    z 0.000000 0.000000 1.732040 
# 
# From -- ./inp_files/26544.got.cif
#   From: 2010.05.17/outbox.cif.g08.bks.cpg/sg50_14_cif.got.tgz:26544.got - 2010.06.03 11:33:33.
