data_PCOD9396567
_publ_section_title
;
Structure prediction by ZEFSAII (Michael W. Deem and Ramdas Pophale) SiO2 
 PCOD9396567
Probable space group: P B A N
;
_chemical_formula_sum "Si O2"
_cell_formula_units_Z 38
_cell_length_a 17.328444
_cell_length_b 8.678379
_cell_length_c 12.544427
_cell_angle_alpha 90.000000
_cell_angle_beta 90.000000
_cell_angle_gamma 90.000000
_cell_volume 1886.466113
_symmetry_space_group_name_H-M "P B A N"
_symmetry_group_IT_number 50
_space_group.IT_coordinate_system_code '2'
_symmetry_cell_setting 'orthorhombic'
loop_
_space_group_symop_operation_xyz
x,y,z
1/2-x,1/2-y,z
x,1/2-y,-z
1/2-x,y,-z
-x,-y,-z
1/2+x,1/2+y,-z
-x,1/2+y,z
1/2+x,-y,z
loop_
_atom_site_type_symbol
_atom_site_label
_atom_site_fract_x
_atom_site_fract_y
_atom_site_fract_z
Si Si1 0.250000 0.250000 0.500000
Si Si2 0.250000 0.250000 0.151931
Si Si3 0.890376 0.199815 0.878904
Si Si4 0.877994 0.750000 0.000000
Si Si5 0.166765 0.450483 0.325464
Si Si6 0.250000 0.750000 0.729606
Si Si7 0.462283 0.471987 0.832219
O O1 0.193993 0.352690 0.426189
O O2 0.183164 0.173536 0.080930
O O3 0.211822 0.377846 0.225014
O O4 0.814942 0.182261 0.807979
O O5 0.940233 0.350289 0.844662
O O6 0.948013 0.060214 0.851114
O O7 0.870924 0.250000 0.000000
O O8 0.924874 0.629738 0.928446
O O9 0.202070 0.621844 0.335681
O O10 0.078602 0.434583 0.282080
#
# Coordination Sequence:
#
# PCOD9396567 Si02
#       7
#     2   4   8   4   8   4   8
#     4  10  20  40  68  86 108 146 204 238 316 360
#     4   8  16  28  50  72 110 146 188 226 276 332
#     4  11  22  35  54  85 123 168 196 229 273 349
#     4   9  16  28  46  73 110 152 194 225 266 334
#     4   9  20  37  57  84 107 149 188 251 292 351
#     4  10  23  37  56  86 124 150 192 242 298 336
#     4  10  21  33  52  80 117 155 200 232 286 324
#
# _framework density 20.143483
#
# number of rings (size 3 to 8) (size 9 to 14) (size 15 to 20)
#    0.000    2.316    1.053    0.947    2.947    3.789 
#    0.000    0.000    0.000   11.368    0.000    0.000 
#    0.000    0.000    0.000    0.000    0.000    0.000 
#
# Total GULP energy -211731.249513 kJ/mol
# GULP energy per Si atom -5571.874987 kJ/mol
# Density = 2.009764 g / cm^3
# Si number density = 20.143483 Si / 1000 Ang^3
#
#
#
# Elastic Constant Matrix: (Units=GPa)
#
#
# Indices 1 2 3 4 5 6 
#
# 1 96.1475 11.7620 27.2663 0.0000 0.0000 0.0000
# 2 11.7620 43.3983 18.3133 0.0000 0.0000 0.0000
# 3 27.2663 18.3133 93.3546 0.0000 0.0000 0.0000
# 4 0.0000 0.0000 0.0000 5.4132 0.0000 0.0000
# 5 0.0000 0.0000 0.0000 0.0000 14.7832 0.0000
# 6 0.0000 0.0000 0.0000 0.0000 0.0000 23.1508
#
#
#
# Elastic Compliance Matrix: (Units=1/GPa)
#
#
# Indices 1 2 3 4 5 6 
#
# 1 0.011474 -0.001849 -0.002989 0.000000 0.000000 0.000000
# 2 -0.001849 0.025420 -0.004447 0.000000 0.000000 0.000000
# 3 -0.002989 -0.004447 0.012457 0.000000 0.000000 0.000000
# 4 0.000000 0.000000 0.000000 0.184735 0.000000 0.000000
# 5 0.000000 0.000000 0.000000 0.000000 0.067644 0.000000
# 6 0.000000 0.000000 0.000000 0.000000 0.000000 0.043195
#
#
# Mechanical properties :
#
#
# Convention : Reuss Voigt Hill
#
# Bulk Modulus (GPa) = 32.48519 38.62041 35.55280
# Shear Modulus (GPa) = 13.37774 20.37333 16.87553
#
# Velocity S-wave (km/s) = 2.57985 3.18372 2.89756
# Velocity P-wave (km/s) = 5.00361 5.72093 5.37425
#
# Compressibility (1/GPa) = 0.03078326
#
# Stress axis : x y z
#
# Youngs Moduli (GPa) = 87.15046 39.33933 80.27571
#
# Poissons Ratio (x) = 0.07273 0.23992
# Poissons Ratio (y) = 0.16111 0.35696
# Poissons Ratio (z) = 0.26047 0.17493
#
# Static dielectric constant tensor:
#      x y z
#    x 1.774810 0.000000 0.000000 
#    y 0.000000 1.829370 0.000000 
#    z 0.000000 0.000000 1.710550 
# 
# From -- ./inp_files/18813.got.cif
#   From: 2010.05.17/outbox.cif.g08.bks.cpg/sg50_10_cif.got.tgz:18813.got - 2010.06.03 11:33:33.
