data_PCOD9396702
_publ_section_title
;
Structure prediction by ZEFSAII (Michael W. Deem and Ramdas Pophale) SiO2 
 PCOD9396702
Probable space group: P B A N
;
_chemical_formula_sum "Si O2"
_cell_formula_units_Z 64
_cell_length_a 18.200358
_cell_length_b 12.987031
_cell_length_c 12.028627
_cell_angle_alpha 90.000000
_cell_angle_beta 90.000000
_cell_angle_gamma 90.000000
_cell_volume 2843.189887
_symmetry_space_group_name_H-M "P B A N"
_symmetry_group_IT_number 50
_space_group.IT_coordinate_system_code '2'
_symmetry_cell_setting 'orthorhombic'
loop_
_space_group_symop_operation_xyz
x,y,z
1/2-x,1/2-y,z
x,1/2-y,-z
1/2-x,y,-z
-x,-y,-z
1/2+x,1/2+y,-z
-x,1/2+y,z
1/2+x,-y,z
loop_
_atom_site_type_symbol
_atom_site_label
_atom_site_fract_x
_atom_site_fract_y
_atom_site_fract_z
Si Si1 0.328897 0.731073 0.269122
Si Si2 0.824190 0.681355 0.241139
Si Si3 0.939400 0.420834 0.386140
Si Si4 0.606064 0.434890 0.175925
Si Si5 0.174599 0.445050 0.529399
Si Si6 0.128467 0.861121 0.046766
Si Si7 0.558584 0.958425 0.165577
Si Si8 0.401754 0.134077 0.334013
O O1 0.250000 0.750000 0.319934
O O2 0.382143 0.661234 0.340312
O O3 0.367085 0.839661 0.248134
O O4 0.319141 0.671253 0.149812
O O5 0.750000 0.750000 0.217327
O O6 0.814545 0.610193 0.351565
O O7 0.865790 0.606308 0.152468
O O8 0.888718 0.762456 0.266737
O O9 0.895203 0.478778 0.481744
O O10 0.947815 0.511294 0.295006
O O11 0.018748 0.370839 0.392018
O O12 0.521380 0.414841 0.138580
O O13 0.609632 0.539239 0.247697
O O14 0.652572 0.426656 0.061194
O O15 0.250000 0.501302 0.500000
O O16 0.158379 0.365029 0.431601
O O17 0.067835 0.932524 0.104328
O O18 0.104262 0.750000 0.000000
#
# Coordination Sequence:
#
# PCOD9396702 Si02
#       8
#     8   8   8   8   8   8   8   8
#     4  10  21  37  62  85 122 162 207 252 314 375
#     4  11  22  38  61  91 118 163 208 257 313 374
#     4   9  21  39  59  89 120 160 201 264 314 368
#     4  10  21  36  58  90 120 162 206 256 311 373
#     4  11  22  38  65  88 120 157 210 253 313 380
#     4   9  19  37  62  89 117 160 210 250 306 375
#     4   9  19  37  61  89 125 157 206 262 313 369
#     4  11  22  37  61  89 123 160 211 254 311 380
#
# _framework density 22.509927999999999
#
# number of rings (size 3 to 8) (size 9 to 14) (size 15 to 20)
#    0.000    2.000    1.250    1.875    1.750    4.250 
#    0.000    2.500    0.000    0.750    0.000    0.000 
#    0.000    0.000    0.000    0.000    0.000    0.000 
#
# Total GULP energy -356551.302639 kJ/mol
# GULP energy per Si atom -5571.114104 kJ/mol
# Density = 2.245869 g / cm^3
# Si number density = 22.509928 Si / 1000 Ang^3
#
#
#
# Elastic Constant Matrix: (Units=GPa)
#
#
# Indices 1 2 3 4 5 6 
#
# 1 118.3136 24.7269 -3.4845 0.0000 0.0000 0.0000
# 2 24.7269 47.8025 1.8624 0.0000 0.0000 0.0000
# 3 -3.4845 1.8624 33.5813 0.0000 0.0000 0.0000
# 4 0.0000 0.0000 0.0000 20.8327 0.0000 0.0000
# 5 0.0000 0.0000 0.0000 0.0000 3.0516 0.0000
# 6 0.0000 0.0000 0.0000 0.0000 0.0000 39.6853
#
#
#
# Elastic Compliance Matrix: (Units=1/GPa)
#
#
# Indices 1 2 3 4 5 6 
#
# 1 0.009530 -0.004979 0.001265 0.000000 0.000000 0.000000
# 2 -0.004979 0.023566 -0.001824 0.000000 0.000000 0.000000
# 3 0.001265 -0.001824 0.030011 0.000000 0.000000 0.000000
# 4 0.000000 0.000000 0.000000 0.048001 0.000000 0.000000
# 5 0.000000 0.000000 0.000000 0.000000 0.327700 0.000000
# 6 0.000000 0.000000 0.000000 0.000000 0.000000 0.025198
#
#
# Mechanical properties :
#
#
# Convention : Reuss Voigt Hill
#
# Bulk Modulus (GPa) = 19.21902 27.32299 23.27100
# Shear Modulus (GPa) = 10.15383 24.48677 17.32030
#
# Velocity S-wave (km/s) = 2.12617 3.30179 2.77691
# Velocity P-wave (km/s) = 3.81891 5.16723 4.54337
#
# Compressibility (1/GPa) = 0.05203179
#
# Stress axis : x y z
#
# Youngs Moduli (GPa) = 104.93274 42.43424 33.32130
#
# Poissons Ratio (x) = 0.21127 -0.04215
# Poissons Ratio (y) = 0.52244 0.06076
# Poissons Ratio (z) = -0.13274 0.07738
#
# Static dielectric constant tensor:
#      x y z
#    x 1.893050 0.000000 0.000000 
#    y 0.000000 1.827840 0.000000 
#    z 0.000000 0.000000 1.897930 
# 
# From -- ./inp_files/27007.got.cif
#   From: 2010.05.17/outbox.cif.g08.bks.cpg/sg50_14_cif.got.tgz:27007.got - 2010.06.03 11:33:33.
