data_PCOD9396444
_publ_section_title
;
Structure prediction by ZEFSAII (Michael W. Deem and Ramdas Pophale) SiO2 
 PCOD9396444
Probable space group: P B A N
;
_chemical_formula_sum "Si O2"
_cell_formula_units_Z 64
_cell_length_a 14.828387
_cell_length_b 22.310158
_cell_length_c 8.430474
_cell_angle_alpha 90.000000
_cell_angle_beta 90.000000
_cell_angle_gamma 90.000000
_cell_volume 2789.000238
_symmetry_space_group_name_H-M "P B A N"
_symmetry_group_IT_number 50
_space_group.IT_coordinate_system_code '2'
_symmetry_cell_setting 'orthorhombic'
loop_
_space_group_symop_operation_xyz
x,y,z
1/2-x,1/2-y,z
x,1/2-y,-z
1/2-x,y,-z
-x,-y,-z
1/2+x,1/2+y,-z
-x,1/2+y,z
1/2+x,-y,z
loop_
_atom_site_type_symbol
_atom_site_label
_atom_site_fract_x
_atom_site_fract_y
_atom_site_fract_z
Si Si1 0.608649 0.429232 0.917727
Si Si2 0.099247 0.667747 0.162285
Si Si3 0.086591 0.372664 0.723832
Si Si4 0.594497 0.553122 0.037224
Si Si5 0.629317 0.215902 0.330918
Si Si6 0.781261 0.842478 0.166165
Si Si7 0.747848 0.399945 0.327854
Si Si8 0.933630 0.687177 0.594297
O O1 0.502282 0.436201 0.879055
O O2 0.687890 0.435651 0.791303
O O3 0.618462 0.363471 0.995351
O O4 0.620796 0.483912 0.041016
O O5 0.136537 0.733230 0.197429
O O6 0.147514 0.619514 0.278607
O O7 0.992904 0.668387 0.200886
O O8 0.188832 0.351244 0.740846
O O9 0.069967 0.367049 0.534830
O O10 0.082362 0.428457 0.849245
O O11 0.669055 0.595920 0.112486
O O12 0.633167 0.250000 0.500000
O O13 0.702207 0.164415 0.334206
O O14 0.530808 0.186337 0.323625
O O15 0.854538 0.812153 0.277569
O O16 0.750000 0.814177 0.000000
O O17 0.750000 0.428647 0.500000
O O18 0.928088 0.750000 0.500000
#
# Coordination Sequence:
#
# PCOD9396444 Si02
#       8
#     8   8   8   8   8   8   8   8
#     4  10  23  43  67  95 127 170 226 282 336 404
#     4  11  22  39  62  92 127 172 218 263 330 407
#     4  10  20  38  61  92 125 170 215 264 335 396
#     4   9  21  45  69  89 130 172 214 286 346 397
#     4  11  21  40  65  89 129 176 205 275 342 398
#     4  10  22  39  63  91 126 170 216 268 334 405
#     4  12  23  37  65  96 132 169 219 272 331 408
#     4  11  21  40  66  93 127 168 217 278 330 407
#
# _framework density 22.947291
#
# number of rings (size 3 to 8) (size 9 to 14) (size 15 to 20)
#    0.000    1.500    3.750    1.875    0.000    4.500 
#    0.000    9.375    0.000    5.250    0.000    0.000 
#    0.000    0.000    0.000    0.000    0.000    0.000 
#
# Total GULP energy -357330.759789 kJ/mol
# GULP energy per Si atom -5583.293122 kJ/mol
# Density = 2.289506 g / cm^3
# Si number density = 22.947291 Si / 1000 Ang^3
#
#
#
# Elastic Constant Matrix: (Units=GPa)
#
#
# Indices 1 2 3 4 5 6 
#
# 1 129.4793 17.5856 23.1212 0.0000 0.0000 0.0000
# 2 17.5856 80.7764 17.3831 0.0000 0.0000 0.0000
# 3 23.1212 17.3831 84.8509 0.0000 0.0000 0.0000
# 4 0.0000 0.0000 0.0000 29.9626 0.0000 0.0000
# 5 0.0000 0.0000 0.0000 0.0000 39.9329 0.0000
# 6 0.0000 0.0000 0.0000 0.0000 0.0000 262.7067
#
#
#
# Elastic Compliance Matrix: (Units=1/GPa)
#
#
# Indices 1 2 3 4 5 6 
#
# 1 0.008262 -0.001375 -0.001970 0.000000 0.000000 0.000000
# 2 -0.001375 0.013180 -0.002325 0.000000 0.000000 0.000000
# 3 -0.001970 -0.002325 0.012798 0.000000 0.000000 0.000000
# 4 0.000000 0.000000 0.000000 0.033375 0.000000 0.000000
# 5 0.000000 0.000000 0.000000 0.000000 0.025042 0.000000
# 6 0.000000 0.000000 0.000000 0.000000 0.000000 0.003807
#
#
# Mechanical properties :
#
#
# Convention : Reuss Voigt Hill
#
# Bulk Modulus (GPa) = 43.66786 45.69848 44.68317
# Shear Modulus (GPa) = 43.31397 82.32155 62.81776
#
# Velocity S-wave (km/s) = 4.34930 5.99600 5.23777
# Velocity P-wave (km/s) = 6.65528 8.23977 7.48955
#
# Compressibility (1/GPa) = 0.02290014
#
# Stress axis : x y z
#
# Youngs Moduli (GPa) = 121.04092 75.87490 78.13429
#
# Poissons Ratio (x) = 0.10431 0.15389
# Poissons Ratio (y) = 0.16640 0.18170
# Poissons Ratio (z) = 0.23840 0.17644
#
# Static dielectric constant tensor:
#      x y z
#    x 1.838320 0.000000 0.000000 
#    y 0.000000 1.875600 0.000000 
#    z 0.000000 0.000000 2.408380 
# 
# From -- ./inp_files/13475.got.cif
#   From: 2010.05.17/outbox.cif.g08.bks.cpg/sg50_7_cif.got.tgz:13475.got - 2010.06.03 11:33:33.
