data_PCOD9396610
_publ_section_title
;
Structure prediction by ZEFSAII (Michael W. Deem and Ramdas Pophale) SiO2 
 PCOD9396610
Probable space group: P B A N
;
_chemical_formula_sum "Si O2"
_cell_formula_units_Z 38
_cell_length_a 11.413313
_cell_length_b 28.196175
_cell_length_c 5.103213
_cell_angle_alpha 90.000000
_cell_angle_beta 90.000000
_cell_angle_gamma 90.000000
_cell_volume 1642.274012
_symmetry_space_group_name_H-M "P B A N"
_symmetry_group_IT_number 50
_space_group.IT_coordinate_system_code '2'
_symmetry_cell_setting 'orthorhombic'
loop_
_space_group_symop_operation_xyz
x,y,z
1/2-x,1/2-y,z
x,1/2-y,-z
1/2-x,y,-z
-x,-y,-z
1/2+x,1/2+y,-z
-x,1/2+y,z
1/2+x,-y,z
loop_
_atom_site_type_symbol
_atom_site_label
_atom_site_fract_x
_atom_site_fract_y
_atom_site_fract_z
Si Si1 0.250000 0.345225 0.000000
Si Si2 0.909396 0.250000 0.000000
Si Si3 0.445519 0.390620 0.703907
Si Si4 0.250000 0.750000 0.500000
Si Si5 0.570220 0.019697 0.246993
Si Si6 0.750000 0.962035 0.500000
Si Si7 0.582293 0.700000 0.645121
O O1 0.365528 0.376001 0.950454
O O2 0.209102 0.312720 0.763248
O O3 0.839276 0.268258 0.264406
O O4 0.991583 0.208858 0.115573
O O5 0.557936 0.423216 0.757099
O O6 0.354186 0.426195 0.565050
O O7 0.460666 0.343671 0.532406
O O8 0.500000 0.000000 0.500000
O O9 0.698485 0.997213 0.279589
O O10 0.500000 0.000000 0.000000
O O11 0.585864 0.750000 0.500000
#
# Coordination Sequence:
#
# PCOD9396610 Si02
#       7
#     4   4   8   2   8   4   8
#     4  12  24  39  70  98 164 190 250 308 383 440
#     4  11  24  47  76 104 142 193 258 309 372 442
#     4  11  23  41  67 105 146 196 247 306 382 459
#     4  10  24  50  78  96 132 202 252 312 376 420
#     4  10  23  41  70 100 137 181 245 303 377 458
#     4  10  20  46  68 100 143 188 236 311 386 444
#     4  12  26  44  68 114 151 203 254 309 377 460
#
# _framework density 23.138645
#
# number of rings (size 3 to 8) (size 9 to 14) (size 15 to 20)
#    0.000    1.053    3.158    2.526    2.947    8.842 
#    0.000    1.053    0.000    0.000    0.000    0.000 
#    0.000    0.000    0.000    0.000    0.000    0.000 
#
# Total GULP energy -211791.978983 kJ/mol
# GULP energy per Si atom -5573.473131 kJ/mol
# Density = 2.308598 g / cm^3
# Si number density = 23.138645 Si / 1000 Ang^3
#
#
#
# Elastic Constant Matrix: (Units=GPa)
#
#
# Indices 1 2 3 4 5 6 
#
# 1 50.9339 46.1370 28.2154 0.0000 0.0000 0.0000
# 2 46.1370 179.8835 57.0134 0.0000 0.0000 0.0000
# 3 28.2154 57.0134 165.1742 0.0000 0.0000 0.0000
# 4 0.0000 0.0000 0.0000 -6.2887 0.0000 0.0000
# 5 0.0000 0.0000 0.0000 0.0000 52.7860 0.0000
# 6 0.0000 0.0000 0.0000 0.0000 0.0000 -7.4516
#
#
#
# Elastic Compliance Matrix: (Units=1/GPa)
#
#
# Indices 1 2 3 4 5 6 
#
# 1 0.026424 -0.006003 -0.002442 0.000000 0.000000 0.000000
# 2 -0.006003 0.007606 -0.001600 0.000000 0.000000 0.000000
# 3 -0.002442 -0.001600 0.007024 0.000000 0.000000 0.000000
# 4 0.000000 0.000000 0.000000 -0.159015 0.000000 0.000000
# 5 0.000000 0.000000 0.000000 0.000000 0.018944 0.000000
# 6 0.000000 0.000000 0.000000 0.000000 0.000000 -0.134200
#
#
# Mechanical properties :
#
#
# Convention : Reuss Voigt Hill
#
# Bulk Modulus (GPa) = 47.70154 73.19146 60.44650
# Shear Modulus (GPa) = -24.25536 25.45087 0.59776
#
# Velocity S-wave (km/s) = -3.24120 3.32012 0.50882
# Velocity P-wave (km/s) = 2.57936 6.81160 5.15029
#
# Compressibility (1/GPa) = 0.02096368
#
# Stress axis : x y z
#
# Youngs Moduli (GPa) = 37.84459 131.47521 142.37892
#
# Poissons Ratio (x) = 0.78930 0.34763
# Poissons Ratio (y) = 0.22720 0.22779
# Poissons Ratio (z) = 0.09240 0.21034
#
# Static dielectric constant tensor:
#      x y z
#    x 1.969040 0.000000 0.000000 
#    y 0.000000 1.910140 0.000000 
#    z 0.000000 0.000000 2.015270 
# 
# From -- ./inp_files/2476.got.cif
#   From: 2010.05.17/outbox.cif.g08.bks.cpg/sg50_2_cif.got.tgz:2476.got - 2010.06.03 11:33:33.
