data_PCOD9396377
_publ_section_title
;
Structure prediction by ZEFSAII (Michael W. Deem and Ramdas Pophale) SiO2 
 PCOD9396377
Probable space group: P B A N
;
_chemical_formula_sum "Si O2"
_cell_formula_units_Z 56
_cell_length_a 21.709036
_cell_length_b 8.094980
_cell_length_c 17.447044
_cell_angle_alpha 90.000000
_cell_angle_beta 90.000000
_cell_angle_gamma 90.000000
_cell_volume 3066.042533
_symmetry_space_group_name_H-M "P B A N"
_symmetry_group_IT_number 50
_space_group.IT_coordinate_system_code '2'
_symmetry_cell_setting 'orthorhombic'
loop_
_space_group_symop_operation_xyz
x,y,z
1/2-x,1/2-y,z
x,1/2-y,-z
1/2-x,y,-z
-x,-y,-z
1/2+x,1/2+y,-z
-x,1/2+y,z
1/2+x,-y,z
loop_
_atom_site_type_symbol
_atom_site_label
_atom_site_fract_x
_atom_site_fract_y
_atom_site_fract_z
Si Si1 0.679349 0.234237 0.833930
Si Si2 0.821746 0.453308 0.584723
Si Si3 0.130875 0.074502 0.738242
Si Si4 0.627230 0.556576 0.748372
Si Si5 0.000429 0.049589 0.815394
Si Si6 0.324097 0.943720 0.589814
Si Si7 0.440665 0.814847 0.083336
O O1 0.750000 0.250000 0.856254
O O2 0.661311 0.406019 0.791752
O O3 0.632231 0.200266 0.903226
O O4 0.667220 0.077308 0.777961
O O5 0.858783 0.552004 0.648193
O O6 0.838816 0.495231 0.497272
O O7 0.748782 0.482088 0.598646
O O8 0.830801 0.255548 0.594128
O O9 0.150824 0.257852 0.764551
O O10 0.059043 0.059285 0.760374
O O11 0.556340 0.546010 0.776095
O O12 0.637268 0.522851 0.658196
O O13 0.029459 0.989035 0.896605
O O14 0.968456 0.217370 0.843400
O O15 0.456354 0.750000 0.000000
#
# Coordination Sequence:
#
# PCOD9396377 Si02
#       7
#     8   8   8   8   8   8   8
#     4  10  22  37  55  86 120 148 185 232 285 336
#     4   9  18  33  53  79 112 149 190 236 281 325
#     4  11  21  35  58  83 114 152 193 235 281 332
#     4  11  21  35  58  83 114 152 193 235 281 332
#     4  10  21  38  55  86 114 140 190 242 277 330
#     4   9  18  33  53  79 112 149 190 236 281 325
#     4  10  20  37  62  83 108 147 185 232 283 336
#
# _framework density 18.264586999999999
#
# number of rings (size 3 to 8) (size 9 to 14) (size 15 to 20)
#    0.000    2.000    2.857    2.143    0.000    3.143 
#    0.000    2.143    0.000    0.000    0.000    4.000 
#    0.000    0.000    0.000    0.000    0.000    0.000 
#
# Total GULP energy -311918.711667 kJ/mol
# GULP energy per Si atom -5569.976994 kJ/mol
# Density = 1.822302 g / cm^3
# Si number density = 18.264587 Si / 1000 Ang^3
#
#
#
# Elastic Constant Matrix: (Units=GPa)
#
#
# Indices 1 2 3 4 5 6 
#
# 1 91.3874 21.5988 30.0836 0.0000 0.0000 0.0000
# 2 21.5988 79.7037 16.8659 0.0000 0.0000 0.0000
# 3 30.0836 16.8659 85.0440 0.0000 0.0000 0.0000
# 4 0.0000 0.0000 0.0000 16.5302 0.0000 0.0000
# 5 0.0000 0.0000 0.0000 0.0000 8.4166 0.0000
# 6 0.0000 0.0000 0.0000 0.0000 0.0000 14.3698
#
#
#
# Elastic Compliance Matrix: (Units=1/GPa)
#
#
# Indices 1 2 3 4 5 6 
#
# 1 0.012896 -0.002640 -0.004038 0.000000 0.000000 0.000000
# 2 -0.002640 0.013637 -0.001770 0.000000 0.000000 0.000000
# 3 -0.004038 -0.001770 0.013538 0.000000 0.000000 0.000000
# 4 0.000000 0.000000 0.000000 0.060495 0.000000 0.000000
# 5 0.000000 0.000000 0.000000 0.000000 0.118813 0.000000
# 6 0.000000 0.000000 0.000000 0.000000 0.000000 0.069591
#
#
# Mechanical properties :
#
#
# Convention : Reuss Voigt Hill
#
# Bulk Modulus (GPa) = 43.15370 43.69242 43.42306
# Shear Modulus (GPa) = 15.94432 20.36909 18.15670
#
# Velocity S-wave (km/s) = 2.95780 3.34312 3.15635
# Velocity P-wave (km/s) = 5.94500 6.23504 6.09175
#
# Compressibility (1/GPa) = 0.02317298
#
# Stress axis : x y z
#
# Youngs Moduli (GPa) = 77.54512 73.33235 73.86501
#
# Poissons Ratio (x) = 0.19360 0.29828
# Poissons Ratio (y) = 0.20473 0.13078
# Poissons Ratio (z) = 0.31314 0.12983
#
# Static dielectric constant tensor:
#      x y z
#    x 1.627200 0.000000 0.000000 
#    y 0.000000 1.702430 0.000000 
#    z 0.000000 0.000000 1.612750 
# 
# From -- ./inp_files/29841.got.cif
#   From: 2010.05.17/outbox.cif.g08.bks.cpg/sg50_15_cif.got.tgz:29841.got - 2010.06.03 11:33:33.
