data_PCOD9396749
_publ_section_title
;
Structure prediction by ZEFSAII (Michael W. Deem and Ramdas Pophale) SiO2 
 PCOD9396749
Probable space group: P B A N
;
_chemical_formula_sum "Si O2"
_cell_formula_units_Z 26
_cell_length_a 10.266555
_cell_length_b 14.196297
_cell_length_c 9.174964
_cell_angle_alpha 90.000000
_cell_angle_beta 90.000000
_cell_angle_gamma 90.000000
_cell_volume 1337.224065
_symmetry_space_group_name_H-M "P B A N"
_symmetry_group_IT_number 50
_space_group.IT_coordinate_system_code '2'
_symmetry_cell_setting 'orthorhombic'
loop_
_space_group_symop_operation_xyz
x,y,z
1/2-x,1/2-y,z
x,1/2-y,-z
1/2-x,y,-z
-x,-y,-z
1/2+x,1/2+y,-z
-x,1/2+y,z
1/2+x,-y,z
loop_
_atom_site_type_symbol
_atom_site_label
_atom_site_fract_x
_atom_site_fract_y
_atom_site_fract_z
Si Si1 0.633742 0.599464 0.708571
Si Si2 0.750000 0.750000 0.500000
Si Si3 0.012755 0.856496 0.989128
Si Si4 0.897507 0.992024 0.216145
O O1 0.661218 0.683470 0.599439
O O2 0.605554 0.639655 0.871367
O O3 0.761350 0.534912 0.715511
O O4 0.504114 0.539036 0.678434
O O5 0.059818 0.750000 0.000000
O O6 0.962226 0.900931 0.139212
O O7 0.112129 0.930526 0.914310
#
# Coordination Sequence:
#
# PCOD9396749 Si02
#       4
#     8   2   8   8
#     4  10  21  37  56  86 111 154 201 236 289 350
#     4  12  24  36  66  78 110 176 212 228 268 384
#     4   9  18  34  61  87 116 150 188 243 298 365
#     4   9  20  35  60  87 118 144 192 253 300 339
#
# _framework density 19.443263000000002
#
# number of rings (size 3 to 8) (size 9 to 14) (size 15 to 20)
#    1.846    0.615    0.000    2.769    0.000    2.462 
#    0.000    3.077    0.000    1.846    0.000    0.000 
#    0.000    0.000    0.000    0.000    0.000    0.000 
#
# Total GULP energy -144799.496041 kJ/mol
# GULP energy per Si atom -5569.211386 kJ/mol
# Density = 1.939901 g / cm^3
# Si number density = 19.443263 Si / 1000 Ang^3
#
#
#
# Elastic Constant Matrix: (Units=GPa)
#
#
# Indices 1 2 3 4 5 6 
#
# 1 98.3613 26.4143 29.2792 0.0000 0.0000 0.0000
# 2 26.4143 103.7016 13.3528 0.0000 0.0000 0.0000
# 3 29.2792 13.3528 45.1475 0.0000 0.0000 0.0000
# 4 0.0000 0.0000 0.0000 18.4431 0.0000 0.0000
# 5 0.0000 0.0000 0.0000 0.0000 -18.7219 0.0000
# 6 0.0000 0.0000 0.0000 0.0000 0.0000 5.5069
#
#
#
# Elastic Compliance Matrix: (Units=1/GPa)
#
#
# Indices 1 2 3 4 5 6 
#
# 1 0.013121 -0.002335 -0.007819 0.000000 0.000000 0.000000
# 2 -0.002335 0.010440 -0.001573 0.000000 0.000000 0.000000
# 3 -0.007819 -0.001573 0.027685 0.000000 0.000000 0.000000
# 4 0.000000 0.000000 0.000000 0.054221 0.000000 0.000000
# 5 0.000000 0.000000 0.000000 0.000000 -0.053413 0.000000
# 6 0.000000 0.000000 0.000000 0.000000 0.000000 0.181590
#
#
# Mechanical properties :
#
#
# Convention : Reuss Voigt Hill
#
# Bulk Modulus (GPa) = 35.98102 42.81145 39.39624
# Shear Modulus (GPa) = 18.77133 12.92322 15.84728
#
# Velocity S-wave (km/s) = 3.11053 2.58090 2.85801
# Velocity P-wave (km/s) = 5.60770 5.56308 5.58544
#
# Compressibility (1/GPa) = 0.02779243
#
# Stress axis : x y z
#
# Youngs Moduli (GPa) = 76.21295 95.78092 36.11999
#
# Poissons Ratio (x) = 0.22369 0.28241
# Poissons Ratio (y) = 0.17799 0.05683
# Poissons Ratio (z) = 0.59588 0.15069
#
# Static dielectric constant tensor:
#      x y z
#    x 1.679940 0.000000 0.000000 
#    y 0.000000 1.686560 0.000000 
#    z 0.000000 0.000000 1.703250 
# 
# From -- ./inp_files/10453.got.cif
#   From: 2010.05.17/outbox.cif.g08.bks.cpg/sg50_6_cif.got.tgz:10453.got - 2010.06.03 11:33:33.
