data_PCOD9396257
_publ_section_title
;
Structure prediction by ZEFSAII (Michael W. Deem and Ramdas Pophale) SiO2 
 PCOD9396257
Probable space group: P B A N
;
_chemical_formula_sum "Si O2"
_cell_formula_units_Z 58
_cell_length_a 18.889509
_cell_length_b 14.496856
_cell_length_c 12.670951
_cell_angle_alpha 90.000000
_cell_angle_beta 90.000000
_cell_angle_gamma 90.000000
_cell_volume 3469.794113
_symmetry_space_group_name_H-M "P B A N"
_symmetry_group_IT_number 50
_space_group.IT_coordinate_system_code '2'
_symmetry_cell_setting 'orthorhombic'
loop_
_space_group_symop_operation_xyz
x,y,z
1/2-x,1/2-y,z
x,1/2-y,-z
1/2-x,y,-z
-x,-y,-z
1/2+x,1/2+y,-z
-x,1/2+y,z
1/2+x,-y,z
loop_
_atom_site_type_symbol
_atom_site_label
_atom_site_fract_x
_atom_site_fract_y
_atom_site_fract_z
Si Si1 0.662226 0.939966 0.300272
Si Si2 0.750000 0.750000 0.000000
Si Si3 0.646880 0.735500 0.829221
Si Si4 0.070388 0.552871 0.868846
Si Si5 0.920338 0.051332 0.114356
Si Si6 0.836096 0.642607 0.512097
Si Si7 0.480067 0.752837 0.126407
Si Si8 0.677824 0.931127 0.739016
O O1 0.660752 0.832928 0.265623
O O2 0.639058 0.929193 0.421649
O O3 0.743854 0.967912 0.286221
O O4 0.615309 0.997918 0.218313
O O5 0.692902 0.696868 0.927165
O O6 0.562990 0.741320 0.845345
O O7 0.677005 0.836508 0.806367
O O8 0.056122 0.658643 0.836058
O O9 0.993653 0.505223 0.878189
O O10 0.100673 0.550819 0.989467
O O11 0.938545 0.154244 0.153304
O O12 0.865213 0.003279 0.191583
O O13 0.859870 0.750000 0.500000
O O14 0.750000 0.645132 0.500000
O O15 0.854029 0.601755 0.626837
O O16 0.479306 0.750000 0.000000
#
# Coordination Sequence:
#
# PCOD9396257 Si02
#       8
#     8   2   8   8   8   8   8   8
#     4  11  21  34  54  81 108 142 178 226 272 321
#     4  12  24  24  44  98 124 134 166 228 298 320
#     4  12  20  29  51  81 116 141 168 224 272 323
#     4  10  21  34  54  79 108 146 180 214 266 328
#     4  10  21  34  54  79 108 146 180 214 266 328
#     4   9  18  34  53  77 111 143 176 216 283 340
#     4  10  20  36  52  72 112 152 181 207 257 331
#     4  11  21  34  54  81 108 142 178 226 272 321
#
# _framework density 16.715689999999999
#
# number of rings (size 3 to 8) (size 9 to 14) (size 15 to 20)
#    0.000    1.517    6.207    0.000    1.931    0.552 
#    0.000    1.379    0.000    3.310    0.000    2.897 
#    0.000    0.000    0.000    0.000    0.000    0.000 
#
# Total GULP energy -323051.479639 kJ/mol
# GULP energy per Si atom -5569.853097 kJ/mol
# Density = 1.667764 g / cm^3
# Si number density = 16.715690 Si / 1000 Ang^3
#
#
#
# Elastic Constant Matrix: (Units=GPa)
#
#
# Indices 1 2 3 4 5 6 
#
# 1 60.1872 29.0878 41.6425 0.0000 0.0000 0.0000
# 2 29.0878 92.3390 36.6087 0.0000 0.0000 0.0000
# 3 41.6425 36.6087 91.8586 0.0000 0.0000 0.0000
# 4 0.0000 0.0000 0.0000 25.2637 0.0000 0.0000
# 5 0.0000 0.0000 0.0000 0.0000 9.1932 0.0000
# 6 0.0000 0.0000 0.0000 0.0000 0.0000 25.0519
#
#
#
# Elastic Compliance Matrix: (Units=1/GPa)
#
#
# Indices 1 2 3 4 5 6 
#
# 1 0.025444 -0.004088 -0.009905 0.000000 0.000000 0.000000
# 2 -0.004088 0.013519 -0.003534 0.000000 0.000000 0.000000
# 3 -0.009905 -0.003534 0.016785 0.000000 0.000000 0.000000
# 4 0.000000 0.000000 0.000000 0.039583 0.000000 0.000000
# 5 0.000000 0.000000 0.000000 0.000000 0.108777 0.000000
# 6 0.000000 0.000000 0.000000 0.000000 0.000000 0.039917
#
#
# Mechanical properties :
#
#
# Convention : Reuss Voigt Hill
#
# Bulk Modulus (GPa) = 48.32713 51.00698 49.66706
# Shear Modulus (GPa) = 17.48392 21.03812 19.26102
#
# Velocity S-wave (km/s) = 3.23764 3.55150 3.39820
# Velocity P-wave (km/s) = 6.55366 6.88464 6.72118
#
# Compressibility (1/GPa) = 0.02069231
#
# Stress axis : x y z
#
# Youngs Moduli (GPa) = 39.30218 73.97167 59.57608
#
# Poissons Ratio (x) = 0.30240 0.59012
# Poissons Ratio (y) = 0.16067 0.21056
# Poissons Ratio (z) = 0.38930 0.26144
#
# Static dielectric constant tensor:
#      x y z
#    x 1.573360 0.000000 0.000000 
#    y 0.000000 1.584890 0.000000 
#    z 0.000000 0.000000 1.557760 
# 
# From -- ./inp_files/21300.got.cif
#   From: 2010.05.17/outbox.cif.g08.bks.cpg/sg50_11_cif.got.tgz:21300.got - 2010.06.03 11:33:33.
