data_PCOD9396570
_publ_section_title
;
Structure prediction by ZEFSAII (Michael W. Deem and Ramdas Pophale) SiO2 
 PCOD9396570
Probable space group: P B A N
;
_chemical_formula_sum "Si O2"
_cell_formula_units_Z 64
_cell_length_a 11.412582
_cell_length_b 23.298341
_cell_length_c 10.715567
_cell_angle_alpha 90.000000
_cell_angle_beta 90.000000
_cell_angle_gamma 90.000000
_cell_volume 2849.207406
_symmetry_space_group_name_H-M "P B A N"
_symmetry_group_IT_number 50
_space_group.IT_coordinate_system_code '2'
_symmetry_cell_setting 'orthorhombic'
loop_
_space_group_symop_operation_xyz
x,y,z
1/2-x,1/2-y,z
x,1/2-y,-z
1/2-x,y,-z
-x,-y,-z
1/2+x,1/2+y,-z
-x,1/2+y,z
1/2+x,-y,z
loop_
_atom_site_type_symbol
_atom_site_label
_atom_site_fract_x
_atom_site_fract_y
_atom_site_fract_z
Si Si1 0.598061 0.832314 0.394592
Si Si2 0.938113 0.411362 0.752436
Si Si3 0.881292 0.410717 0.030109
Si Si4 0.379936 0.235518 0.204322
Si Si5 0.198922 0.878291 0.365480
Si Si6 0.981990 0.465072 0.281535
Si Si7 0.349967 0.126231 0.338928
Si Si8 0.865478 0.210866 0.838770
O O1 0.491955 0.857058 0.316665
O O2 0.621485 0.769574 0.337323
O O3 0.588164 0.844567 0.540626
O O4 0.712882 0.868688 0.359338
O O5 0.801533 0.405734 0.719394
O O6 0.003158 0.467797 0.702076
O O7 0.951588 0.412420 0.901044
O O8 0.939840 0.446308 0.142791
O O9 0.869894 0.344158 0.070689
O O10 0.750000 0.432591 0.000000
O O11 0.250000 0.250000 0.148468
O O12 0.379986 0.167465 0.224262
O O13 0.510902 0.245162 0.150170
O O14 0.250000 0.864107 0.500000
O O15 0.103582 0.929112 0.371712
O O16 0.149163 0.821950 0.295325
O O17 0.107256 0.436736 0.310266
O O18 0.750000 0.250000 0.855695
#
# Coordination Sequence:
#
# PCOD9396570 Si02
#       8
#     8   8   8   8   8   8   8   8
#     4  10  23  37  65  98 133 175 222 268 335 416
#     4  12  25  43  66  99 130 173 234 284 347 410
#     4  11  23  47  68  92 129 174 232 290 344 410
#     4  10  20  40  68  97 138 178 223 279 341 418
#     4  11  24  43  65 100 144 176 226 287 347 428
#     4  11  24  43  68  94 131 177 226 286 347 402
#     4  10  20  42  64  94 133 179 217 268 337 413
#     4  11  23  43  71 103 137 187 233 285 352 422
#
# _framework density 22.462385000000001
#
# number of rings (size 3 to 8) (size 9 to 14) (size 15 to 20)
#    0.000    1.250    5.000    2.250    1.750    4.000 
#    2.250    0.625    0.000    0.750    0.000    0.000 
#    0.000    0.000    0.000    0.000    0.000    0.000 
#
# Total GULP energy -357268.771265 kJ/mol
# GULP energy per Si atom -5582.324551 kJ/mol
# Density = 2.241126 g / cm^3
# Si number density = 22.462385 Si / 1000 Ang^3
#
#
#
# Elastic Constant Matrix: (Units=GPa)
#
#
# Indices 1 2 3 4 5 6 
#
# 1 115.1426 19.8060 14.2438 0.0000 0.0000 0.0000
# 2 19.8060 76.1744 -6.6658 0.0000 0.0000 0.0000
# 3 14.2438 -6.6658 56.3961 0.0000 0.0000 0.0000
# 4 0.0000 0.0000 0.0000 8.6884 0.0000 0.0000
# 5 0.0000 0.0000 0.0000 0.0000 16.9284 0.0000
# 6 0.0000 0.0000 0.0000 0.0000 0.0000 26.0072
#
#
#
# Elastic Compliance Matrix: (Units=1/GPa)
#
#
# Indices 1 2 3 4 5 6 
#
# 1 0.009486 -0.002704 -0.002715 0.000000 0.000000 0.000000
# 2 -0.002704 0.014036 0.002342 0.000000 0.000000 0.000000
# 3 -0.002715 0.002342 0.018694 0.000000 0.000000 0.000000
# 4 0.000000 0.000000 0.000000 0.115096 0.000000 0.000000
# 5 0.000000 0.000000 0.000000 0.000000 0.059072 0.000000
# 6 0.000000 0.000000 0.000000 0.000000 0.000000 0.038451
#
#
# Mechanical properties :
#
#
# Convention : Reuss Voigt Hill
#
# Bulk Modulus (GPa) = 27.73083 33.60901 30.66992
# Shear Modulus (GPa) = 18.31431 25.01342 21.66386
#
# Velocity S-wave (km/s) = 2.85850 3.34064 3.10893
# Velocity P-wave (km/s) = 4.82358 5.46577 5.15469
#
# Compressibility (1/GPa) = 0.03606094
#
# Stress axis : x y z
#
# Youngs Moduli (GPa) = 105.41941 71.24651 53.49211
#
# Poissons Ratio (x) = 0.19265 0.14525
# Poissons Ratio (y) = 0.28506 -0.12527
# Poissons Ratio (z) = 0.28626 -0.16685
#
# Static dielectric constant tensor:
#      x y z
#    x 1.888390 0.000000 0.000000 
#    y 0.000000 1.777840 0.000000 
#    z 0.000000 0.000000 1.852120 
# 
# From -- ./inp_files/20532.got.cif
#   From: 2010.05.17/outbox.cif.g08.bks.cpg/sg50_11_cif.got.tgz:20532.got - 2010.06.03 11:33:33.
