data_PCOD9396906
_publ_section_title
;
Structure prediction by ZEFSAII (Michael W. Deem and Ramdas Pophale) SiO2 
 PCOD9396906
Probable space group: P B A N
;
_chemical_formula_sum "Si O2"
_cell_formula_units_Z 48
_cell_length_a 17.005508
_cell_length_b 9.368100
_cell_length_c 14.447175
_cell_angle_alpha 90.000000
_cell_angle_beta 90.000000
_cell_angle_gamma 90.000000
_cell_volume 2301.569329
_symmetry_space_group_name_H-M "P B A N"
_symmetry_group_IT_number 50
_space_group.IT_coordinate_system_code '2'
_symmetry_cell_setting 'orthorhombic'
loop_
_space_group_symop_operation_xyz
x,y,z
1/2-x,1/2-y,z
x,1/2-y,-z
1/2-x,y,-z
-x,-y,-z
1/2+x,1/2+y,-z
-x,1/2+y,z
1/2+x,-y,z
loop_
_atom_site_type_symbol
_atom_site_label
_atom_site_fract_x
_atom_site_fract_y
_atom_site_fract_z
Si Si1 0.561433 0.699841 0.733374
Si Si2 0.078770 0.786476 0.598934
Si Si3 0.834403 0.047700 0.683339
Si Si4 0.662727 0.234230 0.849519
Si Si5 0.659746 0.979432 0.699371
Si Si6 0.999540 0.638762 0.065221
O O1 0.482634 0.745673 0.680757
O O2 0.599687 0.571920 0.675849
O O3 0.541075 0.637275 0.834566
O O4 0.619596 0.834993 0.734342
O O5 0.043335 0.750000 0.500000
O O6 0.151055 0.676782 0.612782
O O7 0.109458 0.946036 0.617702
O O8 0.842180 0.126010 0.783626
O O9 0.750750 0.971603 0.672172
O O10 0.750000 0.250000 0.892954
O O11 0.661228 0.098019 0.780687
O O12 0.586341 0.203215 0.911154
O O13 0.954992 0.750000 0.000000
O O14 0.000000 0.500000 0.000000
#
# Coordination Sequence:
#
# PCOD9396906 Si02
#       6
#     8   8   8   8   8   8
#     4  12  23  40  63  95 138 165 213 274 329 392
#     4  11  24  41  67  94 126 170 219 269 328 399
#     4  10  21  39  65  91 126 174 211 261 328 388
#     4   9  19  39  62  88 125 170 217 262 316 384
#     4  10  21  39  65  91 126 173 214 261 328 388
#     4  12  24  37  63  96 129 172 221 268 320 382
#
# _framework density 20.855336000000001
#
# number of rings (size 3 to 8) (size 9 to 14) (size 15 to 20)
#    0.000    1.333    3.333    5.000    0.000    4.333 
#    0.000    0.000    0.000   11.000    0.000    0.000 
#    0.000    0.000    0.000    0.000    0.000    0.000 
#
# Total GULP energy -267664.252728 kJ/mol
# GULP energy per Si atom -5576.338598 kJ/mol
# Density = 2.080787 g / cm^3
# Si number density = 20.855336 Si / 1000 Ang^3
#
#
#
# Elastic Constant Matrix: (Units=GPa)
#
#
# Indices 1 2 3 4 5 6 
#
# 1 77.3152 17.2427 -12.1053 0.0000 0.0000 0.0000
# 2 17.2427 100.3405 11.6137 0.0000 0.0000 0.0000
# 3 -12.1053 11.6137 68.5973 0.0000 0.0000 0.0000
# 4 0.0000 0.0000 0.0000 15.4417 0.0000 0.0000
# 5 0.0000 0.0000 0.0000 0.0000 1.3236 0.0000
# 6 0.0000 0.0000 0.0000 0.0000 0.0000 12.3646
#
#
#
# Elastic Compliance Matrix: (Units=1/GPa)
#
#
# Indices 1 2 3 4 5 6 
#
# 1 0.014006 -0.002747 0.002937 0.000000 0.000000 0.000000
# 2 -0.002747 0.010704 -0.002297 0.000000 0.000000 0.000000
# 3 0.002937 -0.002297 0.015485 0.000000 0.000000 0.000000
# 4 0.000000 0.000000 0.000000 0.064760 0.000000 0.000000
# 5 0.000000 0.000000 0.000000 0.000000 0.755542 0.000000
# 6 0.000000 0.000000 0.000000 0.000000 0.000000 0.080876
#
#
# Mechanical properties :
#
#
# Convention : Reuss Voigt Hill
#
# Bulk Modulus (GPa) = 27.79217 31.08392 29.43805
# Shear Modulus (GPa) = 5.22149 21.12609 13.17379
#
# Velocity S-wave (km/s) = 1.58402 3.18619 2.51604
# Velocity P-wave (km/s) = 4.08663 5.33598 4.75254
#
# Compressibility (1/GPa) = 0.03598136
#
# Stress axis : x y z
#
# Youngs Moduli (GPa) = 71.39563 93.42361 64.57887
#
# Poissons Ratio (x) = 0.25662 -0.18965
# Poissons Ratio (y) = 0.19611 0.14833
# Poissons Ratio (z) = -0.20967 0.21459
#
# Static dielectric constant tensor:
#      x y z
#    x 1.885320 0.000000 0.000000 
#    y 0.000000 2.018820 0.000000 
#    z 0.000000 0.000000 2.052440 
# 
# From -- ./inp_files/24975.got.cif
#   From: 2010.05.17/outbox.cif.g08.bks.cpg/sg50_13_cif.got.tgz:24975.got - 2010.06.03 11:33:33.
