data_PCOD9396210
_publ_section_title
;
Structure prediction by ZEFSAII (Michael W. Deem and Ramdas Pophale) SiO2 
 PCOD9396210
Probable space group: P B A N
;
_chemical_formula_sum "Si O2"
_cell_formula_units_Z 58
_cell_length_a 11.872707
_cell_length_b 29.417084
_cell_length_c 8.181255
_cell_angle_alpha 90.000000
_cell_angle_beta 90.000000
_cell_angle_gamma 90.000000
_cell_volume 2857.388550
_symmetry_space_group_name_H-M "P B A N"
_symmetry_group_IT_number 50
_space_group.IT_coordinate_system_code '2'
_symmetry_cell_setting 'orthorhombic'
loop_
_space_group_symop_operation_xyz
x,y,z
1/2-x,1/2-y,z
x,1/2-y,-z
1/2-x,y,-z
-x,-y,-z
1/2+x,1/2+y,-z
-x,1/2+y,z
1/2+x,-y,z
loop_
_atom_site_type_symbol
_atom_site_label
_atom_site_fract_x
_atom_site_fract_y
_atom_site_fract_z
Si Si1 0.879090 0.558146 0.946263
Si Si2 0.067272 0.725389 0.842286
Si Si3 0.996074 0.482911 0.750549
Si Si4 0.875729 0.053450 0.560941
Si Si5 0.250000 0.250000 0.500000
Si Si6 0.618080 0.661612 0.001382
Si Si7 0.368505 0.845209 0.595893
Si Si8 0.951929 0.694028 0.343600
O O1 0.893859 0.611968 0.916921
O O2 0.963618 0.545232 0.093897
O O3 0.750000 0.552163 0.000000
O O4 0.907326 0.521980 0.804724
O O5 0.140202 0.688310 0.749049
O O6 0.028747 0.764375 0.718869
O O7 0.117680 0.750000 0.000000
O O8 0.955714 0.698777 0.904388
O O9 0.952282 0.452899 0.600453
O O10 0.098561 0.512834 0.683085
O O11 0.750000 0.050436 0.500000
O O12 0.890816 0.102554 0.641602
O O13 0.165010 0.283181 0.597994
O O14 0.574240 0.662488 0.813581
O O15 0.750000 0.673615 0.000000
O O16 0.250000 0.843289 0.500000
O O17 0.474613 0.829813 0.484237
#
# Coordination Sequence:
#
# PCOD9396210 Si02
#       8
#     8   8   8   8   2   8   8   8
#     4  10  20  35  56  82 115 152 190 237 291 349
#     4  10  21  39  59  84 116 153 198 244 296 358
#     4  10  20  36  58  83 115 149 192 242 289 351
#     4  10  21  37  60  85 115 154 194 241 292 349
#     4  12  20  36  60  84 116 152 194 250 300 368
#     4  10  21  36  57  86 121 154 193 245 299 358
#     4  11  23  41  61  85 120 158 202 249 295 356
#     4  11  22  37  59  85 116 156 197 240 304 356
#
# _framework density 20.298252999999999
#
# number of rings (size 3 to 8) (size 9 to 14) (size 15 to 20)
#    0.000    1.655    1.379    3.310    0.000    3.034 
#    0.000    4.828    3.034   11.586    0.000    0.000 
#    0.000    0.000    0.000    0.000    0.000    0.000 
#
# Total GULP energy -323916.331954 kJ/mol
# GULP energy per Si atom -5584.764344 kJ/mol
# Density = 2.025205 g / cm^3
# Si number density = 20.298253 Si / 1000 Ang^3
#
#
#
# Elastic Constant Matrix: (Units=GPa)
#
#
# Indices 1 2 3 4 5 6 
#
# 1 57.8967 19.4726 -8.7250 0.0000 0.0000 0.0000
# 2 19.4726 77.0510 5.5416 0.0000 0.0000 0.0000
# 3 -8.7250 5.5416 31.4606 0.0000 0.0000 0.0000
# 4 0.0000 0.0000 0.0000 3.2024 0.0000 0.0000
# 5 0.0000 0.0000 0.0000 0.0000 17.3370 0.0000
# 6 0.0000 0.0000 0.0000 0.0000 0.0000 -68.0958
#
#
#
# Elastic Compliance Matrix: (Units=1/GPa)
#
#
# Indices 1 2 3 4 5 6 
#
# 1 0.020131 -0.005560 0.006562 0.000000 0.000000 0.000000
# 2 -0.005560 0.014680 -0.004128 0.000000 0.000000 0.000000
# 3 0.006562 -0.004128 0.034333 0.000000 0.000000 0.000000
# 4 0.000000 0.000000 0.000000 0.312267 0.000000 0.000000
# 5 0.000000 0.000000 0.000000 0.000000 0.057680 0.000000
# 6 0.000000 0.000000 0.000000 0.000000 0.000000 -0.014685
#
#
# Mechanical properties :
#
#
# Convention : Reuss Voigt Hill
#
# Bulk Modulus (GPa) = 15.89976 22.10965 19.00470
# Shear Modulus (GPa) = 11.07125 0.49667 5.78396
#
# Velocity S-wave (km/s) = 2.33797 0.49520 1.68987
# Velocity P-wave (km/s) = 3.89079 3.35306 3.63189
#
# Compressibility (1/GPa) = 0.06289404
#
# Stress axis : x y z
#
# Youngs Moduli (GPa) = 49.67480 68.11842 29.12667
#
# Poissons Ratio (x) = 0.37871 -0.19114
# Poissons Ratio (y) = 0.27617 0.12023
# Poissons Ratio (z) = -0.32598 0.28117
#
# Static dielectric constant tensor:
#      x y z
#    x 1.695100 0.000000 0.000000 
#    y 0.000000 1.706440 0.000000 
#    z 0.000000 0.000000 1.741160 
# 
# From -- ./inp_files/11780.got.cif
#   From: 2010.05.17/outbox.cif.g08.bks.cpg/sg50_6_cif.got.tgz:11780.got - 2010.06.03 11:33:33.
