data_PCOD9396088
_publ_section_title
;
Structure prediction by ZEFSAII (Michael W. Deem and Ramdas Pophale) SiO2 
 PCOD9396088
Probable space group: P B A N
;
_chemical_formula_sum "Si O2"
_cell_formula_units_Z 54
_cell_length_a 5.221489
_cell_length_b 20.072011
_cell_length_c 25.313755
_cell_angle_alpha 90.000000
_cell_angle_beta 90.000000
_cell_angle_gamma 90.000000
_cell_volume 2653.027955
_symmetry_space_group_name_H-M "P B A N"
_symmetry_group_IT_number 50
_space_group.IT_coordinate_system_code '2'
_symmetry_cell_setting 'orthorhombic'
loop_
_space_group_symop_operation_xyz
x,y,z
1/2-x,1/2-y,z
x,1/2-y,-z
1/2-x,y,-z
-x,-y,-z
1/2+x,1/2+y,-z
-x,1/2+y,z
1/2+x,-y,z
loop_
_atom_site_type_symbol
_atom_site_label
_atom_site_fract_x
_atom_site_fract_y
_atom_site_fract_z
Si Si1 0.902209 0.366571 0.450516
Si Si2 0.841922 0.957413 0.361214
Si Si3 0.250000 0.250000 0.500000
Si Si4 0.389180 0.820850 0.356814
Si Si5 0.322079 0.955469 0.945743
Si Si6 0.041480 0.625610 0.730984
Si Si7 0.750000 0.750000 0.706841
Si Si8 0.260482 0.544579 0.170998
O O1 0.750000 0.398780 0.500000
O O2 0.078806 0.409752 0.410803
O O3 0.663943 0.344738 0.414322
O O4 0.064287 0.301286 0.468165
O O5 0.866233 0.926559 0.301860
O O6 0.056529 0.014884 0.366237
O O7 0.250000 0.750000 0.351835
O O8 0.261608 0.865606 0.312629
O O9 0.665254 0.805382 0.335980
O O10 0.286023 0.924670 0.887893
O O11 0.609884 0.984638 0.947013
O O12 0.250000 0.917568 0.000000
O O13 0.161118 0.595113 0.783307
O O14 0.927293 0.700409 0.740730
O O15 0.475206 0.485818 0.175182
#
# Coordination Sequence:
#
# PCOD9396088 Si02
#       8
#     8   8   2   8   8   8   4   8
#     4  11  26  42  67  88 115 145 189 240 290 351
#     4  11  27  45  65  88 118 156 192 230 287 356
#     4  12  26  46  68  94 116 148 190 252 298 346
#     4   9  20  37  55  84 104 137 181 228 290 336
#     4   8  14  26  44  71 109 154 194 237 286 337
#     4  10  22  36  60  83 118 149 200 238 295 351
#     4  10  22  39  64  85 114 153 188 253 294 350
#     4  10  20  32  53  82 119 162 196 243 296 356
#
# _framework density 20.354101
#
# number of rings (size 3 to 8) (size 9 to 14) (size 15 to 20)
#    0.000    2.074    0.000    2.000    8.296    8.889 
#    0.000    0.000    0.000    0.000    0.000    0.000 
#    0.000    6.519    0.296    0.000    0.000    0.000 
#
# Total GULP energy -300784.689493 kJ/mol
# GULP energy per Si atom -5570.086842 kJ/mol
# Density = 2.030777 g / cm^3
# Si number density = 20.354101 Si / 1000 Ang^3
#
#
#
# Elastic Constant Matrix: (Units=GPa)
#
#
# Indices 1 2 3 4 5 6 
#
# 1 63.3869 10.5761 0.1026 0.0000 0.0000 0.0000
# 2 10.5761 42.9992 29.5214 0.0000 0.0000 0.0000
# 3 0.1026 29.5214 146.9871 0.0000 0.0000 0.0000
# 4 0.0000 0.0000 0.0000 14.3353 0.0000 0.0000
# 5 0.0000 0.0000 0.0000 0.0000 3.5487 0.0000
# 6 0.0000 0.0000 0.0000 0.0000 0.0000 27.8202
#
#
#
# Elastic Compliance Matrix: (Units=1/GPa)
#
#
# Indices 1 2 3 4 5 6 
#
# 1 0.016561 -0.004716 0.000936 0.000000 0.000000 0.000000
# 2 -0.004716 0.028319 -0.005684 0.000000 0.000000 0.000000
# 3 0.000936 -0.005684 0.007944 0.000000 0.000000 0.000000
# 4 0.000000 0.000000 0.000000 0.069758 0.000000 0.000000
# 5 0.000000 0.000000 0.000000 0.000000 0.281796 0.000000
# 6 0.000000 0.000000 0.000000 0.000000 0.000000 0.035945
#
#
# Mechanical properties :
#
#
# Convention : Reuss Voigt Hill
#
# Bulk Modulus (GPa) = 29.50252 37.08594 33.29423
# Shear Modulus (GPa) = 10.62585 23.35238 16.98911
#
# Velocity S-wave (km/s) = 2.28732 3.39087 2.89221
# Velocity P-wave (km/s) = 4.63701 5.79574 5.24845
#
# Compressibility (1/GPa) = 0.03389541
#
# Stress axis : x y z
#
# Youngs Moduli (GPa) = 60.38124 35.31227 125.87598
#
# Poissons Ratio (x) = 0.16653 -0.11777
# Poissons Ratio (y) = 0.28475 0.71552
# Poissons Ratio (z) = -0.05649 0.20073
#
# Static dielectric constant tensor:
#      x y z
#    x 1.929390 0.000000 0.000000 
#    y 0.000000 1.944910 0.000000 
#    z 0.000000 0.000000 1.772250 
# 
# From -- ./inp_files/31511.got.cif
#   From: 2010.05.17/outbox.cif.g08.bks.cpg/sg50_16_cif.got.tgz:31511.got - 2010.06.03 11:33:33.
