data_PCOD9396767
_publ_section_title
;
Structure prediction by ZEFSAII (Michael W. Deem and Ramdas Pophale) SiO2 
 PCOD9396767
Probable space group: P B A N
;
_chemical_formula_sum "Si O2"
_cell_formula_units_Z 32
_cell_length_a 13.244167
_cell_length_b 8.063861
_cell_length_c 13.562584
_cell_angle_alpha 90.000000
_cell_angle_beta 90.000000
_cell_angle_gamma 90.000000
_cell_volume 1448.472060
_symmetry_space_group_name_H-M "P B A N"
_symmetry_group_IT_number 50
_space_group.IT_coordinate_system_code '2'
_symmetry_cell_setting 'orthorhombic'
loop_
_space_group_symop_operation_xyz
x,y,z
1/2-x,1/2-y,z
x,1/2-y,-z
1/2-x,y,-z
-x,-y,-z
1/2+x,1/2+y,-z
-x,1/2+y,z
1/2+x,-y,z
loop_
_atom_site_type_symbol
_atom_site_label
_atom_site_fract_x
_atom_site_fract_y
_atom_site_fract_z
Si Si1 0.368760 0.794664 0.893485
Si Si2 0.124977 0.892670 0.700408
Si Si3 0.316796 0.414499 0.236536
Si Si4 0.039939 0.271082 0.386372
O O1 0.250000 0.750000 0.900287
O O2 0.409386 0.675487 0.807264
O O3 0.368695 0.983786 0.853108
O O4 0.413802 0.750000 0.000000
O O5 0.079846 0.755477 0.627432
O O6 0.239707 0.951252 0.715186
O O7 0.071448 0.054076 0.657485
O O8 0.250000 0.250000 0.207409
O O9 0.395447 0.352834 0.317707
O O10 0.067529 0.250000 0.500000
#
# Coordination Sequence:
#
# PCOD9396767 Si02
#       4
#     8   8   8   8
#     4   9  18  37  61  86 120 160 200 249 304 362
#     4  10  21  37  58  86 119 157 202 250 301 361
#     4   9  20  38  60  88 122 158 203 254 301 363
#     4  11  22  39  60  87 122 160 202 256 308 363
#
# _framework density 22.092244999999998
#
# number of rings (size 3 to 8) (size 9 to 14) (size 15 to 20)
#    0.000    2.250    0.000    2.250    0.000    4.500 
#    0.000   31.250    0.000    0.000    0.000    0.000 
#    0.000    0.000    0.000    0.000    0.000    0.000 
#
# Total GULP energy -178294.991369 kJ/mol
# GULP energy per Si atom -5571.718480 kJ/mol
# Density = 2.204196 g / cm^3
# Si number density = 22.092245 Si / 1000 Ang^3
#
#
#
# Elastic Constant Matrix: (Units=GPa)
#
#
# Indices 1 2 3 4 5 6 
#
# 1 49.0850 29.2491 28.4705 0.0000 0.0000 0.0000
# 2 29.2491 109.4840 82.9682 0.0000 0.0000 0.0000
# 3 28.4705 82.9682 188.7325 0.0000 0.0000 0.0000
# 4 0.0000 0.0000 0.0000 -9.5242 0.0000 0.0000
# 5 0.0000 0.0000 0.0000 0.0000 92.6398 0.0000
# 6 0.0000 0.0000 0.0000 0.0000 0.0000 -19.5583
#
#
#
# Elastic Compliance Matrix: (Units=1/GPa)
#
#
# Indices 1 2 3 4 5 6 
#
# 1 0.024417 -0.005596 -0.001223 0.000000 0.000000 0.000000
# 2 -0.005596 0.014979 -0.005741 0.000000 0.000000 0.000000
# 3 -0.001223 -0.005741 0.008007 0.000000 0.000000 0.000000
# 4 0.000000 0.000000 0.000000 -0.104996 0.000000 0.000000
# 5 0.000000 0.000000 0.000000 0.000000 0.010795 0.000000
# 6 0.000000 0.000000 0.000000 0.000000 0.000000 -0.051129
#
#
# Mechanical properties :
#
#
# Convention : Reuss Voigt Hill
#
# Bulk Modulus (GPa) = 44.87797 69.85302 57.36549
# Shear Modulus (GPa) = -76.47643 26.48569 -24.99537
#
# Velocity S-wave (km/s) = -5.88999 3.46622 -3.36729
# Velocity P-wave (km/s) = 5.08901 6.90703 3.30220
#
# Compressibility (1/GPa) = 0.02228265
#
# Stress axis : x y z
#
# Youngs Moduli (GPa) = 40.95508 66.75918 124.89490
#
# Poissons Ratio (x) = 0.37359 0.15278
# Poissons Ratio (y) = 0.22919 0.71700
# Poissons Ratio (z) = 0.05010 0.38325
#
# Static dielectric constant tensor:
#      x y z
#    x 1.844210 0.000000 0.000000 
#    y 0.000000 1.903730 0.000000 
#    z 0.000000 0.000000 1.809760 
# 
# From -- ./inp_files/18341.got.cif
#   From: 2010.05.17/outbox.cif.g08.bks.cpg/sg50_10_cif.got.tgz:18341.got - 2010.06.03 11:33:33.
