data_PCOD9397112
_publ_section_title
;
Structure prediction by ZEFSAII (Michael W. Deem and Ramdas Pophale) SiO2 
 PCOD9397112
Probable space group: P B A N
;
_chemical_formula_sum "Si O2"
_cell_formula_units_Z 32
_cell_length_a 10.600566
_cell_length_b 14.958013
_cell_length_c 9.020656
_cell_angle_alpha 90.000000
_cell_angle_beta 90.000000
_cell_angle_gamma 90.000000
_cell_volume 1430.345922
_symmetry_space_group_name_H-M "P B A N"
_symmetry_group_IT_number 50
_space_group.IT_coordinate_system_code '2'
_symmetry_cell_setting 'orthorhombic'
loop_
_space_group_symop_operation_xyz
x,y,z
1/2-x,1/2-y,z
x,1/2-y,-z
1/2-x,y,-z
-x,-y,-z
1/2+x,1/2+y,-z
-x,1/2+y,z
1/2+x,-y,z
loop_
_atom_site_type_symbol
_atom_site_label
_atom_site_fract_x
_atom_site_fract_y
_atom_site_fract_z
Si Si1 0.891581 0.715016 0.829686
Si Si2 0.579295 0.149975 0.748622
Si Si3 0.250000 0.593772 0.500000
Si Si4 0.750000 0.103152 0.000000
Si Si5 0.442659 0.959734 0.757311
O O1 0.750000 0.750000 0.797423
O O2 0.979333 0.774368 0.727754
O O3 0.948506 0.615573 0.796454
O O4 0.910636 0.750000 0.000000
O O5 0.675265 0.150544 0.616672
O O6 0.658394 0.160340 0.898091
O O7 0.512500 0.053926 0.757598
O O8 0.140915 0.547109 0.604500
O O9 0.838796 0.046928 0.888769
#
# Coordination Sequence:
#
# PCOD9397112 Si02
#       5
#     8   8   4   4   8
#     4  11  26  42  69 105 139 171 222 281 342 398
#     4  11  24  44  69 101 136 180 221 280 335 396
#     4  10  26  45  70  93 138 180 232 269 334 399
#     4  10  22  37  72  95 128 174 232 269 332 385
#     4  11  24  44  69 101 136 180 221 280 335 396
#
# _framework density 22.372209000000002
#
# number of rings (size 3 to 8) (size 9 to 14) (size 15 to 20)
#    0.000    1.250    2.500    1.500    7.000    7.000 
#    0.000    1.250    0.000    0.000    0.000    0.000 
#    0.000    0.000    0.000    0.000    0.000    0.000 
#
# Total GULP energy -178550.899647 kJ/mol
# GULP energy per Si atom -5579.715614 kJ/mol
# Density = 2.232129 g / cm^3
# Si number density = 22.372209 Si / 1000 Ang^3
#
#
#
# Elastic Constant Matrix: (Units=GPa)
#
#
# Indices 1 2 3 4 5 6 
#
# 1 106.0172 -1.5202 14.6010 0.0000 0.0000 0.0000
# 2 -1.5202 77.3371 -19.3077 0.0000 0.0000 0.0000
# 3 14.6010 -19.3077 88.5002 0.0000 0.0000 0.0000
# 4 0.0000 0.0000 0.0000 -3.6455 0.0000 0.0000
# 5 0.0000 0.0000 0.0000 0.0000 33.5659 0.0000
# 6 0.0000 0.0000 0.0000 0.0000 0.0000 -103.1408
#
#
#
# Elastic Compliance Matrix: (Units=1/GPa)
#
#
# Indices 1 2 3 4 5 6 
#
# 1 0.009655 -0.000220 -0.001641 0.000000 0.000000 0.000000
# 2 -0.000220 0.013680 0.003021 0.000000 0.000000 0.000000
# 3 -0.001641 0.003021 0.012229 0.000000 0.000000 0.000000
# 4 0.000000 0.000000 0.000000 -0.274310 0.000000 0.000000
# 5 0.000000 0.000000 0.000000 0.000000 0.029792 0.000000
# 6 0.000000 0.000000 0.000000 0.000000 0.000000 -0.009695
#
#
# Mechanical properties :
#
#
# Convention : Reuss Voigt Hill
#
# Bulk Modulus (GPa) = 26.39584 28.82231 27.60907
# Shear Modulus (GPa) = -23.99920 3.89467 -10.05226
#
# Velocity S-wave (km/s) = -3.27880 1.32085 -2.12201
# Velocity P-wave (km/s) = 1.58427 3.90349 2.52263
#
# Compressibility (1/GPa) = 0.03788476
#
# Stress axis : x y z
#
# Youngs Moduli (GPa) = 103.57034 73.09809 81.77164
#
# Poissons Ratio (x) = 0.01607 0.13418
# Poissons Ratio (y) = 0.02277 -0.24702
# Poissons Ratio (z) = 0.16995 -0.22082
#
# Static dielectric constant tensor:
#      x y z
#    x 1.907050 0.000000 0.000000 
#    y 0.000000 1.781760 0.000000 
#    z 0.000000 0.000000 0.928120 
# 
# From -- ./inp_files/10721.got.cif
#   From: 2010.05.17/outbox.cif.g08.bks.cpg/sg50_6_cif.got.tgz:10721.got - 2010.06.03 11:33:33.
