data_PCOD9397115
_publ_section_title
;
Structure prediction by ZEFSAII (Michael W. Deem and Ramdas Pophale) SiO2 
 PCOD9397115
Probable space group: P B A N
;
_chemical_formula_sum "Si O2"
_cell_formula_units_Z 26
_cell_length_a 4.815235
_cell_length_b 11.836080
_cell_length_c 18.129489
_cell_angle_alpha 90.000000
_cell_angle_beta 90.000000
_cell_angle_gamma 90.000000
_cell_volume 1033.263152
_symmetry_space_group_name_H-M "P B A N"
_symmetry_group_IT_number 50
_space_group.IT_coordinate_system_code '2'
_symmetry_cell_setting 'orthorhombic'
loop_
_space_group_symop_operation_xyz
x,y,z
1/2-x,1/2-y,z
x,1/2-y,-z
1/2-x,y,-z
-x,-y,-z
1/2+x,1/2+y,-z
-x,1/2+y,z
1/2+x,-y,z
loop_
_atom_site_type_symbol
_atom_site_label
_atom_site_fract_x
_atom_site_fract_y
_atom_site_fract_z
Si Si1 0.250000 0.750000 0.000000
Si Si2 0.703191 0.921155 0.262211
Si Si3 0.203572 0.422406 0.419831
Si Si4 0.576147 0.916942 0.104868
O O1 0.451410 0.825757 0.050420
O O2 0.093333 0.135217 0.187769
O O3 0.519974 0.036625 0.258878
O O4 0.686602 0.868618 0.343643
O O5 0.250000 0.370116 0.500000
O O6 0.383924 0.539259 0.418905
O O7 0.877252 0.973047 0.095680
#
# Coordination Sequence:
#
# PCOD9397115 Si02
#       4
#     2   8   8   8
#     4  12  24  38  60  80 104 146 198 246 296 348
#     4   8  14  26  42  61  92 131 163 205 260 312
#     4   8  12  18  32  56  85 121 159 193 236 298
#     4  10  22  38  55  78 107 142 187 239 293 348
#
# _framework density 25.162998000000002
#
# number of rings (size 3 to 8) (size 9 to 14) (size 15 to 20)
#    0.000    3.077    0.000    0.923    0.000    2.462 
#    0.000    0.000    0.000    0.000    0.000    0.000 
#    0.000    0.000    0.000  959.538    0.000   22.769 
#
# Total GULP energy -144856.655489 kJ/mol
# GULP energy per Si atom -5571.409827 kJ/mol
# Density = 2.510573 g / cm^3
# Si number density = 25.162998 Si / 1000 Ang^3
#
#
#
# Elastic Constant Matrix: (Units=GPa)
#
#
# Indices 1 2 3 4 5 6 
#
# 1 99.5476 5.4192 21.9596 0.0000 0.0000 0.0000
# 2 5.4192 73.1458 73.6106 0.0000 0.0000 0.0000
# 3 21.9596 73.6106 290.0814 0.0000 0.0000 0.0000
# 4 0.0000 0.0000 0.0000 -48.4925 0.0000 0.0000
# 5 0.0000 0.0000 0.0000 0.0000 41.9856 0.0000
# 6 0.0000 0.0000 0.0000 0.0000 0.0000 7.9866
#
#
#
# Elastic Compliance Matrix: (Units=1/GPa)
#
#
# Indices 1 2 3 4 5 6 
#
# 1 0.010216 0.000029 -0.000781 0.000000 0.000000 0.000000
# 2 0.000029 0.018360 -0.004661 0.000000 0.000000 0.000000
# 3 -0.000781 -0.004661 0.004689 0.000000 0.000000 0.000000
# 4 0.000000 0.000000 0.000000 -0.020622 0.000000 0.000000
# 5 0.000000 0.000000 0.000000 0.000000 0.023818 0.000000
# 6 0.000000 0.000000 0.000000 0.000000 0.000000 0.125210
#
#
# Mechanical properties :
#
#
# Convention : Reuss Voigt Hill
#
# Bulk Modulus (GPa) = 44.56504 73.86151 59.21328
# Shear Modulus (GPa) = 27.78136 24.41496 26.09816
#
# Velocity S-wave (km/s) = 3.32634 3.11830 3.22400
# Velocity P-wave (km/s) = 5.70103 6.51015 6.11897
#
# Compressibility (1/GPa) = 0.02243911
#
# Stress axis : x y z
#
# Youngs Moduli (GPa) = 97.88480 54.46619 213.25500
#
# Poissons Ratio (x) = -0.00157 0.16648
# Poissons Ratio (y) = -0.00281 0.99402
# Poissons Ratio (z) = 0.07642 0.25388
#
# Static dielectric constant tensor:
#      x y z
#    x 1.864220 0.000000 0.000000 
#    y 0.000000 1.953440 0.000000 
#    z 0.000000 0.000000 2.080160 
# 
# From -- ./inp_files/27829.got.cif
#   From: 2010.05.17/outbox.cif.g08.bks.cpg/sg50_14_cif.got.tgz:27829.got - 2010.06.03 11:33:33.
