data_PCOD9397180
_publ_section_title
;
Structure prediction by ZEFSAII (Michael W. Deem and Ramdas Pophale) SiO2 
 PCOD9397180
Probable space group: P B A N
;
_chemical_formula_sum "Si O2"
_cell_formula_units_Z 34
_cell_length_a 5.212297
_cell_length_b 13.423912
_cell_length_c 20.617975
_cell_angle_alpha 90.000000
_cell_angle_beta 90.000000
_cell_angle_gamma 90.000000
_cell_volume 1442.627675
_symmetry_space_group_name_H-M "P B A N"
_symmetry_group_IT_number 50
_space_group.IT_coordinate_system_code '2'
_symmetry_cell_setting 'orthorhombic'
loop_
_space_group_symop_operation_xyz
x,y,z
1/2-x,1/2-y,z
x,1/2-y,-z
1/2-x,y,-z
-x,-y,-z
1/2+x,1/2+y,-z
-x,1/2+y,z
1/2+x,-y,z
loop_
_atom_site_type_symbol
_atom_site_label
_atom_site_fract_x
_atom_site_fract_y
_atom_site_fract_z
Si Si1 0.750000 0.750000 0.103422
Si Si2 0.750000 0.250000 0.807964
Si Si3 0.250000 0.250000 0.587080
Si Si4 0.750000 0.250000 0.500000
Si Si5 0.250000 0.428300 0.000000
Si Si6 0.090185 0.955436 0.243266
Si Si7 0.104922 0.464843 0.612062
O O1 0.497963 0.760057 0.147020
O O2 0.734600 0.649777 0.059877
O O3 0.800316 0.153581 0.764930
O O4 0.516194 0.284848 0.549969
O O5 0.159754 0.349118 0.622753
O O6 0.500000 0.500000 0.000000
O O7 0.308944 0.027630 0.214253
O O8 0.061873 0.981627 0.318959
O O9 0.338816 0.517538 0.576378
#
# Coordination Sequence:
#
# PCOD9397180 Si02
#       7
#     4   4   4   2   4   8   8
#     4  11  26  42  65  98 126 174 219 257 334 378
#     4  12  24  41  63  94 142 167 203 274 316 378
#     4  11  22  44  65  90 130 162 207 271 314 378
#     4  10  24  42  66  94 124 164 206 266 340 364
#     4  11  24  45  70  94 126 169 224 275 310 386
#     4  10  23  39  60  93 127 170 216 252 310 379
#     4  10  22  39  64  93 121 167 214 250 313 382
#
# _framework density 23.568104999999999
#
# number of rings (size 3 to 8) (size 9 to 14) (size 15 to 20)
#    0.000    1.412    0.000    4.235    0.000   15.059 
#    0.000   11.765    0.000    0.000    0.000    0.000 
#    0.000    0.000    0.000    0.000    0.000    0.000 
#
# Total GULP energy -189595.167744 kJ/mol
# GULP energy per Si atom -5576.328463 kJ/mol
# Density = 2.351446 g / cm^3
# Si number density = 23.568105 Si / 1000 Ang^3
#
#
#
# Elastic Constant Matrix: (Units=GPa)
#
#
# Indices 1 2 3 4 5 6 
#
# 1 210.9685 31.2503 23.7402 0.0000 0.0000 0.0000
# 2 31.2503 159.5475 44.9435 0.0000 0.0000 0.0000
# 3 23.7402 44.9435 68.6465 0.0000 0.0000 0.0000
# 4 0.0000 0.0000 0.0000 186.9506 0.0000 0.0000
# 5 0.0000 0.0000 0.0000 0.0000 23.2257 0.0000
# 6 0.0000 0.0000 0.0000 0.0000 0.0000 45.5301
#
#
#
# Elastic Compliance Matrix: (Units=1/GPa)
#
#
# Indices 1 2 3 4 5 6 
#
# 1 0.004979 -0.000601 -0.001328 0.000000 0.000000 0.000000
# 2 -0.000601 0.007758 -0.004871 0.000000 0.000000 0.000000
# 3 -0.001328 -0.004871 0.018216 0.000000 0.000000 0.000000
# 4 0.000000 0.000000 0.000000 0.005349 0.000000 0.000000
# 5 0.000000 0.000000 0.000000 0.000000 0.043056 0.000000
# 6 0.000000 0.000000 0.000000 0.000000 0.000000 0.021963
#
#
# Mechanical properties :
#
#
# Convention : Reuss Voigt Hill
#
# Bulk Modulus (GPa) = 57.63259 71.00338 64.31798
# Shear Modulus (GPa) = 41.42333 73.75651 57.58992
#
# Velocity S-wave (km/s) = 4.19692 5.60027 4.94859
# Velocity P-wave (km/s) = 6.92765 8.48585 7.74603
#
# Compressibility (1/GPa) = 0.01735129
#
# Stress axis : x y z
#
# Youngs Moduli (GPa) = 200.86236 128.90572 54.89697
#
# Poissons Ratio (x) = 0.07747 0.07292
# Poissons Ratio (y) = 0.12071 0.26741
# Poissons Ratio (z) = 0.26680 0.62792
#
# Static dielectric constant tensor:
#      x y z
#    x 2.096600 0.000000 0.000000 
#    y 0.000000 1.917790 0.000000 
#    z 0.000000 0.000000 1.956260 
# 
# From -- ./inp_files/31373.got.cif
#   From: 2010.05.17/outbox.cif.g08.bks.cpg/sg50_16_cif.got.tgz:31373.got - 2010.06.03 11:33:33.
