data_PCOD9397745
_publ_section_title
;
Structure prediction by ZEFSAII (Michael W. Deem and Ramdas Pophale) SiO2 
 PCOD9397745
Probable space group: P B A N
;
_chemical_formula_sum "Si O2"
_cell_formula_units_Z 38
_cell_length_a 26.703779
_cell_length_b 10.339271
_cell_length_c 5.841762
_cell_angle_alpha 90.000000
_cell_angle_beta 90.000000
_cell_angle_gamma 90.000000
_cell_volume 1612.896514
_symmetry_space_group_name_H-M "P B A N"
_symmetry_group_IT_number 50
_space_group.IT_coordinate_system_code '2'
_symmetry_cell_setting 'orthorhombic'
loop_
_space_group_symop_operation_xyz
x,y,z
1/2-x,1/2-y,z
x,1/2-y,-z
1/2-x,y,-z
-x,-y,-z
1/2+x,1/2+y,-z
-x,1/2+y,z
1/2+x,-y,z
loop_
_atom_site_type_symbol
_atom_site_label
_atom_site_fract_x
_atom_site_fract_y
_atom_site_fract_z
Si Si1 0.615885 0.016721 0.816462
Si Si2 0.697463 0.416535 0.873204
Si Si3 0.809520 0.605129 0.461195
Si Si4 0.507493 0.073091 0.748025
Si Si5 0.064991 0.250000 0.000000
Si Si6 0.250000 0.750000 0.500000
O O1 0.654741 0.981078 0.616250
O O2 0.566862 0.095297 0.744175
O O3 0.596067 0.876339 0.913637
O O4 0.648683 0.107593 0.981578
O O5 0.686041 0.562694 0.798325
O O6 0.712167 0.331981 0.655941
O O7 0.750000 0.412790 0.000000
O O8 0.824607 0.750000 0.500000
O O9 0.750000 0.591590 0.500000
O O10 0.470639 0.194848 0.793290
O O11 0.500000 0.000000 0.500000
O O12 0.500000 0.000000 0.000000
#
# Coordination Sequence:
#
# PCOD9397745 Si02
#       6
#     8   8   8   8   4   2
#     4  11  24  43  75 101 145 197 250 308 397 456
#     4  12  24  48  68 108 147 198 252 308 381 476
#     4  11  23  40  66 106 148 191 238 299 374 470
#     4  10  25  46  71 104 146 198 266 326 389 469
#     4  10  24  50  73 106 153 196 256 342 386 464
#     4  12  26  48  74  94 160 192 250 322 364 478
#
# _framework density 23.560096999999999
#
# number of rings (size 3 to 8) (size 9 to 14) (size 15 to 20)
#    0.000    1.053    3.158    1.579    8.842    2.526 
#    7.579    0.000    0.000    0.000    0.000    0.000 
#    0.000    0.000    0.000    0.000    0.000    0.000 
#
# Total GULP energy -211727.292895 kJ/mol
# GULP energy per Si atom -5571.770866 kJ/mol
# Density = 2.350647 g / cm^3
# Si number density = 23.560097 Si / 1000 Ang^3
#
#
#
# Elastic Constant Matrix: (Units=GPa)
#
#
# Indices 1 2 3 4 5 6 
#
# 1 189.1394 44.5090 75.4326 0.0000 0.0000 0.0000
# 2 44.5090 96.7583 48.9455 0.0000 0.0000 0.0000
# 3 75.4326 48.9455 119.6182 0.0000 0.0000 0.0000
# 4 0.0000 0.0000 0.0000 24.3095 0.0000 0.0000
# 5 0.0000 0.0000 0.0000 0.0000 103.2918 0.0000
# 6 0.0000 0.0000 0.0000 0.0000 0.0000 -18.1423
#
#
#
# Elastic Compliance Matrix: (Units=1/GPa)
#
#
# Indices 1 2 3 4 5 6 
#
# 1 0.007187 -0.001278 -0.004009 0.000000 0.000000 0.000000
# 2 -0.001278 0.013260 -0.004620 0.000000 0.000000 0.000000
# 3 -0.004009 -0.004620 0.012779 0.000000 0.000000 0.000000
# 4 0.000000 0.000000 0.000000 0.041136 0.000000 0.000000
# 5 0.000000 0.000000 0.000000 0.000000 0.009681 0.000000
# 6 0.000000 0.000000 0.000000 0.000000 0.000000 -0.055120
#
#
# Mechanical properties :
#
#
# Convention : Reuss Voigt Hill
#
# Bulk Modulus (GPa) = 74.56377 82.58780 78.57579
# Shear Modulus (GPa) = 93.97267 37.66704 65.81986
#
# Velocity S-wave (km/s) = 6.32242 4.00279 5.29128
# Velocity P-wave (km/s) = 9.22032 7.51620 8.41153
#
# Compressibility (1/GPa) = 0.01341134
#
# Stress axis : x y z
#
# Youngs Moduli (GPa) = 139.14473 75.41584 78.25634
#
# Poissons Ratio (x) = 0.09637 0.31374
# Poissons Ratio (y) = 0.17781 0.36153
# Poissons Ratio (z) = 0.55786 0.34841
#
# Static dielectric constant tensor:
#      x y z
#    x 1.958410 0.000000 0.000000 
#    y 0.000000 1.695390 0.000000 
#    z 0.000000 0.000000 2.631900 
# 
# From -- ./inp_files/6460.got.cif
#   From: 2010.05.17/outbox.cif.g08.bks.cpg/sg50_4_cif.got.tgz:6460.got - 2010.06.03 11:33:33.
