data_PCOD9397866
_publ_section_title
;
Structure prediction by ZEFSAII (Michael W. Deem and Ramdas Pophale) SiO2 
 PCOD9397866
Probable space group: P B A N
;
_chemical_formula_sum "Si O2"
_cell_formula_units_Z 32
_cell_length_a 26.488259
_cell_length_b 7.498763
_cell_length_c 8.241924
_cell_angle_alpha 90.000000
_cell_angle_beta 90.000000
_cell_angle_gamma 90.000000
_cell_volume 1637.086577
_symmetry_space_group_name_H-M "P B A N"
_symmetry_group_IT_number 50
_space_group.IT_coordinate_system_code '2'
_symmetry_cell_setting 'orthorhombic'
loop_
_space_group_symop_operation_xyz
x,y,z
1/2-x,1/2-y,z
x,1/2-y,-z
1/2-x,y,-z
-x,-y,-z
1/2+x,1/2+y,-z
-x,1/2+y,z
1/2+x,-y,z
loop_
_atom_site_type_symbol
_atom_site_label
_atom_site_fract_x
_atom_site_fract_y
_atom_site_fract_z
Si Si1 0.329208 0.242824 0.304773
Si Si2 0.468144 0.879872 0.625138
Si Si3 0.061395 0.205169 0.187803
Si Si4 0.746845 0.454774 0.697900
O O1 0.329512 0.250000 0.500000
O O2 0.385943 0.214560 0.247401
O O3 0.302684 0.429927 0.254181
O O4 0.293574 0.079985 0.250450
O O5 0.438803 0.750000 0.500000
O O6 0.511170 0.781139 0.728123
O O7 0.500000 0.000000 0.500000
O O8 0.436959 0.000978 0.748560
O O9 0.056826 0.250000 0.000000
O O10 0.750000 0.250000 0.753992
O O11 0.750000 0.450977 0.500000
#
# Coordination Sequence:
#
# PCOD9397866 Si02
#       4
#     8   8   8   8
#     4   9  17  32  55  80 111 145 193 237 282 343
#     4   9  19  37  58  78 106 145 195 234 272 335
#     4  11  21  36  55  83 117 150 182 235 302 348
#     4   8  15  31  53  81 107 142 193 247 280 325
#
# _framework density 19.546921000000001
#
# number of rings (size 3 to 8) (size 9 to 14) (size 15 to 20)
#    0.000    2.750    0.000    4.500    0.000    0.000 
#   18.000    2.500    0.000    1.500    0.000    0.000 
#    0.000    0.000    0.000    0.000    0.000    0.000 
#
# Total GULP energy -178155.103366 kJ/mol
# GULP energy per Si atom -5567.346980 kJ/mol
# Density = 1.950243 g / cm^3
# Si number density = 19.546921 Si / 1000 Ang^3
#
#
#
# Elastic Constant Matrix: (Units=GPa)
#
#
# Indices 1 2 3 4 5 6 
#
# 1 64.9524 15.1811 18.2035 0.0000 0.0000 0.0000
# 2 15.1811 111.8812 40.5512 0.0000 0.0000 0.0000
# 3 18.2035 40.5512 77.3136 0.0000 0.0000 0.0000
# 4 0.0000 0.0000 0.0000 17.2788 0.0000 0.0000
# 5 0.0000 0.0000 0.0000 0.0000 21.3497 0.0000
# 6 0.0000 0.0000 0.0000 0.0000 0.0000 13.2391
#
#
#
# Elastic Compliance Matrix: (Units=1/GPa)
#
#
# Indices 1 2 3 4 5 6 
#
# 1 0.016579 -0.001031 -0.003363 0.000000 0.000000 0.000000
# 2 -0.001031 0.011100 -0.005579 0.000000 0.000000 0.000000
# 3 -0.003363 -0.005579 0.016653 0.000000 0.000000 0.000000
# 4 0.000000 0.000000 0.000000 0.057875 0.000000 0.000000
# 5 0.000000 0.000000 0.000000 0.000000 0.046839 0.000000
# 6 0.000000 0.000000 0.000000 0.000000 0.000000 0.075534
#
#
# Mechanical properties :
#
#
# Convention : Reuss Voigt Hill
#
# Bulk Modulus (GPa) = 41.00741 44.66875 42.83808
# Shear Modulus (GPa) = 19.78989 22.38760 21.08875
#
# Velocity S-wave (km/s) = 3.18532 3.38794 3.28819
# Velocity P-wave (km/s) = 5.87817 6.18109 6.03153
#
# Compressibility (1/GPa) = 0.02438584
#
# Stress axis : x y z
#
# Youngs Moduli (GPa) = 60.31615 90.08894 60.05088
#
# Poissons Ratio (x) = 0.09286 0.20195
# Poissons Ratio (y) = 0.06217 0.33505
# Poissons Ratio (z) = 0.20284 0.50264
#
# Static dielectric constant tensor:
#      x y z
#    x 1.622710 0.000000 0.000000 
#    y 0.000000 1.782560 0.000000 
#    z 0.000000 0.000000 1.691860 
# 
# From -- ./inp_files/14817.got.cif
#   From: 2010.05.17/outbox.cif.g08.bks.cpg/sg50_8_cif.got.tgz:14817.got - 2010.06.03 11:33:33.
