data_PCOD9397189
_publ_section_title
;
Structure prediction by ZEFSAII (Michael W. Deem and Ramdas Pophale) SiO2 
 PCOD9397189
Probable space group: P B A N
;
_chemical_formula_sum "Si O2"
_cell_formula_units_Z 26
_cell_length_a 15.860588
_cell_length_b 8.274228
_cell_length_c 7.291191
_cell_angle_alpha 90.000000
_cell_angle_beta 90.000000
_cell_angle_gamma 90.000000
_cell_volume 956.853044
_symmetry_space_group_name_H-M "P B A N"
_symmetry_group_IT_number 50
_space_group.IT_coordinate_system_code '2'
_symmetry_cell_setting 'orthorhombic'
loop_
_space_group_symop_operation_xyz
x,y,z
1/2-x,1/2-y,z
x,1/2-y,-z
1/2-x,y,-z
-x,-y,-z
1/2+x,1/2+y,-z
-x,1/2+y,z
1/2+x,-y,z
loop_
_atom_site_type_symbol
_atom_site_label
_atom_site_fract_x
_atom_site_fract_y
_atom_site_fract_z
Si Si1 0.925548 0.063508 0.861081
Si Si2 0.376820 0.595252 0.769371
Si Si3 0.750000 0.250000 0.500000
Si Si4 0.650819 0.746355 0.776816
O O1 0.934662 0.241121 0.773779
O O2 0.895369 0.921686 0.728591
O O3 0.852804 0.082324 0.015928
O O4 0.000000 0.000000 0.000000
O O5 0.304431 0.641711 0.632828
O O6 0.396978 0.409828 0.714684
O O7 0.750000 0.750000 0.725400
O O8 0.646811 0.750000 0.000000
#
# Coordination Sequence:
#
# PCOD9397189 Si02
#       4
#     8   8   2   8
#     4  10  22  39  68 102 127 174 244 297 342 396
#     4  10  23  38  67  93 139 177 221 291 341 422
#     4  12  24  46  62 104 148 192 222 268 382 450
#     4   9  18  34  60  96 126 165 224 289 344 391
#
# _framework density 27.172408000000001
#
# number of rings (size 3 to 8) (size 9 to 14) (size 15 to 20)
#    0.000    2.154    0.000    1.846   12.923    9.846 
#    0.000    8.462    0.000    0.000    0.000    0.000 
#    0.000    0.000    0.000    0.000    0.000    0.000 
#
# Total GULP energy -144894.862988 kJ/mol
# GULP energy per Si atom -5572.879346 kJ/mol
# Density = 2.711056 g / cm^3
# Si number density = 27.172408 Si / 1000 Ang^3
#
#
#
# Elastic Constant Matrix: (Units=GPa)
#
#
# Indices 1 2 3 4 5 6 
#
# 1 119.9009 96.8788 26.8823 0.0000 0.0000 0.0000
# 2 96.8788 364.5299 14.5156 0.0000 0.0000 0.0000
# 3 26.8823 14.5156 90.2677 0.0000 0.0000 0.0000
# 4 0.0000 0.0000 0.0000 -7.4477 0.0000 0.0000
# 5 0.0000 0.0000 0.0000 0.0000 29.8339 0.0000
# 6 0.0000 0.0000 0.0000 0.0000 0.0000 1.2919
#
#
#
# Elastic Compliance Matrix: (Units=1/GPa)
#
#
# Indices 1 2 3 4 5 6 
#
# 1 0.011332 -0.002896 -0.002909 0.000000 0.000000 0.000000
# 2 -0.002896 0.003501 0.000299 0.000000 0.000000 0.000000
# 3 -0.002909 0.000299 0.011896 0.000000 0.000000 0.000000
# 4 0.000000 0.000000 0.000000 -0.134269 0.000000 0.000000
# 5 0.000000 0.000000 0.000000 0.000000 0.033519 0.000000
# 6 0.000000 0.000000 0.000000 0.000000 0.000000 0.774043
#
#
# Mechanical properties :
#
#
# Convention : Reuss Voigt Hill
#
# Bulk Modulus (GPa) = 63.61954 94.58353 79.10153
# Shear Modulus (GPa) = 6.98058 33.83040 20.40549
#
# Velocity S-wave (km/s) = 1.60455 3.53232 2.74334
# Velocity P-wave (km/s) = 5.18622 7.17779 6.26169
#
# Compressibility (1/GPa) = 0.01571844
#
# Stress axis : x y z
#
# Youngs Moduli (GPa) = 88.24333 285.63650 84.05918
#
# Poissons Ratio (x) = 0.82717 0.24454
# Poissons Ratio (y) = 0.25554 -0.02517
# Poissons Ratio (z) = 0.25671 -0.08553
#
# Static dielectric constant tensor:
#      x y z
#    x 2.432810 0.000000 0.000000 
#    y 0.000000 2.247590 0.000000 
#    z 0.000000 0.000000 2.135620 
# 
# From -- ./inp_files/13737.got.cif
#   From: 2010.05.17/outbox.cif.g08.bks.cpg/sg50_7_cif.got.tgz:13737.got - 2010.06.03 11:33:33.
