data_PCOD9397400
_publ_section_title
;
Structure prediction by ZEFSAII (Michael W. Deem and Ramdas Pophale) SiO2 
 PCOD9397400
Probable space group: P B A N
;
_chemical_formula_sum "Si O2"
_cell_formula_units_Z 32
_cell_length_a 8.686161
_cell_length_b 11.760557
_cell_length_c 14.382849
_cell_angle_alpha 90.000000
_cell_angle_beta 90.000000
_cell_angle_gamma 90.000000
_cell_volume 1469.266874
_symmetry_space_group_name_H-M "P B A N"
_symmetry_group_IT_number 50
_space_group.IT_coordinate_system_code '2'
_symmetry_cell_setting 'orthorhombic'
loop_
_space_group_symop_operation_xyz
x,y,z
1/2-x,1/2-y,z
x,1/2-y,-z
1/2-x,y,-z
-x,-y,-z
1/2+x,1/2+y,-z
-x,1/2+y,z
1/2+x,-y,z
loop_
_atom_site_type_symbol
_atom_site_label
_atom_site_fract_x
_atom_site_fract_y
_atom_site_fract_z
Si Si1 0.311450 0.604190 0.153892
Si Si2 0.556842 0.036516 0.723763
Si Si3 0.012646 0.750000 0.000000
Si Si4 0.718611 0.616752 0.604980
Si Si5 0.250000 0.430547 0.000000
O O1 0.445028 0.534677 0.207528
O O2 0.172600 0.626169 0.226642
O O3 0.227843 0.514137 0.085715
O O4 0.389951 0.697935 0.085903
O O5 0.450009 0.093503 0.645871
O O6 0.665806 0.945968 0.673960
O O7 0.895799 0.647740 0.024171
O O8 0.750000 0.750000 0.606854
O O9 0.750000 0.575579 0.500000
#
# Coordination Sequence:
#
# PCOD9397400 Si02
#       5
#     8   8   4   8   4
#     4  11  23  45  62  98 135 182 239 285 341 401
#     4  10  23  43  71 102 140 173 236 287 333 426
#     4  11  24  41  70  86 132 196 232 302 346 394
#     4  10  22  45  74 105 140 179 218 281 362 417
#     4  11  24  45  58  94 134 185 246 287 342 406
#
# _framework density 21.77957
#
# number of rings (size 3 to 8) (size 9 to 14) (size 15 to 20)
#    0.000    1.500    2.500    1.500    0.000    4.500 
#    4.500    3.750    0.000   13.500    0.000    0.000 
#    0.000    0.000    0.000    0.000    0.000    0.000 
#
# Total GULP energy -178787.988484 kJ/mol
# GULP energy per Si atom -5587.124640 kJ/mol
# Density = 2.173000 g / cm^3
# Si number density = 21.779570 Si / 1000 Ang^3
#
#
#
# Elastic Constant Matrix: (Units=GPa)
#
#
# Indices 1 2 3 4 5 6 
#
# 1 162.9552 43.5134 74.4784 0.0000 0.0000 0.0000
# 2 43.5134 75.2934 45.6671 0.0000 0.0000 0.0000
# 3 74.4784 45.6671 131.6369 0.0000 0.0000 0.0000
# 4 0.0000 0.0000 0.0000 44.4264 0.0000 0.0000
# 5 0.0000 0.0000 0.0000 0.0000 69.6264 0.0000
# 6 0.0000 0.0000 0.0000 0.0000 0.0000 36.8957
#
#
#
# Elastic Compliance Matrix: (Units=1/GPa)
#
#
# Indices 1 2 3 4 5 6 
#
# 1 0.008653 -0.002573 -0.004003 0.000000 0.000000 0.000000
# 2 -0.002573 0.017586 -0.004645 0.000000 0.000000 0.000000
# 3 -0.004003 -0.004645 0.011473 0.000000 0.000000 0.000000
# 4 0.000000 0.000000 0.000000 0.022509 0.000000 0.000000
# 5 0.000000 0.000000 0.000000 0.000000 0.014362 0.000000
# 6 0.000000 0.000000 0.000000 0.000000 0.000000 0.027103
#
#
# Mechanical properties :
#
#
# Convention : Reuss Voigt Hill
#
# Bulk Modulus (GPa) = 65.48974 77.46704 71.47839
# Shear Modulus (GPa) = 38.69378 43.93813 41.31596
#
# Velocity S-wave (km/s) = 4.21956 4.49642 4.36019
# Velocity P-wave (km/s) = 7.33990 7.91220 7.63142
#
# Compressibility (1/GPa) = 0.01526957
#
# Stress axis : x y z
#
# Youngs Moduli (GPa) = 115.56119 56.86470 87.15952
#
# Poissons Ratio (x) = 0.14630 0.34894
# Poissons Ratio (y) = 0.29732 0.40486
# Poissons Ratio (z) = 0.46264 0.26414
#
# Static dielectric constant tensor:
#      x y z
#    x 1.742030 0.000000 0.000000 
#    y 0.000000 1.842230 0.000000 
#    z 0.000000 0.000000 1.832110 
# 
# From -- ./inp_files/24445.got.cif
#   From: 2010.05.17/outbox.cif.g08.bks.cpg/sg50_13_cif.got.tgz:24445.got - 2010.06.03 11:33:33.
