data_PCOD9397868
_publ_section_title
;
Structure prediction by ZEFSAII (Michael W. Deem and Ramdas Pophale) SiO2 
 PCOD9397868
Probable space group: P B A N
;
_chemical_formula_sum "Si O2"
_cell_formula_units_Z 48
_cell_length_a 28.609978
_cell_length_b 9.935287
_cell_length_c 8.348600
_cell_angle_alpha 90.000000
_cell_angle_beta 90.000000
_cell_angle_gamma 90.000000
_cell_volume 2373.075712
_symmetry_space_group_name_H-M "P B A N"
_symmetry_group_IT_number 50
_space_group.IT_coordinate_system_code '2'
_symmetry_cell_setting 'orthorhombic'
loop_
_space_group_symop_operation_xyz
x,y,z
1/2-x,1/2-y,z
x,1/2-y,-z
1/2-x,y,-z
-x,-y,-z
1/2+x,1/2+y,-z
-x,1/2+y,z
1/2+x,-y,z
loop_
_atom_site_type_symbol
_atom_site_label
_atom_site_fract_x
_atom_site_fract_y
_atom_site_fract_z
Si Si1 0.948448 0.624477 0.617746
Si Si2 0.195597 0.542816 0.176825
Si Si3 0.804403 0.542816 0.176825
Si Si4 0.851237 0.698609 0.682001
Si Si5 0.148763 0.801391 0.317999
Si Si6 0.551552 0.124477 0.382254
O O1 0.953654 0.750000 0.500000
O O2 0.905287 0.668766 0.729346
O O3 0.935785 0.500000 0.500000
O O4 0.000000 0.596145 0.689875
O O5 0.250000 0.500000 0.181318
O O6 0.172239 0.445814 0.305249
O O7 0.179038 0.694266 0.215353
O O8 0.178766 0.500000 1.000000
O O9 0.820962 0.694266 0.215353
O O10 0.827761 0.445814 0.305249
O O11 0.851280 0.750000 0.500000
O O12 0.148720 0.750000 0.500000
O O13 0.094713 0.831234 0.270654
O O14 0.546346 0.250000 0.500000
#
# Coordination Sequence:
#
# PCOD9397868 Si02
#       6
#     8   8   8   8   8   8
#     4   9  17  31  53  83 116 145 177 224 283 339
#     4  11  24  40  56  77 112 155 188 223 285 350
#     4  11  24  40  56  77 112 155 188 223 285 350
#     4  11  21  36  60  87 110 139 189 241 276 319
#     4  11  21  36  60  87 110 139 189 241 276 319
#     4   9  17  31  53  83 116 145 177 224 283 339
#
# _framework density 20.226917
#
# number of rings (size 3 to 8) (size 9 to 14) (size 15 to 20)
#    0.000    1.667    0.000    7.000    0.000    6.667 
#    0.000    0.000    0.000    6.000    0.000    0.000 
#    0.000    0.000    0.000    0.000    0.000    0.000 
#
# Total GULP energy -267287.985414 kJ/mol
# GULP energy per Si atom -5568.499696 kJ/mol
# Density = 2.018088 g / cm^3
# Si number density = 20.226917 Si / 1000 Ang^3
#
#
#
# Elastic Constant Matrix: (Units=GPa)
#
#
# Indices 1 2 3 4 5 6 
#
# 1 124.4707 13.9729 14.0089 0.0000 0.0000 0.0000
# 2 13.9729 112.0445 -1.7714 0.0000 0.0000 0.0000
# 3 14.0089 -1.7714 41.4265 0.0000 0.0000 0.0000
# 4 0.0000 0.0000 0.0000 21.5503 0.0000 0.0000
# 5 0.0000 0.0000 0.0000 0.0000 43.0364 0.0000
# 6 0.0000 0.0000 0.0000 0.0000 0.0000 29.2997
#
#
#
# Elastic Compliance Matrix: (Units=1/GPa)
#
#
# Indices 1 2 3 4 5 6 
#
# 1 0.008486 -0.001104 -0.002917 0.000000 0.000000 0.000000
# 2 -0.001104 0.009075 0.000762 0.000000 0.000000 0.000000
# 3 -0.002917 0.000762 0.025158 0.000000 0.000000 0.000000
# 4 0.000000 0.000000 0.000000 0.046403 0.000000 0.000000
# 5 0.000000 0.000000 0.000000 0.000000 0.023236 0.000000
# 6 0.000000 0.000000 0.000000 0.000000 0.000000 0.034130
#
#
# Mechanical properties :
#
#
# Convention : Reuss Voigt Hill
#
# Bulk Modulus (GPa) = 27.62472 36.70693 32.16582
# Shear Modulus (GPa) = 30.28931 35.55938 32.92434
#
# Velocity S-wave (km/s) = 3.87392 4.19743 4.03891
# Velocity P-wave (km/s) = 5.80489 6.45586 6.13901
#
# Compressibility (1/GPa) = 0.03619946
#
# Stress axis : x y z
#
# Youngs Moduli (GPa) = 117.83701 110.19530 39.74857
#
# Poissons Ratio (x) = 0.12170 0.11595
# Poissons Ratio (y) = 0.13014 -0.03027
# Poissons Ratio (z) = 0.34373 -0.08392
#
# Static dielectric constant tensor:
#      x y z
#    x 1.882480 0.000000 0.000000 
#    y 0.000000 1.678740 0.000000 
#    z 0.000000 0.000000 1.694320 
# 
# From -- ./inp_files/16903.got.cif
#   From: 2010.05.17/outbox.cif.g08.bks.cpg/sg50_9_cif.got.tgz:16903.got - 2010.06.03 11:33:33.
