data_PCOD9397430
_publ_section_title
;
Structure prediction by ZEFSAII (Michael W. Deem and Ramdas Pophale) SiO2 
 PCOD9397430
Probable space group: P B A N
;
_chemical_formula_sum "Si O2"
_cell_formula_units_Z 34
_cell_length_a 12.802180
_cell_length_b 19.820518
_cell_length_c 5.166341
_cell_angle_alpha 90.000000
_cell_angle_beta 90.000000
_cell_angle_gamma 90.000000
_cell_volume 1310.937532
_symmetry_space_group_name_H-M "P B A N"
_symmetry_group_IT_number 50
_space_group.IT_coordinate_system_code '2'
_symmetry_cell_setting 'orthorhombic'
loop_
_space_group_symop_operation_xyz
x,y,z
1/2-x,1/2-y,z
x,1/2-y,-z
1/2-x,y,-z
-x,-y,-z
1/2+x,1/2+y,-z
-x,1/2+y,z
1/2+x,-y,z
loop_
_atom_site_type_symbol
_atom_site_label
_atom_site_fract_x
_atom_site_fract_y
_atom_site_fract_z
Si Si1 0.810485 0.011866 0.745832
Si Si2 0.020017 0.603575 0.647287
Si Si3 0.216421 0.364231 0.250548
Si Si4 0.250000 0.750000 0.500000
Si Si5 0.922140 0.182621 0.132809
O O1 0.750000 0.041814 0.500000
O O2 0.929905 0.029904 0.690722
O O3 0.789770 0.931719 0.745938
O O4 0.750000 0.035806 0.000000
O O5 0.024910 0.636758 0.360108
O O6 0.902221 0.611550 0.743703
O O7 0.091080 0.641281 0.866462
O O8 0.250000 0.324994 0.500000
O O9 0.250000 0.326029 0.000000
O O10 0.176264 0.791063 0.699839
O O11 0.974363 0.250000 0.000000
#
# Coordination Sequence:
#
# PCOD9397430 Si02
#       5
#     8   8   8   2   8
#     4  10  23  37  62  96 141 182 232 282 336 421
#     4  12  25  41  71 103 138 197 231 278 372 420
#     4  10  23  44  66  97 142 188 242 297 333 413
#     4  12  26  44  70 104 140 168 226 304 358 420
#     4  12  26  43  69 102 143 172 232 295 358 423
#
# _framework density 25.935635999999999
#
# number of rings (size 3 to 8) (size 9 to 14) (size 15 to 20)
#    0.000    0.941    2.353    3.176    4.941    7.529 
#    0.000    0.000    0.000   10.588    0.000    0.000 
#    0.000    0.000    0.000    0.000    0.000    0.000 
#
# Total GULP energy -189730.792509 kJ/mol
# GULP energy per Si atom -5580.317427 kJ/mol
# Density = 2.587661 g / cm^3
# Si number density = 25.935636 Si / 1000 Ang^3
#
#
#
# Elastic Constant Matrix: (Units=GPa)
#
#
# Indices 1 2 3 4 5 6 
#
# 1 128.9849 39.8081 46.3184 0.0000 0.0000 0.0000
# 2 39.8081 102.8716 25.6563 0.0000 0.0000 0.0000
# 3 46.3184 25.6563 265.0733 0.0000 0.0000 0.0000
# 4 0.0000 0.0000 0.0000 14.4535 0.0000 0.0000
# 5 0.0000 0.0000 0.0000 0.0000 39.2414 0.0000
# 6 0.0000 0.0000 0.0000 0.0000 0.0000 -145.8807
#
#
#
# Elastic Compliance Matrix: (Units=1/GPa)
#
#
# Indices 1 2 3 4 5 6 
#
# 1 0.009220 -0.003244 -0.001297 0.000000 0.000000 0.000000
# 2 -0.003244 0.011103 -0.000508 0.000000 0.000000 0.000000
# 3 -0.001297 -0.000508 0.004048 0.000000 0.000000 0.000000
# 4 0.000000 0.000000 0.000000 0.069187 0.000000 0.000000
# 5 0.000000 0.000000 0.000000 0.000000 0.025483 0.000000
# 6 0.000000 0.000000 0.000000 0.000000 0.000000 -0.006855
#
#
# Mechanical properties :
#
#
# Convention : Reuss Voigt Hill
#
# Bulk Modulus (GPa) = 70.06270 80.05505 75.05887
# Shear Modulus (GPa) = 39.35682 7.23932 23.29807
#
# Velocity S-wave (km/s) = 3.89971 1.67252 3.00042
# Velocity P-wave (km/s) = 6.88111 5.88758 6.40364
#
# Compressibility (1/GPa) = 0.01427293
#
# Stress axis : x y z
#
# Youngs Moduli (GPa) = 108.46101 90.06625 247.01541
#
# Poissons Ratio (x) = 0.29220 0.32039
# Poissons Ratio (y) = 0.35188 0.12542
# Poissons Ratio (z) = 0.14068 0.04573
#
# Static dielectric constant tensor:
#      x y z
#    x 1.770440 0.000000 0.000000 
#    y 0.000000 2.227440 0.000000 
#    z 0.000000 0.000000 1.243440 
# 
# From -- ./inp_files/2234.got.cif
#   From: 2010.05.17/outbox.cif.g08.bks.cpg/sg50_2_cif.got.tgz:2234.got - 2010.06.03 11:33:33.
