data_PCOD9397849
_publ_section_title
;
Structure prediction by ZEFSAII (Michael W. Deem and Ramdas Pophale) SiO2 
 PCOD9397849
Probable space group: P B A N
;
_chemical_formula_sum "Si O2"
_cell_formula_units_Z 40
_cell_length_a 12.063985
_cell_length_b 18.559983
_cell_length_c 8.301057
_cell_angle_alpha 90.000000
_cell_angle_beta 90.000000
_cell_angle_gamma 90.000000
_cell_volume 1858.667729
_symmetry_space_group_name_H-M "P B A N"
_symmetry_group_IT_number 50
_space_group.IT_coordinate_system_code '2'
_symmetry_cell_setting 'orthorhombic'
loop_
_space_group_symop_operation_xyz
x,y,z
1/2-x,1/2-y,z
x,1/2-y,-z
1/2-x,y,-z
-x,-y,-z
1/2+x,1/2+y,-z
-x,1/2+y,z
1/2+x,-y,z
loop_
_atom_site_type_symbol
_atom_site_label
_atom_site_fract_x
_atom_site_fract_y
_atom_site_fract_z
Si Si1 0.912954 0.999391 0.149379
Si Si2 0.786455 0.057478 0.678972
Si Si3 0.582193 0.916208 0.350553
Si Si4 0.871814 0.729813 0.187122
Si Si5 0.482228 0.134969 0.299150
O O1 0.800354 0.045425 0.173048
O O2 0.979124 0.034947 0.297803
O O3 0.902112 0.914612 0.187613
O O4 0.000000 0.000000 0.000000
O O5 0.750000 0.084697 0.500000
O O6 0.893104 0.105362 0.727025
O O7 0.822294 0.975009 0.646596
O O8 0.603825 0.852972 0.223862
O O9 0.555839 0.880997 0.520166
O O10 0.750000 0.750000 0.254057
O O11 0.963529 0.781786 0.264389
O O12 0.871713 0.750000 0.000000
#
# Coordination Sequence:
#
# PCOD9397849 Si02
#       5
#     8   8   8   8   8
#     4  11  22  38  63  96 133 168 218 282 339 400
#     4  11  20  40  68  96 131 174 227 281 339 407
#     4  11  22  37  64  94 125 168 224 275 336 417
#     4  11  25  42  61  91 133 171 215 282 355 413
#     4  11  22  39  65  96 126 171 226 275 336 419
#
# _framework density 21.520790999999999
#
# number of rings (size 3 to 8) (size 9 to 14) (size 15 to 20)
#    0.000    1.000    4.000    4.200    0.000    5.600 
#    0.000    1.000    0.000    1.200    0.000    0.000 
#    0.000    0.000    0.000    0.000    0.000    0.000 
#
# Total GULP energy -223091.347690 kJ/mol
# GULP energy per Si atom -5577.283692 kJ/mol
# Density = 2.147181 g / cm^3
# Si number density = 21.520791 Si / 1000 Ang^3
#
#
#
# Elastic Constant Matrix: (Units=GPa)
#
#
# Indices 1 2 3 4 5 6 
#
# 1 95.1570 8.7663 15.9917 0.0000 0.0000 0.0000
# 2 8.7663 77.2493 -5.6689 0.0000 0.0000 0.0000
# 3 15.9917 -5.6689 83.8384 0.0000 0.0000 0.0000
# 4 0.0000 0.0000 0.0000 33.8634 0.0000 0.0000
# 5 0.0000 0.0000 0.0000 0.0000 30.9660 0.0000
# 6 0.0000 0.0000 0.0000 0.0000 0.0000 21.1580
#
#
#
# Elastic Compliance Matrix: (Units=1/GPa)
#
#
# Indices 1 2 3 4 5 6 
#
# 1 0.011008 -0.001410 -0.002195 0.000000 0.000000 0.000000
# 2 -0.001410 0.013190 0.001161 0.000000 0.000000 0.000000
# 3 -0.002195 0.001161 0.012425 0.000000 0.000000 0.000000
# 4 0.000000 0.000000 0.000000 0.029530 0.000000 0.000000
# 5 0.000000 0.000000 0.000000 0.000000 0.032293 0.000000
# 6 0.000000 0.000000 0.000000 0.000000 0.000000 0.047263
#
#
# Mechanical properties :
#
#
# Convention : Reuss Voigt Hill
#
# Bulk Modulus (GPa) = 31.51172 32.71363 32.11267
# Shear Modulus (GPa) = 31.02179 33.00786 32.01483
#
# Velocity S-wave (km/s) = 3.80080 3.92058 3.86116
# Velocity P-wave (km/s) = 5.82544 5.97734 5.90187
#
# Compressibility (1/GPa) = 0.03173423
#
# Stress axis : x y z
#
# Youngs Moduli (GPa) = 90.84508 75.81311 80.48356
#
# Poissons Ratio (x) = 0.10691 0.17666
# Poissons Ratio (y) = 0.12811 -0.09343
# Poissons Ratio (z) = 0.19941 -0.08801
#
# Static dielectric constant tensor:
#      x y z
#    x 1.943250 0.000000 0.000000 
#    y 0.000000 1.757270 0.000000 
#    z 0.000000 0.000000 1.837960 
# 
# From -- ./inp_files/11010.got.cif
#   From: 2010.05.17/outbox.cif.g08.bks.cpg/sg50_6_cif.got.tgz:11010.got - 2010.06.03 11:33:33.
