data_PCOD9397548
_publ_section_title
;
Structure prediction by ZEFSAII (Michael W. Deem and Ramdas Pophale) SiO2 
 PCOD9397548
Probable space group: P B A N
;
_chemical_formula_sum "Si O2"
_cell_formula_units_Z 52
_cell_length_a 13.632752
_cell_length_b 19.454590
_cell_length_c 9.182627
_cell_angle_alpha 90.000000
_cell_angle_beta 90.000000
_cell_angle_gamma 90.000000
_cell_volume 2435.412667
_symmetry_space_group_name_H-M "P B A N"
_symmetry_group_IT_number 50
_space_group.IT_coordinate_system_code '2'
_symmetry_cell_setting 'orthorhombic'
loop_
_space_group_symop_operation_xyz
x,y,z
1/2-x,1/2-y,z
x,1/2-y,-z
1/2-x,y,-z
-x,-y,-z
1/2+x,1/2+y,-z
-x,1/2+y,z
1/2+x,-y,z
loop_
_atom_site_type_symbol
_atom_site_label
_atom_site_fract_x
_atom_site_fract_y
_atom_site_fract_z
Si Si1 0.130137 0.427395 0.166383
Si Si2 0.351861 0.278250 0.746980
Si Si3 0.962405 0.104316 0.370620
Si Si4 0.000578 0.250000 0.500000
Si Si5 0.976133 0.750000 0.000000
Si Si6 0.553235 0.395655 0.020424
Si Si7 0.133481 0.027525 0.515264
Si Si8 0.750000 0.030312 0.000000
O O1 0.166441 0.349523 0.170858
O O2 0.096959 0.443948 0.328773
O O3 0.215510 0.479901 0.127638
O O4 0.041641 0.432054 0.051286
O O5 0.250000 0.250000 0.692045
O O6 0.429095 0.284910 0.619077
O O7 0.405456 0.231116 0.865957
O O8 0.950710 0.183703 0.423059
O O9 0.071002 0.071690 0.399426
O O10 0.943559 0.099753 0.196684
O O11 0.894383 0.053062 0.467516
O O12 0.040277 0.683273 0.970672
O O13 0.655073 0.425417 0.962176
O O14 0.250000 0.037579 0.500000
#
# Coordination Sequence:
#
# PCOD9397548 Si02
#       8
#     8   8   8   4   4   8   8   4
#     4  11  26  43  67 107 137 177 227 293 342 413
#     4  11  24  39  64 100 138 178 223 274 349 415
#     4  11  25  46  69 101 139 184 230 287 348 408
#     4  12  23  42  69  96 138 186 226 287 343 410
#     4  10  23  43  66  96 136 176 222 292 338 386
#     4  11  25  46  71 101 137 180 233 289 345 412
#     4  11  26  45  70  99 138 184 228 281 346 421
#     4  12  26  41  73  98 136 184 236 278 350 412
#
# _framework density 21.351617000000001
#
# number of rings (size 3 to 8) (size 9 to 14) (size 15 to 20)
#    0.000    0.923    4.615    0.923    8.615    1.538 
#    0.000    0.385    3.385    0.000    0.000    0.000 
#    0.000    0.000    0.000    0.000    0.000    0.000 
#
# Total GULP energy -290376.000390 kJ/mol
# GULP energy per Si atom -5584.153854 kJ/mol
# Density = 2.130302 g / cm^3
# Si number density = 21.351617 Si / 1000 Ang^3
#
#
#
# Elastic Constant Matrix: (Units=GPa)
#
#
# Indices 1 2 3 4 5 6 
#
# 1 82.4118 39.8603 15.7281 0.0000 0.0000 0.0000
# 2 39.8603 123.7382 6.1689 0.0000 0.0000 0.0000
# 3 15.7281 6.1689 77.6851 0.0000 0.0000 0.0000
# 4 0.0000 0.0000 0.0000 27.1624 0.0000 0.0000
# 5 0.0000 0.0000 0.0000 0.0000 -2.4651 0.0000
# 6 0.0000 0.0000 0.0000 0.0000 0.0000 15.6850
#
#
#
# Elastic Compliance Matrix: (Units=1/GPa)
#
#
# Indices 1 2 3 4 5 6 
#
# 1 0.014896 -0.004667 -0.002645 0.000000 0.000000 0.000000
# 2 -0.004667 0.009576 0.000184 0.000000 0.000000 0.000000
# 3 -0.002645 0.000184 0.013393 0.000000 0.000000 0.000000
# 4 0.000000 0.000000 0.000000 0.036816 0.000000 0.000000
# 5 0.000000 0.000000 0.000000 0.000000 -0.405663 0.000000
# 6 0.000000 0.000000 0.000000 0.000000 0.000000 0.063755
#
#
# Mechanical properties :
#
#
# Convention : Reuss Voigt Hill
#
# Bulk Modulus (GPa) = 42.35470 45.26108 43.80789
# Shear Modulus (GPa) = -20.39969 22.88166 1.24098
#
# Velocity S-wave (km/s) = -3.09433 3.27717 0.76320
# Velocity P-wave (km/s) = 2.66707 5.96354 4.61937
#
# Compressibility (1/GPa) = 0.02361013
#
# Stress axis : x y z
#
# Youngs Moduli (GPa) = 67.13127 104.43125 74.66361
#
# Poissons Ratio (x) = 0.48735 0.19751
# Poissons Ratio (y) = 0.31328 -0.01377
# Poissons Ratio (z) = 0.17758 -0.01926
#
# Static dielectric constant tensor:
#      x y z
#    x 1.753120 0.000000 0.000000 
#    y 0.000000 0.933930 0.000000 
#    z 0.000000 0.000000 1.913260 
# 
# From -- ./inp_files/13255.got.cif
#   From: 2010.05.17/outbox.cif.g08.bks.cpg/sg50_7_cif.got.tgz:13255.got - 2010.06.03 11:33:33.
