data_PCOD9397196
_publ_section_title
;
Structure prediction by ZEFSAII (Michael W. Deem and Ramdas Pophale) SiO2 
 PCOD9397196
Probable space group: P B A N
;
_chemical_formula_sum "Si O2"
_cell_formula_units_Z 56
_cell_length_a 8.515966
_cell_length_b 14.278555
_cell_length_c 20.537835
_cell_angle_alpha 90.000000
_cell_angle_beta 90.000000
_cell_angle_gamma 90.000000
_cell_volume 2497.312196
_symmetry_space_group_name_H-M "P B A N"
_symmetry_group_IT_number 50
_space_group.IT_coordinate_system_code '2'
_symmetry_cell_setting 'orthorhombic'
loop_
_space_group_symop_operation_xyz
x,y,z
1/2-x,1/2-y,z
x,1/2-y,-z
1/2-x,y,-z
-x,-y,-z
1/2+x,1/2+y,-z
-x,1/2+y,z
1/2+x,-y,z
loop_
_atom_site_type_symbol
_atom_site_label
_atom_site_fract_x
_atom_site_fract_y
_atom_site_fract_z
Si Si1 0.091475 0.575528 0.146420
Si Si2 0.144663 0.047409 0.635765
Si Si3 0.615821 0.437737 0.544538
Si Si4 0.586147 0.965950 0.278898
Si Si5 0.096376 0.425273 0.041086
Si Si6 0.856444 0.332470 0.229906
Si Si7 0.063038 0.244837 0.881301
O O1 0.131156 0.481538 0.108294
O O2 0.248153 0.621038 0.174306
O O3 0.977069 0.560850 0.208271
O O4 0.009290 0.654448 0.103272
O O5 0.013997 0.105766 0.594832
O O6 0.051746 0.959483 0.668053
O O7 0.274730 0.007075 0.586719
O O8 0.255055 0.082711 0.695648
O O9 0.750000 0.386704 0.500000
O O10 0.500000 0.500000 0.500000
O O11 0.606230 0.079400 0.274855
O O12 0.014183 0.331412 0.065270
O O13 0.250000 0.402321 0.000000
O O14 0.000000 0.500000 0.000000
O O15 0.750000 0.250000 0.260245
O O16 0.998965 0.286721 0.189811
O O17 0.250000 0.250000 0.880541
#
# Coordination Sequence:
#
# PCOD9397196 Si02
#       7
#     8   8   8   8   8   8   8
#     4  11  24  41  64  85 123 166 193 257 336 388
#     4   9  18  26  50  88 115 167 208 256 307 381
#     4   8  14  28  45  74 129 172 203 253 316 360
#     4  11  19  34  58  84 125 156 209 254 323 385
#     4  12  26  43  66  90 117 154 209 263 315 381
#     4  10  22  40  58  84 117 164 197 244 315 397
#     4  11  25  42  65  90 117 154 209 245 320 397
#
# _framework density 22.424106999999999
#
# number of rings (size 3 to 8) (size 9 to 14) (size 15 to 20)
#    0.000    1.714    2.857    1.714    4.000    2.000 
#    0.000    0.714    0.000    0.000    0.000    0.000 
#    0.000   62.857    0.000    0.000    0.000    0.000 
#
# Total GULP energy -312160.722970 kJ/mol
# GULP energy per Si atom -5574.298624 kJ/mol
# Density = 2.237307 g / cm^3
# Si number density = 22.424107 Si / 1000 Ang^3
#
#
#
# Elastic Constant Matrix: (Units=GPa)
#
#
# Indices 1 2 3 4 5 6 
#
# 1 109.4164 7.0908 39.2835 0.0000 0.0000 0.0000
# 2 7.0908 78.8124 25.9635 0.0000 0.0000 0.0000
# 3 39.2835 25.9635 88.9450 0.0000 0.0000 0.0000
# 4 0.0000 0.0000 0.0000 -0.6649 0.0000 0.0000
# 5 0.0000 0.0000 0.0000 0.0000 51.5415 0.0000
# 6 0.0000 0.0000 0.0000 0.0000 0.0000 23.3632
#
#
#
# Elastic Compliance Matrix: (Units=1/GPa)
#
#
# Indices 1 2 3 4 5 6 
#
# 1 0.010894 0.000669 -0.005007 0.000000 0.000000 0.000000
# 2 0.000669 0.014079 -0.004405 0.000000 0.000000 0.000000
# 3 -0.005007 -0.004405 0.014740 0.000000 0.000000 0.000000
# 4 0.000000 0.000000 0.000000 -1.503898 0.000000 0.000000
# 5 0.000000 0.000000 0.000000 0.000000 0.019402 0.000000
# 6 0.000000 0.000000 0.000000 0.000000 0.000000 0.042802
#
#
# Mechanical properties :
#
#
# Convention : Reuss Voigt Hill
#
# Bulk Modulus (GPa) = 44.98934 46.87215 45.93075
# Shear Modulus (GPa) = -3.63086 28.50370 12.43642
#
# Velocity S-wave (km/s) = -1.27385 3.56914 2.35755
# Velocity P-wave (km/s) = 4.23591 6.15898 5.28564
#
# Compressibility (1/GPa) = 0.02222749
#
# Stress axis : x y z
#
# Youngs Moduli (GPa) = 91.79755 71.02553 67.84221
#
# Poissons Ratio (x) = -0.04753 0.33966
# Poissons Ratio (y) = -0.06144 0.29887
# Poissons Ratio (z) = 0.45959 0.31290
#
# Static dielectric constant tensor:
#      x y z
#    x 1.916110 0.000000 0.000000 
#    y 0.000000 1.853760 0.000000 
#    z 0.000000 0.000000 1.972540 
# 
# From -- ./inp_files/30628.got.cif
#   From: 2010.05.17/outbox.cif.g08.bks.cpg/sg50_16_cif.got.tgz:30628.got - 2010.06.03 11:33:33.
