data_PCOD9397525
_publ_section_title
;
Structure prediction by ZEFSAII (Michael W. Deem and Ramdas Pophale) SiO2 
 PCOD9397525
Probable space group: P B A N
;
_chemical_formula_sum "Si O2"
_cell_formula_units_Z 38
_cell_length_a 9.022257
_cell_length_b 9.090554
_cell_length_c 17.044567
_cell_angle_alpha 90.000000
_cell_angle_beta 90.000000
_cell_angle_gamma 90.000000
_cell_volume 1397.949611
_symmetry_space_group_name_H-M "P B A N"
_symmetry_group_IT_number 50
_space_group.IT_coordinate_system_code '2'
_symmetry_cell_setting 'orthorhombic'
loop_
_space_group_symop_operation_xyz
x,y,z
1/2-x,1/2-y,z
x,1/2-y,-z
1/2-x,y,-z
-x,-y,-z
1/2+x,1/2+y,-z
-x,1/2+y,z
1/2+x,-y,z
loop_
_atom_site_type_symbol
_atom_site_label
_atom_site_fract_x
_atom_site_fract_y
_atom_site_fract_z
Si Si1 0.232344 0.465840 0.696422
Si Si2 0.522733 0.347290 0.207569
Si Si3 0.250000 0.750000 0.500000
Si Si4 0.551481 0.016072 0.587082
Si Si5 0.998074 0.401114 0.101065
Si Si6 0.250000 0.750000 0.000000
Si Si7 0.750000 0.750000 0.000000
O O1 0.343468 0.585748 0.739044
O O2 0.343140 0.399753 0.631232
O O3 0.142743 0.375105 0.760610
O O4 0.092744 0.498864 0.640709
O O5 0.530393 0.176583 0.185901
O O6 0.524106 0.430737 0.123900
O O7 0.348108 0.840646 0.435034
O O8 0.500000 0.000000 0.500000
O O9 0.855894 0.355331 0.051333
O O10 0.141662 0.342752 0.056170
#
# Coordination Sequence:
#
# PCOD9397525 Si02
#       7
#     8   8   2   8   8   2   2
#     4  10  23  42  69  94 135 179 224 288 352 417
#     4  11  24  43  65  99 138 179 229 287 344 424
#     4  12  24  40  80  90 136 188 214 310 348 410
#     4  11  22  46  65 101 134 171 235 286 343 415
#     4  11  24  43  65  97 135 175 229 285 346 413
#     4  10  24  40  70  92 124 184 226 272 348 424
#     4  10  24  40  68 100 136 176 226 292 352 408
#
# _framework density 27.182668
#
# number of rings (size 3 to 8) (size 9 to 14) (size 15 to 20)
#    0.000    1.263    2.105    2.526    0.000    8.421 
#    3.789    1.053    0.000    0.000    0.000    0.000 
#    0.000    0.000    0.000    0.000    0.000    0.000 
#
# Total GULP energy -212153.765079 kJ/mol
# GULP energy per Si atom -5582.993818 kJ/mol
# Density = 2.712080 g / cm^3
# Si number density = 27.182668 Si / 1000 Ang^3
#
#
#
# Elastic Constant Matrix: (Units=GPa)
#
#
# Indices 1 2 3 4 5 6 
#
# 1 223.0492 39.7195 67.9806 0.0000 0.0000 0.0000
# 2 39.7195 85.6363 29.0659 0.0000 0.0000 0.0000
# 3 67.9806 29.0659 140.9549 0.0000 0.0000 0.0000
# 4 0.0000 0.0000 0.0000 27.8759 0.0000 0.0000
# 5 0.0000 0.0000 0.0000 0.0000 72.0300 0.0000
# 6 0.0000 0.0000 0.0000 0.0000 0.0000 36.1833
#
#
#
# Elastic Compliance Matrix: (Units=1/GPa)
#
#
# Indices 1 2 3 4 5 6 
#
# 1 0.005495 -0.001773 -0.002285 0.000000 0.000000 0.000000
# 2 -0.001773 0.013128 -0.001852 0.000000 0.000000 0.000000
# 3 -0.002285 -0.001852 0.008578 0.000000 0.000000 0.000000
# 4 0.000000 0.000000 0.000000 0.035873 0.000000 0.000000
# 5 0.000000 0.000000 0.000000 0.000000 0.013883 0.000000
# 6 0.000000 0.000000 0.000000 0.000000 0.000000 0.027637
#
#
# Mechanical properties :
#
#
# Convention : Reuss Voigt Hill
#
# Bulk Modulus (GPa) = 65.01075 80.35250 72.68163
# Shear Modulus (GPa) = 41.13778 48.07614 44.60696
#
# Velocity S-wave (km/s) = 3.89444 4.21007 4.05533
# Velocity P-wave (km/s) = 6.64759 7.29776 6.98025
#
# Compressibility (1/GPa) = 0.01538207
#
# Stress axis : x y z
#
# Youngs Moduli (GPa) = 181.96907 76.17091 116.57455
#
# Poissons Ratio (x) = 0.13508 0.26634
# Poissons Ratio (y) = 0.32271 0.21588
# Poissons Ratio (z) = 0.41574 0.14106
#
# Static dielectric constant tensor:
#      x y z
#    x 2.207650 0.000000 0.000000 
#    y 0.000000 4.575700 0.000000 
#    z 0.000000 0.000000 2.077930 
# 
# From -- ./inp_files/28550.got.cif
#   From: 2010.05.17/outbox.cif.g08.bks.cpg/sg50_15_cif.got.tgz:28550.got - 2010.06.03 11:33:33.
