data_PCOD9397023
_publ_section_title
;
Structure prediction by ZEFSAII (Michael W. Deem and Ramdas Pophale) SiO2 
 PCOD9397023
Probable space group: P B A N
;
_chemical_formula_sum "Si O2"
_cell_formula_units_Z 32
_cell_length_a 11.595706
_cell_length_b 13.248262
_cell_length_c 8.420481
_cell_angle_alpha 90.000000
_cell_angle_beta 90.000000
_cell_angle_gamma 90.000000
_cell_volume 1293.579141
_symmetry_space_group_name_H-M "P B A N"
_symmetry_group_IT_number 50
_space_group.IT_coordinate_system_code '2'
_symmetry_cell_setting 'orthorhombic'
loop_
_space_group_symop_operation_xyz
x,y,z
1/2-x,1/2-y,z
x,1/2-y,-z
1/2-x,y,-z
-x,-y,-z
1/2+x,1/2+y,-z
-x,1/2+y,z
1/2+x,-y,z
loop_
_atom_site_type_symbol
_atom_site_label
_atom_site_fract_x
_atom_site_fract_y
_atom_site_fract_z
Si Si1 0.033735 0.523535 0.710699
Si Si2 0.869049 0.383201 0.589573
Si Si3 0.320317 0.156307 0.833292
Si Si4 0.064450 0.768987 0.160853
O O1 0.038649 0.589751 0.547686
O O2 0.139454 0.444482 0.738126
O O3 0.043493 0.612309 0.835289
O O4 0.911490 0.466342 0.717241
O O5 0.750000 0.397177 0.500000
O O6 0.877992 0.278185 0.681816
O O7 0.250000 0.250000 0.752848
O O8 0.445027 0.208144 0.853575
O O9 0.250000 0.136422 0.000000
O O10 0.131252 0.750000 0.000000
#
# Coordination Sequence:
#
# PCOD9397023 Si02
#       4
#     8   8   8   8
#     4  10  24  42  70 104 142 195 239 298 362 436
#     4  10  24  45  69  99 142 193 238 298 365 428
#     4  10  21  42  67 105 146 189 244 299 362 430
#     4  11  23  42  70 106 145 183 246 303 358 439
#
# _framework density 24.737566000000001
#
# number of rings (size 3 to 8) (size 9 to 14) (size 15 to 20)
#    0.000    1.750    2.500    0.750    3.500    8.000 
#    0.000    1.250    0.000    0.000    0.000    0.000 
#    0.000    0.000    0.000    0.000    0.000    0.000 
#
# Total GULP energy -178293.157489 kJ/mol
# GULP energy per Si atom -5571.661172 kJ/mol
# Density = 2.468126 g / cm^3
# Si number density = 24.737566 Si / 1000 Ang^3
#
#
#
# Elastic Constant Matrix: (Units=GPa)
#
#
# Indices 1 2 3 4 5 6 
#
# 1 148.7586 50.9494 39.6211 0.0000 0.0000 0.0000
# 2 50.9494 192.1075 58.5210 0.0000 0.0000 0.0000
# 3 39.6211 58.5210 71.8462 0.0000 0.0000 0.0000
# 4 0.0000 0.0000 0.0000 19.6461 0.0000 0.0000
# 5 0.0000 0.0000 0.0000 0.0000 29.4556 0.0000
# 6 0.0000 0.0000 0.0000 0.0000 0.0000 9.9811
#
#
#
# Elastic Compliance Matrix: (Units=1/GPa)
#
#
# Indices 1 2 3 4 5 6 
#
# 1 0.008033 -0.001039 -0.003584 0.000000 0.000000 0.000000
# 2 -0.001039 0.007058 -0.005176 0.000000 0.000000 0.000000
# 3 -0.003584 -0.005176 0.020111 0.000000 0.000000 0.000000
# 4 0.000000 0.000000 0.000000 0.050901 0.000000 0.000000
# 5 0.000000 0.000000 0.000000 0.000000 0.033949 0.000000
# 6 0.000000 0.000000 0.000000 0.000000 0.000000 0.100190
#
#
# Mechanical properties :
#
#
# Convention : Reuss Voigt Hill
#
# Bulk Modulus (GPa) = 64.08386 78.98837 71.53612
# Shear Modulus (GPa) = 20.40497 29.39128 24.89813
#
# Velocity S-wave (km/s) = 2.87515 3.45066 3.17597
# Velocity P-wave (km/s) = 6.08142 6.91924 6.51382
#
# Compressibility (1/GPa) = 0.01560455
#
# Stress axis : x y z
#
# Youngs Moduli (GPa) = 124.49372 141.69165 49.72453
#
# Poissons Ratio (x) = 0.14717 0.17820
# Poissons Ratio (y) = 0.12930 0.25737
# Poissons Ratio (z) = 0.44615 0.73337
#
# Static dielectric constant tensor:
#      x y z
#    x 1.985960 0.000000 0.000000 
#    y 0.000000 2.270710 0.000000 
#    z 0.000000 0.000000 2.213090 
# 
# From -- ./inp_files/19746.got.cif
#   From: 2010.05.17/outbox.cif.g08.bks.cpg/sg50_10_cif.got.tgz:19746.got - 2010.06.03 11:33:33.
