data_PCOD9397823
_publ_section_title
;
Structure prediction by ZEFSAII (Michael W. Deem and Ramdas Pophale) SiO2 
 PCOD9397823
Probable space group: P B A N
;
_chemical_formula_sum "Si O2"
_cell_formula_units_Z 56
_cell_length_a 22.651429
_cell_length_b 14.479372
_cell_length_c 8.356846
_cell_angle_alpha 90.000000
_cell_angle_beta 90.000000
_cell_angle_gamma 90.000000
_cell_volume 2740.865539
_symmetry_space_group_name_H-M "P B A N"
_symmetry_group_IT_number 50
_space_group.IT_coordinate_system_code '2'
_symmetry_cell_setting 'orthorhombic'
loop_
_space_group_symop_operation_xyz
x,y,z
1/2-x,1/2-y,z
x,1/2-y,-z
1/2-x,y,-z
-x,-y,-z
1/2+x,1/2+y,-z
-x,1/2+y,z
1/2+x,-y,z
loop_
_atom_site_type_symbol
_atom_site_label
_atom_site_fract_x
_atom_site_fract_y
_atom_site_fract_z
Si Si1 0.419426 0.522909 0.398508
Si Si2 0.870916 0.821166 0.144550
Si Si3 0.817956 0.155302 0.049952
Si Si4 0.260578 0.382779 0.684209
Si Si5 0.348456 0.465076 0.111533
Si Si6 0.470583 0.347313 0.594525
Si Si7 0.807462 0.414663 0.598863
O O1 0.400729 0.473081 0.236229
O O2 0.440061 0.435205 0.504854
O O3 0.466954 0.603638 0.368216
O O4 0.362484 0.569954 0.481305
O O5 0.808543 0.814223 0.238270
O O6 0.926410 0.821529 0.261430
O O7 0.875999 0.750000 0.000000
O O8 0.866028 0.916696 0.051358
O O9 0.822186 0.141091 0.240656
O O10 0.849135 0.250000 0.000000
O O11 0.750000 0.162197 0.000000
O O12 0.835676 0.068645 0.942725
O O13 0.250000 0.354254 0.500000
O O14 0.204817 0.408981 0.798683
O O15 0.290450 0.483290 0.661328
O O16 0.478149 0.250000 0.500000
O O17 0.750000 0.380196 0.500000
#
# Coordination Sequence:
#
# PCOD9397823 Si02
#       7
#     8   8   8   8   8   8   8
#     4  11  23  42  74  94 120 183 227 273 345 393
#     4  12  25  42  67 100 138 180 220 280 352 405
#     4  11  21  34  54  90 134 173 207 257 322 387
#     4  11  20  38  68  98 137 175 213 271 330 415
#     4  12  21  40  65  98 137 169 217 272 341 411
#     4  11  25  47  66  93 129 172 236 287 322 394
#     4  11  19  40  69  97 131 171 220 272 334 411
#
# _framework density 20.431502999999999
#
# number of rings (size 3 to 8) (size 9 to 14) (size 15 to 20)
#    0.000    0.714    7.143    1.286    0.000    2.857 
#    0.000    7.857    0.000    1.286    0.000    0.000 
#    0.000    0.000    0.000    0.000    0.000    0.000 
#
# Total GULP energy -312448.610347 kJ/mol
# GULP energy per Si atom -5579.439470 kJ/mol
# Density = 2.038500 g / cm^3
# Si number density = 20.431503 Si / 1000 Ang^3
#
#
#
# Elastic Constant Matrix: (Units=GPa)
#
#
# Indices 1 2 3 4 5 6 
#
# 1 99.5688 24.8908 35.2726 0.0000 0.0000 0.0000
# 2 24.8908 96.5187 17.0967 0.0000 0.0000 0.0000
# 3 35.2726 17.0967 96.4476 0.0000 0.0000 0.0000
# 4 0.0000 0.0000 0.0000 -39.2715 0.0000 0.0000
# 5 0.0000 0.0000 0.0000 0.0000 2.9590 0.0000
# 6 0.0000 0.0000 0.0000 0.0000 0.0000 20.7709
#
#
#
# Elastic Compliance Matrix: (Units=1/GPa)
#
#
# Indices 1 2 3 4 5 6 
#
# 1 0.012055 -0.002403 -0.003983 0.000000 0.000000 0.000000
# 2 -0.002403 0.011176 -0.001102 0.000000 0.000000 0.000000
# 3 -0.003983 -0.001102 0.012020 0.000000 0.000000 0.000000
# 4 0.000000 0.000000 0.000000 -0.025464 0.000000 0.000000
# 5 0.000000 0.000000 0.000000 0.000000 0.337952 0.000000
# 6 0.000000 0.000000 0.000000 0.000000 0.000000 0.048144
#
#
# Mechanical properties :
#
#
# Convention : Reuss Voigt Hill
#
# Bulk Modulus (GPa) = 49.32274 49.67281 49.49777
# Shear Modulus (GPa) = 11.97265 11.24335 11.60800
#
# Velocity S-wave (km/s) = 2.42335 2.34838 2.38616
# Velocity P-wave (km/s) = 5.65890 5.63186 5.64539
#
# Compressibility (1/GPa) = 0.02027463
#
# Stress axis : x y z
#
# Youngs Moduli (GPa) = 82.95315 89.47994 83.19304
#
# Poissons Ratio (x) = 0.21505 0.33133
# Poissons Ratio (y) = 0.19936 0.09169
# Poissons Ratio (z) = 0.33038 0.09862
#
# Static dielectric constant tensor:
#      x y z
#    x 1.702860 0.000000 0.000000 
#    y 0.000000 2.089200 0.000000 
#    z 0.000000 0.000000 -1.482930 
# 
# From -- ./inp_files/15375.got.cif
#   From: 2010.05.17/outbox.cif.g08.bks.cpg/sg50_8_cif.got.tgz:15375.got - 2010.06.03 11:33:33.
