data_PCOD9397541
_publ_section_title
;
Structure prediction by ZEFSAII (Michael W. Deem and Ramdas Pophale) SiO2 
 PCOD9397541
Probable space group: P B A N
;
_chemical_formula_sum "Si O2"
_cell_formula_units_Z 34
_cell_length_a 9.522273
_cell_length_b 15.435517
_cell_length_c 12.015392
_cell_angle_alpha 90.000000
_cell_angle_beta 90.000000
_cell_angle_gamma 90.000000
_cell_volume 1766.036816
_symmetry_space_group_name_H-M "P B A N"
_symmetry_group_IT_number 50
_space_group.IT_coordinate_system_code '2'
_symmetry_cell_setting 'orthorhombic'
loop_
_space_group_symop_operation_xyz
x,y,z
1/2-x,1/2-y,z
x,1/2-y,-z
1/2-x,y,-z
-x,-y,-z
1/2+x,1/2+y,-z
-x,1/2+y,z
1/2+x,-y,z
loop_
_atom_site_type_symbol
_atom_site_label
_atom_site_fract_x
_atom_site_fract_y
_atom_site_fract_z
Si Si1 0.420443 0.850564 0.005665
Si Si2 0.019324 0.768311 0.619885
Si Si3 0.376870 0.572607 0.759665
Si Si4 0.750000 0.750000 0.500000
Si Si5 0.954697 0.407043 0.235587
O O1 0.484880 0.892363 0.895458
O O2 0.464105 0.750000 0.000000
O O3 0.250000 0.850208 0.000000
O O4 0.445210 0.899801 0.121180
O O5 0.086999 0.750000 0.500000
O O6 0.091576 0.846292 0.681675
O O7 0.023138 0.681967 0.695643
O O8 0.860450 0.795530 0.582936
O O9 0.447891 0.483966 0.721109
O O10 0.208783 0.565811 0.763078
#
# Coordination Sequence:
#
# PCOD9397541 Si02
#       5
#     8   8   8   2   8
#     4   9  17  36  61  90 125 162 201 244 305 364
#     4  10  23  43  64  85 122 162 206 253 312 357
#     4  11  23  38  65  93 126 164 204 252 302 368
#     4   8  24  44  66  86 124 158 202 276 294 368
#     4  11  23  38  65  93 126 164 204 252 302 368
#
# _framework density 19.252146
#
# number of rings (size 3 to 8) (size 9 to 14) (size 15 to 20)
#    0.706    1.176    2.353    1.412    3.294    2.824 
#    0.000    0.000    0.000    2.824    0.000    0.000 
#    0.000    0.000    0.000    0.000    0.000    0.000 
#
# Total GULP energy -189376.660950 kJ/mol
# GULP energy per Si atom -5569.901793 kJ/mol
# Density = 1.920833 g / cm^3
# Si number density = 19.252146 Si / 1000 Ang^3
#
#
#
# Elastic Constant Matrix: (Units=GPa)
#
#
# Indices 1 2 3 4 5 6 
#
# 1 64.4914 22.3408 8.4148 0.0000 0.0000 0.0000
# 2 22.3408 115.3229 28.2250 0.0000 0.0000 0.0000
# 3 8.4148 28.2250 103.1896 0.0000 0.0000 0.0000
# 4 0.0000 0.0000 0.0000 -5.7871 0.0000 0.0000
# 5 0.0000 0.0000 0.0000 0.0000 27.0368 0.0000
# 6 0.0000 0.0000 0.0000 0.0000 0.0000 21.4956
#
#
#
# Elastic Compliance Matrix: (Units=1/GPa)
#
#
# Indices 1 2 3 4 5 6 
#
# 1 0.016646 -0.003100 -0.000510 0.000000 0.000000 0.000000
# 2 -0.003100 0.009871 -0.002447 0.000000 0.000000 0.000000
# 3 -0.000510 -0.002447 0.010402 0.000000 0.000000 0.000000
# 4 0.000000 0.000000 0.000000 -0.172799 0.000000 0.000000
# 5 0.000000 0.000000 0.000000 0.000000 0.036987 0.000000
# 6 0.000000 0.000000 0.000000 0.000000 0.000000 0.046521
#
#
# Mechanical properties :
#
#
# Convention : Reuss Voigt Hill
#
# Bulk Modulus (GPa) = 40.31364 44.55168 42.43266
# Shear Modulus (GPa) = -156.29992 23.48394 -66.40799
#
# Velocity S-wave (km/s) = -9.02009 3.49637 -5.87951
# Velocity P-wave (km/s) = 9.35400 6.28417 4.89931
#
# Compressibility (1/GPa) = 0.02480550
#
# Stress axis : x y z
#
# Youngs Moduli (GPa) = 60.07328 101.30900 96.13728
#
# Poissons Ratio (x) = 0.31407 0.04898
# Poissons Ratio (y) = 0.18623 0.23526
# Poissons Ratio (z) = 0.03061 0.24791
#
# Static dielectric constant tensor:
#      x y z
#    x 1.686910 0.000000 0.000000 
#    y 0.000000 1.662310 0.000000 
#    z 0.000000 0.000000 1.701400 
# 
# From -- ./inp_files/19960.got.cif
#   From: 2010.05.17/outbox.cif.g08.bks.cpg/sg50_10_cif.got.tgz:19960.got - 2010.06.03 11:33:33.
