data_PCOD9397583
_publ_section_title
;
Structure prediction by ZEFSAII (Michael W. Deem and Ramdas Pophale) SiO2 
 PCOD9397583
Probable space group: P B A N
;
_chemical_formula_sum "Si O2"
_cell_formula_units_Z 26
_cell_length_a 9.422246
_cell_length_b 13.979497
_cell_length_c 7.426105
_cell_angle_alpha 90.000000
_cell_angle_beta 90.000000
_cell_angle_gamma 90.000000
_cell_volume 978.153627
_symmetry_space_group_name_H-M "P B A N"
_symmetry_group_IT_number 50
_space_group.IT_coordinate_system_code '2'
_symmetry_cell_setting 'orthorhombic'
loop_
_space_group_symop_operation_xyz
x,y,z
1/2-x,1/2-y,z
x,1/2-y,-z
1/2-x,y,-z
-x,-y,-z
1/2+x,1/2+y,-z
-x,1/2+y,z
1/2+x,-y,z
loop_
_atom_site_type_symbol
_atom_site_label
_atom_site_fract_x
_atom_site_fract_y
_atom_site_fract_z
Si Si1 0.671200 0.498472 0.172493
Si Si2 0.427453 0.620913 0.324827
Si Si3 0.489478 0.828036 0.277686
Si Si4 0.750000 0.750000 0.500000
O O1 0.578497 0.572446 0.283440
O O2 0.558887 0.410121 0.138516
O O3 0.804692 0.449495 0.267314
O O4 0.750000 0.542372 0.000000
O O5 0.428456 0.724157 0.229605
O O6 0.583818 0.360728 0.463679
O O7 0.646971 0.807971 0.360508
#
# Coordination Sequence:
#
# PCOD9397583 Si02
#       4
#     8   8   8   2
#     4  12  25  43  72 108 148 191 240 304 379 441
#     4  10  24  44  69 102 143 192 250 299 359 439
#     4  10  23  44  73  96 146 190 249 294 366 428
#     4   8  20  40  70 106 128 190 262 306 352 416
#
# _framework density 26.580693
#
# number of rings (size 3 to 8) (size 9 to 14) (size 15 to 20)
#    0.000    1.846    0.000    3.692    8.615    7.385 
#    0.000    0.000    0.000    0.000    0.000    0.000 
#    0.000    0.000    0.000    0.000    0.000    0.000 
#
# Total GULP energy -145450.725124 kJ/mol
# GULP energy per Si atom -5594.258659 kJ/mol
# Density = 2.652019 g / cm^3
# Si number density = 26.580693 Si / 1000 Ang^3
#
#
#
# Elastic Constant Matrix: (Units=GPa)
#
#
# Indices 1 2 3 4 5 6 
#
# 1 186.9901 28.6708 22.3364 0.0000 0.0000 0.0000
# 2 28.6708 119.5778 17.3881 0.0000 0.0000 0.0000
# 3 22.3364 17.3881 46.7533 0.0000 0.0000 0.0000
# 4 0.0000 0.0000 0.0000 23.6902 0.0000 0.0000
# 5 0.0000 0.0000 0.0000 0.0000 37.9557 0.0000
# 6 0.0000 0.0000 0.0000 0.0000 0.0000 58.0144
#
#
#
# Elastic Compliance Matrix: (Units=1/GPa)
#
#
# Indices 1 2 3 4 5 6 
#
# 1 0.005792 -0.001043 -0.002379 0.000000 0.000000 0.000000
# 2 -0.001043 0.009029 -0.002860 0.000000 0.000000 0.000000
# 3 -0.002379 -0.002860 0.023589 0.000000 0.000000 0.000000
# 4 0.000000 0.000000 0.000000 0.042212 0.000000 0.000000
# 5 0.000000 0.000000 0.000000 0.000000 0.026347 0.000000
# 6 0.000000 0.000000 0.000000 0.000000 0.000000 0.017237
#
#
# Mechanical properties :
#
#
# Convention : Reuss Voigt Hill
#
# Bulk Modulus (GPa) = 38.69032 54.45688 46.57360
# Shear Modulus (GPa) = 34.39173 42.92711 38.65942
#
# Velocity S-wave (km/s) = 3.60093 4.02303 3.81782
# Velocity P-wave (km/s) = 5.64591 6.48934 6.08227
#
# Compressibility (1/GPa) = 0.02584626
#
# Stress axis : x y z
#
# Youngs Moduli (GPa) = 172.65275 110.75906 42.39237
#
# Poissons Ratio (x) = 0.11549 0.10086
# Poissons Ratio (y) = 0.18003 0.12123
# Poissons Ratio (z) = 0.41079 0.31674
#
# Static dielectric constant tensor:
#      x y z
#    x 2.144490 0.000000 0.000000 
#    y 0.000000 2.121620 0.000000 
#    z 0.000000 0.000000 2.188850 
# 
# From -- ./inp_files/18151.got.cif
#   From: 2010.05.17/outbox.cif.g08.bks.cpg/sg50_10_cif.got.tgz:18151.got - 2010.06.03 11:33:33.
