data_PCOD9397798
_publ_section_title
;
Structure prediction by ZEFSAII (Michael W. Deem and Ramdas Pophale) SiO2 
 PCOD9397798
Probable space group: P B A N
;
_chemical_formula_sum "Si O2"
_cell_formula_units_Z 40
_cell_length_a 10.891462
_cell_length_b 30.564757
_cell_length_c 4.965609
_cell_angle_alpha 90.000000
_cell_angle_beta 90.000000
_cell_angle_gamma 90.000000
_cell_volume 1653.025859
_symmetry_space_group_name_H-M "P B A N"
_symmetry_group_IT_number 50
_space_group.IT_coordinate_system_code '2'
_symmetry_cell_setting 'orthorhombic'
loop_
_space_group_symop_operation_xyz
x,y,z
1/2-x,1/2-y,z
x,1/2-y,-z
1/2-x,y,-z
-x,-y,-z
1/2+x,1/2+y,-z
-x,1/2+y,z
1/2+x,-y,z
loop_
_atom_site_type_symbol
_atom_site_label
_atom_site_fract_x
_atom_site_fract_y
_atom_site_fract_z
Si Si1 0.671721 0.371605 0.772311
Si Si2 0.619742 0.662794 0.643416
Si Si3 0.625093 0.496769 0.175644
Si Si4 0.517076 0.572268 0.499328
Si Si5 0.999751 0.297227 0.130108
O O1 0.750000 0.365961 0.500000
O O2 0.552787 0.401023 0.730029
O O3 0.622146 0.326289 0.892563
O O4 0.750000 0.394059 0.000000
O O5 0.750000 0.663043 0.500000
O O6 0.575827 0.612322 0.662165
O O7 0.538104 0.693425 0.440545
O O8 0.604877 0.682344 0.938707
O O9 0.614345 0.538473 0.375966
O O10 0.591820 0.454791 0.356922
O O11 0.750000 0.496739 0.000000
O O12 0.500000 0.500000 0.000000
O O13 0.979898 0.250000 0.000000
#
# Coordination Sequence:
#
# PCOD9397798 Si02
#       5
#     8   8   8   8   8
#     4  11  25  44  74 102 140 194 240 297 371 438
#     4  11  25  43  74 103 141 194 237 300 372 445
#     4  11  28  46  73 106 148 196 246 313 372 434
#     4  10  27  44  67 106 142 186 248 303 363 450
#     4  11  25  46  68 107 145 183 243 303 366 447
#
# _framework density 24.198048
#
# number of rings (size 3 to 8) (size 9 to 14) (size 15 to 20)
#    0.000    1.200    0.000    3.600   14.000    4.400 
#    0.000    3.000    0.000    0.000    0.000    0.000 
#    0.000    0.000    0.000    0.000    0.000    0.000 
#
# Total GULP energy -223659.522556 kJ/mol
# GULP energy per Si atom -5591.488064 kJ/mol
# Density = 2.414297 g / cm^3
# Si number density = 24.198048 Si / 1000 Ang^3
#
#
#
# Elastic Constant Matrix: (Units=GPa)
#
#
# Indices 1 2 3 4 5 6 
#
# 1 125.9827 31.8823 30.0597 0.0000 0.0000 0.0000
# 2 31.8823 173.5810 34.4306 0.0000 0.0000 0.0000
# 3 30.0597 34.4306 107.5837 0.0000 0.0000 0.0000
# 4 0.0000 0.0000 0.0000 -3.9296 0.0000 0.0000
# 5 0.0000 0.0000 0.0000 0.0000 50.1311 0.0000
# 6 0.0000 0.0000 0.0000 0.0000 0.0000 -16.7691
#
#
#
# Elastic Compliance Matrix: (Units=1/GPa)
#
#
# Indices 1 2 3 4 5 6 
#
# 1 0.008731 -0.001196 -0.002057 0.000000 0.000000 0.000000
# 2 -0.001196 0.006315 -0.001687 0.000000 0.000000 0.000000
# 3 -0.002057 -0.001687 0.010410 0.000000 0.000000 0.000000
# 4 0.000000 0.000000 0.000000 -0.254478 0.000000 0.000000
# 5 0.000000 0.000000 0.000000 0.000000 0.019948 0.000000
# 6 0.000000 0.000000 0.000000 0.000000 0.000000 -0.059634
#
#
# Mechanical properties :
#
#
# Convention : Reuss Voigt Hill
#
# Bulk Modulus (GPa) = 64.19792 66.65473 65.42633
# Shear Modulus (GPa) = -19.71326 26.60481 3.44577
#
# Velocity S-wave (km/s) = -2.85733 3.31941 1.19460
# Velocity P-wave (km/s) = 3.96258 6.50358 5.38510
#
# Compressibility (1/GPa) = 0.01557683
#
# Stress axis : x y z
#
# Youngs Moduli (GPa) = 114.53515 158.34707 96.06433
#
# Poissons Ratio (x) = 0.18933 0.19759
# Poissons Ratio (y) = 0.13695 0.16206
# Poissons Ratio (z) = 0.23558 0.26714
#
# Static dielectric constant tensor:
#      x y z
#    x 1.743470 0.000000 0.000000 
#    y 0.000000 1.997100 0.000000 
#    z 0.000000 0.000000 2.007850 
# 
# From -- ./inp_files/2546.got.cif
#   From: 2010.05.17/outbox.cif.g08.bks.cpg/sg50_2_cif.got.tgz:2546.got - 2010.06.03 11:33:33.
