data_PCOD9397489
_publ_section_title
;
Structure prediction by ZEFSAII (Michael W. Deem and Ramdas Pophale) SiO2 
 PCOD9397489
Probable space group: P B A N
;
_chemical_formula_sum "Si O2"
_cell_formula_units_Z 58
_cell_length_a 8.077194
_cell_length_b 27.339132
_cell_length_c 11.550614
_cell_angle_alpha 90.000000
_cell_angle_beta 90.000000
_cell_angle_gamma 90.000000
_cell_volume 2550.646698
_symmetry_space_group_name_H-M "P B A N"
_symmetry_group_IT_number 50
_space_group.IT_coordinate_system_code '2'
_symmetry_cell_setting 'orthorhombic'
loop_
_space_group_symop_operation_xyz
x,y,z
1/2-x,1/2-y,z
x,1/2-y,-z
1/2-x,y,-z
-x,-y,-z
1/2+x,1/2+y,-z
-x,1/2+y,z
1/2+x,-y,z
loop_
_atom_site_type_symbol
_atom_site_label
_atom_site_fract_x
_atom_site_fract_y
_atom_site_fract_z
Si Si1 0.550722 0.756462 0.365825
Si Si2 0.193597 0.570209 0.374864
Si Si3 0.018457 0.690957 0.839624
Si Si4 0.632839 0.338837 0.210518
Si Si5 0.026430 0.073053 0.088434
Si Si6 0.406416 0.080503 0.153672
Si Si7 0.250000 0.250000 0.000000
Si Si8 0.021907 0.999395 0.295560
O O1 0.750000 0.750000 0.363243
O O2 0.498340 0.750000 0.500000
O O3 0.486096 0.712294 0.289184
O O4 0.479665 0.803331 0.292166
O O5 0.250000 0.585558 0.500000
O O6 0.197418 0.617301 0.293400
O O7 0.303402 0.525511 0.324458
O O8 0.019060 0.541669 0.387050
O O9 0.218338 0.688602 0.856895
O O10 0.955413 0.636073 0.835497
O O11 0.882916 0.719967 0.919203
O O12 0.536102 0.372170 0.117368
O O13 0.220140 0.076097 0.113376
O O14 0.979579 0.030818 0.178725
O O15 0.985046 0.061210 0.955664
O O16 0.425147 0.050860 0.270878
#
# Coordination Sequence:
#
# PCOD9397489 Si02
#       8
#     8   8   8   8   8   8   2   8
#     4  11  26  50  77 104 144 194 254 309 377 442
#     4  11  24  43  69 100 141 184 237 298 361 427
#     4  12  26  47  75 103 145 192 239 305 371 444
#     4  11  26  46  71 108 146 183 248 306 365 443
#     4  10  23  41  66 100 140 182 229 289 355 433
#     4  11  22  41  69  93 140 186 227 286 365 429
#     4  12  28  52  76 104 154 192 244 310 378 456
#     4  11  21  43  64  98 135 180 234 284 350 440
#
# _framework density 22.739331
#
# number of rings (size 3 to 8) (size 9 to 14) (size 15 to 20)
#    0.000    0.966    3.448    2.897    3.862    1.103 
#    2.483    0.000    0.000    0.000    0.000    0.000 
#    0.000    0.000    0.000    0.000    0.000    0.000 
#
# Total GULP energy -323031.423729 kJ/mol
# GULP energy per Si atom -5569.507306 kJ/mol
# Density = 2.268757 g / cm^3
# Si number density = 22.739331 Si / 1000 Ang^3
#
#
#
# Elastic Constant Matrix: (Units=GPa)
#
#
# Indices 1 2 3 4 5 6 
#
# 1 68.4717 13.2796 11.6280 0.0000 0.0000 0.0000
# 2 13.2796 71.9148 17.9773 0.0000 0.0000 0.0000
# 3 11.6280 17.9773 70.0450 0.0000 0.0000 0.0000
# 4 0.0000 0.0000 0.0000 16.3175 0.0000 0.0000
# 5 0.0000 0.0000 0.0000 0.0000 21.2943 0.0000
# 6 0.0000 0.0000 0.0000 0.0000 0.0000 44.6133
#
#
#
# Elastic Compliance Matrix: (Units=1/GPa)
#
#
# Indices 1 2 3 4 5 6 
#
# 1 0.015393 -0.002355 -0.001951 0.000000 0.000000 0.000000
# 2 -0.002355 0.015219 -0.003515 0.000000 0.000000 0.000000
# 3 -0.001951 -0.003515 0.015503 0.000000 0.000000 0.000000
# 4 0.000000 0.000000 0.000000 0.061284 0.000000 0.000000
# 5 0.000000 0.000000 0.000000 0.000000 0.046961 0.000000
# 6 0.000000 0.000000 0.000000 0.000000 0.000000 0.022415
#
#
# Mechanical properties :
#
#
# Convention : Reuss Voigt Hill
#
# Bulk Modulus (GPa) = 32.81636 32.91126 32.86381
# Shear Modulus (GPa) = 24.68252 27.61479 26.14866
#
# Velocity S-wave (km/s) = 3.29820 3.48861 3.39474
# Velocity P-wave (km/s) = 5.38210 5.54364 5.46347
#
# Compressibility (1/GPa) = 0.03047261
#
# Stress axis : x y z
#
# Youngs Moduli (GPa) = 64.96644 65.70803 64.50548
#
# Poissons Ratio (x) = 0.15472 0.12585
# Poissons Ratio (y) = 0.15297 0.22674
# Poissons Ratio (z) = 0.12675 0.23097
#
# Static dielectric constant tensor:
#      x y z
#    x 1.979350 0.000000 0.000000 
#    y 0.000000 1.841820 0.000000 
#    z 0.000000 0.000000 1.922360 
# 
# From -- ./inp_files/19400.got.cif
#   From: 2010.05.17/outbox.cif.g08.bks.cpg/sg50_10_cif.got.tgz:19400.got - 2010.06.03 11:33:33.
