data_PCOD9397736
_publ_section_title
;
Structure prediction by ZEFSAII (Michael W. Deem and Ramdas Pophale) SiO2 
 PCOD9397736
Probable space group: P B A N
;
_chemical_formula_sum "Si O2"
_cell_formula_units_Z 64
_cell_length_a 14.635719
_cell_length_b 18.352024
_cell_length_c 11.093204
_cell_angle_alpha 90.000000
_cell_angle_beta 90.000000
_cell_angle_gamma 90.000000
_cell_volume 2979.579864
_symmetry_space_group_name_H-M "P B A N"
_symmetry_group_IT_number 50
_space_group.IT_coordinate_system_code '2'
_symmetry_cell_setting 'orthorhombic'
loop_
_space_group_symop_operation_xyz
x,y,z
1/2-x,1/2-y,z
x,1/2-y,-z
1/2-x,y,-z
-x,-y,-z
1/2+x,1/2+y,-z
-x,1/2+y,z
1/2+x,-y,z
loop_
_atom_site_type_symbol
_atom_site_label
_atom_site_fract_x
_atom_site_fract_y
_atom_site_fract_z
Si Si1 0.952820 0.169043 0.283254
Si Si2 0.958526 0.669374 0.724409
Si Si3 0.640387 0.167836 0.975219
Si Si4 0.145196 0.336026 0.020739
Si Si5 0.797928 0.588161 0.629122
Si Si6 0.876658 0.418629 0.212069
Si Si7 0.120697 0.090324 0.220367
Si Si8 0.702575 0.419382 0.370848
O O1 0.899505 0.152402 0.156606
O O2 0.875352 0.141986 0.374708
O O3 0.995320 0.250541 0.282419
O O4 0.039526 0.117542 0.304020
O O5 0.906408 0.654725 0.852801
O O6 0.879408 0.646291 0.632414
O O7 0.041796 0.613976 0.710242
O O8 0.607877 0.250000 0.000000
O O9 0.750000 0.167786 0.000000
O O10 0.608248 0.113965 0.079417
O O11 0.146781 0.250000 0.000000
O O12 0.250000 0.362542 0.000000
O O13 0.097478 0.373266 0.907468
O O14 0.750000 0.587236 0.500000
O O15 0.719375 0.610548 0.725365
O O16 0.828022 0.503759 0.656573
O O17 0.879930 0.504617 0.207726
O O18 0.779649 0.398790 0.271840
O O19 0.750000 0.422723 0.500000
#
# Coordination Sequence:
#
# PCOD9397736 Si02
#       8
#     8   8   8   8   8   8   8   8
#     4  12  24  41  70 101 137 179 224 284 347 412
#     4  12  24  41  70 101 137 179 224 284 347 412
#     4  11  22  40  66  92 138 185 214 270 350 421
#     4  11  22  40  66  92 138 185 214 270 350 421
#     4  10  24  48  72  96 136 186 235 288 343 398
#     4  11  24  41  67 101 133 178 232 282 339 412
#     4  11  24  41  67 101 133 178 232 282 339 412
#     4  10  24  48  72  96 136 186 235 288 343 398
#
# _framework density 21.479538000000002
#
# number of rings (size 3 to 8) (size 9 to 14) (size 15 to 20)
#    0.000    1.000    5.000    1.500    0.000    5.500 
#    0.000    7.500    0.000    0.000    0.000    0.000 
#    0.000    0.000    0.000    0.000    0.000    0.000 
#
# Total GULP energy -357151.349936 kJ/mol
# GULP energy per Si atom -5580.489843 kJ/mol
# Density = 2.143065 g / cm^3
# Si number density = 21.479538 Si / 1000 Ang^3
#
#
#
# Elastic Constant Matrix: (Units=GPa)
#
#
# Indices 1 2 3 4 5 6 
#
# 1 126.5159 68.9611 17.2452 0.0000 0.0000 0.0000
# 2 68.9611 60.1680 28.4337 0.0000 0.0000 0.0000
# 3 17.2452 28.4337 49.2957 0.0000 0.0000 0.0000
# 4 0.0000 0.0000 0.0000 23.2421 0.0000 0.0000
# 5 0.0000 0.0000 0.0000 0.0000 22.6811 0.0000
# 6 0.0000 0.0000 0.0000 0.0000 0.0000 37.0610
#
#
#
# Elastic Compliance Matrix: (Units=1/GPa)
#
#
# Indices 1 2 3 4 5 6 
#
# 1 0.024443 -0.032958 0.010459 0.000000 0.000000 0.000000
# 2 -0.032958 0.067288 -0.027282 0.000000 0.000000 0.000000
# 3 0.010459 -0.027282 0.032363 0.000000 0.000000 0.000000
# 4 0.000000 0.000000 0.000000 0.043025 0.000000 0.000000
# 5 0.000000 0.000000 0.000000 0.000000 0.044090 0.000000
# 6 0.000000 0.000000 0.000000 0.000000 0.000000 0.026983
#
#
# Mechanical properties :
#
#
# Convention : Reuss Voigt Hill
#
# Bulk Modulus (GPa) = 40.76233 51.69550 46.22892
# Shear Modulus (GPa) = 14.45380 24.68615 19.56998
#
# Velocity S-wave (km/s) = 2.59687 3.39379 3.02172
# Velocity P-wave (km/s) = 5.29246 6.28305 5.80891
#
# Compressibility (1/GPa) = 0.02453245
#
# Stress axis : x y z
#
# Youngs Moduli (GPa) = 40.91098 14.86159 30.89974
#
# Poissons Ratio (x) = 0.48981 -0.32319
# Poissons Ratio (y) = 1.34836 0.84299
# Poissons Ratio (z) = -0.42790 0.40545
#
# Static dielectric constant tensor:
#      x y z
#    x 1.873940 0.000000 0.000000 
#    y 0.000000 1.759260 0.000000 
#    z 0.000000 0.000000 1.845580 
# 
# From -- ./inp_files/21331.got.cif
#   From: 2010.05.17/outbox.cif.g08.bks.cpg/sg50_11_cif.got.tgz:21331.got - 2010.06.03 11:33:33.
