data_PCOD9397742
_publ_section_title
;
Structure prediction by ZEFSAII (Michael W. Deem and Ramdas Pophale) SiO2 
 PCOD9397742
Probable space group: P B A N
;
_chemical_formula_sum "Si O2"
_cell_formula_units_Z 22
_cell_length_a 5.087641
_cell_length_b 33.352253
_cell_length_c 5.203369
_cell_angle_alpha 90.000000
_cell_angle_beta 90.000000
_cell_angle_gamma 90.000000
_cell_volume 882.929973
_symmetry_space_group_name_H-M "P B A N"
_symmetry_group_IT_number 50
_space_group.IT_coordinate_system_code '2'
_symmetry_cell_setting 'orthorhombic'
loop_
_space_group_symop_operation_xyz
x,y,z
1/2-x,1/2-y,z
x,1/2-y,-z
1/2-x,y,-z
-x,-y,-z
1/2+x,1/2+y,-z
-x,1/2+y,z
1/2+x,-y,z
loop_
_atom_site_type_symbol
_atom_site_label
_atom_site_fract_x
_atom_site_fract_y
_atom_site_fract_z
Si Si1 0.250000 0.029125 0.000000
Si Si2 0.750000 0.750000 0.500000
Si Si3 0.061846 0.907419 0.252381
Si Si4 0.571582 0.181493 0.249413
O O1 0.167759 0.060047 0.775294
O O2 0.500000 0.000000 0.000000
O O3 0.602207 0.780234 0.691015
O O4 0.250000 0.912432 0.500000
O O5 0.942229 0.862501 0.239775
O O6 0.250000 0.911317 0.000000
O O7 0.750000 0.178884 0.500000
O O8 0.750000 0.186832 0.000000
#
# Coordination Sequence:
#
# PCOD9397742 Si02
#       4
#     4   2   8   8
#     4  12  26  50  80 119 152 203 262 324 390 472
#     4  12  26  46  76 116 152 206 258 322 388 456
#     4  10  24  49  76 108 153 203 254 319 394 464
#     4  10  25  47  73 108 151 200 257 315 384 468
#
# _framework density 24.917037000000001
#
# number of rings (size 3 to 8) (size 9 to 14) (size 15 to 20)
#    0.000    1.455    1.818    0.545    0.000   17.455 
#    0.000    3.636    0.000    0.000    0.000    0.000 
#    0.000    0.000    0.000    0.000    0.000    0.000 
#
# Total GULP energy -123119.895533 kJ/mol
# GULP energy per Si atom -5596.358888 kJ/mol
# Density = 2.486033 g / cm^3
# Si number density = 24.917037 Si / 1000 Ang^3
#
#
#
# Elastic Constant Matrix: (Units=GPa)
#
#
# Indices 1 2 3 4 5 6 
#
# 1 129.7148 116.1400 65.6073 0.0000 0.0000 0.0000
# 2 116.1400 291.2443 68.7451 0.0000 0.0000 0.0000
# 3 65.6073 68.7451 215.6913 0.0000 0.0000 0.0000
# 4 0.0000 0.0000 0.0000 44.4884 0.0000 0.0000
# 5 0.0000 0.0000 0.0000 0.0000 48.7596 0.0000
# 6 0.0000 0.0000 0.0000 0.0000 0.0000 132.4720
#
#
#
# Elastic Compliance Matrix: (Units=1/GPa)
#
#
# Indices 1 2 3 4 5 6 
#
# 1 0.013143 -0.004647 -0.002517 0.000000 0.000000 0.000000
# 2 -0.004647 0.005356 -0.000294 0.000000 0.000000 0.000000
# 3 -0.002517 -0.000294 0.005495 0.000000 0.000000 0.000000
# 4 0.000000 0.000000 0.000000 0.022478 0.000000 0.000000
# 5 0.000000 0.000000 0.000000 0.000000 0.020509 0.000000
# 6 0.000000 0.000000 0.000000 0.000000 0.000000 0.007549
#
#
# Mechanical properties :
#
#
# Convention : Reuss Voigt Hill
#
# Bulk Modulus (GPa) = 110.13522 126.40391 118.26956
# Shear Modulus (GPa) = 54.07171 70.88788 62.47979
#
# Velocity S-wave (km/s) = 4.66345 5.33960 5.01294
# Velocity P-wave (km/s) = 8.56118 9.42630 9.00414
#
# Compressibility (1/GPa) = 0.00907975
#
# Stress axis : x y z
#
# Youngs Moduli (GPa) = 76.08817 186.71025 181.97400
#
# Poissons Ratio (x) = 0.86763 0.45795
# Poissons Ratio (y) = 0.35357 0.05342
# Poissons Ratio (z) = 0.19148 0.05481
#
# Static dielectric constant tensor:
#      x y z
#    x 2.017680 0.000000 0.000000 
#    y 0.000000 2.032610 0.000000 
#    z 0.000000 0.000000 1.940070 
# 
# From -- ./inp_files/447.got.cif
#   From: 2010.05.17/outbox.cif.g08.bks.cpg/sg50_1_cif.got.tgz:447.got - 2010.06.03 11:33:33.
