data_PCOD9397103
_publ_section_title
;
Structure prediction by ZEFSAII (Michael W. Deem and Ramdas Pophale) SiO2 
 PCOD9397103
Probable space group: P B A N
;
_chemical_formula_sum "Si O2"
_cell_formula_units_Z 30
_cell_length_a 5.619877
_cell_length_b 30.257286
_cell_length_c 7.683838
_cell_angle_alpha 90.000000
_cell_angle_beta 90.000000
_cell_angle_gamma 90.000000
_cell_volume 1306.576915
_symmetry_space_group_name_H-M "P B A N"
_symmetry_group_IT_number 50
_space_group.IT_coordinate_system_code '2'
_symmetry_cell_setting 'orthorhombic'
loop_
_space_group_symop_operation_xyz
x,y,z
1/2-x,1/2-y,z
x,1/2-y,-z
1/2-x,y,-z
-x,-y,-z
1/2+x,1/2+y,-z
-x,1/2+y,z
1/2+x,-y,z
loop_
_atom_site_type_symbol
_atom_site_label
_atom_site_fract_x
_atom_site_fract_y
_atom_site_fract_z
Si Si1 0.250000 0.250000 0.000000
Si Si2 0.602693 0.205772 0.738999
Si Si3 0.867130 0.119690 0.694000
Si Si4 0.750000 0.840325 0.500000
Si Si5 0.742846 0.477798 0.713291
O O1 0.414239 0.218830 0.884277
O O2 0.750000 0.250000 0.711118
O O3 0.761618 0.163164 0.783807
O O4 0.455425 0.191059 0.570286
O O5 0.750000 0.117771 0.500000
O O6 0.805637 0.072545 0.772192
O O7 0.144027 0.129019 0.652217
O O8 0.750000 0.478895 0.500000
O O9 0.505259 0.505085 0.766847
#
# Coordination Sequence:
#
# PCOD9397103 Si02
#       5
#     2   8   8   4   8
#     4  12  26  42  60  78 116 158 202 252 304 364
#     4  11  24  40  58  86 117 155 201 247 303 366
#     4   9  20  33  53  83 119 155 199 239 299 360
#     4  10  22  37  60  86 120 158 192 248 303 364
#     4   9  18  29  50  80 121 161 197 244 300 357
#
# _framework density 22.960757999999998
#
# number of rings (size 3 to 8) (size 9 to 14) (size 15 to 20)
#    0.000    2.133    0.000    2.000   13.067   12.800 
#    0.000    0.000    0.000    0.000    0.000    1.867 
#    0.000    0.000    0.000    0.000    0.000    0.000 
#
# Total GULP energy -167624.503641 kJ/mol
# GULP energy per Si atom -5587.483455 kJ/mol
# Density = 2.290850 g / cm^3
# Si number density = 22.960758 Si / 1000 Ang^3
#
#
#
# Elastic Constant Matrix: (Units=GPa)
#
#
# Indices 1 2 3 4 5 6 
#
# 1 155.6201 106.0838 13.0097 0.0000 0.0000 0.0000
# 2 106.0838 227.1990 19.8307 0.0000 0.0000 0.0000
# 3 13.0097 19.8307 33.6670 0.0000 0.0000 0.0000
# 4 0.0000 0.0000 0.0000 -8.0988 0.0000 0.0000
# 5 0.0000 0.0000 0.0000 0.0000 18.4424 0.0000
# 6 0.0000 0.0000 0.0000 0.0000 0.0000 22.9473
#
#
#
# Elastic Compliance Matrix: (Units=1/GPa)
#
#
# Indices 1 2 3 4 5 6 
#
# 1 0.009465 -0.004323 -0.001112 0.000000 0.000000 0.000000
# 2 -0.004323 0.006614 -0.002225 0.000000 0.000000 0.000000
# 3 -0.001112 -0.002225 0.031443 0.000000 0.000000 0.000000
# 4 0.000000 0.000000 0.000000 -0.123475 0.000000 0.000000
# 5 0.000000 0.000000 0.000000 0.000000 0.054223 0.000000
# 6 0.000000 0.000000 0.000000 0.000000 0.000000 0.043578
#
#
# Mechanical properties :
#
#
# Convention : Reuss Voigt Hill
#
# Bulk Modulus (GPa) = 31.05269 77.14827 54.10048
# Shear Modulus (GPa) = 104.38010 25.16231 64.77120
#
# Velocity S-wave (km/s) = 6.74973 3.31400 5.31703
# Velocity P-wave (km/s) = 8.61968 6.95101 7.82992
#
# Compressibility (1/GPa) = 0.03220333
#
# Stress axis : x y z
#
# Youngs Moduli (GPa) = 105.64698 151.19475 31.80350
#
# Poissons Ratio (x) = 0.65356 0.03535
# Poissons Ratio (y) = 0.45667 0.07078
# Poissons Ratio (z) = 0.11743 0.33648
#
# Static dielectric constant tensor:
#      x y z
#    x 1.942130 0.000000 0.000000 
#    y 0.000000 2.011780 0.000000 
#    z 0.000000 0.000000 1.924800 
# 
# From -- ./inp_files/7924.got.cif
#   From: 2010.05.17/outbox.cif.g08.bks.cpg/sg50_4_cif.got.tgz:7924.got - 2010.06.03 11:33:33.
