data_PCOD9397029
_publ_section_title
;
Structure prediction by ZEFSAII (Michael W. Deem and Ramdas Pophale) SiO2 
 PCOD9397029
Probable space group: P B A N
;
_chemical_formula_sum "Si O2"
_cell_formula_units_Z 48
_cell_length_a 33.277141
_cell_length_b 8.473728
_cell_length_c 8.366666
_cell_angle_alpha 90.000000
_cell_angle_beta 90.000000
_cell_angle_gamma 90.000000
_cell_volume 2359.244539
_symmetry_space_group_name_H-M "P B A N"
_symmetry_group_IT_number 50
_space_group.IT_coordinate_system_code '2'
_symmetry_cell_setting 'orthorhombic'
loop_
_space_group_symop_operation_xyz
x,y,z
1/2-x,1/2-y,z
x,1/2-y,-z
1/2-x,y,-z
-x,-y,-z
1/2+x,1/2+y,-z
-x,1/2+y,z
1/2+x,-y,z
loop_
_atom_site_type_symbol
_atom_site_label
_atom_site_fract_x
_atom_site_fract_y
_atom_site_fract_z
Si Si1 0.959394 0.313269 0.319927
Si Si2 0.125302 0.312564 0.177539
Si Si3 0.792424 0.183354 0.810111
Si Si4 0.957806 0.811781 0.681168
Si Si5 0.291925 0.183121 0.685019
Si Si6 0.623684 0.312314 0.180314
O O1 0.960664 0.250000 0.500000
O O2 0.959685 0.500739 0.317691
O O3 0.917541 0.251543 0.252315
O O4 0.000919 0.252820 0.241209
O O5 0.083678 0.245400 0.244335
O O6 0.165810 0.254357 0.260362
O O7 0.123605 0.500258 0.184312
O O8 0.128552 0.250000 0.000000
O O9 0.750000 0.250000 0.747505
O O10 0.834397 0.252410 0.744030
O O11 0.792795 0.999178 0.752243
O O12 0.792707 0.250000 0.000000
O O13 0.956921 0.750000 0.500000
O O14 0.250000 0.250000 0.755879
O O15 0.290546 0.250000 0.500000
O O16 0.623789 0.250000 0.000000
#
# Coordination Sequence:
#
# PCOD9397029 Si02
#       6
#     8   8   8   8   8   8
#     4  11  22  39  62  89 121 164 208 258 320 393
#     4  12  24  41  66  95 126 169 217 269 328 394
#     4  10  21  42  69  98 130 174 223 274 331 399
#     4  11  22  40  62  90 123 162 210 262 322 391
#     4  11  25  45  67  99 137 177 221 275 334 398
#     4  11  23  40  60  91 126 163 210 267 323 385
#
# _framework density 20.345495
#
# number of rings (size 3 to 8) (size 9 to 14) (size 15 to 20)
#    0.000    1.000    0.000    9.500    0.000    3.667 
#    0.000    8.333    0.000    0.000    0.000    0.000 
#    0.000    0.000    0.000    0.000    0.000    0.000 
#
# Total GULP energy -267511.023089 kJ/mol
# GULP energy per Si atom -5573.146314 kJ/mol
# Density = 2.029919 g / cm^3
# Si number density = 20.345495 Si / 1000 Ang^3
#
#
#
# Elastic Constant Matrix: (Units=GPa)
#
#
# Indices 1 2 3 4 5 6 
#
# 1 269.1688 112.9482 61.2295 0.0000 0.0000 0.0000
# 2 112.9482 256.0885 38.7553 0.0000 0.0000 0.0000
# 3 61.2295 38.7553 57.4746 0.0000 0.0000 0.0000
# 4 0.0000 0.0000 0.0000 31.9103 0.0000 0.0000
# 5 0.0000 0.0000 0.0000 0.0000 16.1944 0.0000
# 6 0.0000 0.0000 0.0000 0.0000 0.0000 51.7709
#
#
#
# Elastic Compliance Matrix: (Units=1/GPa)
#
#
# Indices 1 2 3 4 5 6 
#
# 1 0.005506 -0.001716 -0.004709 0.000000 0.000000 0.000000
# 2 -0.001716 0.004883 -0.001465 0.000000 0.000000 0.000000
# 3 -0.004709 -0.001465 0.023403 0.000000 0.000000 0.000000
# 4 0.000000 0.000000 0.000000 0.031338 0.000000 0.000000
# 5 0.000000 0.000000 0.000000 0.000000 0.061750 0.000000
# 6 0.000000 0.000000 0.000000 0.000000 0.000000 0.019316
#
#
# Mechanical properties :
#
#
# Convention : Reuss Voigt Hill
#
# Bulk Modulus (GPa) = 55.51377 112.06642 83.79010
# Shear Modulus (GPa) = 29.76529 44.62839 37.19684
#
# Velocity S-wave (km/s) = 3.82906 4.68859 4.28045
# Velocity P-wave (km/s) = 6.84790 9.19303 8.10572
#
# Compressibility (1/GPa) = 0.01801355
#
# Stress axis : x y z
#
# Youngs Moduli (GPa) = 181.60739 204.77522 42.72877
#
# Poissons Ratio (x) = 0.35138 0.20121
# Poissons Ratio (y) = 0.31163 0.06259
# Poissons Ratio (z) = 0.85520 0.29996
#
# Static dielectric constant tensor:
#      x y z
#    x 1.804280 0.000000 0.000000 
#    y 0.000000 1.712280 0.000000 
#    z 0.000000 0.000000 1.824270 
# 
# From -- ./inp_files/16940.got.cif
#   From: 2010.05.17/outbox.cif.g08.bks.cpg/sg50_9_cif.got.tgz:16940.got - 2010.06.03 11:33:33.
