data_PCOD9397429
_publ_section_title
;
Structure prediction by ZEFSAII (Michael W. Deem and Ramdas Pophale) SiO2 
 PCOD9397429
Probable space group: P B A N
;
_chemical_formula_sum "Si O2"
_cell_formula_units_Z 26
_cell_length_a 5.263970
_cell_length_b 29.564098
_cell_length_c 7.723927
_cell_angle_alpha 90.000000
_cell_angle_beta 90.000000
_cell_angle_gamma 90.000000
_cell_volume 1202.032470
_symmetry_space_group_name_H-M "P B A N"
_symmetry_group_IT_number 50
_space_group.IT_coordinate_system_code '2'
_symmetry_cell_setting 'orthorhombic'
loop_
_space_group_symop_operation_xyz
x,y,z
1/2-x,1/2-y,z
x,1/2-y,-z
1/2-x,y,-z
-x,-y,-z
1/2+x,1/2+y,-z
-x,1/2+y,z
1/2+x,-y,z
loop_
_atom_site_type_symbol
_atom_site_label
_atom_site_fract_x
_atom_site_fract_y
_atom_site_fract_z
Si Si1 0.250000 0.750000 0.000000
Si Si2 0.143947 0.661429 0.178487
Si Si3 0.866738 0.881732 0.311139
Si Si4 0.512263 0.519056 0.197525
O O1 0.114760 0.714415 0.128446
O O2 0.374636 0.648389 0.308205
O O3 0.868113 0.643265 0.220668
O O4 0.250000 0.640238 0.000000
O O5 0.750000 0.891574 0.500000
O O6 0.924890 0.928611 0.214951
O O7 0.241523 0.508859 0.280064
O O8 0.500000 0.500000 0.000000
#
# Coordination Sequence:
#
# PCOD9397429 Si02
#       4
#     2   8   8   8
#     4   8  24  42  74  98 124 166 238 254 308 402
#     4  10  24  43  72  92 129 174 221 266 318 406
#     4  12  25  42  65 101 135 169 214 280 340 380
#     4  10  23  37  61  91 125 174 225 266 313 388
#
# _framework density 21.630032
#
# number of rings (size 3 to 8) (size 9 to 14) (size 15 to 20)
#    0.923    0.615    0.000    3.692   12.923    3.692 
#    0.000    4.615    0.000    0.000    0.000    0.000 
#    0.000    0.000    0.000    0.000    0.000    0.000 
#
# Total GULP energy -144878.782212 kJ/mol
# GULP energy per Si atom -5572.260854 kJ/mol
# Density = 2.158080 g / cm^3
# Si number density = 21.630032 Si / 1000 Ang^3
#
#
#
# Elastic Constant Matrix: (Units=GPa)
#
#
# Indices 1 2 3 4 5 6 
#
# 1 184.7815 77.5241 16.0966 0.0000 0.0000 0.0000
# 2 77.5241 185.4678 42.8597 0.0000 0.0000 0.0000
# 3 16.0966 42.8597 75.6671 0.0000 0.0000 0.0000
# 4 0.0000 0.0000 0.0000 -28.9304 0.0000 0.0000
# 5 0.0000 0.0000 0.0000 0.0000 19.2664 0.0000
# 6 0.0000 0.0000 0.0000 0.0000 0.0000 147.2378
#
#
#
# Elastic Compliance Matrix: (Units=1/GPa)
#
#
# Indices 1 2 3 4 5 6 
#
# 1 0.006565 -0.002786 0.000182 0.000000 0.000000 0.000000
# 2 -0.002786 0.007386 -0.003591 0.000000 0.000000 0.000000
# 3 0.000182 -0.003591 0.015211 0.000000 0.000000 0.000000
# 4 0.000000 0.000000 0.000000 -0.034566 0.000000 0.000000
# 5 0.000000 0.000000 0.000000 0.000000 0.051904 0.000000
# 6 0.000000 0.000000 0.000000 0.000000 0.000000 0.006792
#
#
# Mechanical properties :
#
#
# Convention : Reuss Voigt Hill
#
# Bulk Modulus (GPa) = 59.62608 79.87525 69.75066
# Shear Modulus (GPa) = 70.15230 48.14383 59.14806
#
# Velocity S-wave (km/s) = 5.70116 4.72294 5.23495
# Velocity P-wave (km/s) = 8.42400 8.17005 8.29800
#
# Compressibility (1/GPa) = 0.01677118
#
# Stress axis : x y z
#
# Youngs Moduli (GPa) = 152.32679 135.38857 65.74097
#
# Poissons Ratio (x) = 0.37719 -0.01193
# Poissons Ratio (y) = 0.42438 0.23608
# Poissons Ratio (z) = -0.02765 0.48618
#
# Static dielectric constant tensor:
#      x y z
#    x 1.812020 0.000000 0.000000 
#    y 0.000000 1.776180 0.000000 
#    z 0.000000 0.000000 1.849730 
# 
# From -- ./inp_files/7789.got.cif
#   From: 2010.05.17/outbox.cif.g08.bks.cpg/sg50_4_cif.got.tgz:7789.got - 2010.06.03 11:33:33.
