data_PCOD9397224
_publ_section_title
;
Structure prediction by ZEFSAII (Michael W. Deem and Ramdas Pophale) SiO2 
 PCOD9397224
Probable space group: P B A N
;
_chemical_formula_sum "Si O2"
_cell_formula_units_Z 30
_cell_length_a 15.006262
_cell_length_b 16.607756
_cell_length_c 5.397789
_cell_angle_alpha 90.000000
_cell_angle_beta 90.000000
_cell_angle_gamma 90.000000
_cell_volume 1345.238798
_symmetry_space_group_name_H-M "P B A N"
_symmetry_group_IT_number 50
_space_group.IT_coordinate_system_code '2'
_symmetry_cell_setting 'orthorhombic'
loop_
_space_group_symop_operation_xyz
x,y,z
1/2-x,1/2-y,z
x,1/2-y,-z
1/2-x,y,-z
-x,-y,-z
1/2+x,1/2+y,-z
-x,1/2+y,z
1/2+x,-y,z
loop_
_atom_site_type_symbol
_atom_site_label
_atom_site_fract_x
_atom_site_fract_y
_atom_site_fract_z
Si Si1 0.143079 0.081322 0.015113
Si Si2 0.750000 0.250000 0.000000
Si Si3 0.607180 0.317042 0.673731
Si Si4 0.048081 0.250000 0.000000
Si Si5 0.858422 0.487300 0.511816
O O1 0.106500 0.171257 0.045223
O O2 0.115683 0.034665 0.263003
O O3 0.250000 0.084675 0.000000
O O4 0.115467 0.034149 0.763180
O O5 0.679311 0.315800 0.891121
O O6 0.648830 0.250000 0.500000
O O7 0.600206 0.399116 0.523838
O O8 0.516554 0.279789 0.779575
O O9 0.750000 0.479032 0.500000
#
# Coordination Sequence:
#
# PCOD9397224 Si02
#       5
#     8   2   8   4   8
#     4  10  24  45  70  98 131 183 229 286 327 406
#     4  10  22  40  66  94 130 182 224 276 350 418
#     4  11  25  41  66  99 137 179 220 285 341 416
#     4  11  27  43  65  98 140 180 227 273 355 397
#     4  10  23  42  71  98 131 173 234 281 340 392
#
# _framework density 22.300871999999998
#
# number of rings (size 3 to 8) (size 9 to 14) (size 15 to 20)
#    0.000    1.600    0.000    2.400   16.800    2.133 
#    0.000    4.000    0.000    0.000    0.000    0.000 
#    0.000    0.000    0.000    0.000    0.000    0.000 
#
# Total GULP energy -167517.695056 kJ/mol
# GULP energy per Si atom -5583.923169 kJ/mol
# Density = 2.225011 g / cm^3
# Si number density = 22.300872 Si / 1000 Ang^3
#
#
#
# Elastic Constant Matrix: (Units=GPa)
#
#
# Indices 1 2 3 4 5 6 
#
# 1 48.8094 41.6398 30.5160 0.0000 0.0000 0.0000
# 2 41.6398 219.5808 90.8156 0.0000 0.0000 0.0000
# 3 30.5160 90.8156 137.7184 0.0000 0.0000 0.0000
# 4 0.0000 0.0000 0.0000 9.1359 0.0000 0.0000
# 5 0.0000 0.0000 0.0000 0.0000 0.3579 0.0000
# 6 0.0000 0.0000 0.0000 0.0000 0.0000 43.2703
#
#
#
# Elastic Compliance Matrix: (Units=1/GPa)
#
#
# Indices 1 2 3 4 5 6 
#
# 1 0.025544 -0.003442 -0.003390 0.000000 0.000000 0.000000
# 2 -0.003442 0.006726 -0.003672 0.000000 0.000000 0.000000
# 3 -0.003390 -0.003672 0.010434 0.000000 0.000000 0.000000
# 4 0.000000 0.000000 0.000000 0.109459 0.000000 0.000000
# 5 0.000000 0.000000 0.000000 0.000000 2.793838 0.000000
# 6 0.000000 0.000000 0.000000 0.000000 0.000000 0.023111
#
#
# Mechanical properties :
#
#
# Convention : Reuss Voigt Hill
#
# Bulk Modulus (GPa) = 46.09508 81.33905 63.71706
# Shear Modulus (GPa) = 1.66814 26.76198 14.21506
#
# Velocity S-wave (km/s) = 0.86582 3.46792 2.52746
# Velocity P-wave (km/s) = 4.65983 7.25176 6.09516
#
# Compressibility (1/GPa) = 0.02169429
#
# Stress axis : x y z
#
# Youngs Moduli (GPa) = 39.14855 148.68379 95.83855
#
# Poissons Ratio (x) = 0.51172 0.32494
# Poissons Ratio (y) = 0.13474 0.35197
# Poissons Ratio (z) = 0.13273 0.54604
#
# Static dielectric constant tensor:
#      x y z
#    x 1.873890 0.000000 0.000000 
#    y 0.000000 1.782250 0.000000 
#    z 0.000000 0.000000 1.858200 
# 
# From -- ./inp_files/2972.got.cif
#   From: 2010.05.17/outbox.cif.g08.bks.cpg/sg50_2_cif.got.tgz:2972.got - 2010.06.03 11:33:33.
