data_PCOD9397001
_publ_section_title
;
Structure prediction by ZEFSAII (Michael W. Deem and Ramdas Pophale) SiO2 
 PCOD9397001
Probable space group: P B A N
;
_chemical_formula_sum "Si O2"
_cell_formula_units_Z 40
_cell_length_a 14.914329
_cell_length_b 11.129003
_cell_length_c 10.977603
_cell_angle_alpha 90.000000
_cell_angle_beta 90.000000
_cell_angle_gamma 90.000000
_cell_volume 1822.080244
_symmetry_space_group_name_H-M "P B A N"
_symmetry_group_IT_number 50
_space_group.IT_coordinate_system_code '2'
_symmetry_cell_setting 'orthorhombic'
loop_
_space_group_symop_operation_xyz
x,y,z
1/2-x,1/2-y,z
x,1/2-y,-z
1/2-x,y,-z
-x,-y,-z
1/2+x,1/2+y,-z
-x,1/2+y,z
1/2+x,-y,z
loop_
_atom_site_type_symbol
_atom_site_label
_atom_site_fract_x
_atom_site_fract_y
_atom_site_fract_z
Si Si1 0.651587 0.520144 0.726312
Si Si2 0.179738 0.138178 0.779754
Si Si3 0.428548 0.107724 0.983791
Si Si4 0.351484 0.757834 0.647323
Si Si5 0.963286 0.786747 0.636464
O O1 0.758924 0.535079 0.720642
O O2 0.615397 0.576870 0.853123
O O3 0.620187 0.387827 0.697429
O O4 0.604441 0.603333 0.628229
O O5 0.250000 0.250000 0.785794
O O6 0.092340 0.184300 0.707972
O O7 0.146896 0.099302 0.912155
O O8 0.459237 0.250000 0.000000
O O9 0.500000 0.000000 0.000000
O O10 0.250000 0.750000 0.695509
O O11 0.343389 0.750000 0.500000
O O12 0.438019 0.679667 0.688469
O O13 0.980690 0.750000 0.500000
#
# Coordination Sequence:
#
# PCOD9397001 Si02
#       5
#     8   8   8   8   8
#     4  11  24  40  70  97 133 186 226 291 355 414
#     4  10  21  41  68  97 138 179 237 289 347 417
#     4  12  24  43  73 104 140 184 236 293 354 421
#     4  10  24  43  62  93 140 181 224 288 363 421
#     4  10  22  39  65  97 130 172 235 277 341 426
#
# _framework density 21.952929999999999
#
# number of rings (size 3 to 8) (size 9 to 14) (size 15 to 20)
#    0.000    1.400    4.000    1.800    0.000   13.200 
#    0.000    0.000    0.000    0.000    0.000    0.000 
#    0.000    0.000    0.000    0.000    0.000    0.000 
#
# Total GULP energy -222798.932877 kJ/mol
# GULP energy per Si atom -5569.973322 kJ/mol
# Density = 2.190296 g / cm^3
# Si number density = 21.952930 Si / 1000 Ang^3
#
#
#
# Elastic Constant Matrix: (Units=GPa)
#
#
# Indices 1 2 3 4 5 6 
#
# 1 158.5497 17.9813 17.1014 0.0000 0.0000 0.0000
# 2 17.9813 71.0163 6.6360 0.0000 0.0000 0.0000
# 3 17.1014 6.6360 46.0018 0.0000 0.0000 0.0000
# 4 0.0000 0.0000 0.0000 21.5133 0.0000 0.0000
# 5 0.0000 0.0000 0.0000 0.0000 -25.2159 0.0000
# 6 0.0000 0.0000 0.0000 0.0000 0.0000 30.4849
#
#
#
# Elastic Compliance Matrix: (Units=1/GPa)
#
#
# Indices 1 2 3 4 5 6 
#
# 1 0.006722 -0.001489 -0.002284 0.000000 0.000000 0.000000
# 2 -0.001489 0.014603 -0.001553 0.000000 0.000000 0.000000
# 3 -0.002284 -0.001553 0.022812 0.000000 0.000000 0.000000
# 4 0.000000 0.000000 0.000000 0.046483 0.000000 0.000000
# 5 0.000000 0.000000 0.000000 0.000000 -0.039658 0.000000
# 6 0.000000 0.000000 0.000000 0.000000 0.000000 0.032803
#
#
# Mechanical properties :
#
#
# Convention : Reuss Voigt Hill
#
# Bulk Modulus (GPa) = 29.86420 39.88948 34.87684
# Shear Modulus (GPa) = 47.35748 20.94637 34.15193
#
# Velocity S-wave (km/s) = 4.64964 3.09228 3.94850
# Velocity P-wave (km/s) = 6.51604 5.56413 6.05881
#
# Compressibility (1/GPa) = 0.03348490
#
# Stress axis : x y z
#
# Youngs Moduli (GPa) = 148.75649 68.47749 43.83740
#
# Poissons Ratio (x) = 0.10194 0.10014
# Poissons Ratio (y) = 0.22145 0.06809
# Poissons Ratio (z) = 0.33981 0.10636
#
# Static dielectric constant tensor:
#      x y z
#    x 1.850320 0.000000 0.000000 
#    y 0.000000 1.874410 0.000000 
#    z 0.000000 0.000000 1.667280 
# 
# From -- ./inp_files/20899.got.cif
#   From: 2010.05.17/outbox.cif.g08.bks.cpg/sg50_11_cif.got.tgz:20899.got - 2010.06.03 11:33:33.
