data_PCOD9397777
_publ_section_title
;
Structure prediction by ZEFSAII (Michael W. Deem and Ramdas Pophale) SiO2 
 PCOD9397777
Probable space group: P B A N
;
_chemical_formula_sum "Si O2"
_cell_formula_units_Z 48
_cell_length_a 16.844346
_cell_length_b 18.649068
_cell_length_c 5.599423
_cell_angle_alpha 90.000000
_cell_angle_beta 90.000000
_cell_angle_gamma 90.000000
_cell_volume 1758.954328
_symmetry_space_group_name_H-M "P B A N"
_symmetry_group_IT_number 50
_space_group.IT_coordinate_system_code '2'
_symmetry_cell_setting 'orthorhombic'
loop_
_space_group_symop_operation_xyz
x,y,z
1/2-x,1/2-y,z
x,1/2-y,-z
1/2-x,y,-z
-x,-y,-z
1/2+x,1/2+y,-z
-x,1/2+y,z
1/2+x,-y,z
loop_
_atom_site_type_symbol
_atom_site_label
_atom_site_fract_x
_atom_site_fract_y
_atom_site_fract_z
Si Si1 0.826758 0.653469 0.826191
Si Si2 0.029191 0.290584 0.242462
Si Si3 0.665820 0.976535 0.456148
Si Si4 0.057432 0.062736 0.088828
Si Si5 0.282413 0.669145 0.756962
Si Si6 0.563644 0.113910 0.554336
O O1 0.857040 0.535347 0.180494
O O2 0.916096 0.627153 0.918606
O O3 0.750000 0.655347 0.000000
O O4 0.869337 0.725618 0.749711
O O5 0.011621 0.250000 0.500000
O O6 0.957883 0.352114 0.301181
O O7 0.004102 0.250000 0.000000
O O8 0.750000 0.009937 0.500000
O O9 0.600700 0.033538 0.539617
O O10 0.676333 0.903725 0.610959
O O11 0.019456 0.099357 0.317363
O O12 0.000000 0.000000 0.000000
O O13 0.250000 0.750000 0.770253
O O14 0.250000 0.646062 0.500000
O O15 0.375820 0.657724 0.719383
O O16 0.250000 0.632817 0.000000
#
# Coordination Sequence:
#
# PCOD9397777 Si02
#       6
#     8   8   8   8   8   8
#     4  12  26  51  79 114 162 213 271 352 425 504
#     4  12  30  54  81 121 162 226 290 348 424 508
#     4  12  25  46  78 118 158 206 270 335 433 505
#     4  12  24  44  77 118 160 206 267 343 423 503
#     4  10  25  49  73 108 155 215 267 322 395 476
#     4  12  26  49  81 117 166 216 274 349 414 507
#
# _framework density 27.288938000000002
#
# number of rings (size 3 to 8) (size 9 to 14) (size 15 to 20)
#    0.000    0.333    5.000    3.000    2.333    6.333 
#    3.000    2.500    0.000    0.000    0.000    0.000 
#    0.000    0.000    0.000    0.000    0.000    0.000 
#
# Total GULP energy -267315.136935 kJ/mol
# GULP energy per Si atom -5569.065353 kJ/mol
# Density = 2.722683 g / cm^3
# Si number density = 27.288938 Si / 1000 Ang^3
#
#
#
# Elastic Constant Matrix: (Units=GPa)
#
#
# Indices 1 2 3 4 5 6 
#
# 1 149.9662 18.7235 71.7661 0.0000 0.0000 0.0000
# 2 18.7235 44.0910 13.8339 0.0000 0.0000 0.0000
# 3 71.7661 13.8339 154.3054 0.0000 0.0000 0.0000
# 4 0.0000 0.0000 0.0000 14.0344 0.0000 0.0000
# 5 0.0000 0.0000 0.0000 0.0000 139.2867 0.0000
# 6 0.0000 0.0000 0.0000 0.0000 0.0000 49.2406
#
#
#
# Elastic Compliance Matrix: (Units=1/GPa)
#
#
# Indices 1 2 3 4 5 6 
#
# 1 0.008845 -0.002537 -0.003886 0.000000 0.000000 0.000000
# 2 -0.002537 0.024064 -0.000978 0.000000 0.000000 0.000000
# 3 -0.003886 -0.000978 0.008376 0.000000 0.000000 0.000000
# 4 0.000000 0.000000 0.000000 0.071254 0.000000 0.000000
# 5 0.000000 0.000000 0.000000 0.000000 0.007179 0.000000
# 6 0.000000 0.000000 0.000000 0.000000 0.000000 0.020308
#
#
# Mechanical properties :
#
#
# Convention : Reuss Voigt Hill
#
# Bulk Modulus (GPa) = 37.75897 61.88997 49.82447
# Shear Modulus (GPa) = 30.55214 56.78163 43.66688
#
# Velocity S-wave (km/s) = 3.34964 4.56648 4.00455
# Velocity P-wave (km/s) = 5.36907 7.10861 6.29918
#
# Compressibility (1/GPa) = 0.02648377
#
# Stress axis : x y z
#
# Youngs Moduli (GPa) = 113.06381 41.55534 119.39292
#
# Poissons Ratio (x) = 0.10541 0.46397
# Poissons Ratio (y) = 0.28680 0.11673
# Poissons Ratio (z) = 0.43938 0.04063
#
# Static dielectric constant tensor:
#      x y z
#    x 2.576100 0.000000 0.000000 
#    y 0.000000 2.924650 0.000000 
#    z 0.000000 0.000000 2.255570 
# 
# From -- ./inp_files/3545.got.cif
#   From: 2010.05.17/outbox.cif.g08.bks.cpg/sg50_2_cif.got.tgz:3545.got - 2010.06.03 11:33:33.
