data_PCOD9397670
_publ_section_title
;
Structure prediction by ZEFSAII (Michael W. Deem and Ramdas Pophale) SiO2 
 PCOD9397670
Probable space group: P B A N
;
_chemical_formula_sum "Si O2"
_cell_formula_units_Z 18
_cell_length_a 20.371744
_cell_length_b 7.963467
_cell_length_c 5.075306
_cell_angle_alpha 90.000000
_cell_angle_beta 90.000000
_cell_angle_gamma 90.000000
_cell_volume 823.365426
_symmetry_space_group_name_H-M "P B A N"
_symmetry_group_IT_number 50
_space_group.IT_coordinate_system_code '2'
_symmetry_cell_setting 'orthorhombic'
loop_
_space_group_symop_operation_xyz
x,y,z
1/2-x,1/2-y,z
x,1/2-y,-z
1/2-x,y,-z
-x,-y,-z
1/2+x,1/2+y,-z
-x,1/2+y,z
1/2+x,-y,z
loop_
_atom_site_type_symbol
_atom_site_label
_atom_site_fract_x
_atom_site_fract_y
_atom_site_fract_z
Si Si1 0.750000 0.750000 0.000000
Si Si2 0.374304 0.411706 0.829708
Si Si3 0.933831 0.250000 0.000000
Si Si4 0.529301 0.750000 0.500000
O O1 0.702751 0.867245 0.821280
O O2 0.418571 0.399252 0.566972
O O3 0.397280 0.250000 0.000000
O O4 0.390060 0.583370 0.976007
O O5 0.980743 0.254888 0.746546
#
# Coordination Sequence:
#
# PCOD9397670 Si02
#       4
#     2   8   4   4
#     4   8  22  48  60  94 124 182 212 266 316 386
#     4  10  24  43  66  95 132 176 211 276 317 396
#     4  12  25  39  70  99 131 170 218 270 340 390
#     4  12  24  43  66 103 134 166 218 274 338 392
#
# _framework density 21.861495999999999
#
# number of rings (size 3 to 8) (size 9 to 14) (size 15 to 20)
#    1.333    0.000    2.222    2.667    6.222    1.778 
#    0.000    0.000    0.000    2.667    0.000    0.000 
#    0.000    0.000    0.000    0.000    0.000    0.000 
#
# Total GULP energy -100227.701749 kJ/mol
# GULP energy per Si atom -5568.205653 kJ/mol
# Density = 2.181174 g / cm^3
# Si number density = 21.861496 Si / 1000 Ang^3
#
#
#
# Elastic Constant Matrix: (Units=GPa)
#
#
# Indices 1 2 3 4 5 6 
#
# 1 177.7525 74.8662 55.9883 0.0000 0.0000 0.0000
# 2 74.8662 178.5528 43.6309 0.0000 0.0000 0.0000
# 3 55.9883 43.6309 126.3213 0.0000 0.0000 0.0000
# 4 0.0000 0.0000 0.0000 28.4825 0.0000 0.0000
# 5 0.0000 0.0000 0.0000 0.0000 142.8084 0.0000
# 6 0.0000 0.0000 0.0000 0.0000 0.0000 -542.8739
#
#
#
# Elastic Compliance Matrix: (Units=1/GPa)
#
#
# Indices 1 2 3 4 5 6 
#
# 1 0.007458 -0.002533 -0.002431 0.000000 0.000000 0.000000
# 2 -0.002533 0.006977 -0.001287 0.000000 0.000000 0.000000
# 3 -0.002431 -0.001287 0.009438 0.000000 0.000000 0.000000
# 4 0.000000 0.000000 0.000000 0.035109 0.000000 0.000000
# 5 0.000000 0.000000 0.000000 0.000000 0.007002 0.000000
# 6 0.000000 0.000000 0.000000 0.000000 0.000000 -0.001842
#
#
# Mechanical properties :
#
#
# Convention : Reuss Voigt Hill
#
# Bulk Modulus (GPa) = 87.93806 92.39972 90.16889
# Shear Modulus (GPa) = 62.16089 -53.77385 4.19352
#
# Velocity S-wave (km/s) = 5.33814 -4.96497 1.38650
# Velocity P-wave (km/s) = 8.84911 3.08056 6.62558
#
# Compressibility (1/GPa) = 0.01137164
#
# Stress axis : x y z
#
# Youngs Moduli (GPa) = 134.07687 143.32190 105.95199
#
# Poissons Ratio (x) = 0.36308 0.25754
# Poissons Ratio (y) = 0.33966 0.13637
# Poissons Ratio (z) = 0.32590 0.18447
#
# Static dielectric constant tensor:
#      x y z
#    x 1.836710 0.000000 0.000000 
#    y 0.000000 1.868560 0.000000 
#    z 0.000000 0.000000 2.005880 
# 
# From -- ./inp_files/603.got.cif
#   From: 2010.05.17/outbox.cif.g08.bks.cpg/sg50_1_cif.got.tgz:603.got - 2010.06.03 11:33:33.
