data_PCOD9397482
_publ_section_title
;
Structure prediction by ZEFSAII (Michael W. Deem and Ramdas Pophale) SiO2 
 PCOD9397482
Probable space group: P B A N
;
_chemical_formula_sum "Si O2"
_cell_formula_units_Z 30
_cell_length_a 5.157526
_cell_length_b 12.664893
_cell_length_c 20.412589
_cell_angle_alpha 90.000000
_cell_angle_beta 90.000000
_cell_angle_gamma 90.000000
_cell_volume 1333.340412
_symmetry_space_group_name_H-M "P B A N"
_symmetry_group_IT_number 50
_space_group.IT_coordinate_system_code '2'
_symmetry_cell_setting 'orthorhombic'
loop_
_space_group_symop_operation_xyz
x,y,z
1/2-x,1/2-y,z
x,1/2-y,-z
1/2-x,y,-z
-x,-y,-z
1/2+x,1/2+y,-z
-x,1/2+y,z
1/2+x,-y,z
loop_
_atom_site_type_symbol
_atom_site_label
_atom_site_fract_x
_atom_site_fract_y
_atom_site_fract_z
Si Si1 0.750000 0.750000 0.829350
Si Si2 0.507447 0.685226 0.700808
Si Si3 0.750000 0.250000 0.500000
Si Si4 0.761407 0.934158 0.077073
Si Si5 0.473950 0.435866 0.420047
O O1 0.563462 0.687684 0.778406
O O2 0.855169 0.661290 0.877655
O O3 0.250000 0.750000 0.689590
O O4 0.500422 0.580782 0.658457
O O5 0.750000 0.750000 0.672236
O O6 0.575538 0.329278 0.455446
O O7 0.469273 0.973368 0.089679
O O8 0.750000 0.905688 0.000000
O O9 0.181959 0.471979 0.435043
#
# Coordination Sequence:
#
# PCOD9397482 Si02
#       5
#     4   8   2   8   8
#     4  10  25  40  72  93 136 178 224 274 350 383
#     4  10  23  44  65  96 136 174 217 281 333 397
#     4  12  28  50  76 100 152 166 242 278 332 416
#     4  10  23  41  63  96 134 175 227 279 331 402
#     4  12  27  47  74 103 134 183 224 275 348 402
#
# _framework density 22.499880000000001
#
# number of rings (size 3 to 8) (size 9 to 14) (size 15 to 20)
#    0.800    0.533    1.333    2.800    3.733    3.200 
#    0.000    4.000    0.000    0.000    0.000    0.000 
#    0.000    0.000    0.000    0.000    0.000    0.000 
#
# Total GULP energy -167369.427328 kJ/mol
# GULP energy per Si atom -5578.980911 kJ/mol
# Density = 2.244867 g / cm^3
# Si number density = 22.499880 Si / 1000 Ang^3
#
#
#
# Elastic Constant Matrix: (Units=GPa)
#
#
# Indices 1 2 3 4 5 6 
#
# 1 104.0165 1.0154 -1.4836 0.0000 0.0000 0.0000
# 2 1.0154 66.6599 38.7766 0.0000 0.0000 0.0000
# 3 -1.4836 38.7766 108.3140 0.0000 0.0000 0.0000
# 4 0.0000 0.0000 0.0000 45.2976 0.0000 0.0000
# 5 0.0000 0.0000 0.0000 0.0000 4.4348 0.0000
# 6 0.0000 0.0000 0.0000 0.0000 0.0000 23.2504
#
#
#
# Elastic Compliance Matrix: (Units=1/GPa)
#
#
# Indices 1 2 3 4 5 6 
#
# 1 0.009620 -0.000282 0.000233 0.000000 0.000000 0.000000
# 2 -0.000282 0.018956 -0.006790 0.000000 0.000000 0.000000
# 3 0.000233 -0.006790 0.011666 0.000000 0.000000 0.000000
# 4 0.000000 0.000000 0.000000 0.022076 0.000000 0.000000
# 5 0.000000 0.000000 0.000000 0.000000 0.225492 0.000000
# 6 0.000000 0.000000 0.000000 0.000000 0.000000 0.043010
#
#
# Mechanical properties :
#
#
# Convention : Reuss Voigt Hill
#
# Bulk Modulus (GPa) = 37.64554 39.51189 38.57871
# Shear Modulus (GPa) = 14.15017 30.64202 22.39610
#
# Velocity S-wave (km/s) = 2.51051 3.69436 3.15840
# Velocity P-wave (km/s) = 5.01710 5.98304 5.52124
#
# Compressibility (1/GPa) = 0.02656357
#
# Stress axis : x y z
#
# Youngs Moduli (GPa) = 103.95081 52.75480 85.71603
#
# Poissons Ratio (x) = 0.01487 -0.01995
# Poissons Ratio (y) = 0.02930 0.58201
# Poissons Ratio (z) = -0.02419 0.35821
#
# Static dielectric constant tensor:
#      x y z
#    x 1.801490 0.000000 0.000000 
#    y 0.000000 1.813810 0.000000 
#    z 0.000000 0.000000 1.875050 
# 
# From -- ./inp_files/27918.got.cif
#   From: 2010.05.17/outbox.cif.g08.bks.cpg/sg50_14_cif.got.tgz:27918.got - 2010.06.03 11:33:33.
