data_PCOD9397312
_publ_section_title
;
Structure prediction by ZEFSAII (Michael W. Deem and Ramdas Pophale) SiO2 
 PCOD9397312
Probable space group: P B A N
;
_chemical_formula_sum "Si O2"
_cell_formula_units_Z 28
_cell_length_a 13.051299
_cell_length_b 18.962960
_cell_length_c 5.081351
_cell_angle_alpha 90.000000
_cell_angle_beta 90.000000
_cell_angle_gamma 90.000000
_cell_volume 1257.589966
_symmetry_space_group_name_H-M "P B A N"
_symmetry_group_IT_number 50
_space_group.IT_coordinate_system_code '2'
_symmetry_cell_setting 'orthorhombic'
loop_
_space_group_symop_operation_xyz
x,y,z
1/2-x,1/2-y,z
x,1/2-y,-z
1/2-x,y,-z
-x,-y,-z
1/2+x,1/2+y,-z
-x,1/2+y,z
1/2+x,-y,z
loop_
_atom_site_type_symbol
_atom_site_label
_atom_site_fract_x
_atom_site_fract_y
_atom_site_fract_z
Si Si1 0.250000 0.991309 0.500000
Si Si2 0.918759 0.750000 0.500000
Si Si3 0.750000 0.103380 0.000000
Si Si4 0.966442 0.144686 0.821113
Si Si5 0.418910 0.397263 0.337731
O O1 0.159615 0.041151 0.392288
O O2 0.219154 0.944338 0.750144
O O3 0.990694 0.779413 0.267203
O O4 0.865623 0.820716 0.602457
O O5 0.650529 0.145806 0.093429
O O6 0.989967 0.101015 0.553795
O O7 0.034076 0.109034 0.049151
#
# Coordination Sequence:
#
# PCOD9397312 Si02
#       5
#     4   4   4   8   8
#     4  12  26  41  66 103 136 178 232 258 350 396
#     4   8  22  43  67  92 128 170 228 276 352 366
#     4  12  26  42  65 103 138 184 220 268 336 412
#     4  10  22  43  68  94 134 170 225 275 336 386
#     4  10  22  42  68  97 130 176 218 290 320 401
#
# _framework density 22.264810000000001
#
# number of rings (size 3 to 8) (size 9 to 14) (size 15 to 20)
#    1.714    0.000    0.000    4.286    0.000    7.429 
#    0.000    4.286    6.286    0.000    0.000    0.000 
#    0.000    0.000    0.000    0.000    0.000    0.000 
#
# Total GULP energy -156216.525754 kJ/mol
# GULP energy per Si atom -5579.161634 kJ/mol
# Density = 2.221413 g / cm^3
# Si number density = 22.264810 Si / 1000 Ang^3
#
#
#
# Elastic Constant Matrix: (Units=GPa)
#
#
# Indices 1 2 3 4 5 6 
#
# 1 75.3789 13.8633 30.1892 0.0000 0.0000 0.0000
# 2 13.8633 52.1925 28.3330 0.0000 0.0000 0.0000
# 3 30.1892 28.3330 173.5139 0.0000 0.0000 0.0000
# 4 0.0000 0.0000 0.0000 23.2498 0.0000 0.0000
# 5 0.0000 0.0000 0.0000 0.0000 23.5613 0.0000
# 6 0.0000 0.0000 0.0000 0.0000 0.0000 15.6337
#
#
#
# Elastic Compliance Matrix: (Units=1/GPa)
#
#
# Indices 1 2 3 4 5 6 
#
# 1 0.014610 -0.002744 -0.002094 0.000000 0.000000 0.000000
# 2 -0.002744 0.021539 -0.003040 0.000000 0.000000 0.000000
# 3 -0.002094 -0.003040 0.006624 0.000000 0.000000 0.000000
# 4 0.000000 0.000000 0.000000 0.043011 0.000000 0.000000
# 5 0.000000 0.000000 0.000000 0.000000 0.042442 0.000000
# 6 0.000000 0.000000 0.000000 0.000000 0.000000 0.063964
#
#
# Mechanical properties :
#
#
# Convention : Reuss Voigt Hill
#
# Bulk Modulus (GPa) = 37.01322 49.53958 43.27640
# Shear Modulus (GPa) = 23.04671 27.73563 25.39117
#
# Velocity S-wave (km/s) = 3.22082 3.53330 3.38067
# Velocity P-wave (km/s) = 5.52193 6.24052 5.89219
#
# Compressibility (1/GPa) = 0.02701738
#
# Stress axis : x y z
#
# Youngs Moduli (GPa) = 68.44843 46.42793 150.96927
#
# Poissons Ratio (x) = 0.12740 0.31610
# Poissons Ratio (y) = 0.18782 0.45889
# Poissons Ratio (z) = 0.14332 0.14112
#
# Static dielectric constant tensor:
#      x y z
#    x 1.806130 0.000000 0.000000 
#    y 0.000000 1.853560 0.000000 
#    z 0.000000 0.000000 1.798890 
# 
# From -- ./inp_files/1918.got.cif
#   From: 2010.05.17/outbox.cif.g08.bks.cpg/sg50_1_cif.got.tgz:1918.got - 2010.06.03 11:33:33.
