data_PCOD9398035
_publ_section_title
;
Structure prediction by ZEFSAII (Michael W. Deem and Ramdas Pophale) SiO2 
 PCOD9398035
Probable space group: P B A N
;
_chemical_formula_sum "Si O2"
_cell_formula_units_Z 40
_cell_length_a 15.304501
_cell_length_b 15.008554
_cell_length_c 7.151781
_cell_angle_alpha 90.000000
_cell_angle_beta 90.000000
_cell_angle_gamma 90.000000
_cell_volume 1642.752865
_symmetry_space_group_name_H-M "P B A N"
_symmetry_group_IT_number 50
_space_group.IT_coordinate_system_code '2'
_symmetry_cell_setting 'orthorhombic'
loop_
_space_group_symop_operation_xyz
x,y,z
1/2-x,1/2-y,z
x,1/2-y,-z
1/2-x,y,-z
-x,-y,-z
1/2+x,1/2+y,-z
-x,1/2+y,z
1/2+x,-y,z
loop_
_atom_site_type_symbol
_atom_site_label
_atom_site_fract_x
_atom_site_fract_y
_atom_site_fract_z
Si Si1 0.117305 0.509468 0.343610
Si Si2 0.469446 0.879479 0.836773
Si Si3 0.690291 0.996910 0.241813
Si Si4 0.332622 0.299477 0.196234
Si Si5 0.982481 0.183622 0.264722
O O1 0.153797 0.482330 0.546395
O O2 0.208882 0.526975 0.236347
O O3 0.067219 0.603774 0.365973
O O4 0.049825 0.437451 0.252608
O O5 0.382150 0.938062 0.840468
O O6 0.447535 0.784610 0.738170
O O7 0.488778 0.853565 0.051310
O O8 0.688171 0.900583 0.152664
O O9 0.250000 0.250000 0.281656
O O10 0.417904 0.301861 0.321328
O O11 0.350092 0.250000 0.000000
#
# Coordination Sequence:
#
# PCOD9398035 Si02
#       5
#     8   8   8   8   8
#     4  11  25  47  67 103 145 182 242 284 358 430
#     4  11  23  44  70 101 138 184 235 296 351 422
#     4  11  26  44  71  99 142 193 226 297 355 421
#     4  11  23  41  70 103 138 178 238 289 357 416
#     4  11  24  42  69 104 138 183 236 292 353 418
#
# _framework density 24.34937
#
# number of rings (size 3 to 8) (size 9 to 14) (size 15 to 20)
#    0.000    1.000    4.000    2.400    2.800    2.400 
#    0.000   10.000    0.000    0.000    0.000    0.000 
#    0.000    0.000    0.000    0.000    0.000    0.000 
#
# Total GULP energy -223835.742809 kJ/mol
# GULP energy per Si atom -5595.893570 kJ/mol
# Density = 2.429395 g / cm^3
# Si number density = 24.349370 Si / 1000 Ang^3
#
#
#
# Elastic Constant Matrix: (Units=GPa)
#
#
# Indices 1 2 3 4 5 6 
#
# 1 203.5681 113.7573 48.0582 0.0000 0.0000 0.0000
# 2 113.7573 212.2633 47.7798 0.0000 0.0000 0.0000
# 3 48.0582 47.7798 86.8294 0.0000 0.0000 0.0000
# 4 0.0000 0.0000 0.0000 49.3530 0.0000 0.0000
# 5 0.0000 0.0000 0.0000 0.0000 -32.9805 0.0000
# 6 0.0000 0.0000 0.0000 0.0000 0.0000 31.9688
#
#
#
# Elastic Compliance Matrix: (Units=1/GPa)
#
#
# Indices 1 2 3 4 5 6 
#
# 1 0.007354 -0.003453 -0.002170 0.000000 0.000000 0.000000
# 2 -0.003453 0.006998 -0.001940 0.000000 0.000000 0.000000
# 3 -0.002170 -0.001940 0.013786 0.000000 0.000000 0.000000
# 4 0.000000 0.000000 0.000000 0.020262 0.000000 0.000000
# 5 0.000000 0.000000 0.000000 0.000000 -0.030321 0.000000
# 6 0.000000 0.000000 0.000000 0.000000 0.000000 0.031281
#
#
# Mechanical properties :
#
#
# Convention : Reuss Voigt Hill
#
# Bulk Modulus (GPa) = 76.85307 102.42795 89.64051
# Shear Modulus (GPa) = 72.64982 29.20595 50.92788
#
# Velocity S-wave (km/s) = 5.46820 3.46707 4.57831
# Velocity P-wave (km/s) = 8.45573 7.62789 8.05246
#
# Compressibility (1/GPa) = 0.01301184
#
# Stress axis : x y z
#
# Youngs Moduli (GPa) = 135.97647 142.89359 72.53939
#
# Poissons Ratio (x) = 0.49338 0.15744
# Poissons Ratio (y) = 0.46949 0.14072
# Poissons Ratio (z) = 0.29513 0.27720
#
# Static dielectric constant tensor:
#      x y z
#    x 1.972370 0.000000 0.000000 
#    y 0.000000 1.903730 0.000000 
#    z 0.000000 0.000000 2.073070 
# 
# From -- ./inp_files/12565.got.cif
#   From: 2010.05.17/outbox.cif.g08.bks.cpg/sg50_7_cif.got.tgz:12565.got - 2010.06.03 11:33:33.
