data_PCOD9398624
_publ_section_title
;
Structure prediction by ZEFSAII (Michael W. Deem and Ramdas Pophale) SiO2 
 PCOD9398624
Probable space group: P M M A
;
_chemical_formula_sum "Si O2"
_cell_formula_units_Z 64
_cell_length_a 18.845622
_cell_length_b 15.415626
_cell_length_c 12.835687
_cell_angle_alpha 90.000000
_cell_angle_beta 90.000000
_cell_angle_gamma 90.000000
_cell_volume 3728.986057
_symmetry_space_group_name_H-M "P M M A"
_symmetry_group_IT_number 51
_symmetry_cell_setting 'orthorhombic'
loop_
_space_group_symop_operation_xyz
x,y,z
1/2-x,-y,z
1/2+x,-y,-z
-x,y,-z
-x,-y,-z
1/2+x,y,-z
1/2-x,y,z
x,-y,z
loop_
_atom_site_type_symbol
_atom_site_label
_atom_site_fract_x
_atom_site_fract_y
_atom_site_fract_z
Si Si1 0.596222 0.097302 0.392204
Si Si2 0.608182 0.600127 0.291829
Si Si3 0.530542 0.351604 0.611702
Si Si4 0.164744 0.777223 0.775873
Si Si5 0.171708 0.396673 0.478544
Si Si6 0.663806 0.901122 0.036167
Si Si7 0.942226 0.848954 0.623978
Si Si8 0.332065 0.104685 0.200637
O O1 0.636425 0.168882 0.323842
O O2 0.592766 0.123884 0.513989
O O3 0.513461 0.096127 0.358644
O O4 0.626164 0.000000 0.380186
O O5 0.626932 0.500000 0.266222
O O6 0.523124 0.607977 0.305675
O O7 0.635375 0.679155 0.221745
O O8 0.642568 0.622548 0.405398
O O9 0.500000 0.382537 0.500000
O O10 0.613561 0.371897 0.606984
O O11 0.527620 0.248257 0.616473
O O12 0.250000 0.773987 0.772311
O O13 0.141463 0.833397 0.876191
O O14 0.250000 0.358277 0.464142
O O15 0.176830 0.500000 0.475064
O O16 0.750000 0.903872 0.037811
O O17 0.639267 0.000000 0.057484
O O18 0.644930 0.875745 0.918063
O O19 0.885284 0.857595 0.714784
O O20 0.250000 0.132499 0.215444
O O21 0.333018 0.000000 0.209980
#
# Coordination Sequence:
#
# PCOD9398624 Si02
#       8
#     8   8   8   8   8   8   8   8
#     4  11  21  33  48  71 109 148 174 205 253 307
#     4  10  19  32  49  72 102 135 167 209 267 321
#     4  10  17  31  48  66 100 142 180 205 251 309
#     4  11  21  34  53  77 102 132 172 216 261 314
#     4   9  17  28  44  69  98 129 171 219 257 297
#     4   8  16  33  54  75 102 133 165 210 265 309
#     4  11  19  33  49  71 104 143 178 211 247 298
#     4   9  18  33  53  76 101 133 175 218 257 300
#
# _framework density 17.162842000000001
#
# number of rings (size 3 to 8) (size 9 to 14) (size 15 to 20)
#    0.000    2.125    2.500    4.125    0.000    4.000 
#    0.000    0.625    0.000    2.250    0.000    2.625 
#    0.000    2.000    0.000    0.125    0.000    0.000 
#
# Total GULP energy -356614.731761 kJ/mol
# GULP energy per Si atom -5572.105184 kJ/mol
# Density = 1.712378 g / cm^3
# Si number density = 17.162842 Si / 1000 Ang^3
#
#
#
# Elastic Constant Matrix: (Units=GPa)
#
#
# Indices 1 2 3 4 5 6 
#
# 1 78.0685 23.2755 36.7493 0.0000 0.0000 0.0000
# 2 23.2755 90.0516 42.5343 0.0000 0.0000 0.0000
# 3 36.7493 42.5343 74.0231 0.0000 0.0000 0.0000
# 4 0.0000 0.0000 0.0000 -1.5004 0.0000 0.0000
# 5 0.0000 0.0000 0.0000 0.0000 51.8789 0.0000
# 6 0.0000 0.0000 0.0000 0.0000 0.0000 19.3986
#
#
#
# Elastic Compliance Matrix: (Units=1/GPa)
#
#
# Indices 1 2 3 4 5 6 
#
# 1 0.016736 -0.000551 -0.007992 0.000000 0.000000 0.000000
# 2 -0.000551 0.015259 -0.008495 0.000000 0.000000 0.000000
# 3 -0.007992 -0.008495 0.022358 0.000000 0.000000 0.000000
# 4 0.000000 0.000000 0.000000 -0.666511 0.000000 0.000000
# 5 0.000000 0.000000 0.000000 0.000000 0.019276 0.000000
# 6 0.000000 0.000000 0.000000 0.000000 0.000000 0.051550
#
#
# Mechanical properties :
#
#
# Convention : Reuss Voigt Hill
#
# Bulk Modulus (GPa) = 49.31433 49.69571 49.50502
# Shear Modulus (GPa) = -9.99006 23.26104 6.63549
#
# Velocity S-wave (km/s) = -2.41524 3.68545 1.96840
# Velocity P-wave (km/s) = 4.58451 6.86501 5.83721
#
# Compressibility (1/GPa) = 0.02027808
#
# Stress axis : x y z
#
# Youngs Moduli (GPa) = 59.75298 65.53315 44.72633
#
# Poissons Ratio (x) = 0.03609 0.35746
# Poissons Ratio (y) = 0.03291 0.37994
# Poissons Ratio (z) = 0.47755 0.55669
#
# Static dielectric constant tensor:
#      x y z
#    x 1.627240 0.000000 0.000000 
#    y 0.000000 1.613750 0.000000 
#    z 0.000000 0.000000 1.576400 
# 
# From -- ./inp_files/17541.got.cif
#   From: 2010.05.17/outbox.cif.g08.bks.cpg/sg51_9_cif.got.tgz:17541.got - 2010.06.03 11:52:47.
