data_PCOD9398715
_publ_section_title
;
Structure prediction by ZEFSAII (Michael W. Deem and Ramdas Pophale) SiO2 
 PCOD9398715
Probable space group: P M M A
;
_chemical_formula_sum "Si O2"
_cell_formula_units_Z 52
_cell_length_a 8.610576
_cell_length_b 27.523742
_cell_length_c 13.902803
_cell_angle_alpha 90.000000
_cell_angle_beta 90.000000
_cell_angle_gamma 90.000000
_cell_volume 3294.898583
_symmetry_space_group_name_H-M "P M M A"
_symmetry_group_IT_number 51
_symmetry_cell_setting 'orthorhombic'
loop_
_space_group_symop_operation_xyz
x,y,z
1/2-x,-y,z
1/2+x,-y,-z
-x,y,-z
-x,-y,-z
1/2+x,y,-z
1/2-x,y,z
x,-y,z
loop_
_atom_site_type_symbol
_atom_site_label
_atom_site_fract_x
_atom_site_fract_y
_atom_site_fract_z
Si Si1 0.436969 0.158560 0.109101
Si Si2 0.064471 0.500000 0.391243
Si Si3 0.564414 0.353054 0.894762
Si Si4 0.436005 0.303843 0.603849
Si Si5 0.562944 0.596998 0.293691
Si Si6 0.937373 0.947777 0.890852
Si Si7 0.063329 0.744061 0.800785
O O1 0.250000 0.161728 0.107241
O O2 0.483373 0.105043 0.149301
O O3 0.505235 0.203585 0.166956
O O4 0.500000 0.161674 0.000000
O O5 0.250000 0.500000 0.394733
O O6 0.000000 0.500000 0.500000
O O7 0.004712 0.452452 0.335433
O O8 0.750000 0.354449 0.894596
O O9 0.498582 0.388327 0.811690
O O10 0.507383 0.298823 0.866278
O O11 0.500000 0.365307 0.000000
O O12 0.500000 0.291261 0.500000
O O13 0.250000 0.303448 0.599486
O O14 0.483578 0.358103 0.636792
O O15 0.482946 0.268739 0.691300
O O16 0.750000 0.594750 0.290993
O O17 0.750000 0.947782 0.893732
O O18 0.986838 0.000000 0.847106
O O19 0.000000 0.947899 0.000000
O O20 0.250000 0.741144 0.808299
#
# Coordination Sequence:
#
# PCOD9398715 Si02
#       7
#     8   4   8   8   8   8   8
#     4  10  18  27  41  62  88 121 157 193 232 273
#     4  12  24  38  57  82 107 134 164 200 244 286
#     4  11  21  35  54  75  99 130 164 198 235 279
#     4   9  19  33  51  71  93 120 150 185 229 277
#     4  10  21  38  56  78 104 130 160 196 236 283
#     4   8  14  24  37  54  79 112 150 189 228 271
#     4  10  20  33  46  66  95 125 157 194 233 276
#
# _framework density 15.781973000000001
#
# number of rings (size 3 to 8) (size 9 to 14) (size 15 to 20)
#    0.000    2.154    0.000    5.308    0.000    5.538 
#    0.000    0.385    0.000    0.000    0.000    0.000 
#    0.000    0.615    0.000    1.385    0.000    2.462 
#
# Total GULP energy -289953.364329 kJ/mol
# GULP energy per Si atom -5576.026237 kJ/mol
# Density = 1.574605 g / cm^3
# Si number density = 15.781973 Si / 1000 Ang^3
#
#
#
# Elastic Constant Matrix: (Units=GPa)
#
#
# Indices 1 2 3 4 5 6 
#
# 1 73.7527 43.1864 31.9711 0.0000 0.0000 0.0000
# 2 43.1864 157.7282 63.2811 0.0000 0.0000 0.0000
# 3 31.9711 63.2811 96.4491 0.0000 0.0000 0.0000
# 4 0.0000 0.0000 0.0000 12.1445 0.0000 0.0000
# 5 0.0000 0.0000 0.0000 0.0000 26.4548 0.0000
# 6 0.0000 0.0000 0.0000 0.0000 0.0000 -324.1827
#
#
#
# Elastic Compliance Matrix: (Units=1/GPa)
#
#
# Indices 1 2 3 4 5 6 
#
# 1 0.016975 -0.003244 -0.003498 0.000000 0.000000 0.000000
# 2 -0.003244 0.009225 -0.004977 0.000000 0.000000 0.000000
# 3 -0.003498 -0.004977 0.014793 0.000000 0.000000 0.000000
# 4 0.000000 0.000000 0.000000 0.082342 0.000000 0.000000
# 5 0.000000 0.000000 0.000000 0.000000 0.037800 0.000000
# 6 0.000000 0.000000 0.000000 0.000000 0.000000 -0.003085
#
#
# Mechanical properties :
#
#
# Convention : Reuss Voigt Hill
#
# Bulk Modulus (GPa) = 56.96751 67.20081 62.08416
# Shear Modulus (GPa) = 26.68914 -44.48391 -8.89739
#
# Velocity S-wave (km/s) = 4.11678 -5.31486 -2.37696
# Velocity P-wave (km/s) = 7.66630 2.23820 5.64720
#
# Compressibility (1/GPa) = 0.01755387
#
# Stress axis : x y z
#
# Youngs Moduli (GPa) = 58.91014 108.39826 67.59736
#
# Poissons Ratio (x) = 0.35167 0.23648
# Poissons Ratio (y) = 0.19112 0.33646
# Poissons Ratio (z) = 0.20609 0.53954
#
# Static dielectric constant tensor:
#      x y z
#    x 1.530800 0.000000 0.000000 
#    y 0.000000 1.549970 0.000000 
#    z 0.000000 0.000000 1.507220 
# 
# From -- ./inp_files/14620.got.cif
#   From: 2010.05.17/outbox.cif.g08.bks.cpg/sg51_8_cif.got.tgz:14620.got - 2010.06.03 11:52:47.
