data_PCOD9398382
_publ_section_title
;
Structure prediction by ZEFSAII (Michael W. Deem and Ramdas Pophale) SiO2 
 PCOD9398382
Probable space group: P M M A
;
_chemical_formula_sum "Si O2"
_cell_formula_units_Z 64
_cell_length_a 27.702913
_cell_length_b 8.627726
_cell_length_c 17.806645
_cell_angle_alpha 90.000000
_cell_angle_beta 90.000000
_cell_angle_gamma 90.000000
_cell_volume 4256.022184
_symmetry_space_group_name_H-M "P M M A"
_symmetry_group_IT_number 51
_symmetry_cell_setting 'orthorhombic'
loop_
_space_group_symop_operation_xyz
x,y,z
1/2-x,-y,z
1/2+x,-y,-z
-x,y,-z
-x,-y,-z
1/2+x,y,-z
1/2-x,y,z
x,-y,z
loop_
_atom_site_type_symbol
_atom_site_label
_atom_site_fract_x
_atom_site_fract_y
_atom_site_fract_z
Si Si1 0.371582 0.181960 0.282196
Si Si2 0.072120 0.185451 0.143434
Si Si3 0.305265 0.812199 0.413723
Si Si4 0.613909 0.684530 0.478823
Si Si5 0.964928 0.687980 0.173409
Si Si6 0.042292 0.819096 0.402026
Si Si7 0.558077 0.320470 0.012959
Si Si8 0.442621 0.687238 0.660514
O O1 0.387160 0.245749 0.201296
O O2 0.329397 0.246318 0.335577
O O3 0.419638 0.191377 0.333476
O O4 0.360181 0.000000 0.271108
O O5 0.019950 0.252560 0.167722
O O6 0.069387 0.000000 0.150263
O O7 0.080452 0.230530 0.056955
O O8 0.250000 0.762491 0.421753
O O9 0.339964 0.759731 0.481218
O O10 0.306630 0.000000 0.411856
O O11 0.619696 0.500000 0.480575
O O12 0.567651 0.730967 0.529483
O O13 0.601083 0.734874 0.394102
O O14 0.966796 0.500000 0.170476
O O15 0.936698 0.739133 0.098122
O O16 0.941923 0.736368 0.252488
O O17 0.991959 0.749979 0.375557
O O18 0.037051 0.000000 0.421439
O O19 0.573126 0.500000 0.008947
O O20 0.500000 0.316595 0.000000
O O21 0.444553 0.500000 0.659463
#
# Coordination Sequence:
#
# PCOD9398382 Si02
#       8
#     8   8   8   8   8   8   8   8
#     4   8  15  26  40  61  83 104 134 171 207 243
#     4  10  16  24  38  57  81 106 137 174 207 240
#     4   9  18  34  52  65  81 107 138 172 212 258
#     4  10  20  31  43  62  85 108 138 175 215 256
#     4   9  17  28  39  52  77 113 147 173 201 239
#     4  10  18  29  42  58  83 114 146 176 207 245
#     4   8  15  26  37  51  74 107 143 173 199 234
#     4  10  19  29  41  58  83 114 145 177 212 247
#
# _framework density 15.037515000000001
#
# number of rings (size 3 to 8) (size 9 to 14) (size 15 to 20)
#    0.000    2.750    1.250    3.000    0.000    5.000 
#    0.000    0.625    0.000    0.000    0.000    0.000 
#    0.000    1.000    0.000    7.000    0.000    1.250 
#
# Total GULP energy -356302.850348 kJ/mol
# GULP energy per Si atom -5567.232037 kJ/mol
# Density = 1.500329 g / cm^3
# Si number density = 15.037515 Si / 1000 Ang^3
#
#
#
# Elastic Constant Matrix: (Units=GPa)
#
#
# Indices 1 2 3 4 5 6 
#
# 1 59.4129 10.8417 59.1234 0.0000 0.0000 0.0000
# 2 10.8417 11.4395 21.2716 0.0000 0.0000 0.0000
# 3 59.1234 21.2716 135.8617 0.0000 0.0000 0.0000
# 4 0.0000 0.0000 0.0000 17.5401 0.0000 0.0000
# 5 0.0000 0.0000 0.0000 0.0000 11.4362 0.0000
# 6 0.0000 0.0000 0.0000 0.0000 0.0000 9.0649
#
#
#
# Elastic Compliance Matrix: (Units=1/GPa)
#
#
# Indices 1 2 3 4 5 6 
#
# 1 0.029963 -0.005856 -0.012122 0.000000 0.000000 0.000000
# 2 -0.005856 0.124464 -0.016939 0.000000 0.000000 0.000000
# 3 -0.012122 -0.016939 0.015288 0.000000 0.000000 0.000000
# 4 0.000000 0.000000 0.000000 0.057012 0.000000 0.000000
# 5 0.000000 0.000000 0.000000 0.000000 0.087442 0.000000
# 6 0.000000 0.000000 0.000000 0.000000 0.000000 0.110316
#
#
# Mechanical properties :
#
#
# Convention : Reuss Voigt Hill
#
# Bulk Modulus (GPa) = 10.01193 43.24304 26.62748
# Shear Modulus (GPa) = 9.47664 15.30671 12.39167
#
# Velocity S-wave (km/s) = 2.51310 3.19392 2.87374
# Velocity P-wave (km/s) = 3.88501 6.51312 5.36256
#
# Compressibility (1/GPa) = 0.09988088
#
# Stress axis : x y z
#
# Youngs Moduli (GPa) = 33.37421 8.03445 65.41159
#
# Poissons Ratio (x) = 0.04705 0.79294
# Poissons Ratio (y) = 0.19544 1.10799
# Poissons Ratio (z) = 0.40457 0.13609
#
# Static dielectric constant tensor:
#      x y z
#    x 1.466850 0.000000 0.000000 
#    y 0.000000 1.514810 0.000000 
#    z 0.000000 0.000000 1.555800 
# 
# From -- ./inp_files/30984.got.cif
#   From: 2010.05.17/outbox.cif.g08.bks.cpg/sg51_16_cif.got.tgz:30984.got - 2010.06.03 11:52:47.
