data_PCOD9398192
_publ_section_title
;
Structure prediction by ZEFSAII (Michael W. Deem and Ramdas Pophale) SiO2 
 PCOD9398192
Probable space group: P B A N
;
_chemical_formula_sum "Si O2"
_cell_formula_units_Z 32
_cell_length_a 15.105205
_cell_length_b 9.102482
_cell_length_c 10.839250
_cell_angle_alpha 90.000000
_cell_angle_beta 90.000000
_cell_angle_gamma 90.000000
_cell_volume 1490.341125
_symmetry_space_group_name_H-M "P B A N"
_symmetry_group_IT_number 50
_space_group.IT_coordinate_system_code '2'
_symmetry_cell_setting 'orthorhombic'
loop_
_space_group_symop_operation_xyz
x,y,z
1/2-x,1/2-y,z
x,1/2-y,-z
1/2-x,y,-z
-x,-y,-z
1/2+x,1/2+y,-z
-x,1/2+y,z
1/2+x,-y,z
loop_
_atom_site_type_symbol
_atom_site_label
_atom_site_fract_x
_atom_site_fract_y
_atom_site_fract_z
Si Si1 0.040261 0.883065 0.908706
Si Si2 0.096643 0.574832 0.506786
Si Si3 0.320248 0.456570 0.735119
Si Si4 0.132627 0.376658 0.739875
O O1 0.957653 0.858247 0.816045
O O2 0.118094 0.955352 0.829771
O O3 0.065788 0.750000 0.000000
O O4 0.000000 0.000000 0.000000
O O5 0.085691 0.750000 0.500000
O O6 0.164028 0.537273 0.395527
O O7 0.127221 0.498658 0.633064
O O8 0.000000 0.500000 0.500000
O O9 0.224749 0.432176 0.799556
O O10 0.350171 0.290825 0.700088
#
# Coordination Sequence:
#
# PCOD9398192 Si02
#       4
#     8   8   8   8
#     4  12  26  47  72 101 142 190 240 292 348 419
#     4  12  25  42  73 106 144 185 232 298 368 427
#     4  11  25  47  74 107 140 187 235 295 362 429
#     4  11  25  47  74 105 143 184 238 293 364 429
#
# _framework density 21.471595000000001
#
# number of rings (size 3 to 8) (size 9 to 14) (size 15 to 20)
#    0.000    0.500    5.000    3.000    3.500    5.000 
#    0.000    1.250    0.000    0.000    0.000    0.000 
#    0.000    0.000    0.000    0.000    0.000    0.000 
#
# Total GULP energy -178327.086256 kJ/mol
# GULP energy per Si atom -5572.721445 kJ/mol
# Density = 2.142272 g / cm^3
# Si number density = 21.471595 Si / 1000 Ang^3
#
#
#
# Elastic Constant Matrix: (Units=GPa)
#
#
# Indices 1 2 3 4 5 6 
#
# 1 113.4890 44.1289 14.9838 0.0000 0.0000 0.0000
# 2 44.1289 177.8686 50.3407 0.0000 0.0000 0.0000
# 3 14.9838 50.3407 79.2021 0.0000 0.0000 0.0000
# 4 0.0000 0.0000 0.0000 46.3317 0.0000 0.0000
# 5 0.0000 0.0000 0.0000 0.0000 55.7843 0.0000
# 6 0.0000 0.0000 0.0000 0.0000 0.0000 26.9753
#
#
#
# Elastic Compliance Matrix: (Units=1/GPa)
#
#
# Indices 1 2 3 4 5 6 
#
# 1 0.009761 -0.002316 -0.000375 0.000000 0.000000 0.000000
# 2 -0.002316 0.007405 -0.004268 0.000000 0.000000 0.000000
# 3 -0.000375 -0.004268 0.015410 0.000000 0.000000 0.000000
# 4 0.000000 0.000000 0.000000 0.021583 0.000000 0.000000
# 5 0.000000 0.000000 0.000000 0.000000 0.017926 0.000000
# 6 0.000000 0.000000 0.000000 0.000000 0.000000 0.037071
#
#
# Mechanical properties :
#
#
# Convention : Reuss Voigt Hill
#
# Bulk Modulus (GPa) = 53.59601 65.49628 59.54615
# Shear Modulus (GPa) = 38.67172 43.22535 40.94853
#
# Velocity S-wave (km/s) = 4.24850 4.49167 4.37178
# Velocity P-wave (km/s) = 7.00585 7.58090 7.29904
#
# Compressibility (1/GPa) = 0.01865811
#
# Stress axis : x y z
#
# Youngs Moduli (GPa) = 102.44494 135.04998 64.89388
#
# Poissons Ratio (x) = 0.31273 0.02433
# Poissons Ratio (y) = 0.23723 0.27699
# Poissons Ratio (z) = 0.03840 0.57643
#
# Static dielectric constant tensor:
#      x y z
#    x 1.880580 0.000000 0.000000 
#    y 0.000000 1.683540 0.000000 
#    z 0.000000 0.000000 1.783780 
# 
# From -- ./inp_files/18343.got.cif
#   From: 2010.05.17/outbox.cif.g08.bks.cpg/sg50_10_cif.got.tgz:18343.got - 2010.06.03 11:33:33.
