data_PCOD9398820
_publ_section_title
;
Structure prediction by ZEFSAII (Michael W. Deem and Ramdas Pophale) SiO2 
 PCOD9398820
Probable space group: P M M A
;
_chemical_formula_sum "Si O2"
_cell_formula_units_Z 56
_cell_length_a 29.601770
_cell_length_b 7.687840
_cell_length_c 13.905148
_cell_angle_alpha 90.000000
_cell_angle_beta 90.000000
_cell_angle_gamma 90.000000
_cell_volume 3164.445583
_symmetry_space_group_name_H-M "P M M A"
_symmetry_group_IT_number 51
_symmetry_cell_setting 'orthorhombic'
loop_
_space_group_symop_operation_xyz
x,y,z
1/2-x,-y,z
1/2+x,-y,-z
-x,y,-z
-x,-y,-z
1/2+x,y,-z
1/2-x,y,z
x,-y,z
loop_
_atom_site_type_symbol
_atom_site_label
_atom_site_fract_x
_atom_site_fract_y
_atom_site_fract_z
Si Si1 0.521204 0.792045 0.902138
Si Si2 0.800112 0.708848 0.728643
Si Si3 0.561090 0.205335 0.595886
Si Si4 0.527907 0.290894 0.296071
Si Si5 0.301313 0.287174 0.492242
Si Si6 0.389473 0.699761 0.594118
Si Si7 0.894065 0.207664 0.792723
O O1 0.489920 0.762188 0.808739
O O2 0.571067 0.724918 0.872619
O O3 0.525269 0.000000 0.914706
O O4 0.500000 0.719818 0.000000
O O5 0.750000 0.770547 0.756425
O O6 0.798771 0.500000 0.724498
O O7 0.809052 0.769558 0.618609
O O8 0.841193 0.756936 0.797501
O O9 0.509058 0.228676 0.625880
O O10 0.579444 0.297382 0.501603
O O11 0.588339 0.273304 0.689159
O O12 0.569615 0.000000 0.582868
O O13 0.528484 0.500000 0.300321
O O14 0.577574 0.223469 0.324784
O O15 0.250000 0.238275 0.518829
O O16 0.303095 0.500000 0.491649
O O17 0.341487 0.223242 0.560913
O O18 0.380279 0.500000 0.621785
O O19 0.899992 0.000000 0.789507
#
# Coordination Sequence:
#
# PCOD9398820 Si02
#       7
#     8   8   8   8   8   8   8
#     4   9  19  36  53  67  87 114 146 184 227 277
#     4   9  16  26  42  63  87 119 154 181 211 255
#     4  10  19  29  41  60  89 124 156 181 212 257
#     4  10  20  30  43  66  91 114 145 184 223 264
#     4   8  14  25  41  60  84 118 156 185 212 250
#     4  10  18  28  43  63  89 119 151 186 219 252
#     4   9  17  28  43  65  88 114 147 182 222 260
#
# _framework density 17.696624
#
# number of rings (size 3 to 8) (size 9 to 14) (size 15 to 20)
#    0.000    2.714    1.429    3.000    0.000    5.714 
#    0.000    0.000    0.000    0.429    0.000    1.000 
#    0.000    3.429    0.000    0.000    0.000    0.000 
#
# Total GULP energy -312041.218979 kJ/mol
# GULP energy per Si atom -5572.164625 kJ/mol
# Density = 1.765635 g / cm^3
# Si number density = 17.696624 Si / 1000 Ang^3
#
#
#
# Elastic Constant Matrix: (Units=GPa)
#
#
# Indices 1 2 3 4 5 6 
#
# 1 169.7213 -6.2240 59.4103 0.0000 0.0000 0.0000
# 2 -6.2240 27.1641 -8.4267 0.0000 0.0000 0.0000
# 3 59.4103 -8.4267 53.0221 0.0000 0.0000 0.0000
# 4 0.0000 0.0000 0.0000 11.0730 0.0000 0.0000
# 5 0.0000 0.0000 0.0000 0.0000 18.2682 0.0000
# 6 0.0000 0.0000 0.0000 0.0000 0.0000 25.5786
#
#
#
# Elastic Compliance Matrix: (Units=1/GPa)
#
#
# Indices 1 2 3 4 5 6 
#
# 1 0.009732 -0.001213 -0.011097 0.000000 0.000000 0.000000
# 2 -0.001213 0.038874 0.007537 0.000000 0.000000 0.000000
# 3 -0.011097 0.007537 0.032492 0.000000 0.000000 0.000000
# 4 0.000000 0.000000 0.000000 0.090310 0.000000 0.000000
# 5 0.000000 0.000000 0.000000 0.000000 0.054740 0.000000
# 6 0.000000 0.000000 0.000000 0.000000 0.000000 0.039095
#
#
# Mechanical properties :
#
#
# Convention : Reuss Voigt Hill
#
# Bulk Modulus (GPa) = 13.97594 37.71408 25.84501
# Shear Modulus (GPa) = 16.74257 24.66049 20.70153
#
# Velocity S-wave (km/s) = 3.07919 3.73703 3.42395
# Velocity P-wave (km/s) = 4.53393 6.32283 5.50158
#
# Compressibility (1/GPa) = 0.07155155
#
# Stress axis : x y z
#
# Youngs Moduli (GPa) = 102.75223 25.72446 30.77650
#
# Poissons Ratio (x) = 0.03120 0.34154
# Poissons Ratio (y) = 0.12461 -0.23196
# Poissons Ratio (z) = 1.14028 -0.19388
#
# Static dielectric constant tensor:
#      x y z
#    x 1.665950 0.000000 0.000000 
#    y 0.000000 1.650860 0.000000 
#    z 0.000000 0.000000 1.583210 
# 
# From -- ./inp_files/26536.got.cif
#   From: 2010.05.17/outbox.cif.g08.bks.cpg/sg51_14_cif.got.tgz:26536.got - 2010.06.03 11:52:47.
