data_PCOD9398572
_publ_section_title
;
Structure prediction by ZEFSAII (Michael W. Deem and Ramdas Pophale) SiO2 
 PCOD9398572
Probable space group: P M M A
;
_chemical_formula_sum "Si O2"
_cell_formula_units_Z 56
_cell_length_a 7.681002
_cell_length_b 16.168833
_cell_length_c 20.898193
_cell_angle_alpha 90.000000
_cell_angle_beta 90.000000
_cell_angle_gamma 90.000000
_cell_volume 2595.405911
_symmetry_space_group_name_H-M "P M M A"
_symmetry_group_IT_number 51
_symmetry_cell_setting 'orthorhombic'
loop_
_space_group_symop_operation_xyz
x,y,z
1/2-x,-y,z
1/2+x,-y,-z
-x,y,-z
-x,-y,-z
1/2+x,y,-z
1/2-x,y,z
x,-y,z
loop_
_atom_site_type_symbol
_atom_site_label
_atom_site_fract_x
_atom_site_fract_y
_atom_site_fract_z
Si Si1 0.961156 0.684528 0.706886
Si Si2 0.958438 0.590732 0.828215
Si Si3 0.037049 0.089517 0.878216
Si Si4 0.458947 0.270580 0.430849
Si Si5 0.454626 0.872534 0.734821
Si Si6 0.951604 0.911709 0.593983
Si Si7 0.955874 0.734943 0.072275
O O1 0.750000 0.682769 0.706660
O O2 0.023543 0.617358 0.757814
O O3 0.020071 0.682190 0.632920
O O4 0.017998 0.773952 0.733175
O O5 0.750000 0.585200 0.823683
O O6 0.025308 0.500000 0.847331
O O7 0.991842 0.664219 0.877946
O O8 0.250000 0.090561 0.879621
O O9 0.985829 0.095327 0.803462
O O10 0.972272 0.173243 0.911779
O O11 0.981021 0.000000 0.904429
O O12 0.500000 0.306942 0.500000
O O13 0.250000 0.264689 0.425384
O O14 0.530166 0.175822 0.428065
O O15 0.250000 0.891343 0.728659
O O16 0.544072 0.906412 0.671225
O O17 0.750000 0.912382 0.573509
O O18 0.031736 0.000000 0.574881
O O19 0.750000 0.742004 0.077816
O O20 0.000000 0.711544 0.000000
#
# Coordination Sequence:
#
# PCOD9398572 Si02
#       7
#     8   8   8   8   8   8   8
#     4   9  18  34  55  78 109 141 175 221 275 329
#     4  10  21  39  65  92 114 141 181 228 279 338
#     4   9  18  32  51  77 111 148 186 229 274 318
#     4   9  18  31  47  70 100 140 181 222 269 324
#     4  10  17  28  49  76 104 137 180 226 275 324
#     4   9  18  31  44  63  97 138 180 229 281 327
#     4  11  23  40  60  84 117 155 189 229 278 327
#
# _framework density 21.576585999999999
#
# number of rings (size 3 to 8) (size 9 to 14) (size 15 to 20)
#    0.000    2.429    1.429    2.143    0.000    4.286 
#    0.000    0.000    0.000    4.286    0.000    0.000 
#    0.000    0.000    0.000    0.000    0.000    0.286 
#
# Total GULP energy -312484.152774 kJ/mol
# GULP energy per Si atom -5580.074157 kJ/mol
# Density = 2.152748 g / cm^3
# Si number density = 21.576586 Si / 1000 Ang^3
#
#
#
# Elastic Constant Matrix: (Units=GPa)
#
#
# Indices 1 2 3 4 5 6 
#
# 1 40.9723 9.5187 5.5891 0.0000 0.0000 0.0000
# 2 9.5187 128.4282 66.3914 0.0000 0.0000 0.0000
# 3 5.5891 66.3914 132.8729 0.0000 0.0000 0.0000
# 4 0.0000 0.0000 0.0000 -17.5265 0.0000 0.0000
# 5 0.0000 0.0000 0.0000 0.0000 18.9332 0.0000
# 6 0.0000 0.0000 0.0000 0.0000 0.0000 -8.1486
#
#
#
# Elastic Compliance Matrix: (Units=1/GPa)
#
#
# Indices 1 2 3 4 5 6 
#
# 1 0.024837 -0.001754 -0.000168 0.000000 0.000000 0.000000
# 2 -0.001754 0.010622 -0.005234 0.000000 0.000000 0.000000
# 3 -0.000168 -0.005234 0.010148 0.000000 0.000000 0.000000
# 4 0.000000 0.000000 0.000000 -0.057057 0.000000 0.000000
# 5 0.000000 0.000000 0.000000 0.000000 0.052817 0.000000
# 6 0.000000 0.000000 0.000000 0.000000 0.000000 -0.122721
#
#
# Mechanical properties :
#
#
# Convention : Reuss Voigt Hill
#
# Bulk Modulus (GPa) = 31.95344 51.69689 41.82517
# Shear Modulus (GPa) = -88.32460 13.36991 -37.47735
#
# Velocity S-wave (km/s) = -6.40502 2.49198 -4.17219
# Velocity P-wave (km/s) = 6.31328 5.68257 1.94498
#
# Compressibility (1/GPa) = 0.03129553
#
# Stress axis : x y z
#
# Youngs Moduli (GPa) = 40.26230 94.14448 98.54052
#
# Poissons Ratio (x) = 0.16511 0.01660
# Poissons Ratio (y) = 0.07061 0.51572
# Poissons Ratio (z) = 0.00678 0.49272
#
# Static dielectric constant tensor:
#      x y z
#    x 1.815480 0.000000 0.000000 
#    y 0.000000 1.812690 0.000000 
#    z 0.000000 0.000000 1.763930 
# 
# From -- ./inp_files/32025.got.cif
#   From: 2010.05.17/outbox.cif.g08.bks.cpg/sg51_17_cif.got.tgz:32025.got - 2010.06.03 11:52:47.
