data_PCOD9398485
_publ_section_title
;
Structure prediction by ZEFSAII (Michael W. Deem and Ramdas Pophale) SiO2 
 PCOD9398485
Probable space group: P M M A
;
_chemical_formula_sum "Si O2"
_cell_formula_units_Z 64
_cell_length_a 26.313911
_cell_length_b 7.442188
_cell_length_c 17.960137
_cell_angle_alpha 90.000000
_cell_angle_beta 90.000000
_cell_angle_gamma 90.000000
_cell_volume 3517.188814
_symmetry_space_group_name_H-M "P M M A"
_symmetry_group_IT_number 51
_symmetry_cell_setting 'orthorhombic'
loop_
_space_group_symop_operation_xyz
x,y,z
1/2-x,-y,z
1/2+x,-y,-z
-x,y,-z
-x,-y,-z
1/2+x,y,-z
1/2-x,y,z
x,-y,z
loop_
_atom_site_type_symbol
_atom_site_label
_atom_site_fract_x
_atom_site_fract_y
_atom_site_fract_z
Si Si1 0.560392 0.219723 0.338879
Si Si2 0.058336 0.219380 0.337091
Si Si3 0.597580 0.219869 0.820594
Si Si4 0.061691 0.789052 0.499127
Si Si5 0.807176 0.211870 0.913083
Si Si6 0.998426 0.780344 0.085603
Si Si7 0.807216 0.713852 0.082950
Si Si8 0.903040 0.787283 0.182256
O O1 0.501071 0.268788 0.327924
O O2 0.578006 0.284490 0.420495
O O3 0.591073 0.281324 0.266522
O O4 0.561567 0.000000 0.342233
O O5 0.089171 0.276551 0.264580
O O6 0.076926 0.283995 0.418223
O O7 0.059037 0.000000 0.338886
O O8 0.649143 0.284221 0.859492
O O9 0.548661 0.273316 0.869270
O O10 0.598035 0.000000 0.821090
O O11 0.000000 0.779492 0.500000
O O12 0.075376 0.000000 0.498629
O O13 0.750000 0.287512 0.905711
O O14 0.803738 0.000000 0.897327
O O15 0.822678 0.228503 0.999662
O O16 0.948066 0.717883 0.128952
O O17 0.997694 0.000000 0.084773
O O18 0.000000 0.721690 0.000000
O O19 0.750000 0.783821 0.097068
O O20 0.804612 0.500000 0.081644
O O21 0.848987 0.763431 0.143477
O O22 0.912203 0.000000 0.187794
#
# Coordination Sequence:
#
# PCOD9398485 Si02
#       8
#     8   8   8   8   8   8   8   8
#     4   8  12  19  31  54  83 108 134 165 197 235
#     4   8  11  17  29  51  82 113 138 161 194 238
#     4   9  14  21  35  57  83 108 136 169 203 238
#     4   7  10  15  26  45  78 115 136 155 191 234
#     4   9  17  29  45  63  80 101 136 178 209 233
#     4   9  15  21  32  54  81 106 131 160 199 243
#     4  10  21  35  47  58  76 104 137 171 207 247
#     4  10  17  26  43  64  83 104 134 172 207 239
#
# _framework density 18.196351
#
# number of rings (size 3 to 8) (size 9 to 14) (size 15 to 20)
#    0.000    3.250    1.250    2.625    0.000    2.750 
#    0.000    0.000    0.000    3.375    0.000    0.875 
#    0.000   10.500    0.000    3.375    0.000    3.000 
#
# Total GULP energy -356627.214213 kJ/mol
# GULP energy per Si atom -5572.300222 kJ/mol
# Density = 1.815494 g / cm^3
# Si number density = 18.196351 Si / 1000 Ang^3
#
#
#
# Elastic Constant Matrix: (Units=GPa)
#
#
# Indices 1 2 3 4 5 6 
#
# 1 84.1237 0.4006 94.2509 0.0000 0.0000 0.0000
# 2 0.4006 53.0626 5.8233 0.0000 0.0000 0.0000
# 3 94.2509 5.8233 215.9131 0.0000 0.0000 0.0000
# 4 0.0000 0.0000 0.0000 -27.0956 0.0000 0.0000
# 5 0.0000 0.0000 0.0000 0.0000 24.9347 0.0000
# 6 0.0000 0.0000 0.0000 0.0000 0.0000 2441.1556
#
#
#
# Elastic Compliance Matrix: (Units=1/GPa)
#
#
# Indices 1 2 3 4 5 6 
#
# 1 0.023313 0.000944 -0.010202 0.000000 0.000000 0.000000
# 2 0.000944 0.018940 -0.000923 0.000000 0.000000 0.000000
# 3 -0.010202 -0.000923 0.009110 0.000000 0.000000 0.000000
# 4 0.000000 0.000000 0.000000 -0.036906 0.000000 0.000000
# 5 0.000000 0.000000 0.000000 0.000000 0.040105 0.000000
# 6 0.000000 0.000000 0.000000 0.000000 0.000000 0.000410
#
#
# Mechanical properties :
#
#
# Convention : Reuss Voigt Hill
#
# Bulk Modulus (GPa) = 32.25782 61.56100 46.90941
# Shear Modulus (GPa) = 58.36585 504.64058 281.50322
#
# Velocity S-wave (km/s) = 5.66967 16.67131 12.45146
# Velocity P-wave (km/s) = 7.78630 20.11174 15.24973
#
# Compressibility (1/GPa) = 0.03100024
#
# Stress axis : x y z
#
# Youngs Moduli (GPa) = 42.89441 52.79885 109.77153
#
# Poissons Ratio (x) = -0.04982 1.11990
# Poissons Ratio (y) = -0.04048 0.10129
# Poissons Ratio (z) = 0.43761 0.04872
#
# Static dielectric constant tensor:
#      x y z
#    x 1.590110 0.000000 0.000000 
#    y 0.000000 1.688930 0.000000 
#    z 0.000000 0.000000 1.660630 
# 
# From -- ./inp_files/31014.got.cif
#   From: 2010.05.17/outbox.cif.g08.bks.cpg/sg51_16_cif.got.tgz:31014.got - 2010.06.03 11:52:47.
