data_PCOD9398106
_publ_section_title
;
Structure prediction by ZEFSAII (Michael W. Deem and Ramdas Pophale) SiO2 
 PCOD9398106
Probable space group: P B A N
;
_chemical_formula_sum "Si O2"
_cell_formula_units_Z 48
_cell_length_a 26.870058
_cell_length_b 5.444171
_cell_length_c 14.688803
_cell_angle_alpha 90.000000
_cell_angle_beta 90.000000
_cell_angle_gamma 90.000000
_cell_volume 2148.754346
_symmetry_space_group_name_H-M "P B A N"
_symmetry_group_IT_number 50
_space_group.IT_coordinate_system_code '2'
_symmetry_cell_setting 'orthorhombic'
loop_
_space_group_symop_operation_xyz
x,y,z
1/2-x,1/2-y,z
x,1/2-y,-z
1/2-x,y,-z
-x,-y,-z
1/2+x,1/2+y,-z
-x,1/2+y,z
1/2+x,-y,z
loop_
_atom_site_type_symbol
_atom_site_label
_atom_site_fract_x
_atom_site_fract_y
_atom_site_fract_z
Si Si1 0.750000 0.750000 0.000000
Si Si2 0.332064 0.604707 0.088883
Si Si3 0.906857 0.244742 0.390346
Si Si4 0.970627 0.990301 0.256658
Si Si5 0.250000 0.750000 0.214520
Si Si6 0.308458 0.042006 0.340944
Si Si7 0.250000 0.250000 0.500000
Si Si8 0.387723 0.147660 0.754524
O O1 0.788971 0.588402 0.058240
O O2 0.298676 0.773731 0.153360
O O3 0.374310 0.497786 0.154029
O O4 0.349500 0.750000 0.000000
O O5 0.906946 0.250000 0.500000
O O6 0.914507 0.489810 0.326835
O O7 0.949834 0.051872 0.358714
O O8 0.852452 0.156867 0.355728
O O9 0.918897 0.888517 0.215641
O O10 0.005075 0.753325 0.233488
O O11 0.239602 0.530584 0.283042
O O12 0.286698 0.094513 0.438713
O O13 0.337364 0.261485 0.292160
#
# Coordination Sequence:
#
# PCOD9398106 Si02
#       8
#     2   8   8   8   4   8   2   8
#     4  12  22  42  64 102 140 178 238 290 332 430
#     4  12  24  40  67 100 134 179 231 290 351 408
#     4  11  24  42  68 100 142 179 232 293 351 422
#     4  11  24  47  75 105 135 184 232 297 366 438
#     4  12  21  41  60  94 136 188 237 288 329 412
#     4  11  25  38  62  89 139 191 241 285 341 399
#     4  12  24  40  56  92 128 200 248 276 316 410
#     4  11  24  46  67 100 142 179 232 292 360 419
#
# _framework density 22.338522999999999
#
# number of rings (size 3 to 8) (size 9 to 14) (size 15 to 20)
#    0.000    0.667    5.000    3.000    2.333    2.667 
#    0.000    0.000    0.000    1.000    0.000    0.000 
#    0.000    0.000    0.000    0.000    0.000    0.000 
#
# Total GULP energy -267346.623019 kJ/mol
# GULP energy per Si atom -5569.721313 kJ/mol
# Density = 2.228768 g / cm^3
# Si number density = 22.338523 Si / 1000 Ang^3
#
#
#
# Elastic Constant Matrix: (Units=GPa)
#
#
# Indices 1 2 3 4 5 6 
#
# 1 49.8944 24.5356 2.5245 0.0000 0.0000 0.0000
# 2 24.5356 105.6021 33.6346 0.0000 0.0000 0.0000
# 3 2.5245 33.6346 115.6715 0.0000 0.0000 0.0000
# 4 0.0000 0.0000 0.0000 33.2630 0.0000 0.0000
# 5 0.0000 0.0000 0.0000 0.0000 17.5652 0.0000
# 6 0.0000 0.0000 0.0000 0.0000 0.0000 51.0138
#
#
#
# Elastic Compliance Matrix: (Units=1/GPa)
#
#
# Indices 1 2 3 4 5 6 
#
# 1 0.022765 -0.005655 0.001147 0.000000 0.000000 0.000000
# 2 -0.005655 0.011841 -0.003320 0.000000 0.000000 0.000000
# 3 0.001147 -0.003320 0.009585 0.000000 0.000000 0.000000
# 4 0.000000 0.000000 0.000000 0.030063 0.000000 0.000000
# 5 0.000000 0.000000 0.000000 0.000000 0.056931 0.000000
# 6 0.000000 0.000000 0.000000 0.000000 0.000000 0.019603
#
#
# Mechanical properties :
#
#
# Convention : Reuss Voigt Hill
#
# Bulk Modulus (GPa) = 35.04185 43.61748 39.32966
# Shear Modulus (GPa) = 28.41655 34.39994 31.40825
#
# Velocity S-wave (km/s) = 3.57050 3.92846 3.75375
# Velocity P-wave (km/s) = 5.72003 6.33602 6.03589
#
# Compressibility (1/GPa) = 0.02853731
#
# Stress axis : x y z
#
# Youngs Moduli (GPa) = 43.92717 84.45520 104.32552
#
# Poissons Ratio (x) = 0.47757 -0.11970
# Poissons Ratio (y) = 0.24839 0.34631
# Poissons Ratio (z) = -0.05040 0.28035
#
# Static dielectric constant tensor:
#      x y z
#    x 1.803010 0.000000 0.000000 
#    y 0.000000 1.970240 0.000000 
#    z 0.000000 0.000000 0.430800 
# 
# From -- ./inp_files/27638.got.cif
#   From: 2010.05.17/outbox.cif.g08.bks.cpg/sg50_14_cif.got.tgz:27638.got - 2010.06.03 11:33:33.
