data_PCOD9398769
_publ_section_title
;
Structure prediction by ZEFSAII (Michael W. Deem and Ramdas Pophale) SiO2 
 PCOD9398769
Probable space group: P M M A
;
_chemical_formula_sum "Si O2"
_cell_formula_units_Z 60
_cell_length_a 8.858981
_cell_length_b 17.269526
_cell_length_c 23.916968
_cell_angle_alpha 90.000000
_cell_angle_beta 90.000000
_cell_angle_gamma 90.000000
_cell_volume 3659.066566
_symmetry_space_group_name_H-M "P M M A"
_symmetry_group_IT_number 51
_symmetry_cell_setting 'orthorhombic'
loop_
_space_group_symop_operation_xyz
x,y,z
1/2-x,-y,z
1/2+x,-y,-z
-x,y,-z
-x,-y,-z
1/2+x,y,-z
1/2-x,y,z
x,-y,z
loop_
_atom_site_type_symbol
_atom_site_label
_atom_site_fract_x
_atom_site_fract_y
_atom_site_fract_z
Si Si1 0.931950 0.413896 0.743540
Si Si2 0.431430 0.660565 0.438483
Si Si3 0.423295 0.170647 0.766443
Si Si4 0.568794 0.765118 0.938677
Si Si5 0.431697 0.500000 0.562762
Si Si6 0.930820 0.263026 0.672459
Si Si7 0.568468 0.086430 0.866175
Si Si8 0.075446 0.672813 0.841835
O O1 0.750000 0.413244 0.745605
O O2 0.981403 0.500000 0.726147
O O3 0.976973 0.344026 0.702423
O O4 0.996422 0.392396 0.804432
O O5 0.500000 0.674413 0.500000
O O6 0.250000 0.651388 0.442692
O O7 0.501713 0.580330 0.414871
O O8 0.465859 0.726532 0.392926
O O9 0.250000 0.147659 0.760273
O O10 0.494017 0.194056 0.707122
O O11 0.510941 0.109463 0.804615
O O12 0.429592 0.249836 0.803125
O O13 0.750000 0.763529 0.940858
O O14 0.520323 0.846457 0.909376
O O15 0.509491 0.697251 0.898128
O O16 0.500000 0.759404 0.000000
O O17 0.250000 0.500000 0.562574
O O18 0.500000 0.500000 0.500000
O O19 0.750000 0.256495 0.678280
O O20 0.750000 0.087485 0.865463
O O21 0.517254 0.000000 0.881517
O O22 0.250000 0.654282 0.852603
#
# Coordination Sequence:
#
# PCOD9398769 Si02
#       8
#     8   8   8   8   4   8   8   8
#     4   9  17  29  46  66  86 111 146 188 232 275
#     4  10  19  30  44  60  84 117 155 193 232 275
#     4   9  17  29  46  67  91 117 148 188 228 265
#     4  10  19  31  48  69  93 122 156 186 216 256
#     4  10  18  28  40  54  76 110 148 186 227 270
#     4   9  18  30  46  64  86 119 154 189 227 274
#     4   9  18  32  49  69  96 128 156 181 213 259
#     4   9  17  30  46  64  88 116 147 184 227 270
#
# _framework density 16.397624
#
# number of rings (size 3 to 8) (size 9 to 14) (size 15 to 20)
#    0.000    2.667    0.000    3.000    0.933    5.600 
#    0.000    0.000    0.000    0.400    0.000    0.000 
#    0.000    0.533    0.000    1.733    0.000    2.133 
#
# Total GULP energy -334246.216539 kJ/mol
# GULP energy per Si atom -5570.770276 kJ/mol
# Density = 1.636030 g / cm^3
# Si number density = 16.397624 Si / 1000 Ang^3
#
#
#
# Elastic Constant Matrix: (Units=GPa)
#
#
# Indices 1 2 3 4 5 6 
#
# 1 35.4955 -0.2517 26.5862 0.0000 0.0000 0.0000
# 2 -0.2517 12.3277 9.2099 0.0000 0.0000 0.0000
# 3 26.5862 9.2099 100.2268 0.0000 0.0000 0.0000
# 4 0.0000 0.0000 0.0000 17.1276 0.0000 0.0000
# 5 0.0000 0.0000 0.0000 0.0000 22.9752 0.0000
# 6 0.0000 0.0000 0.0000 0.0000 0.0000 13.0486
#
#
#
# Elastic Compliance Matrix: (Units=1/GPa)
#
#
# Indices 1 2 3 4 5 6 
#
# 1 0.035957 0.008439 -0.010314 0.000000 0.000000 0.000000
# 2 0.008439 0.089078 -0.010424 0.000000 0.000000 0.000000
# 3 -0.010314 -0.010424 0.013671 0.000000 0.000000 0.000000
# 4 0.000000 0.000000 0.000000 0.058385 0.000000 0.000000
# 5 0.000000 0.000000 0.000000 0.000000 0.043525 0.000000
# 6 0.000000 0.000000 0.000000 0.000000 0.000000 0.076637
#
#
# Mechanical properties :
#
#
# Convention : Reuss Voigt Hill
#
# Bulk Modulus (GPa) = 8.76347 24.34876 16.55611
# Shear Modulus (GPa) = 13.16180 18.13064 15.64622
#
# Velocity S-wave (km/s) = 2.83621 3.32879 3.09232
# Velocity P-wave (km/s) = 4.01016 5.44570 4.78211
#
# Compressibility (1/GPa) = 0.11411005
#
# Stress axis : x y z
#
# Youngs Moduli (GPa) = 27.81075 11.22608 73.14746
#
# Poissons Ratio (x) = -0.09474 0.75441
# Poissons Ratio (y) = -0.23470 0.76249
# Poissons Ratio (z) = 0.28683 0.11702
#
# Static dielectric constant tensor:
#      x y z
#    x 1.547860 0.000000 0.000000 
#    y 0.000000 1.556560 0.000000 
#    z 0.000000 0.000000 1.564940 
# 
# From -- ./inp_files/35103.got.cif
#   From: 2010.05.17/outbox.cif.g08.bks.cpg/sg51_18_cif.got.tgz:35103.got - 2010.06.03 11:52:47.
