data_PCOD9398159
_publ_section_title
;
Structure prediction by ZEFSAII (Michael W. Deem and Ramdas Pophale) SiO2 
 PCOD9398159
Probable space group: P B A N
;
_chemical_formula_sum "Si O2"
_cell_formula_units_Z 40
_cell_length_a 18.400764
_cell_length_b 8.737968
_cell_length_c 10.936322
_cell_angle_alpha 90.000000
_cell_angle_beta 90.000000
_cell_angle_gamma 90.000000
_cell_volume 1758.399672
_symmetry_space_group_name_H-M "P B A N"
_symmetry_group_IT_number 50
_space_group.IT_coordinate_system_code '2'
_symmetry_cell_setting 'orthorhombic'
loop_
_space_group_symop_operation_xyz
x,y,z
1/2-x,1/2-y,z
x,1/2-y,-z
1/2-x,y,-z
-x,-y,-z
1/2+x,1/2+y,-z
-x,1/2+y,z
1/2+x,-y,z
loop_
_atom_site_type_symbol
_atom_site_label
_atom_site_fract_x
_atom_site_fract_y
_atom_site_fract_z
Si Si1 0.276801 0.418557 0.361727
Si Si2 0.400869 0.582373 0.251763
Si Si3 0.651756 0.073814 0.749310
Si Si4 0.161578 0.433492 0.994956
Si Si5 0.958966 0.890330 0.408648
O O1 0.250000 0.250000 0.320530
O O2 0.250000 0.435731 0.500000
O O3 0.360497 0.461508 0.342093
O O4 0.235380 0.538838 0.276861
O O5 0.366060 0.749815 0.263603
O O6 0.380597 0.509061 0.119976
O O7 0.483382 0.618214 0.295076
O O8 0.610580 0.970218 0.649611
O O9 0.632342 0.013096 0.882885
O O10 0.150316 0.250000 0.000000
O O11 0.250000 0.457313 0.000000
O O12 0.943403 0.750000 0.500000
O O13 0.000000 0.000000 0.500000
#
# Coordination Sequence:
#
# PCOD9398159 Si02
#       5
#     8   8   8   8   8
#     4  11  25  40  68 104 144 186 241 297 366 437
#     4  12  26  46  72 106 143 191 245 302 367 432
#     4  12  26  45  74 104 143 194 240 306 364 433
#     4  11  25  46  73 105 145 190 247 306 365 436
#     4  12  28  49  74 105 153 193 238 300 371 443
#
# _framework density 22.747957
#
# number of rings (size 3 to 8) (size 9 to 14) (size 15 to 20)
#    0.000    0.400    4.000    3.600    8.400    2.400 
#    0.000    0.000    0.000    0.000    0.000    0.000 
#    0.000    0.000    0.000    0.000    0.000    0.000 
#
# Total GULP energy -223515.379307 kJ/mol
# GULP energy per Si atom -5587.884483 kJ/mol
# Density = 2.269618 g / cm^3
# Si number density = 22.747957 Si / 1000 Ang^3
#
#
#
# Elastic Constant Matrix: (Units=GPa)
#
#
# Indices 1 2 3 4 5 6 
#
# 1 92.2067 39.1065 41.8897 0.0000 0.0000 0.0000
# 2 39.1065 146.7257 42.5772 0.0000 0.0000 0.0000
# 3 41.8897 42.5772 124.4292 0.0000 0.0000 0.0000
# 4 0.0000 0.0000 0.0000 42.9136 0.0000 0.0000
# 5 0.0000 0.0000 0.0000 0.0000 36.8900 0.0000
# 6 0.0000 0.0000 0.0000 0.0000 0.0000 27.3459
#
#
#
# Elastic Compliance Matrix: (Units=1/GPa)
#
#
# Indices 1 2 3 4 5 6 
#
# 1 0.013613 -0.002552 -0.003710 0.000000 0.000000 0.000000
# 2 -0.002552 0.008045 -0.001894 0.000000 0.000000 0.000000
# 3 -0.003710 -0.001894 0.009934 0.000000 0.000000 0.000000
# 4 0.000000 0.000000 0.000000 0.023303 0.000000 0.000000
# 5 0.000000 0.000000 0.000000 0.000000 0.027108 0.000000
# 6 0.000000 0.000000 0.000000 0.000000 0.000000 0.036569
#
#
# Mechanical properties :
#
#
# Convention : Reuss Voigt Hill
#
# Bulk Modulus (GPa) = 65.44047 67.83426 66.63736
# Shear Modulus (GPa) = 35.72085 37.41578 36.56831
#
# Velocity S-wave (km/s) = 3.96699 4.06001 4.01377
# Velocity P-wave (km/s) = 7.05781 7.20159 7.13006
#
# Compressibility (1/GPa) = 0.01528106
#
# Stress axis : x y z
#
# Youngs Moduli (GPa) = 73.46075 124.29935 100.66852
#
# Poissons Ratio (x) = 0.31717 0.37344
# Poissons Ratio (y) = 0.18745 0.19065
# Poissons Ratio (z) = 0.27251 0.23540
#
# Static dielectric constant tensor:
#      x y z
#    x 1.898090 0.000000 0.000000 
#    y 0.000000 1.955540 0.000000 
#    z 0.000000 0.000000 1.860450 
# 
# From -- ./inp_files/21620.got.cif
#   From: 2010.05.17/outbox.cif.g08.bks.cpg/sg50_11_cif.got.tgz:21620.got - 2010.06.03 11:33:33.
