data_PCOD9398641
_publ_section_title
;
Structure prediction by ZEFSAII (Michael W. Deem and Ramdas Pophale) SiO2 
 PCOD9398641
Probable space group: P M M A
;
_chemical_formula_sum "Si O2"
_cell_formula_units_Z 44
_cell_length_a 14.618977
_cell_length_b 18.954511
_cell_length_c 9.261339
_cell_angle_alpha 90.000000
_cell_angle_beta 90.000000
_cell_angle_gamma 90.000000
_cell_volume 2566.275920
_symmetry_space_group_name_H-M "P M M A"
_symmetry_group_IT_number 51
_symmetry_cell_setting 'orthorhombic'
loop_
_space_group_symop_operation_xyz
x,y,z
1/2-x,-y,z
1/2+x,-y,-z
-x,y,-z
-x,-y,-z
1/2+x,y,-z
1/2-x,y,z
x,-y,z
loop_
_atom_site_type_symbol
_atom_site_label
_atom_site_fract_x
_atom_site_fract_y
_atom_site_fract_z
Si Si1 0.250000 0.919323 0.280950
Si Si2 0.250000 0.798915 0.042874
Si Si3 0.750000 0.351954 0.384425
Si Si4 0.098988 0.321461 0.074752
Si Si5 0.750000 0.811902 0.288857
Si Si6 0.250000 0.417404 0.924611
Si Si7 0.407150 0.685841 0.410639
Si Si8 0.607097 0.847746 0.520434
O O1 0.250000 0.863409 0.152134
O O2 0.338549 0.901856 0.379388
O O3 0.250000 0.000000 0.234159
O O4 0.339077 0.749155 0.063696
O O5 0.250000 0.825198 0.879221
O O6 0.750000 0.272734 0.315826
O O7 0.750000 0.402579 0.247285
O O8 0.835141 0.356082 0.492367
O O9 0.087206 0.337553 0.244989
O O10 0.160968 0.379918 0.994483
O O11 0.000000 0.313893 0.000000
O O12 0.661046 0.842388 0.369276
O O13 0.250000 0.500000 0.953907
O O14 0.500000 0.681889 0.500000
O O15 0.380816 0.769140 0.411751
O O16 0.500000 0.861685 0.500000
#
# Coordination Sequence:
#
# PCOD9398641 Si02
#       8
#     4   4   4   8   4   4   8   8
#     4  11  22  38  55  80 120 158 189 237 298 353
#     4  11  21  35  55  88 115 147 198 236 290 346
#     4  10  17  34  55  81 115 145 184 234 280 333
#     4  11  22  37  62  87 117 153 193 247 291 340
#     4   9  18  31  57  84 109 141 186 241 287 330
#     4  11  24  40  59  87 124 159 189 230 293 364
#     4  10  19  32  58  88 113 137 193 248 285 324
#     4   9  19  34  57  84 111 147 190 244 284 344
#
# _framework density 17.145465999999999
#
# number of rings (size 3 to 8) (size 9 to 14) (size 15 to 20)
#    0.000    1.818    3.636    2.727    5.091    0.727 
#    0.000    3.636    0.000    6.000    0.000    0.000 
#    0.000    0.000    0.000    0.000    0.000    0.000 
#
# Total GULP energy -245461.630004 kJ/mol
# GULP energy per Si atom -5578.673409 kJ/mol
# Density = 1.710644 g / cm^3
# Si number density = 17.145466 Si / 1000 Ang^3
#
#
#
# Elastic Constant Matrix: (Units=GPa)
#
#
# Indices 1 2 3 4 5 6 
#
# 1 123.9526 45.3238 57.3304 0.0000 0.0000 0.0000
# 2 45.3238 91.2888 45.6433 0.0000 0.0000 0.0000
# 3 57.3304 45.6433 157.9108 0.0000 0.0000 0.0000
# 4 0.0000 0.0000 0.0000 16.8560 0.0000 0.0000
# 5 0.0000 0.0000 0.0000 0.0000 16.7362 0.0000
# 6 0.0000 0.0000 0.0000 0.0000 0.0000 8.8219
#
#
#
# Elastic Compliance Matrix: (Units=1/GPa)
#
#
# Indices 1 2 3 4 5 6 
#
# 1 0.010805 -0.003978 -0.002773 0.000000 0.000000 0.000000
# 2 -0.003978 0.014269 -0.002680 0.000000 0.000000 0.000000
# 3 -0.002773 -0.002680 0.008114 0.000000 0.000000 0.000000
# 4 0.000000 0.000000 0.000000 0.059326 0.000000 0.000000
# 5 0.000000 0.000000 0.000000 0.000000 0.059751 0.000000
# 6 0.000000 0.000000 0.000000 0.000000 0.000000 0.113355
#
#
# Mechanical properties :
#
#
# Convention : Reuss Voigt Hill
#
# Bulk Modulus (GPa) = 69.80363 74.41637 72.11000
# Shear Modulus (GPa) = 17.28566 23.47312 20.37939
#
# Velocity S-wave (km/s) = 3.17862 3.70409 3.45137
# Velocity P-wave (km/s) = 7.36699 7.86072 7.61785
#
# Compressibility (1/GPa) = 0.01432590
#
# Stress axis : x y z
#
# Youngs Moduli (GPa) = 92.55245 70.08022 123.24198
#
# Poissons Ratio (x) = 0.27878 0.34174
# Poissons Ratio (y) = 0.36817 0.33032
# Poissons Ratio (z) = 0.25664 0.18783
#
# Static dielectric constant tensor:
#      x y z
#    x 1.549950 0.000000 0.000000 
#    y 0.000000 1.566440 0.000000 
#    z 0.000000 0.000000 1.569600 
# 
# From -- ./inp_files/8188.got.cif
#   From: 2010.05.17/outbox.cif.g08.bks.cpg/sg51_5_cif.got.tgz:8188.got - 2010.06.03 11:52:47.
