data_PCOD9398908
_publ_section_title
;
Structure prediction by ZEFSAII (Michael W. Deem and Ramdas Pophale) SiO2 
 PCOD9398908
Probable space group: P M M A
;
_chemical_formula_sum "Si O2"
_cell_formula_units_Z 64
_cell_length_a 25.759603
_cell_length_b 7.332157
_cell_length_c 13.681718
_cell_angle_alpha 90.000000
_cell_angle_beta 90.000000
_cell_angle_gamma 90.000000
_cell_volume 2584.113328
_symmetry_space_group_name_H-M "P M M A"
_symmetry_group_IT_number 51
_symmetry_cell_setting 'orthorhombic'
loop_
_space_group_symop_operation_xyz
x,y,z
1/2-x,-y,z
1/2+x,-y,-z
-x,y,-z
-x,-y,-z
1/2+x,y,-z
1/2-x,y,z
x,-y,z
loop_
_atom_site_type_symbol
_atom_site_label
_atom_site_fract_x
_atom_site_fract_y
_atom_site_fract_z
Si Si1 0.190519 0.720720 0.870989
Si Si2 0.811575 0.706106 0.340346
Si Si3 0.345619 0.793638 0.448913
Si Si4 0.306517 0.221977 0.245857
Si Si5 0.554598 0.777049 0.455604
Si Si6 0.580577 0.222412 0.829776
Si Si7 0.470683 0.777628 0.757765
Si Si8 0.916647 0.211708 0.045390
O O1 0.250000 0.779735 0.891095
O O2 0.191368 0.500000 0.866229
O O3 0.171489 0.787392 0.763414
O O4 0.145842 0.776567 0.945232
O O5 0.750000 0.696330 0.326573
O O6 0.831498 0.500000 0.349807
O O7 0.820535 0.798402 0.443827
O O8 0.311723 0.721488 0.360298
O O9 0.400576 0.706813 0.473722
O O10 0.356654 0.000000 0.416643
O O11 0.250000 0.284550 0.207731
O O12 0.361373 0.281580 0.199658
O O13 0.305153 0.000000 0.237771
O O14 0.500000 0.727672 0.500000
O O15 0.556595 0.719205 0.342708
O O16 0.558339 0.000000 0.454695
O O17 0.531665 0.273535 0.762413
O O18 0.581917 0.000000 0.829700
O O19 0.568184 0.285718 0.939888
O O20 0.442387 0.712030 0.856304
O O21 0.469028 0.000000 0.757210
O O22 0.932067 0.000000 0.043860
#
# Coordination Sequence:
#
# PCOD9398908 Si02
#       8
#     8   8   8   8   8   8   8   8
#     4   9  19  35  51  68  96 133 165 193 237 301
#     4   9  18  32  48  66  91 124 156 184 225 287
#     4  10  18  28  46  72  97 120 153 199 240 272
#     4   9  17  28  42  64  96 131 164 198 240 292
#     4   9  16  25  40  65  96 126 154 187 233 289
#     4   9  17  29  45  66  97 133 163 197 247 301
#     4   9  16  27  43  66  97 128 159 198 246 298
#     4  10  19  30  49  76  98 120 160 214 258 286
#
# _framework density 24.766715000000001
#
# number of rings (size 3 to 8) (size 9 to 14) (size 15 to 20)
#    0.000    2.750    0.000    3.000    0.000    7.500 
#    0.000    2.500    0.000    2.625    0.000    3.500 
#    0.000    0.000    0.000    0.000    0.000    0.000 
#
# Total GULP energy -357334.286220 kJ/mol
# GULP energy per Si atom -5583.348222 kJ/mol
# Density = 2.471034 g / cm^3
# Si number density = 24.766715 Si / 1000 Ang^3
#
#
#
# Elastic Constant Matrix: (Units=GPa)
#
#
# Indices 1 2 3 4 5 6 
#
# 1 115.9502 -0.2231 4.4208 0.0000 0.0000 0.0000
# 2 -0.2231 96.0610 -0.2360 0.0000 0.0000 0.0000
# 3 4.4208 -0.2360 50.4866 0.0000 0.0000 0.0000
# 4 0.0000 0.0000 0.0000 68.0821 0.0000 0.0000
# 5 0.0000 0.0000 0.0000 0.0000 36.2570 0.0000
# 6 0.0000 0.0000 0.0000 0.0000 0.0000 10.7898
#
#
#
# Elastic Compliance Matrix: (Units=1/GPa)
#
#
# Indices 1 2 3 4 5 6 
#
# 1 0.008653 0.000018 -0.000758 0.000000 0.000000 0.000000
# 2 0.000018 0.010410 0.000047 0.000000 0.000000 0.000000
# 3 -0.000758 0.000047 0.019874 0.000000 0.000000 0.000000
# 4 0.000000 0.000000 0.000000 0.014688 0.000000 0.000000
# 5 0.000000 0.000000 0.000000 0.000000 0.027581 0.000000
# 6 0.000000 0.000000 0.000000 0.000000 0.000000 0.092680
#
#
# Mechanical properties :
#
#
# Convention : Reuss Voigt Hill
#
# Bulk Modulus (GPa) = 26.62928 30.04680 28.33804
# Shear Modulus (GPa) = 26.62572 40.26154 33.44363
#
# Velocity S-wave (km/s) = 3.28237 4.03629 3.67869
# Velocity P-wave (km/s) = 5.01404 5.82069 5.43236
#
# Compressibility (1/GPa) = 0.03755265
#
# Stress axis : x y z
#
# Youngs Moduli (GPa) = 115.56269 96.05953 50.31755
#
# Poissons Ratio (x) = -0.00175 0.03812
# Poissons Ratio (y) = -0.00211 -0.00237
# Poissons Ratio (z) = 0.08755 -0.00452
#
# Static dielectric constant tensor:
#      x y z
#    x 1.962840 0.000000 0.000000 
#    y 0.000000 2.126190 0.000000 
#    z 0.000000 0.000000 1.952490 
# 
# From -- ./inp_files/26282.got.cif
#   From: 2010.05.17/outbox.cif.g08.bks.cpg/sg51_14_cif.got.tgz:26282.got - 2010.06.03 11:52:47.
