data_PCOD9398257
_publ_section_title
;
Structure prediction by ZEFSAII (Michael W. Deem and Ramdas Pophale) SiO2 
 PCOD9398257
Probable space group: P B A N
;
_chemical_formula_sum "Si O2"
_cell_formula_units_Z 40
_cell_length_a 12.790730
_cell_length_b 14.313554
_cell_length_c 9.630668
_cell_angle_alpha 90.000000
_cell_angle_beta 90.000000
_cell_angle_gamma 90.000000
_cell_volume 1763.190446
_symmetry_space_group_name_H-M "P B A N"
_symmetry_group_IT_number 50
_space_group.IT_coordinate_system_code '2'
_symmetry_cell_setting 'orthorhombic'
loop_
_space_group_symop_operation_xyz
x,y,z
1/2-x,1/2-y,z
x,1/2-y,-z
1/2-x,y,-z
-x,-y,-z
1/2+x,1/2+y,-z
-x,1/2+y,z
1/2+x,-y,z
loop_
_atom_site_type_symbol
_atom_site_label
_atom_site_fract_x
_atom_site_fract_y
_atom_site_fract_z
Si Si1 0.952517 0.899997 0.193539
Si Si2 0.058017 0.643161 0.510538
Si Si3 0.271539 0.354717 0.248914
Si Si4 0.250000 0.499710 0.500000
Si Si5 0.999759 0.384449 0.797571
Si Si6 0.437299 0.750000 0.000000
O O1 0.831557 0.881092 0.164472
O O2 0.013571 0.832380 0.091503
O O3 0.988265 0.873584 0.351717
O O4 0.979087 0.007941 0.171936
O O5 0.096650 0.750000 0.500000
O O6 0.150276 0.567873 0.500709
O O7 0.996226 0.629078 0.368035
O O8 0.250000 0.250000 0.303543
O O9 0.265982 0.432403 0.368997
O O10 0.380851 0.356294 0.166446
O O11 0.910413 0.319140 0.868127
#
# Coordination Sequence:
#
# PCOD9398257 Si02
#       6
#     8   8   8   4   8   4
#     4  12  25  45  72 103 143 185 235 292 352 415
#     4  12  23  45  72 103 139 183 241 297 346 412
#     4  12  23  41  71 106 139 177 234 292 352 410
#     4  12  24  40  74 104 144 180 226 306 360 398
#     4  12  25  45  72 103 143 185 235 292 352 415
#     4  12  26  47  72  99 144 194 228 287 352 421
#
# _framework density 22.686147999999999
#
# number of rings (size 3 to 8) (size 9 to 14) (size 15 to 20)
#    0.000    0.000    8.000    3.000    0.000    1.600 
#    0.000    0.000    0.000    6.000    0.000    0.000 
#    0.000    0.000    0.000    0.000    0.000    0.000 
#
# Total GULP energy -223142.230980 kJ/mol
# GULP energy per Si atom -5578.555775 kJ/mol
# Density = 2.263451 g / cm^3
# Si number density = 22.686148 Si / 1000 Ang^3
#
#
#
# Elastic Constant Matrix: (Units=GPa)
#
#
# Indices 1 2 3 4 5 6 
#
# 1 63.0907 14.7288 -0.6060 0.0000 0.0000 0.0000
# 2 14.7288 201.8635 0.3972 0.0000 0.0000 0.0000
# 3 -0.6060 0.3972 93.3647 0.0000 0.0000 0.0000
# 4 0.0000 0.0000 0.0000 66.1400 0.0000 0.0000
# 5 0.0000 0.0000 0.0000 0.0000 6.0380 0.0000
# 6 0.0000 0.0000 0.0000 0.0000 0.0000 35.7386
#
#
#
# Elastic Compliance Matrix: (Units=1/GPa)
#
#
# Indices 1 2 3 4 5 6 
#
# 1 0.016126 -0.001177 0.000110 0.000000 0.000000 0.000000
# 2 -0.001177 0.005040 -0.000029 0.000000 0.000000 0.000000
# 3 0.000110 -0.000029 0.010712 0.000000 0.000000 0.000000
# 4 0.000000 0.000000 0.000000 0.015119 0.000000 0.000000
# 5 0.000000 0.000000 0.000000 0.000000 0.165619 0.000000
# 6 0.000000 0.000000 0.000000 0.000000 0.000000 0.027981
#
#
# Mechanical properties :
#
#
# Convention : Reuss Voigt Hill
#
# Bulk Modulus (GPa) = 33.68729 43.03990 38.36360
# Shear Modulus (GPa) = 19.78758 44.50324 32.14541
#
# Velocity S-wave (km/s) = 2.95656 4.43390 3.76834
# Velocity P-wave (km/s) = 5.15136 6.72501 5.99009
#
# Compressibility (1/GPa) = 0.02968478
#
# Stress axis : x y z
#
# Youngs Moduli (GPa) = 62.01168 198.42190 93.35744
#
# Poissons Ratio (x) = 0.23351 -0.01024
# Poissons Ratio (y) = 0.07298 0.00271
# Poissons Ratio (z) = -0.00680 0.00577
#
# Static dielectric constant tensor:
#      x y z
#    x 1.900140 0.000000 0.000000 
#    y 0.000000 1.741440 0.000000 
#    z 0.000000 0.000000 1.926930 
# 
# From -- ./inp_files/12610.got.cif
#   From: 2010.05.17/outbox.cif.g08.bks.cpg/sg50_7_cif.got.tgz:12610.got - 2010.06.03 11:33:33.
