data_PCOD9398937
_publ_section_title
;
Structure prediction by ZEFSAII (Michael W. Deem and Ramdas Pophale) SiO2 
 PCOD9398937
Probable space group: P M M A
;
_chemical_formula_sum "Si O2"
_cell_formula_units_Z 36
_cell_length_a 16.061613
_cell_length_b 14.117392
_cell_length_c 7.701497
_cell_angle_alpha 90.000000
_cell_angle_beta 90.000000
_cell_angle_gamma 90.000000
_cell_volume 1746.299711
_symmetry_space_group_name_H-M "P M M A"
_symmetry_group_IT_number 51
_symmetry_cell_setting 'orthorhombic'
loop_
_space_group_symop_operation_xyz
x,y,z
1/2-x,-y,z
1/2+x,-y,-z
-x,y,-z
-x,-y,-z
1/2+x,y,-z
1/2-x,y,z
x,-y,z
loop_
_atom_site_type_symbol
_atom_site_label
_atom_site_fract_x
_atom_site_fract_y
_atom_site_fract_z
Si Si1 0.347034 0.000000 0.356047
Si Si2 0.347181 0.797016 0.946938
Si Si3 0.069665 0.601741 0.851498
Si Si4 0.149467 0.792959 0.366092
Si Si5 0.596578 0.000000 0.038943
Si Si6 0.000000 0.663509 0.500000
O O1 0.378242 0.100769 0.419922
O O2 0.250000 0.000000 0.397054
O O3 0.355409 0.000000 0.146128
O O4 0.250000 0.803439 0.914919
O O5 0.380556 0.699795 0.867355
O O6 0.383965 0.897214 0.879966
O O7 0.360504 0.789218 0.155947
O O8 0.115342 0.500000 0.869918
O O9 0.024039 0.604737 0.668109
O O10 0.000000 0.605309 0.000000
O O11 0.250000 0.778894 0.401139
O O12 0.082985 0.723260 0.450965
O O13 0.500000 0.000000 0.000000
#
# Coordination Sequence:
#
# PCOD9398937 Si02
#       6
#     4   8   8   8   4   4
#     4   8  16  33  54  82 125 171 205 251 311 374
#     4  10  20  39  63  92 131 170 212 263 317 380
#     4  11  24  43  65  92 124 164 212 263 320 382
#     4   9  19  36  60  91 128 170 215 260 315 382
#     4  10  18  28  60  95 126 162 212 258 314 378
#     4  12  23  39  68  92 126 163 212 270 327 376
#
# _framework density 20.615016000000001
#
# number of rings (size 3 to 8) (size 9 to 14) (size 15 to 20)
#    0.000    2.000    2.222    3.333    3.111    1.778 
#    0.000    1.111    0.000    4.667    0.000    0.000 
#    0.000    0.000    0.000    0.000    0.000    0.000 
#
# Total GULP energy -200701.181752 kJ/mol
# GULP energy per Si atom -5575.032826 kJ/mol
# Density = 2.056810 g / cm^3
# Si number density = 20.615016 Si / 1000 Ang^3
#
#
#
# Elastic Constant Matrix: (Units=GPa)
#
#
# Indices 1 2 3 4 5 6 
#
# 1 67.0119 67.0533 24.6786 0.0000 0.0000 0.0000
# 2 67.0533 203.9711 34.3662 0.0000 0.0000 0.0000
# 3 24.6786 34.3662 72.2319 0.0000 0.0000 0.0000
# 4 0.0000 0.0000 0.0000 -96.5894 0.0000 0.0000
# 5 0.0000 0.0000 0.0000 0.0000 24.8357 0.0000
# 6 0.0000 0.0000 0.0000 0.0000 0.0000 25.8412
#
#
#
# Elastic Compliance Matrix: (Units=1/GPa)
#
#
# Indices 1 2 3 4 5 6 
#
# 1 0.023655 -0.006974 -0.004764 0.000000 0.000000 0.000000
# 2 -0.006974 0.007386 -0.001131 0.000000 0.000000 0.000000
# 3 -0.004764 -0.001131 0.016010 0.000000 0.000000 0.000000
# 4 0.000000 0.000000 0.000000 -0.010353 0.000000 0.000000
# 5 0.000000 0.000000 0.000000 0.000000 0.040265 0.000000
# 6 0.000000 0.000000 0.000000 0.000000 0.000000 0.038698
#
#
# Mechanical properties :
#
#
# Convention : Reuss Voigt Hill
#
# Bulk Modulus (GPa) = 46.91974 66.15677 56.53825
# Shear Modulus (GPa) = 33.66928 5.29195 19.48061
#
# Velocity S-wave (km/s) = 4.04572 1.60394 3.07737
# Velocity P-wave (km/s) = 6.68081 5.96585 6.33343
#
# Compressibility (1/GPa) = 0.02131299
#
# Stress axis : x y z
#
# Youngs Moduli (GPa) = 42.27399 135.39482 62.45994
#
# Poissons Ratio (x) = 0.94420 0.29756
# Poissons Ratio (y) = 0.29481 0.07066
# Poissons Ratio (z) = 0.20140 0.15318
#
# Static dielectric constant tensor:
#      x y z
#    x 1.678800 0.000000 0.000000 
#    y 0.000000 1.813110 0.000000 
#    z 0.000000 0.000000 1.748750 
# 
# From -- ./inp_files/7865.got.cif
#   From: 2010.05.17/outbox.cif.g08.bks.cpg/sg51_4_cif.got.tgz:7865.got - 2010.06.03 11:52:47.
