data_PCOD9398795
_publ_section_title
;
Structure prediction by ZEFSAII (Michael W. Deem and Ramdas Pophale) SiO2 
 PCOD9398795
Probable space group: P M M A
;
_chemical_formula_sum "Si O2"
_cell_formula_units_Z 56
_cell_length_a 8.539585
_cell_length_b 22.117847
_cell_length_c 19.304333
_cell_angle_alpha 90.000000
_cell_angle_beta 90.000000
_cell_angle_gamma 90.000000
_cell_volume 3646.149030
_symmetry_space_group_name_H-M "P M M A"
_symmetry_group_IT_number 51
_symmetry_cell_setting 'orthorhombic'
loop_
_space_group_symop_operation_xyz
x,y,z
1/2-x,-y,z
1/2+x,-y,-z
-x,y,-z
-x,-y,-z
1/2+x,y,-z
1/2-x,y,z
x,-y,z
loop_
_atom_site_type_symbol
_atom_site_label
_atom_site_fract_x
_atom_site_fract_y
_atom_site_fract_z
Si Si1 0.062396 0.371348 0.577739
Si Si2 0.938756 0.686332 0.286136
Si Si3 0.436773 0.000000 0.921115
Si Si4 0.062783 0.500000 0.421004
Si Si5 0.437953 0.367296 0.077448
Si Si6 0.438843 0.566402 0.794822
Si Si7 0.061734 0.753480 0.160102
Si Si8 0.938391 0.872697 0.921196
O O1 0.250000 0.374659 0.574649
O O2 0.015731 0.320359 0.633474
O O3 0.002583 0.436409 0.605957
O O4 0.000000 0.362076 0.500000
O O5 0.750000 0.688236 0.283225
O O6 0.993108 0.623462 0.250296
O O7 0.002544 0.739146 0.237323
O O8 0.499959 0.063316 0.892164
O O9 0.750000 0.000000 0.078537
O O10 0.500000 0.000000 0.000000
O O11 0.750000 0.500000 0.580352
O O12 0.000000 0.500000 0.500000
O O13 0.250000 0.369939 0.078112
O O14 0.506458 0.418664 0.127518
O O15 0.487791 0.302966 0.111497
O O16 0.500000 0.371922 0.000000
O O17 0.250000 0.566278 0.792039
O O18 0.494841 0.500000 0.772634
O O19 0.250000 0.753675 0.161360
O O20 0.009997 0.816118 0.125531
O O21 0.750000 0.874419 0.924024
O O22 0.000000 0.865104 0.000000
#
# Coordination Sequence:
#
# PCOD9398795 Si02
#       8
#     8   8   4   4   8   8   8   8
#     4  10  19  31  47  66  88 112 139 174 215 263
#     4   9  19  32  48  65  83 110 141 176 215 260
#     4  10  18  28  42  64  92 122 153 188 221 254
#     4  10  18  28  42  62  84 108 135 168 209 258
#     4  10  19  31  45  61  80 101 132 174 215 257
#     4   9  18  32  47  60  75 100 133 169 215 262
#     4   9  19  32  46  64  87 113 143 180 218 256
#     4  10  18  29  45  66  91 122 154 187 223 258
#
# _framework density 15.358670999999999
#
# number of rings (size 3 to 8) (size 9 to 14) (size 15 to 20)
#    0.000    2.429    0.000    4.714    1.000    3.429 
#    0.000    0.000    0.000    0.000    0.000    0.000 
#    0.000    0.000    0.000    0.643    0.000    8.429 
#
# Total GULP energy -312157.757670 kJ/mol
# GULP energy per Si atom -5574.245673 kJ/mol
# Density = 1.532371 g / cm^3
# Si number density = 15.358671 Si / 1000 Ang^3
#
#
#
# Elastic Constant Matrix: (Units=GPa)
#
#
# Indices 1 2 3 4 5 6 
#
# 1 37.7711 18.2522 13.0280 0.0000 0.0000 0.0000
# 2 18.2522 93.1697 34.2411 0.0000 0.0000 0.0000
# 3 13.0280 34.2411 83.8817 0.0000 0.0000 0.0000
# 4 0.0000 0.0000 0.0000 19.1854 0.0000 0.0000
# 5 0.0000 0.0000 0.0000 0.0000 16.9405 0.0000
# 6 0.0000 0.0000 0.0000 0.0000 0.0000 18.6291
#
#
#
# Elastic Compliance Matrix: (Units=1/GPa)
#
#
# Indices 1 2 3 4 5 6 
#
# 1 0.029731 -0.004856 -0.002635 0.000000 0.000000 0.000000
# 2 -0.004856 0.013421 -0.004724 0.000000 0.000000 0.000000
# 3 -0.002635 -0.004724 0.014259 0.000000 0.000000 0.000000
# 4 0.000000 0.000000 0.000000 0.052123 0.000000 0.000000
# 5 0.000000 0.000000 0.000000 0.000000 0.059030 0.000000
# 6 0.000000 0.000000 0.000000 0.000000 0.000000 0.053679
#
#
# Mechanical properties :
#
#
# Convention : Reuss Voigt Hill
#
# Bulk Modulus (GPa) = 30.32157 38.42945 34.37551
# Shear Modulus (GPa) = 19.40488 20.90443 20.15465
#
# Velocity S-wave (km/s) = 3.55836 3.69329 3.62645
# Velocity P-wave (km/s) = 6.05539 6.57745 6.32181
#
# Compressibility (1/GPa) = 0.03297982
#
# Stress axis : x y z
#
# Youngs Moduli (GPa) = 33.63516 74.51247 70.12957
#
# Poissons Ratio (x) = 0.36182 0.18482
# Poissons Ratio (y) = 0.16333 0.33131
# Poissons Ratio (z) = 0.08864 0.35201
#
# Static dielectric constant tensor:
#      x y z
#    x 1.516630 0.000000 0.000000 
#    y 0.000000 1.527340 0.000000 
#    z 0.000000 0.000000 1.513930 
# 
# From -- ./inp_files/32532.got.cif
#   From: 2010.05.17/outbox.cif.g08.bks.cpg/sg51_17_cif.got.tgz:32532.got - 2010.06.03 11:52:47.
