data_PCOD9398583
_publ_section_title
;
Structure prediction by ZEFSAII (Michael W. Deem and Ramdas Pophale) SiO2 
 PCOD9398583
Probable space group: P M M A
;
_chemical_formula_sum "Si O2"
_cell_formula_units_Z 64
_cell_length_a 14.342552
_cell_length_b 14.401879
_cell_length_c 21.138447
_cell_angle_alpha 90.000000
_cell_angle_beta 90.000000
_cell_angle_gamma 90.000000
_cell_volume 4366.351238
_symmetry_space_group_name_H-M "P M M A"
_symmetry_group_IT_number 51
_symmetry_cell_setting 'orthorhombic'
loop_
_space_group_symop_operation_xyz
x,y,z
1/2-x,-y,z
1/2+x,-y,-z
-x,y,-z
-x,-y,-z
1/2+x,y,-z
1/2-x,y,z
x,-y,z
loop_
_atom_site_type_symbol
_atom_site_label
_atom_site_fract_x
_atom_site_fract_y
_atom_site_fract_z
Si Si1 0.144092 0.712220 0.410483
Si Si2 0.855828 0.612942 0.963116
Si Si3 0.638145 0.392102 0.460258
Si Si4 0.645572 0.107313 0.365098
Si Si5 0.451580 0.387313 0.905111
Si Si6 0.110567 0.104709 0.488514
Si Si7 0.458336 0.289284 0.656415
Si Si8 0.640515 0.612204 0.227113
O O1 0.250000 0.691295 0.391558
O O2 0.117587 0.646051 0.469734
O O3 0.139650 0.815501 0.440549
O O4 0.068269 0.703034 0.355745
O O5 0.750000 0.644604 0.949849
O O6 0.854044 0.500000 0.961522
O O7 0.941089 0.642201 0.917319
O O8 0.889691 0.639411 0.033851
O O9 0.750000 0.384139 0.451669
O O10 0.612257 0.500000 0.454283
O O11 0.589102 0.331426 0.406822
O O12 0.750000 0.124331 0.340093
O O13 0.650206 0.118459 0.441225
O O14 0.573829 0.182470 0.339689
O O15 0.633056 0.000000 0.532833
O O16 0.452166 0.500000 0.904833
O O17 0.404801 0.358109 0.839607
O O18 0.000000 0.110883 0.500000
O O19 0.880303 0.000000 0.353445
O O20 0.417166 0.344252 0.715525
O O21 0.750000 0.637678 0.230701
O O22 0.635887 0.500000 0.231044
#
# Coordination Sequence:
#
# PCOD9398583 Si02
#       8
#     8   8   8   8   8   8   8   8
#     4  11  22  34  45  59  79 105 137 175 218 258
#     4   8  12  20  38  62  87 114 142 172 206 242
#     4  10  20  33  48  63  77  97 131 175 218 256
#     4  10  19  30  46  67  87 103 123 161 215 270
#     4   8  14  24  38  60  87 113 143 176 206 238
#     4  10  17  29  48  68  86 102 122 159 217 275
#     4  12  21  32  46  62  81 108 140 174 209 255
#     4  10  20  32  46  63  84 112 145 179 212 248
#
# _framework density 14.657546
#
# number of rings (size 3 to 8) (size 9 to 14) (size 15 to 20)
#    0.000    2.125    2.500    3.375    0.000    4.750 
#    0.000    0.625    0.000    0.750    0.000    0.000 
#    0.000    0.000    0.000    2.250    0.000    4.250 
#
# Total GULP energy -356808.661418 kJ/mol
# GULP energy per Si atom -5575.135335 kJ/mol
# Density = 1.462419 g / cm^3
# Si number density = 14.657546 Si / 1000 Ang^3
#
#
#
# Elastic Constant Matrix: (Units=GPa)
#
#
# Indices 1 2 3 4 5 6 
#
# 1 99.1709 20.0699 50.8843 0.0000 0.0000 0.0000
# 2 20.0699 43.6693 14.7347 0.0000 0.0000 0.0000
# 3 50.8843 14.7347 61.5177 0.0000 0.0000 0.0000
# 4 0.0000 0.0000 0.0000 2.0008 0.0000 0.0000
# 5 0.0000 0.0000 0.0000 0.0000 9.0603 0.0000
# 6 0.0000 0.0000 0.0000 0.0000 0.0000 13.7482
#
#
#
# Elastic Compliance Matrix: (Units=1/GPa)
#
#
# Indices 1 2 3 4 5 6 
#
# 1 0.018007 -0.003536 -0.014047 0.000000 0.000000 0.000000
# 2 -0.003536 0.025607 -0.003209 0.000000 0.000000 0.000000
# 3 -0.014047 -0.003209 0.028643 0.000000 0.000000 0.000000
# 4 0.000000 0.000000 0.000000 0.499793 0.000000 0.000000
# 5 0.000000 0.000000 0.000000 0.000000 0.110372 0.000000
# 6 0.000000 0.000000 0.000000 0.000000 0.000000 0.072737
#
#
# Mechanical properties :
#
#
# Convention : Reuss Voigt Hill
#
# Bulk Modulus (GPa) = 32.60170 41.74841 37.17506
# Shear Modulus (GPa) = 6.19604 12.87313 9.53458
#
# Velocity S-wave (km/s) = 2.05825 2.96676 2.55324
# Velocity P-wave (km/s) = 5.28574 6.34665 5.84033
#
# Compressibility (1/GPa) = 0.03067325
#
# Stress axis : x y z
#
# Youngs Moduli (GPa) = 55.53433 39.05164 34.91212
#
# Poissons Ratio (x) = 0.13808 0.49043
# Poissons Ratio (y) = 0.19637 0.11202
# Poissons Ratio (z) = 0.78011 0.12530
#
# Static dielectric constant tensor:
#      x y z
#    x 1.529610 0.000000 0.000000 
#    y 0.000000 1.484640 0.000000 
#    z 0.000000 0.000000 1.461840 
# 
# From -- ./inp_files/29969.got.cif
#   From: 2010.05.17/outbox.cif.g08.bks.cpg/sg51_15_cif.got.tgz:29969.got - 2010.06.03 11:52:47.
