data_PCOD9398993
_publ_section_title
;
Structure prediction by ZEFSAII (Michael W. Deem and Ramdas Pophale) SiO2 
 PCOD9398993
Probable space group: P M M A
;
_chemical_formula_sum "Si O2"
_cell_formula_units_Z 56
_cell_length_a 8.829232
_cell_length_b 22.117856
_cell_length_c 19.023707
_cell_angle_alpha 90.000000
_cell_angle_beta 90.000000
_cell_angle_gamma 90.000000
_cell_volume 3715.019548
_symmetry_space_group_name_H-M "P M M A"
_symmetry_group_IT_number 51
_symmetry_cell_setting 'orthorhombic'
loop_
_space_group_symop_operation_xyz
x,y,z
1/2-x,-y,z
1/2+x,-y,-z
-x,y,-z
-x,-y,-z
1/2+x,y,-z
1/2-x,y,z
x,-y,z
loop_
_atom_site_type_symbol
_atom_site_label
_atom_site_fract_x
_atom_site_fract_y
_atom_site_fract_z
Si Si1 0.930526 0.254249 0.286832
Si Si2 0.930330 0.178061 0.158969
Si Si3 0.067763 0.432858 0.667708
Si Si4 0.432509 0.293620 0.077274
Si Si5 0.928805 0.632608 0.792175
Si Si6 0.569024 0.070216 0.923715
Si Si7 0.931063 0.683068 0.423553
O O1 0.750000 0.268730 0.278595
O O2 0.957664 0.194464 0.241067
O O3 0.964450 0.262147 0.369108
O O4 0.027316 0.306000 0.248951
O O5 0.750000 0.176735 0.147415
O O6 0.999951 0.233118 0.113253
O O7 0.002973 0.116170 0.132966
O O8 0.250000 0.431242 0.667823
O O9 0.017832 0.500000 0.646184
O O10 0.016868 0.379001 0.615508
O O11 0.012206 0.418024 0.746545
O O12 0.250000 0.288399 0.075253
O O13 0.471889 0.350484 0.127975
O O14 0.500000 0.300134 0.000000
O O15 0.750000 0.621859 0.789455
O O16 0.750000 0.075818 0.927148
O O17 0.530797 0.000000 0.909222
O O18 0.500000 0.085734 0.000000
O O19 0.750000 0.679280 0.430539
O O20 0.000000 0.689811 0.500000
#
# Coordination Sequence:
#
# PCOD9398993 Si02
#       7
#     8   8   8   8   8   8   8
#     4   8  16  30  45  61  84 114 142 170 208 255
#     4  10  18  29  46  64  84 113 148 182 214 250
#     4   9  18  32  47  61  81 112 144 170 202 250
#     4  10  19  29  42  62  86 109 136 173 217 260
#     4   9  17  28  43  63  83 103 133 176 216 248
#     4  10  20  32  44  60  87 122 155 186 219 253
#     4   9  17  29  44  64  90 115 139 167 203 248
#
# _framework density 15.073945999999999
#
# number of rings (size 3 to 8) (size 9 to 14) (size 15 to 20)
#    0.000    2.714    0.000    3.000    0.000    6.000 
#    0.000    0.000    0.000    0.429    0.000    0.000 
#    0.000    0.571    0.000    1.286    0.000    2.286 
#
# Total GULP energy -311736.123207 kJ/mol
# GULP energy per Si atom -5566.716486 kJ/mol
# Density = 1.503964 g / cm^3
# Si number density = 15.073946 Si / 1000 Ang^3
#
#
#
# Elastic Constant Matrix: (Units=GPa)
#
#
# Indices 1 2 3 4 5 6 
#
# 1 26.9386 21.1246 33.9475 0.0000 0.0000 0.0000
# 2 21.1246 60.7356 53.0955 0.0000 0.0000 0.0000
# 3 33.9475 53.0955 133.3056 0.0000 0.0000 0.0000
# 4 0.0000 0.0000 0.0000 16.5639 0.0000 0.0000
# 5 0.0000 0.0000 0.0000 0.0000 24.2270 0.0000
# 6 0.0000 0.0000 0.0000 0.0000 0.0000 18.3130
#
#
#
# Elastic Compliance Matrix: (Units=1/GPa)
#
#
# Indices 1 2 3 4 5 6 
#
# 1 0.059406 -0.011410 -0.010584 0.000000 0.000000 0.000000
# 2 -0.011410 0.027452 -0.008028 0.000000 0.000000 0.000000
# 3 -0.010584 -0.008028 0.013395 0.000000 0.000000 0.000000
# 4 0.000000 0.000000 0.000000 0.060372 0.000000 0.000000
# 5 0.000000 0.000000 0.000000 0.000000 0.041276 0.000000
# 6 0.000000 0.000000 0.000000 0.000000 0.000000 0.054606
#
#
# Mechanical properties :
#
#
# Convention : Reuss Voigt Hill
#
# Bulk Modulus (GPa) = 24.87032 48.59055 36.73043
# Shear Modulus (GPa) = 15.15363 19.34159 17.24761
#
# Velocity S-wave (km/s) = 3.17406 3.58594 3.38627
# Velocity P-wave (km/s) = 5.47427 7.03208 6.30150
#
# Compressibility (1/GPa) = 0.04020857
#
# Stress axis : x y z
#
# Youngs Moduli (GPa) = 16.83323 36.42757 74.65711
#
# Poissons Ratio (x) = 0.41563 0.79016
# Poissons Ratio (y) = 0.19206 0.59938
# Poissons Ratio (z) = 0.17816 0.29246
#
# Static dielectric constant tensor:
#      x y z
#    x 1.507880 0.000000 0.000000 
#    y 0.000000 1.502380 0.000000 
#    z 0.000000 0.000000 1.514070 
# 
# From -- ./inp_files/28173.got.cif
#   From: 2010.05.17/outbox.cif.g08.bks.cpg/sg51_15_cif.got.tgz:28173.got - 2010.06.03 11:52:47.
