data_PCOD9398836
_publ_section_title
;
Structure prediction by ZEFSAII (Michael W. Deem and Ramdas Pophale) SiO2 
 PCOD9398836
Probable space group: P M M A
;
_chemical_formula_sum "Si O2"
_cell_formula_units_Z 56
_cell_length_a 7.837762
_cell_length_b 22.125459
_cell_length_c 19.116799
_cell_angle_alpha 90.000000
_cell_angle_beta 90.000000
_cell_angle_gamma 90.000000
_cell_volume 3315.122145
_symmetry_space_group_name_H-M "P M M A"
_symmetry_group_IT_number 51
_symmetry_cell_setting 'orthorhombic'
loop_
_space_group_symop_operation_xyz
x,y,z
1/2-x,-y,z
1/2+x,-y,-z
-x,y,-z
-x,-y,-z
1/2+x,y,-z
1/2-x,y,z
x,-y,z
loop_
_atom_site_type_symbol
_atom_site_label
_atom_site_fract_x
_atom_site_fract_y
_atom_site_fract_z
Si Si1 0.453122 0.310214 0.920287
Si Si2 0.544296 0.932583 0.418920
Si Si3 0.443717 0.620356 0.708061
Si Si4 0.540922 0.566390 0.151851
Si Si5 0.554221 0.739128 0.781201
Si Si6 0.956084 0.186528 0.342029
Si Si7 0.955747 0.308957 0.419340
O O1 0.250000 0.310018 0.914106
O O2 0.515405 0.376892 0.895064
O O3 0.523127 0.262675 0.863707
O O4 0.500000 0.298842 0.000000
O O5 0.500000 0.921722 0.500000
O O6 0.750000 0.933456 0.413459
O O7 0.480775 0.876812 0.372641
O O8 0.481325 0.000000 0.400266
O O9 0.250000 0.599155 0.695830
O O10 0.519220 0.577565 0.768028
O O11 0.441932 0.685279 0.747969
O O12 0.521346 0.638537 0.633239
O O13 0.750000 0.567882 0.153208
O O14 0.488764 0.500000 0.127118
O O15 0.750000 0.722804 0.767851
O O16 0.511547 0.798290 0.736808
O O17 0.750000 0.186049 0.344253
O O18 0.014437 0.243613 0.389710
O O19 0.750000 0.309379 0.412976
O O20 0.000000 0.316688 0.500000
#
# Coordination Sequence:
#
# PCOD9398836 Si02
#       7
#     8   8   8   8   8   8   8
#     4  10  19  31  46  65  91 116 137 165 204 248
#     4   9  17  28  42  61  88 123 158 189 221 256
#     4   8  15  28  42  57  80 106 133 170 215 256
#     4   8  14  26  45  64  80 105 141 173 201 241
#     4  10  18  28  44  64  83 107 141 175 211 253
#     4   9  17  29  42  58  84 114 145 180 216 253
#     4   9  16  24  36  55  77 103 134 172 216 255
#
# _framework density 16.892288000000001
#
# number of rings (size 3 to 8) (size 9 to 14) (size 15 to 20)
#    0.000    3.000    0.000    3.857    0.000    3.143 
#    0.000    0.000    0.000   10.714    0.000    0.000 
#    0.000    0.571    0.000    1.571    0.000    3.429 
#
# Total GULP energy -311778.849212 kJ/mol
# GULP energy per Si atom -5567.479450 kJ/mol
# Density = 1.685384 g / cm^3
# Si number density = 16.892288 Si / 1000 Ang^3
#
#
#
# Elastic Constant Matrix: (Units=GPa)
#
#
# Indices 1 2 3 4 5 6 
#
# 1 31.2912 -1.7073 -2.3792 0.0000 0.0000 0.0000
# 2 -1.7073 41.0198 24.1526 0.0000 0.0000 0.0000
# 3 -2.3792 24.1526 116.1852 0.0000 0.0000 0.0000
# 4 0.0000 0.0000 0.0000 20.0547 0.0000 0.0000
# 5 0.0000 0.0000 0.0000 0.0000 21.2252 0.0000
# 6 0.0000 0.0000 0.0000 0.0000 0.0000 3.1259
#
#
#
# Elastic Compliance Matrix: (Units=1/GPa)
#
#
# Indices 1 2 3 4 5 6 
#
# 1 0.032050 0.001080 0.000432 0.000000 0.000000 0.000000
# 2 0.001080 0.027815 -0.005760 0.000000 0.000000 0.000000
# 3 0.000432 -0.005760 0.009813 0.000000 0.000000 0.000000
# 4 0.000000 0.000000 0.000000 0.049864 0.000000 0.000000
# 5 0.000000 0.000000 0.000000 0.000000 0.047114 0.000000
# 6 0.000000 0.000000 0.000000 0.000000 0.000000 0.319909
#
#
# Mechanical properties :
#
#
# Convention : Reuss Voigt Hill
#
# Bulk Modulus (GPa) = 16.34502 25.40317 20.87409
# Shear Modulus (GPa) = 9.70017 20.10983 14.90500
#
# Velocity S-wave (km/s) = 2.39892 3.45407 2.97367
# Velocity P-wave (km/s) = 4.16775 5.56583 4.91673
#
# Compressibility (1/GPa) = 0.06118071
#
# Stress axis : x y z
#
# Youngs Moduli (GPa) = 31.20160 35.95182 101.90360
#
# Poissons Ratio (x) = -0.03882 -0.04401
# Poissons Ratio (y) = -0.03369 0.58697
# Poissons Ratio (z) = -0.01347 0.20709
#
# Static dielectric constant tensor:
#      x y z
#    x 1.618230 0.000000 0.000000 
#    y 0.000000 1.578560 0.000000 
#    z 0.000000 0.000000 1.593740 
# 
# From -- ./inp_files/28265.got.cif
#   From: 2010.05.17/outbox.cif.g08.bks.cpg/sg51_15_cif.got.tgz:28265.got - 2010.06.03 11:52:47.
