data_PCOD9398602
_publ_section_title
;
Structure prediction by ZEFSAII (Michael W. Deem and Ramdas Pophale) SiO2 
 PCOD9398602
Probable space group: P M M A
;
_chemical_formula_sum "Si O2"
_cell_formula_units_Z 64
_cell_length_a 30.656369
_cell_length_b 8.647809
_cell_length_c 15.394751
_cell_angle_alpha 90.000000
_cell_angle_beta 90.000000
_cell_angle_gamma 90.000000
_cell_volume 4081.308961
_symmetry_space_group_name_H-M "P M M A"
_symmetry_group_IT_number 51
_symmetry_cell_setting 'orthorhombic'
loop_
_space_group_symop_operation_xyz
x,y,z
1/2-x,-y,z
1/2+x,-y,-z
-x,y,-z
-x,-y,-z
1/2+x,y,-z
1/2-x,y,z
x,-y,z
loop_
_atom_site_type_symbol
_atom_site_label
_atom_site_fract_x
_atom_site_fract_y
_atom_site_fract_z
Si Si1 0.881133 0.313130 0.292506
Si Si2 0.530831 0.686962 0.630478
Si Si3 0.106858 0.312890 0.044080
Si Si4 0.200690 0.183285 0.801107
Si Si5 0.462307 0.183632 0.177291
Si Si6 0.943817 0.313592 0.132317
Si Si7 0.936413 0.687501 0.449869
Si Si8 0.798631 0.686259 0.005504
O O1 0.878547 0.500000 0.292014
O O2 0.835378 0.244300 0.264190
O O3 0.916510 0.270279 0.218347
O O4 0.898150 0.260210 0.386394
O O5 0.532720 0.500000 0.638869
O O6 0.539966 0.759626 0.723265
O O7 0.482022 0.726430 0.597577
O O8 0.561497 0.737374 0.550018
O O9 0.106390 0.500000 0.047281
O O10 0.077845 0.248759 0.121766
O O11 0.083360 0.267721 0.953228
O O12 0.157496 0.261064 0.043342
O O13 0.250000 0.214563 0.770944
O O14 0.195348 0.265544 0.894202
O O15 0.195897 0.000000 0.814088
O O16 0.507911 0.244814 0.137270
O O17 0.462254 0.000000 0.174148
O O18 0.947812 0.500000 0.131760
O O19 0.935333 0.500000 0.452195
O O20 0.750000 0.741638 0.978161
O O21 0.798103 0.500000 0.001053
#
# Coordination Sequence:
#
# PCOD9398602 Si02
#       8
#     8   8   8   8   8   8   8   8
#     4  10  17  30  51  74  95 121 161 201 235 279
#     4   9  16  32  52  69  91 122 156 195 236 281
#     4  10  20  34  50  69  92 127 164 197 239 285
#     4  10  20  31  44  67 100 133 159 187 232 287
#     4  12  24  33  44  67  98 133 166 201 235 273
#     4  10  19  33  50  68  93 129 166 198 234 280
#     4   8  15  28  52  75  90 115 155 195 237 279
#     4   9  17  32  53  73  91 116 157 204 244 281
#
# _framework density 15.681244
#
# number of rings (size 3 to 8) (size 9 to 14) (size 15 to 20)
#    0.000    2.250    2.500    2.625    0.000    3.750 
#    0.000    1.875    0.000    0.000    0.000    0.875 
#    0.000    3.000    0.000    0.000    0.000    0.000 
#
# Total GULP energy -356817.998763 kJ/mol
# GULP energy per Si atom -5575.281231 kJ/mol
# Density = 1.564555 g / cm^3
# Si number density = 15.681244 Si / 1000 Ang^3
#
#
#
# Elastic Constant Matrix: (Units=GPa)
#
#
# Indices 1 2 3 4 5 6 
#
# 1 131.6092 23.4267 58.6814 0.0000 0.0000 0.0000
# 2 23.4267 7.5429 17.5289 0.0000 0.0000 0.0000
# 3 58.6814 17.5289 84.2135 0.0000 0.0000 0.0000
# 4 0.0000 0.0000 0.0000 -1.5828 0.0000 0.0000
# 5 0.0000 0.0000 0.0000 0.0000 23.1557 0.0000
# 6 0.0000 0.0000 0.0000 0.0000 0.0000 0.4223
#
#
#
# Elastic Compliance Matrix: (Units=1/GPa)
#
#
# Indices 1 2 3 4 5 6 
#
# 1 0.017112 -0.049269 -0.001669 0.000000 0.000000 0.000000
# 2 -0.049269 0.398638 -0.048644 0.000000 0.000000 0.000000
# 3 -0.001669 -0.048644 0.023163 0.000000 0.000000 0.000000
# 4 0.000000 0.000000 0.000000 -0.631789 0.000000 0.000000
# 5 0.000000 0.000000 0.000000 0.000000 0.043186 0.000000
# 6 0.000000 0.000000 0.000000 0.000000 0.000000 2.367805
#
#
# Mechanical properties :
#
#
# Convention : Reuss Voigt Hill
#
# Bulk Modulus (GPa) = 4.17103 46.95995 25.56549
# Shear Modulus (GPa) = 2.00224 12.64762 7.32493
#
# Velocity S-wave (km/s) = 1.13120 2.84305 2.16363
# Velocity P-wave (km/s) = 2.09089 6.38662 4.75188
#
# Compressibility (1/GPa) = 0.23974879
#
# Stress axis : x y z
#
# Youngs Moduli (GPa) = 58.43730 2.50854 43.17265
#
# Poissons Ratio (x) = 0.12359 0.07205
# Poissons Ratio (y) = 2.87914 2.10011
# Poissons Ratio (z) = 0.09753 0.12203
#
# Static dielectric constant tensor:
#      x y z
#    x 1.531560 0.000000 0.000000 
#    y 0.000000 1.525120 0.000000 
#    z 0.000000 0.000000 1.511700 
# 
# From -- ./inp_files/26636.got.cif
#   From: 2010.05.17/outbox.cif.g08.bks.cpg/sg51_14_cif.got.tgz:26636.got - 2010.06.03 11:52:47.
