data_PCOD9398488
_publ_section_title
;
Structure prediction by ZEFSAII (Michael W. Deem and Ramdas Pophale) SiO2 
 PCOD9398488
Probable space group: P M M A
;
_chemical_formula_sum "Si O2"
_cell_formula_units_Z 48
_cell_length_a 21.819729
_cell_length_b 9.367843
_cell_length_c 15.369541
_cell_angle_alpha 90.000000
_cell_angle_beta 90.000000
_cell_angle_gamma 90.000000
_cell_volume 3141.592517
_symmetry_space_group_name_H-M "P M M A"
_symmetry_group_IT_number 51
_symmetry_cell_setting 'orthorhombic'
loop_
_space_group_symop_operation_xyz
x,y,z
1/2-x,-y,z
1/2+x,-y,-z
-x,y,-z
-x,-y,-z
1/2+x,y,-z
1/2-x,y,z
x,-y,z
loop_
_atom_site_type_symbol
_atom_site_label
_atom_site_fract_x
_atom_site_fract_y
_atom_site_fract_z
Si Si1 0.598049 0.168493 0.144865
Si Si2 0.954615 0.168451 0.806269
Si Si3 0.544953 0.329705 0.629478
Si Si4 0.427385 0.664391 0.024039
Si Si5 0.821477 0.828473 0.311086
Si Si6 0.592033 0.669973 0.441760
O O1 0.528103 0.186008 0.178656
O O2 0.643857 0.211818 0.221754
O O3 0.606387 0.000000 0.126113
O O4 0.604863 0.259035 0.057185
O O5 0.939003 0.241427 0.714847
O O6 0.922354 0.247330 0.886943
O O7 0.941692 0.000000 0.806466
O O8 0.550233 0.500000 0.645420
O O9 0.474076 0.301799 0.602963
O O10 0.584255 0.293915 0.543605
O O11 0.408672 0.500000 0.034331
O O12 0.500000 0.665314 0.000000
O O13 0.750000 0.791034 0.308233
O O14 0.856374 0.754691 0.390612
O O15 0.826886 0.000000 0.319100
O O16 0.602551 0.500000 0.435657
#
# Coordination Sequence:
#
# PCOD9398488 Si02
#       6
#     8   8   8   8   8   8
#     4   9  17  29  42  61  90 121 152 187 224 267
#     4  10  17  26  43  67  92 121 151 183 224 276
#     4   9  17  29  45  66  93 123 152 189 235 281
#     4   9  17  27  41  62  88 119 149 181 221 266
#     4  10  20  33  48  67  93 125 159 194 231 270
#     4   9  18  31  46  65  91 122 156 193 234 277
#
# _framework density 15.278874999999999
#
# number of rings (size 3 to 8) (size 9 to 14) (size 15 to 20)
#    0.000    2.667    1.667    2.000    0.000    4.333 
#    0.000    1.667    0.000    0.000    0.000    1.167 
#    0.000    6.667    0.000    0.000    0.000    0.000 
#
# Total GULP energy -267503.250876 kJ/mol
# GULP energy per Si atom -5572.984393 kJ/mol
# Density = 1.524410 g / cm^3
# Si number density = 15.278875 Si / 1000 Ang^3
#
#
#
# Elastic Constant Matrix: (Units=GPa)
#
#
# Indices 1 2 3 4 5 6 
#
# 1 57.9799 35.2698 48.8396 0.0000 0.0000 0.0000
# 2 35.2698 72.9183 87.0407 0.0000 0.0000 0.0000
# 3 48.8396 87.0407 165.3881 0.0000 0.0000 0.0000
# 4 0.0000 0.0000 0.0000 35.0732 0.0000 0.0000
# 5 0.0000 0.0000 0.0000 0.0000 13.2941 0.0000
# 6 0.0000 0.0000 0.0000 0.0000 0.0000 15.1824
#
#
#
# Elastic Compliance Matrix: (Units=1/GPa)
#
#
# Indices 1 2 3 4 5 6 
#
# 1 0.024887 -0.008782 -0.002727 0.000000 0.000000 0.000000
# 2 -0.008782 0.039985 -0.018450 0.000000 0.000000 0.000000
# 3 -0.002727 -0.018450 0.016562 0.000000 0.000000 0.000000
# 4 0.000000 0.000000 0.000000 0.028512 0.000000 0.000000
# 5 0.000000 0.000000 0.000000 0.000000 0.075221 0.000000
# 6 0.000000 0.000000 0.000000 0.000000 0.000000 0.065866
#
#
# Mechanical properties :
#
#
# Convention : Reuss Voigt Hill
#
# Bulk Modulus (GPa) = 46.47932 70.95408 58.71670
# Shear Modulus (GPa) = 15.71719 21.05235 18.38477
#
# Velocity S-wave (km/s) = 3.21080 3.71600 3.47260
# Velocity P-wave (km/s) = 6.65074 8.05926 7.38864
#
# Compressibility (1/GPa) = 0.02151495
#
# Stress axis : x y z
#
# Youngs Moduli (GPa) = 40.18171 25.00935 60.38007
#
# Poissons Ratio (x) = 0.21963 0.16469
# Poissons Ratio (y) = 0.35287 1.11402
# Poissons Ratio (z) = 0.10959 0.46142
#
# Static dielectric constant tensor:
#      x y z
#    x 1.477720 0.000000 0.000000 
#    y 0.000000 1.507240 0.000000 
#    z 0.000000 0.000000 1.501470 
# 
# From -- ./inp_files/25457.got.cif
#   From: 2010.05.17/outbox.cif.g08.bks.cpg/sg51_13_cif.got.tgz:25457.got - 2010.06.03 11:52:47.
