data_PCOD9398797
_publ_section_title
;
Structure prediction by ZEFSAII (Michael W. Deem and Ramdas Pophale) SiO2 
 PCOD9398797
Probable space group: P M M A
;
_chemical_formula_sum "Si O2"
_cell_formula_units_Z 52
_cell_length_a 8.801751
_cell_length_b 27.214728
_cell_length_c 13.943672
_cell_angle_alpha 90.000000
_cell_angle_beta 90.000000
_cell_angle_gamma 90.000000
_cell_volume 3340.028977
_symmetry_space_group_name_H-M "P M M A"
_symmetry_group_IT_number 51
_symmetry_cell_setting 'orthorhombic'
loop_
_space_group_symop_operation_xyz
x,y,z
1/2-x,-y,z
1/2+x,-y,-z
-x,y,-z
-x,-y,-z
1/2+x,y,-z
1/2-x,y,z
x,-y,z
loop_
_atom_site_type_symbol
_atom_site_label
_atom_site_fract_x
_atom_site_fract_y
_atom_site_fract_z
Si Si1 0.067909 0.350445 0.797072
Si Si2 0.932816 0.101102 0.607259
Si Si3 0.432090 0.000000 0.608016
Si Si4 0.430926 0.297439 0.601511
Si Si5 0.568003 0.255928 0.897795
Si Si6 0.067883 0.796046 0.298221
Si Si7 0.931605 0.556433 0.894015
O O1 0.250000 0.349928 0.806811
O O2 0.027746 0.333534 0.689209
O O3 0.997927 0.308890 0.866578
O O4 0.002667 0.403132 0.824785
O O5 0.750000 0.096129 0.600551
O O6 0.970746 0.148965 0.669850
O O7 0.000000 0.108045 0.500000
O O8 0.004079 0.050994 0.649263
O O9 0.500000 0.000000 0.500000
O O10 0.250000 0.000000 0.605520
O O11 0.500000 0.311913 0.500000
O O12 0.250000 0.295764 0.594304
O O13 0.491029 0.243859 0.632690
O O14 0.750000 0.258969 0.903911
O O15 0.527342 0.219014 0.810637
O O16 0.500000 0.241486 0.000000
O O17 0.250000 0.790549 0.307457
O O18 0.750000 0.562115 0.898091
O O19 0.966077 0.500000 0.866190
O O20 0.000000 0.564256 0.000000
#
# Coordination Sequence:
#
# PCOD9398797 Si02
#       7
#     8   8   4   8   8   8   8
#     4  10  20  33  49  70  94 123 155 187 225 269
#     4  10  18  29  44  64  90 120 151 185 223 265
#     4  10  18  28  42  62  87 118 151 184 223 266
#     4  10  20  32  48  69  94 123 155 189 226 267
#     4  10  19  32  48  68  94 123 153 187 226 270
#     4   9  19  32  47  67  92 122 155 188 226 270
#     4  10  20  33  50  72  96 122 151 186 229 274
#
# _framework density 15.568727000000001
#
# number of rings (size 3 to 8) (size 9 to 14) (size 15 to 20)
#    0.000    2.154    0.000    4.846    0.000    5.846 
#    0.000    0.000    0.000    0.462    0.000    0.538 
#    0.000    0.000    0.000    0.000    0.000    0.000 
#
# Total GULP energy -290109.641228 kJ/mol
# GULP energy per Si atom -5579.031562 kJ/mol
# Density = 1.553329 g / cm^3
# Si number density = 15.568727 Si / 1000 Ang^3
#
#
#
# Elastic Constant Matrix: (Units=GPa)
#
#
# Indices 1 2 3 4 5 6 
#
# 1 60.0178 54.2704 37.3100 0.0000 0.0000 0.0000
# 2 54.2704 138.0861 58.7030 0.0000 0.0000 0.0000
# 3 37.3100 58.7030 84.0080 0.0000 0.0000 0.0000
# 4 0.0000 0.0000 0.0000 18.4098 0.0000 0.0000
# 5 0.0000 0.0000 0.0000 0.0000 25.5348 0.0000
# 6 0.0000 0.0000 0.0000 0.0000 0.0000 25.5185
#
#
#
# Elastic Compliance Matrix: (Units=1/GPa)
#
#
# Indices 1 2 3 4 5 6 
#
# 1 0.028365 -0.008240 -0.006839 0.000000 0.000000 0.000000
# 2 -0.008240 0.012696 -0.005212 0.000000 0.000000 0.000000
# 3 -0.006839 -0.005212 0.018583 0.000000 0.000000 0.000000
# 4 0.000000 0.000000 0.000000 0.054319 0.000000 0.000000
# 5 0.000000 0.000000 0.000000 0.000000 0.039162 0.000000
# 6 0.000000 0.000000 0.000000 0.000000 0.000000 0.039187
#
#
# Mechanical properties :
#
#
# Convention : Reuss Voigt Hill
#
# Bulk Modulus (GPa) = 52.46410 64.74208 58.60309
# Shear Modulus (GPa) = 20.89871 22.68119 21.78995
#
# Velocity S-wave (km/s) = 3.66779 3.82100 3.74518
# Velocity P-wave (km/s) = 7.19086 7.81932 7.51166
#
# Compressibility (1/GPa) = 0.01906065
#
# Stress axis : x y z
#
# Youngs Moduli (GPa) = 35.25530 78.76349 53.81197
#
# Poissons Ratio (x) = 0.64904 0.36803
# Poissons Ratio (y) = 0.29051 0.28048
# Poissons Ratio (z) = 0.24112 0.41053
#
# Static dielectric constant tensor:
#      x y z
#    x 1.520770 0.000000 0.000000 
#    y 0.000000 1.523000 0.000000 
#    z 0.000000 0.000000 1.507190 
# 
# From -- ./inp_files/14736.got.cif
#   From: 2010.05.17/outbox.cif.g08.bks.cpg/sg51_8_cif.got.tgz:14736.got - 2010.06.03 11:52:47.
