data_PCOD9398062
_publ_section_title
;
Structure prediction by ZEFSAII (Michael W. Deem and Ramdas Pophale) SiO2 
 PCOD9398062
Probable space group: P B A N
;
_chemical_formula_sum "Si O2"
_cell_formula_units_Z 32
_cell_length_a 7.933880
_cell_length_b 14.492719
_cell_length_c 11.000503
_cell_angle_alpha 90.000000
_cell_angle_beta 90.000000
_cell_angle_gamma 90.000000
_cell_volume 1264.876264
_symmetry_space_group_name_H-M "P B A N"
_symmetry_group_IT_number 50
_space_group.IT_coordinate_system_code '2'
_symmetry_cell_setting 'orthorhombic'
loop_
_space_group_symop_operation_xyz
x,y,z
1/2-x,1/2-y,z
x,1/2-y,-z
1/2-x,y,-z
-x,-y,-z
1/2+x,1/2+y,-z
-x,1/2+y,z
1/2+x,-y,z
loop_
_atom_site_type_symbol
_atom_site_label
_atom_site_fract_x
_atom_site_fract_y
_atom_site_fract_z
Si Si1 0.800730 0.385115 0.743830
Si Si2 0.810472 0.909665 0.197181
Si Si3 0.494899 0.641228 0.972863
Si Si4 0.514700 0.769425 0.640797
O O1 0.799670 0.494453 0.731784
O O2 0.960186 0.329893 0.691527
O O3 0.646136 0.335506 0.675916
O O4 0.829340 0.369897 0.888909
O O5 0.649903 0.891549 0.112366
O O6 0.843401 0.827463 0.290583
O O7 0.967803 0.910072 0.100556
O O8 0.514252 0.750000 0.000000
O O9 0.541933 0.750000 0.500000
#
# Coordination Sequence:
#
# PCOD9398062 Si02
#       4
#     8   8   8   8
#     4  11  23  43  71 102 141 181 228 287 351 408
#     4  11  23  43  71 104 140 181 227 288 351 417
#     4  11  23  44  69 102 146 174 225 290 355 424
#     4  11  26  48  69  99 142 188 240 286 331 412
#
# _framework density 25.298915999999998
#
# number of rings (size 3 to 8) (size 9 to 14) (size 15 to 20)
#    0.000    1.000    2.500    5.250    0.000    4.000 
#    0.000    6.250    0.000    0.000    0.000    0.000 
#    0.000    0.000    0.000    0.000    0.000    0.000 
#
# Total GULP energy -179161.309325 kJ/mol
# GULP energy per Si atom -5598.790916 kJ/mol
# Density = 2.524133 g / cm^3
# Si number density = 25.298916 Si / 1000 Ang^3
#
#
#
# Elastic Constant Matrix: (Units=GPa)
#
#
# Indices 1 2 3 4 5 6 
#
# 1 102.6798 50.9385 31.7519 0.0000 0.0000 0.0000
# 2 50.9385 222.2833 54.1807 0.0000 0.0000 0.0000
# 3 31.7519 54.1807 188.3808 0.0000 0.0000 0.0000
# 4 0.0000 0.0000 0.0000 -71.7785 0.0000 0.0000
# 5 0.0000 0.0000 0.0000 0.0000 23.6141 0.0000
# 6 0.0000 0.0000 0.0000 0.0000 0.0000 7.0827
#
#
#
# Elastic Compliance Matrix: (Units=1/GPa)
#
#
# Indices 1 2 3 4 5 6 
#
# 1 0.011252 -0.002276 -0.001242 0.000000 0.000000 0.000000
# 2 -0.002276 0.005298 -0.001140 0.000000 0.000000 0.000000
# 3 -0.001242 -0.001140 0.005846 0.000000 0.000000 0.000000
# 4 0.000000 0.000000 0.000000 -0.013932 0.000000 0.000000
# 5 0.000000 0.000000 0.000000 0.000000 0.042348 0.000000
# 6 0.000000 0.000000 0.000000 0.000000 0.000000 0.141189
#
#
# Mechanical properties :
#
#
# Convention : Reuss Voigt Hill
#
# Bulk Modulus (GPa) = 76.45325 87.45401 81.95363
# Shear Modulus (GPa) = 24.31000 16.88184 20.59592
#
# Velocity S-wave (km/s) = 3.10322 2.58601 2.85634
# Velocity P-wave (km/s) = 6.56700 6.59999 6.58352
#
# Compressibility (1/GPa) = 0.01307989
#
# Stress axis : x y z
#
# Youngs Moduli (GPa) = 88.87237 188.74276 171.06626
#
# Poissons Ratio (x) = 0.42954 0.21247
# Poissons Ratio (y) = 0.20226 0.19506
# Poissons Ratio (z) = 0.11038 0.21521
#
# Static dielectric constant tensor:
#      x y z
#    x 2.220470 0.000000 0.000000 
#    y 0.000000 1.942940 0.000000 
#    z 0.000000 0.000000 1.981520 
# 
# From -- ./inp_files/18469.got.cif
#   From: 2010.05.17/outbox.cif.g08.bks.cpg/sg50_10_cif.got.tgz:18469.got - 2010.06.03 11:33:33.
