data_PCOD9398513
_publ_section_title
;
Structure prediction by ZEFSAII (Michael W. Deem and Ramdas Pophale) SiO2 
 PCOD9398513
Probable space group: P M M A
;
_chemical_formula_sum "Si O2"
_cell_formula_units_Z 64
_cell_length_a 21.923562
_cell_length_b 7.265658
_cell_length_c 18.926488
_cell_angle_alpha 90.000000
_cell_angle_beta 90.000000
_cell_angle_gamma 90.000000
_cell_volume 3014.783308
_symmetry_space_group_name_H-M "P M M A"
_symmetry_group_IT_number 51
_symmetry_cell_setting 'orthorhombic'
loop_
_space_group_symop_operation_xyz
x,y,z
1/2-x,-y,z
1/2+x,-y,-z
-x,y,-z
-x,-y,-z
1/2+x,y,-z
1/2-x,y,z
x,-y,z
loop_
_atom_site_type_symbol
_atom_site_label
_atom_site_fract_x
_atom_site_fract_y
_atom_site_fract_z
Si Si1 0.478325 0.220377 0.421203
Si Si2 0.818132 0.723782 0.896583
Si Si3 0.356340 0.275544 0.261240
Si Si4 0.085597 0.294533 0.681399
Si Si5 0.010112 0.275954 0.216199
Si Si6 0.048452 0.276309 0.059169
Si Si7 0.161553 0.291774 0.411830
Si Si8 0.818788 0.721213 0.430583
O O1 0.500000 0.260553 0.500000
O O2 0.526417 0.304351 0.368324
O O3 0.411360 0.295380 0.411600
O O4 0.477645 0.000000 0.412122
O O5 0.750000 0.781631 0.920036
O O6 0.818640 0.500000 0.897871
O O7 0.827346 0.776695 0.813932
O O8 0.879763 0.781688 0.938638
O O9 0.355115 0.500000 0.263627
O O10 0.427762 0.219165 0.256649
O O11 0.324926 0.211961 0.334088
O O12 0.108123 0.500000 0.699797
O O13 0.053662 0.210408 0.750499
O O14 0.135267 0.207310 0.629087
O O15 0.008579 0.500000 0.219501
O O16 0.021169 0.225132 0.135389
O O17 0.050143 0.500000 0.055638
O O18 0.000000 0.215144 0.000000
O O19 0.185398 0.500000 0.413038
O O20 0.176422 0.208139 0.488591
O O21 0.750000 0.749302 0.406806
O O22 0.830909 0.500000 0.435944
#
# Coordination Sequence:
#
# PCOD9398513 Si02
#       8
#     8   8   8   8   8   8   8   8
#     4  11  21  29  40  62  88 106 134 179 219 253
#     4   8  13  20  30  48  76 109 137 164 204 246
#     4   8  13  20  33  54  75  94 125 167 199 238
#     4  10  17  28  47  61  77 107 140 175 212 255
#     4   8  13  21  36  58  75  94 131 166 199 246
#     4   8  13  21  33  51  79 108 132 164 202 245
#     4  10  17  27  44  60  80 109 140 172 211 259
#     4   9  18  28  39  59  80 101 137 181 217 246
#
# _framework density 21.228724
#
# number of rings (size 3 to 8) (size 9 to 14) (size 15 to 20)
#    0.000    3.000    2.500    1.875    0.000    1.000 
#    0.000    2.500    0.000    2.250    0.000    5.250 
#    0.000    0.500    0.000    0.000    0.000    0.250 
#
# Total GULP energy -356712.455880 kJ/mol
# GULP energy per Si atom -5573.632123 kJ/mol
# Density = 2.118041 g / cm^3
# Si number density = 21.228724 Si / 1000 Ang^3
#
#
#
# Elastic Constant Matrix: (Units=GPa)
#
#
# Indices 1 2 3 4 5 6 
#
# 1 158.6504 5.0981 77.1967 0.0000 0.0000 0.0000
# 2 5.0981 91.3578 6.7829 0.0000 0.0000 0.0000
# 3 77.1967 6.7829 111.6958 0.0000 0.0000 0.0000
# 4 0.0000 0.0000 0.0000 -18.1534 0.0000 0.0000
# 5 0.0000 0.0000 0.0000 0.0000 3.0709 0.0000
# 6 0.0000 0.0000 0.0000 0.0000 0.0000 152.7289
#
#
#
# Elastic Compliance Matrix: (Units=1/GPa)
#
#
# Indices 1 2 3 4 5 6 
#
# 1 0.009497 -0.000043 -0.006561 0.000000 0.000000 0.000000
# 2 -0.000043 0.010996 -0.000638 0.000000 0.000000 0.000000
# 3 -0.006561 -0.000638 0.013526 0.000000 0.000000 0.000000
# 4 0.000000 0.000000 0.000000 -0.055086 0.000000 0.000000
# 5 0.000000 0.000000 0.000000 0.000000 0.325633 0.000000
# 6 0.000000 0.000000 0.000000 0.000000 0.000000 0.006548
#
#
# Mechanical properties :
#
#
# Convention : Reuss Voigt Hill
#
# Bulk Modulus (GPa) = 51.19053 59.98439 55.58746
# Shear Modulus (GPa) = 15.05526 45.70435 30.37981
#
# Velocity S-wave (km/s) = 2.66596 4.64502 3.78705
# Velocity P-wave (km/s) = 5.80022 7.55552 6.73530
#
# Compressibility (1/GPa) = 0.01953486
#
# Stress axis : x y z
#
# Youngs Moduli (GPa) = 105.29529 90.94431 73.93013
#
# Poissons Ratio (x) = 0.00390 0.48507
# Poissons Ratio (y) = 0.00451 0.04718
# Poissons Ratio (z) = 0.69086 0.05803
#
# Static dielectric constant tensor:
#      x y z
#    x 1.747020 0.000000 0.000000 
#    y 0.000000 1.809820 0.000000 
#    z 0.000000 0.000000 1.788880 
# 
# From -- ./inp_files/34152.got.cif
#   From: 2010.05.17/outbox.cif.g08.bks.cpg/sg51_18_cif.got.tgz:34152.got - 2010.06.03 11:52:47.
