data_PCOD9398502
_publ_section_title
;
Structure prediction by ZEFSAII (Michael W. Deem and Ramdas Pophale) SiO2 
 PCOD9398502
Probable space group: P M M A
;
_chemical_formula_sum "Si O2"
_cell_formula_units_Z 48
_cell_length_a 15.747081
_cell_length_b 17.540329
_cell_length_c 9.237935
_cell_angle_alpha 90.000000
_cell_angle_beta 90.000000
_cell_angle_gamma 90.000000
_cell_volume 2551.600618
_symmetry_space_group_name_H-M "P M M A"
_symmetry_group_IT_number 51
_symmetry_cell_setting 'orthorhombic'
loop_
_space_group_symop_operation_xyz
x,y,z
1/2-x,-y,z
1/2+x,-y,-z
-x,y,-z
-x,-y,-z
1/2+x,y,-z
1/2-x,y,z
x,-y,z
loop_
_atom_site_type_symbol
_atom_site_label
_atom_site_fract_x
_atom_site_fract_y
_atom_site_fract_z
Si Si1 0.422949 0.354393 0.320595
Si Si2 0.750000 0.592514 0.829963
Si Si3 0.097431 0.412735 0.634332
Si Si4 0.250000 0.592382 0.837451
Si Si5 0.847223 0.087831 0.312008
Si Si6 0.342201 0.087820 0.335978
Si Si7 0.003104 0.809852 0.323748
O O1 0.336505 0.376073 0.241121
O O2 0.502382 0.411510 0.302510
O O3 0.402001 0.360096 0.492299
O O4 0.465289 0.273794 0.280272
O O5 0.750000 0.500000 0.817675
O O6 0.750000 0.616495 0.997500
O O7 0.118177 0.500000 0.590352
O O8 0.166456 0.385154 0.748738
O O9 0.250000 0.500000 0.840280
O O10 0.750000 0.102007 0.264479
O O11 0.846108 0.088347 0.488266
O O12 0.915127 0.152608 0.270257
O O13 0.870699 0.000000 0.271244
O O14 0.250000 0.119914 0.294564
O O15 0.421438 0.133781 0.279608
O O16 0.346482 0.000000 0.291369
O O17 0.000000 0.808873 0.500000
#
# Coordination Sequence:
#
# PCOD9398502 Si02
#       7
#     8   4   8   4   8   8   8
#     4  11  21  33  52  83 113 142 170 220 279 326
#     4  11  23  39  57  79 102 139 186 230 275 323
#     4  10  19  37  56  78 105 137 178 220 269 330
#     4   9  21  39  61  79  97 133 184 230 268 319
#     4   8  14  25  40  59  91 142 188 214 246 305
#     4   8  14  23  37  56  86 136 179 206 242 300
#     4  10  17  27  39  68 102 140 175 209 254 327
#
# _framework density 18.811720999999999
#
# number of rings (size 3 to 8) (size 9 to 14) (size 15 to 20)
#    0.000    2.500    1.667    4.000    1.167    3.333 
#    1.500    2.500    0.000    0.000    0.000    0.000 
#    0.000    0.000    0.000   30.000    0.000    5.000 
#
# Total GULP energy -267337.760843 kJ/mol
# GULP energy per Si atom -5569.536684 kJ/mol
# Density = 1.876891 g / cm^3
# Si number density = 18.811721 Si / 1000 Ang^3
#
#
#
# Elastic Constant Matrix: (Units=GPa)
#
#
# Indices 1 2 3 4 5 6 
#
# 1 161.4925 59.5704 59.3695 0.0000 0.0000 0.0000
# 2 59.5704 95.4846 15.1141 0.0000 0.0000 0.0000
# 3 59.3695 15.1141 50.0089 0.0000 0.0000 0.0000
# 4 0.0000 0.0000 0.0000 -2.3353 0.0000 0.0000
# 5 0.0000 0.0000 0.0000 0.0000 -3.6673 0.0000
# 6 0.0000 0.0000 0.0000 0.0000 0.0000 20.6975
#
#
#
# Elastic Compliance Matrix: (Units=1/GPa)
#
#
# Indices 1 2 3 4 5 6 
#
# 1 0.013898 -0.006364 -0.014577 0.000000 0.000000 0.000000
# 2 -0.006364 0.013913 0.003350 0.000000 0.000000 0.000000
# 3 -0.014577 0.003350 0.036289 0.000000 0.000000 0.000000
# 4 0.000000 0.000000 0.000000 -0.428209 0.000000 0.000000
# 5 0.000000 0.000000 0.000000 0.000000 -0.272677 0.000000
# 6 0.000000 0.000000 0.000000 0.000000 0.000000 0.048315
#
#
# Mechanical properties :
#
#
# Convention : Reuss Voigt Hill
#
# Bulk Modulus (GPa) = 34.57873 63.89932 49.23902
# Shear Modulus (GPa) = -9.19709 14.46778 2.63534
#
# Velocity S-wave (km/s) = -2.21351 2.77624 1.18488
# Velocity P-wave (km/s) = 3.44798 6.65720 5.30126
#
# Compressibility (1/GPa) = 0.02891952
#
# Stress axis : x y z
#
# Youngs Moduli (GPa) = 71.95086 71.87674 27.55653
#
# Poissons Ratio (x) = 0.45739 0.40168
# Poissons Ratio (y) = 0.45786 -0.09231
# Poissons Ratio (z) = 1.04880 -0.24077
#
# Static dielectric constant tensor:
#      x y z
#    x 1.668370 0.000000 0.000000 
#    y 0.000000 1.684970 0.000000 
#    z 0.000000 0.000000 1.629710 
# 
# From -- ./inp_files/8364.got.cif
#   From: 2010.05.17/outbox.cif.g08.bks.cpg/sg51_5_cif.got.tgz:8364.got - 2010.06.03 11:52:47.
