data_PCOD9399958
_publ_section_title
;
Structure prediction by ZEFSAII (Michael W. Deem and Ramdas Pophale) SiO2 
 PCOD9399958
Probable space group: P M M A
;
_chemical_formula_sum "Si O2"
_cell_formula_units_Z 48
_cell_length_a 28.646421
_cell_length_b 7.742242
_cell_length_c 10.544446
_cell_angle_alpha 90.000000
_cell_angle_beta 90.000000
_cell_angle_gamma 90.000000
_cell_volume 2338.626568
_symmetry_space_group_name_H-M "P M M A"
_symmetry_group_IT_number 51
_symmetry_cell_setting 'orthorhombic'
loop_
_space_group_symop_operation_xyz
x,y,z
1/2-x,-y,z
1/2+x,-y,-z
-x,y,-z
-x,-y,-z
1/2+x,y,-z
1/2-x,y,z
x,-y,z
loop_
_atom_site_type_symbol
_atom_site_label
_atom_site_fract_x
_atom_site_fract_y
_atom_site_fract_z
Si Si1 0.653820 0.209145 0.514207
Si Si2 0.853385 0.212582 0.986377
Si Si3 0.011241 0.703019 0.641709
Si Si4 0.912729 0.209008 0.741883
Si Si5 0.111295 0.202961 0.742998
Si Si6 0.750000 0.802326 0.929143
Si Si7 0.750000 0.300802 0.644860
O O1 0.615668 0.267321 0.617378
O O2 0.640666 0.275644 0.375168
O O3 0.704244 0.261252 0.563865
O O4 0.651973 0.000000 0.512188
O O5 0.884777 0.266844 0.866546
O O6 0.799749 0.272687 0.971984
O O7 0.852900 0.000000 0.981848
O O8 0.875531 0.271985 0.118906
O O9 0.020473 0.500000 0.627753
O O10 0.965648 0.730509 0.727337
O O11 0.000000 0.773646 0.500000
O O12 0.057265 0.780889 0.704569
O O13 0.913183 0.000000 0.742309
O O14 0.122554 0.000000 0.749612
O O15 0.750000 0.802645 0.776251
O O16 0.750000 0.000000 0.975871
O O17 0.750000 0.500000 0.682630
#
# Coordination Sequence:
#
# PCOD9399958 Si02
#       7
#     8   8   8   8   8   4   4
#     4  10  20  36  60  86 111 144 189 236 280 330
#     4   9  19  35  60  89 115 144 183 238 290 333
#     4  11  23  37  56  83 116 155 191 232 288 341
#     4  10  19  35  60  87 111 144 189 235 280 331
#     4  10  21  38  60  87 114 146 190 238 287 337
#     4  10  18  37  62  84 114 150 190 230 281 339
#     4  12  24  35  56  88 118 150 190 234 281 333
#
# _framework density 20.524867
#
# number of rings (size 3 to 8) (size 9 to 14) (size 15 to 20)
#    0.000    1.833    3.333    1.250    0.000    3.333 
#    0.000    7.500    0.000    1.000    0.000    0.000 
#    0.000    0.000    0.000    0.000    0.000    0.000 
#
# Total GULP energy -268110.361484 kJ/mol
# GULP energy per Si atom -5585.632531 kJ/mol
# Density = 2.047815 g / cm^3
# Si number density = 20.524867 Si / 1000 Ang^3
#
#
#
# Elastic Constant Matrix: (Units=GPa)
#
#
# Indices 1 2 3 4 5 6 
#
# 1 122.0294 -18.3660 54.3257 0.0000 0.0000 0.0000
# 2 -18.3660 28.7264 4.9244 0.0000 0.0000 0.0000
# 3 54.3257 4.9244 139.6347 0.0000 0.0000 0.0000
# 4 0.0000 0.0000 0.0000 2.0283 0.0000 0.0000
# 5 0.0000 0.0000 0.0000 0.0000 28.4114 0.0000
# 6 0.0000 0.0000 0.0000 0.0000 0.0000 103.3284
#
#
#
# Elastic Compliance Matrix: (Units=1/GPa)
#
#
# Indices 1 2 3 4 5 6 
#
# 1 0.011562 0.008213 -0.004788 0.000000 0.000000 0.000000
# 2 0.008213 0.040857 -0.004636 0.000000 0.000000 0.000000
# 3 -0.004788 -0.004636 0.009188 0.000000 0.000000 0.000000
# 4 0.000000 0.000000 0.000000 0.493029 0.000000 0.000000
# 5 0.000000 0.000000 0.000000 0.000000 0.035197 0.000000
# 6 0.000000 0.000000 0.000000 0.000000 0.000000 0.009678
#
#
# Mechanical properties :
#
#
# Convention : Reuss Voigt Hill
#
# Bulk Modulus (GPa) = 16.89618 41.35096 29.12357
# Shear Modulus (GPa) = 8.04295 43.38737 25.71516
#
# Velocity S-wave (km/s) = 1.98170 4.60270 3.54344
# Velocity P-wave (km/s) = 3.67234 6.95966 5.56431
#
# Compressibility (1/GPa) = 0.05918498
#
# Stress axis : x y z
#
# Youngs Moduli (GPa) = 86.48686 24.47561 108.83899
#
# Poissons Ratio (x) = -0.20102 0.52113
# Poissons Ratio (y) = -0.71033 0.50460
# Poissons Ratio (z) = 0.41411 0.11347
#
# Static dielectric constant tensor:
#      x y z
#    x 1.693400 0.000000 0.000000 
#    y 0.000000 1.763110 0.000000 
#    z 0.000000 0.000000 1.723930 
# 
# From -- ./inp_files/12940.got.cif
#   From: 2010.05.17/outbox.cif.g08.bks.cpg/sg51_7_cif.got.tgz:12940.got - 2010.06.03 11:52:47.
