data_PCOD9399057
_publ_section_title
;
Structure prediction by ZEFSAII (Michael W. Deem and Ramdas Pophale) SiO2 
 PCOD9399057
Probable space group: P M M A
;
_chemical_formula_sum "Si O2"
_cell_formula_units_Z 52
_cell_length_a 7.697298
_cell_length_b 14.126195
_cell_length_c 24.756123
_cell_angle_alpha 90.000000
_cell_angle_beta 90.000000
_cell_angle_gamma 90.000000
_cell_volume 2691.820705
_symmetry_space_group_name_H-M "P M M A"
_symmetry_group_IT_number 51
_symmetry_cell_setting 'orthorhombic'
loop_
_space_group_symop_operation_xyz
x,y,z
1/2-x,-y,z
1/2+x,-y,-z
-x,y,-z
-x,-y,-z
1/2+x,y,-z
1/2-x,y,z
x,-y,z
loop_
_atom_site_type_symbol
_atom_site_label
_atom_site_fract_x
_atom_site_fract_y
_atom_site_fract_z
Si Si1 0.462343 0.606093 0.641390
Si Si2 0.446995 0.776913 0.160575
Si Si3 0.542310 0.890406 0.261401
Si Si4 0.537914 0.810522 0.376003
Si Si5 0.040533 0.892097 0.061473
Si Si6 0.041232 0.000000 0.562955
Si Si7 0.456475 0.602660 0.765801
O O1 0.250000 0.605843 0.640283
O O2 0.516965 0.500000 0.623471
O O3 0.517702 0.702687 0.611074
O O4 0.519544 0.617359 0.704225
O O5 0.250000 0.753945 0.146674
O O6 0.455550 0.857592 0.206437
O O7 0.529898 0.820305 0.106620
O O8 0.514366 0.685212 0.191696
O O9 0.750000 0.876676 0.254562
O O10 0.488765 0.831885 0.313935
O O11 0.510420 0.000000 0.272754
O O12 0.750000 0.811626 0.378232
O O13 0.477107 0.901315 0.410443
O O14 0.250000 0.895572 0.067067
O O15 0.975972 0.000000 0.069969
O O16 0.000000 0.864848 0.000000
O O17 0.000000 0.000000 0.500000
O O18 0.250000 0.000000 0.570788
O O19 0.250000 0.597403 0.759630
O O20 0.522037 0.500000 0.784409
#
# Coordination Sequence:
#
# PCOD9399057 Si02
#       7
#     8   8   8   8   8   4   8
#     4   8  13  23  44  72  96 119 154 202 245 281
#     4  11  21  31  46  71 104 134 156 192 251 312
#     4  10  18  29  47  71  97 127 163 201 240 287
#     4   9  15  27  48  70  94 124 162 203 241 283
#     4   9  19  35  51  67  91 125 165 204 242 288
#     4  10  20  34  52  72  96 132 169 208 245 284
#     4   9  17  30  49  72  98 128 165 204 237 284
#
# _framework density 19.317779999999999
#
# number of rings (size 3 to 8) (size 9 to 14) (size 15 to 20)
#    0.000    2.615    2.308    1.846    0.000    2.462 
#    0.000    2.308    0.000    0.923    0.000    0.000 
#    0.000    0.000    0.000    0.000    0.000    0.000 
#
# Total GULP energy -289694.642517 kJ/mol
# GULP energy per Si atom -5571.050818 kJ/mol
# Density = 1.927381 g / cm^3
# Si number density = 19.317780 Si / 1000 Ang^3
#
#
#
# Elastic Constant Matrix: (Units=GPa)
#
#
# Indices 1 2 3 4 5 6 
#
# 1 22.3553 11.0684 -6.0357 0.0000 0.0000 0.0000
# 2 11.0684 158.4120 49.4152 0.0000 0.0000 0.0000
# 3 -6.0357 49.4152 60.6466 0.0000 0.0000 0.0000
# 4 0.0000 0.0000 0.0000 13.5764 0.0000 0.0000
# 5 0.0000 0.0000 0.0000 0.0000 14.4683 0.0000
# 6 0.0000 0.0000 0.0000 0.0000 0.0000 -11.6171
#
#
#
# Elastic Compliance Matrix: (Units=1/GPa)
#
#
# Indices 1 2 3 4 5 6 
#
# 1 0.051042 -0.006906 0.010707 0.000000 0.000000 0.000000
# 2 -0.006906 0.009398 -0.008345 0.000000 0.000000 0.000000
# 3 0.010707 -0.008345 0.024354 0.000000 0.000000 0.000000
# 4 0.000000 0.000000 0.000000 0.073657 0.000000 0.000000
# 5 0.000000 0.000000 0.000000 0.000000 0.069117 0.000000
# 6 0.000000 0.000000 0.000000 0.000000 0.000000 -0.086080
#
#
# Mechanical properties :
#
#
# Convention : Reuss Voigt Hill
#
# Bulk Modulus (GPa) = 13.20892 38.92329 26.06611
# Shear Modulus (GPa) = 28.43934 15.74994 22.09464
#
# Velocity S-wave (km/s) = 3.84107 2.85846 3.38560
# Velocity P-wave (km/s) = 5.15017 5.57558 5.36709
#
# Compressibility (1/GPa) = 0.07570640
#
# Stress axis : x y z
#
# Youngs Moduli (GPa) = 19.59156 106.40068 41.06046
#
# Poissons Ratio (x) = 0.73485 -0.43965
# Poissons Ratio (y) = 0.13531 0.34266
# Poissons Ratio (z) = -0.20977 0.88794
#
# Static dielectric constant tensor:
#      x y z
#    x 1.719240 0.000000 0.000000 
#    y 0.000000 1.737880 0.000000 
#    z 0.000000 0.000000 1.647260 
# 
# From -- ./inp_files/34734.got.cif
#   From: 2010.05.17/outbox.cif.g08.bks.cpg/sg51_18_cif.got.tgz:34734.got - 2010.06.03 11:52:47.
