data_PCOD9399178
_publ_section_title
;
Structure prediction by ZEFSAII (Michael W. Deem and Ramdas Pophale) SiO2 
 PCOD9399178
Probable space group: P M M A
;
_chemical_formula_sum "Si O2"
_cell_formula_units_Z 48
_cell_length_a 24.662837
_cell_length_b 7.875600
_cell_length_c 14.188037
_cell_angle_alpha 90.000000
_cell_angle_beta 90.000000
_cell_angle_gamma 90.000000
_cell_volume 2755.808246
_symmetry_space_group_name_H-M "P M M A"
_symmetry_group_IT_number 51
_symmetry_cell_setting 'orthorhombic'
loop_
_space_group_symop_operation_xyz
x,y,z
1/2-x,-y,z
1/2+x,-y,-z
-x,y,-z
-x,-y,-z
1/2+x,y,-z
1/2-x,y,z
x,-y,z
loop_
_atom_site_type_symbol
_atom_site_label
_atom_site_fract_x
_atom_site_fract_y
_atom_site_fract_z
Si Si1 0.083965 0.207278 0.962317
Si Si2 0.189090 0.204927 0.636946
Si Si3 0.970958 0.195452 0.641659
Si Si4 0.422417 0.307537 0.550690
Si Si5 0.475975 0.207563 0.147234
Si Si6 0.310766 0.792668 0.854671
O O1 0.141208 0.266628 0.922086
O O2 0.034908 0.257927 0.892820
O O3 0.084547 0.000000 0.962573
O O4 0.067242 0.259920 0.067699
O O5 0.250000 0.261423 0.609796
O O6 0.139344 0.264891 0.573929
O O7 0.179643 0.257490 0.745839
O O8 0.189104 0.000000 0.635499
O O9 0.937809 0.284858 0.558655
O O10 0.965799 0.266982 0.746800
O O11 0.034085 0.199781 0.610146
O O12 0.952974 0.000000 0.642355
O O13 0.433425 0.500000 0.578454
O O14 0.476242 0.000000 0.150246
O O15 0.250000 0.738834 0.881511
O O16 0.311246 0.000000 0.855676
#
# Coordination Sequence:
#
# PCOD9399178 Si02
#       6
#     8   8   8   8   8   8
#     4   8  12  20  34  58  89 111 133 169 214 257
#     4   9  17  30  48  69  91 116 147 180 215 260
#     4  10  18  30  47  65  87 118 154 186 221 262
#     4  11  21  31  44  65  91 117 147 184 228 269
#     4   8  14  22  37  60  83 110 141 175 213 254
#     4   8  13  21  37  62  89 113 135 166 211 258
#
# _framework density 17.417757000000002
#
# number of rings (size 3 to 8) (size 9 to 14) (size 15 to 20)
#    0.000    3.000    0.000    6.000    0.000    3.000 
#    0.000    0.000    0.000    1.000    0.000   26.833 
#    0.000    0.000    0.000    0.000    0.000    0.000 
#
# Total GULP energy -267504.859807 kJ/mol
# GULP energy per Si atom -5573.017913 kJ/mol
# Density = 1.737811 g / cm^3
# Si number density = 17.417757 Si / 1000 Ang^3
#
#
#
# Elastic Constant Matrix: (Units=GPa)
#
#
# Indices 1 2 3 4 5 6 
#
# 1 145.3719 3.1212 81.0760 0.0000 0.0000 0.0000
# 2 3.1212 23.2587 0.8506 0.0000 0.0000 0.0000
# 3 81.0760 0.8506 120.4630 0.0000 0.0000 0.0000
# 4 0.0000 0.0000 0.0000 -27.4734 0.0000 0.0000
# 5 0.0000 0.0000 0.0000 0.0000 23.6004 0.0000
# 6 0.0000 0.0000 0.0000 0.0000 0.0000 -5.7554
#
#
#
# Elastic Compliance Matrix: (Units=1/GPa)
#
#
# Indices 1 2 3 4 5 6 
#
# 1 0.011047 -0.001211 -0.007426 0.000000 0.000000 0.000000
# 2 -0.001211 0.043138 0.000510 0.000000 0.000000 0.000000
# 3 -0.007426 0.000510 0.013296 0.000000 0.000000 0.000000
# 4 0.000000 0.000000 0.000000 -0.036399 0.000000 0.000000
# 5 0.000000 0.000000 0.000000 0.000000 0.042372 0.000000
# 6 0.000000 0.000000 0.000000 0.000000 0.000000 -0.173749
#
#
# Mechanical properties :
#
#
# Convention : Reuss Voigt Hill
#
# Bulk Modulus (GPa) = 19.52079 51.02102 35.27090
# Shear Modulus (GPa) = -74.66573 11.67735 -31.49419
#
# Velocity S-wave (km/s) = -6.55444 2.59207 -4.25687
# Velocity P-wave (km/s) = 6.78595 6.18988 1.96654
#
# Compressibility (1/GPa) = 0.05122744
#
# Stress axis : x y z
#
# Youngs Moduli (GPa) = 90.52549 23.18118 75.21162
#
# Poissons Ratio (x) = 0.02807 0.55854
# Poissons Ratio (y) = 0.10961 -0.03838
# Poissons Ratio (z) = 0.67226 -0.01183
#
# Static dielectric constant tensor:
#      x y z
#    x 1.583690 0.000000 0.000000 
#    y 0.000000 1.607120 0.000000 
#    z 0.000000 0.000000 1.584250 
# 
# From -- ./inp_files/26035.got.cif
#   From: 2010.05.17/outbox.cif.g08.bks.cpg/sg51_14_cif.got.tgz:26035.got - 2010.06.03 11:52:47.
