data_PCOD9399666
_publ_section_title
;
Structure prediction by ZEFSAII (Michael W. Deem and Ramdas Pophale) SiO2 
 PCOD9399666
Probable space group: P M M A
;
_chemical_formula_sum "Si O2"
_cell_formula_units_Z 44
_cell_length_a 8.507525
_cell_length_b 29.730664
_cell_length_c 9.890011
_cell_angle_alpha 90.000000
_cell_angle_beta 90.000000
_cell_angle_gamma 90.000000
_cell_volume 2501.523674
_symmetry_space_group_name_H-M "P M M A"
_symmetry_group_IT_number 51
_symmetry_cell_setting 'orthorhombic'
loop_
_space_group_symop_operation_xyz
x,y,z
1/2-x,-y,z
1/2+x,-y,-z
-x,y,-z
-x,-y,-z
1/2+x,y,-z
1/2-x,y,z
x,-y,z
loop_
_atom_site_type_symbol
_atom_site_label
_atom_site_fract_x
_atom_site_fract_y
_atom_site_fract_z
Si Si1 0.936979 0.094529 0.653360
Si Si2 0.561102 0.171755 0.151797
Si Si3 0.439868 0.548295 0.654609
Si Si4 0.937193 0.000000 0.345777
Si Si5 0.440348 0.646643 0.653417
Si Si6 0.939693 0.725835 0.150767
O O1 0.750000 0.092397 0.647953
O O2 0.000000 0.099570 0.500000
O O3 0.992962 0.135695 0.744762
O O4 0.000780 0.047072 0.711808
O O5 0.750000 0.169221 0.152752
O O6 0.513438 0.223094 0.187908
O O7 0.500000 0.163210 0.000000
O O8 0.500000 0.548192 0.500000
O O9 0.250000 0.548159 0.653987
O O10 0.491681 0.500000 0.715368
O O11 0.489609 0.597185 0.709153
O O12 0.000000 0.000000 0.500000
O O13 0.750000 0.000000 0.346277
O O14 0.500000 0.650949 0.500000
O O15 0.250000 0.647558 0.650461
O O16 0.495722 0.687788 0.745697
O O17 0.750000 0.724792 0.148792
O O18 0.000000 0.716851 0.000000
#
# Coordination Sequence:
#
# PCOD9399666 Si02
#       6
#     8   8   8   4   8   8
#     4  11  21  35  55  80 107 137 170 206 246 290
#     4  10  20  36  54  74  99 130 167 207 251 299
#     4   8  13  22  38  60  87 118 150 186 232 283
#     4  10  18  32  53  78 107 138 169 204 244 290
#     4   9  17  29  45  69  96 121 154 198 242 285
#     4   9  19  34  51  69  93 126 163 199 239 291
#
# _framework density 17.589279999999999
#
# number of rings (size 3 to 8) (size 9 to 14) (size 15 to 20)
#    0.000    2.545    0.000    4.091    0.000    2.182 
#    0.000    2.273    0.000    0.545    0.000    0.000 
#    0.000    0.000    0.000    0.000    0.000    0.000 
#
# Total GULP energy -245120.806024 kJ/mol
# GULP energy per Si atom -5570.927410 kJ/mol
# Density = 1.754925 g / cm^3
# Si number density = 17.589280 Si / 1000 Ang^3
#
#
#
# Elastic Constant Matrix: (Units=GPa)
#
#
# Indices 1 2 3 4 5 6 
#
# 1 65.1623 46.6636 22.6166 0.0000 0.0000 0.0000
# 2 46.6636 208.4848 92.3752 0.0000 0.0000 0.0000
# 3 22.6166 92.3752 59.3694 0.0000 0.0000 0.0000
# 4 0.0000 0.0000 0.0000 -13.6173 0.0000 0.0000
# 5 0.0000 0.0000 0.0000 0.0000 23.6723 0.0000
# 6 0.0000 0.0000 0.0000 0.0000 0.0000 -4.3859
#
#
#
# Elastic Compliance Matrix: (Units=1/GPa)
#
#
# Indices 1 2 3 4 5 6 
#
# 1 0.018344 -0.003250 -0.001931 0.000000 0.000000 0.000000
# 2 -0.003250 0.016019 -0.023686 0.000000 0.000000 0.000000
# 3 -0.001931 -0.023686 0.054433 0.000000 0.000000 0.000000
# 4 0.000000 0.000000 0.000000 -0.073436 0.000000 0.000000
# 5 0.000000 0.000000 0.000000 0.000000 0.042244 0.000000
# 6 0.000000 0.000000 0.000000 0.000000 0.000000 -0.228005
#
#
# Mechanical properties :
#
#
# Convention : Reuss Voigt Hill
#
# Bulk Modulus (GPa) = 32.19394 72.92524 52.55959
# Shear Modulus (GPa) = -48.86959 12.55790 -18.15585
#
# Velocity S-wave (km/s) = -5.27675 2.67489 -3.21629
# Velocity P-wave (km/s) = 4.33388 7.14773 4.01918
#
# Compressibility (1/GPa) = 0.03106175
#
# Stress axis : x y z
#
# Youngs Moduli (GPa) = 54.51365 62.42657 18.37107
#
# Poissons Ratio (x) = 0.20290 0.03547
# Poissons Ratio (y) = 0.17718 0.43514
# Poissons Ratio (z) = 0.10526 1.47864
#
# Static dielectric constant tensor:
#      x y z
#    x 1.590560 0.000000 0.000000 
#    y 0.000000 1.662300 0.000000 
#    z 0.000000 0.000000 1.550420 
# 
# From -- ./inp_files/5858.got.cif
#   From: 2010.05.17/outbox.cif.g08.bks.cpg/sg51_3_cif.got.tgz:5858.got - 2010.06.03 11:52:47.
