data_PCOD9399514
_publ_section_title
;
Structure prediction by ZEFSAII (Michael W. Deem and Ramdas Pophale) SiO2 
 PCOD9399514
Probable space group: P M M A
;
_chemical_formula_sum "Si O2"
_cell_formula_units_Z 64
_cell_length_a 22.772817
_cell_length_b 7.846091
_cell_length_c 15.924173
_cell_angle_alpha 90.000000
_cell_angle_beta 90.000000
_cell_angle_gamma 90.000000
_cell_volume 2845.292926
_symmetry_space_group_name_H-M "P M M A"
_symmetry_group_IT_number 51
_symmetry_cell_setting 'orthorhombic'
loop_
_space_group_symop_operation_xyz
x,y,z
1/2-x,-y,z
1/2+x,-y,-z
-x,y,-z
-x,-y,-z
1/2+x,y,-z
1/2-x,y,z
x,-y,z
loop_
_atom_site_type_symbol
_atom_site_label
_atom_site_fract_x
_atom_site_fract_y
_atom_site_fract_z
Si Si1 0.864563 0.195864 0.107666
Si Si2 0.121378 0.298528 0.073064
Si Si3 0.182771 0.708349 0.242736
Si Si4 0.687192 0.703225 0.466788
Si Si5 0.400869 0.294136 0.397269
Si Si6 0.490757 0.799390 0.697007
Si Si7 0.143396 0.794107 0.709360
Si Si8 0.997512 0.303487 0.122411
O O1 0.842211 0.269600 0.196557
O O2 0.935652 0.208651 0.115678
O O3 0.846636 0.000000 0.103907
O O4 0.849875 0.274132 0.017718
O O5 0.114322 0.500000 0.086844
O O6 0.157692 0.232496 0.152594
O O7 0.054032 0.232005 0.073926
O O8 0.250000 0.763306 0.254966
O O9 0.183261 0.500000 0.242367
O O10 0.140001 0.759432 0.318495
O O11 0.750000 0.770816 0.497818
O O12 0.687703 0.500000 0.480019
O O13 0.631875 0.769314 0.519289
O O14 0.681636 0.735928 0.368256
O O15 0.403314 0.500000 0.398227
O O16 0.466424 0.231912 0.380250
O O17 0.423599 0.742383 0.687425
O O18 0.515043 0.704238 0.779389
O O19 0.490262 0.000000 0.716311
O O20 0.145265 0.000000 0.712841
O O21 0.985800 0.500000 0.098005
#
# Coordination Sequence:
#
# PCOD9399514 Si02
#       8
#     8   8   8   8   8   8   8   8
#     4  10  21  35  52  77 108 145 184 225 276 327
#     4  10  19  31  50  79 108 142 185 224 267 322
#     4   9  17  32  54  78 108 146 184 222 268 328
#     4  10  22  39  61  88 111 137 183 238 284 326
#     4  10  19  35  58  85 114 144 179 223 279 338
#     4  10  20  34  54  83 117 151 185 223 272 331
#     4   9  21  40  57  77 110 150 188 226 278 337
#     4  10  18  31  51  79 112 145 181 223 270 326
#
# _framework density 22.493290999999999
#
# number of rings (size 3 to 8) (size 9 to 14) (size 15 to 20)
#    0.000    2.250    1.250    2.625    0.000    8.250 
#    0.000    3.125    0.000    4.500    0.000    0.000 
#    0.000    0.000    0.000    0.000    0.000    0.000 
#
# Total GULP energy -357349.956176 kJ/mol
# GULP energy per Si atom -5583.593065 kJ/mol
# Density = 2.244210 g / cm^3
# Si number density = 22.493291 Si / 1000 Ang^3
#
#
#
# Elastic Constant Matrix: (Units=GPa)
#
#
# Indices 1 2 3 4 5 6 
#
# 1 27.6668 -0.1106 6.7552 0.0000 0.0000 0.0000
# 2 -0.1106 27.0211 -1.5130 0.0000 0.0000 0.0000
# 3 6.7552 -1.5130 84.6056 0.0000 0.0000 0.0000
# 4 0.0000 0.0000 0.0000 35.9546 0.0000 0.0000
# 5 0.0000 0.0000 0.0000 0.0000 10.3788 0.0000
# 6 0.0000 0.0000 0.0000 0.0000 0.0000 17.7701
#
#
#
# Elastic Compliance Matrix: (Units=1/GPa)
#
#
# Indices 1 2 3 4 5 6 
#
# 1 0.036863 -0.000014 -0.002944 0.000000 0.000000 0.000000
# 2 -0.000014 0.037045 0.000664 0.000000 0.000000 0.000000
# 3 -0.002944 0.000664 0.012066 0.000000 0.000000 0.000000
# 4 0.000000 0.000000 0.000000 0.027813 0.000000 0.000000
# 5 0.000000 0.000000 0.000000 0.000000 0.096350 0.000000
# 6 0.000000 0.000000 0.000000 0.000000 0.000000 0.056274
#
#
# Mechanical properties :
#
#
# Convention : Reuss Voigt Hill
#
# Bulk Modulus (GPa) = 12.28699 16.61743 14.45221
# Shear Modulus (GPa) = 16.77126 21.76481 19.26804
#
# Velocity S-wave (km/s) = 2.73355 3.11402 2.92997
# Velocity P-wave (km/s) = 3.92905 4.50924 4.22911
#
# Compressibility (1/GPa) = 0.08138691
#
# Stress axis : x y z
#
# Youngs Moduli (GPa) = 27.12744 26.99401 82.87451
#
# Poissons Ratio (x) = 0.00038 0.24394
# Poissons Ratio (y) = 0.00038 -0.05500
# Poissons Ratio (z) = 0.07985 -0.01791
#
# Static dielectric constant tensor:
#      x y z
#    x 1.832320 0.000000 0.000000 
#    y 0.000000 1.824720 0.000000 
#    z 0.000000 0.000000 1.868820 
# 
# From -- ./inp_files/26348.got.cif
#   From: 2010.05.17/outbox.cif.g08.bks.cpg/sg51_14_cif.got.tgz:26348.got - 2010.06.03 11:52:47.
