data_PCOD9399689
_publ_section_title
;
Structure prediction by ZEFSAII (Michael W. Deem and Ramdas Pophale) SiO2 
 PCOD9399689
Probable space group: P M M A
;
_chemical_formula_sum "Si O2"
_cell_formula_units_Z 64
_cell_length_a 8.628599
_cell_length_b 20.514415
_cell_length_c 21.004423
_cell_angle_alpha 90.000000
_cell_angle_beta 90.000000
_cell_angle_gamma 90.000000
_cell_volume 3718.006794
_symmetry_space_group_name_H-M "P M M A"
_symmetry_group_IT_number 51
_symmetry_cell_setting 'orthorhombic'
loop_
_space_group_symop_operation_xyz
x,y,z
1/2-x,-y,z
1/2+x,-y,-z
-x,y,-z
-x,-y,-z
1/2+x,y,-z
1/2-x,y,z
x,-y,z
loop_
_atom_site_type_symbol
_atom_site_label
_atom_site_fract_x
_atom_site_fract_y
_atom_site_fract_z
Si Si1 0.564515 0.924956 0.069889
Si Si2 0.935130 0.571373 0.397141
Si Si3 0.562816 0.570120 0.746689
Si Si4 0.562610 0.289321 0.756143
Si Si5 0.062957 0.075326 0.314530
Si Si6 0.435276 0.708787 0.394366
Si Si7 0.062368 0.845983 0.187836
Si Si8 0.433549 0.154556 0.566023
O O1 0.750000 0.923084 0.068256
O O2 0.503001 0.876901 0.123853
O O3 0.515992 0.000000 0.084405
O O4 0.500000 0.908911 0.000000
O O5 0.750000 0.575753 0.403138
O O6 0.985534 0.500000 0.422969
O O7 0.983678 0.569925 0.322579
O O8 0.010830 0.638536 0.420485
O O9 0.750000 0.572704 0.736795
O O10 0.527386 0.500000 0.777576
O O11 0.516826 0.638213 0.778997
O O12 0.750000 0.286010 0.757896
O O13 0.521457 0.285585 0.681057
O O14 0.506723 0.227217 0.795506
O O15 0.250000 0.078107 0.318306
O O16 0.018069 0.109436 0.248312
O O17 0.996378 0.114991 0.373706
O O18 0.014707 0.000000 0.315747
O O19 0.250000 0.712929 0.398808
O O20 0.510881 0.770774 0.427240
O O21 0.250000 0.845746 0.183948
O O22 0.500000 0.127519 0.500000
O O23 0.250000 0.152332 0.564834
#
# Coordination Sequence:
#
# PCOD9399689 Si02
#       8
#     8   8   8   8   8   8   8   8
#     4  10  21  36  53  75 104 138 176 214 253 300
#     4   9  16  25  40  67 100 130 163 204 251 302
#     4   8  13  22  37  60  92 132 173 209 247 293
#     4   8  14  25  45  70  98 131 166 206 249 297
#     4  10  21  38  59  81 105 135 171 210 257 312
#     4  10  18  33  53  72  98 130 170 212 254 308
#     4  10  18  32  54  79 108 140 173 208 253 303
#     4  12  25  40  58  77 100 130 168 214 267 320
#
# _framework density 17.213522999999999
#
# number of rings (size 3 to 8) (size 9 to 14) (size 15 to 20)
#    0.000    2.375    1.250    3.375    0.000    3.000 
#    0.000    0.625    0.000    0.375    0.000    0.000 
#    0.000    0.500    0.000    0.875    0.000    1.375 
#
# Total GULP energy -356850.214388 kJ/mol
# GULP energy per Si atom -5575.784600 kJ/mol
# Density = 1.717434 g / cm^3
# Si number density = 17.213523 Si / 1000 Ang^3
#
#
#
# Elastic Constant Matrix: (Units=GPa)
#
#
# Indices 1 2 3 4 5 6 
#
# 1 22.2778 28.6257 19.7531 0.0000 0.0000 0.0000
# 2 28.6257 154.1564 67.4862 0.0000 0.0000 0.0000
# 3 19.7531 67.4862 92.5959 0.0000 0.0000 0.0000
# 4 0.0000 0.0000 0.0000 102.1395 0.0000 0.0000
# 5 0.0000 0.0000 0.0000 0.0000 19.6937 0.0000
# 6 0.0000 0.0000 0.0000 0.0000 0.0000 24.3551
#
#
#
# Elastic Compliance Matrix: (Units=1/GPa)
#
#
# Indices 1 2 3 4 5 6 
#
# 1 0.061977 -0.008401 -0.007098 0.000000 0.000000 0.000000
# 2 -0.008401 0.010665 -0.005981 0.000000 0.000000 0.000000
# 3 -0.007098 -0.005981 0.016673 0.000000 0.000000 0.000000
# 4 0.000000 0.000000 0.000000 0.009791 0.000000 0.000000
# 5 0.000000 0.000000 0.000000 0.000000 0.050778 0.000000
# 6 0.000000 0.000000 0.000000 0.000000 0.000000 0.041059
#
#
# Mechanical properties :
#
#
# Convention : Reuss Voigt Hill
#
# Bulk Modulus (GPa) = 21.57305 55.64002 38.60654
# Shear Modulus (GPa) = 20.05179 39.44866 29.75023
#
# Velocity S-wave (km/s) = 3.41675 4.79239 4.16180
# Velocity P-wave (km/s) = 5.30333 7.93828 6.75062
#
# Compressibility (1/GPa) = 0.04635412
#
# Stress axis : x y z
#
# Youngs Moduli (GPa) = 16.13512 93.76230 59.97759
#
# Poissons Ratio (x) = 0.78771 0.42574
# Poissons Ratio (y) = 0.13555 0.35872
# Poissons Ratio (z) = 0.11453 0.56079
#
# Static dielectric constant tensor:
#      x y z
#    x 1.578560 0.000000 0.000000 
#    y 0.000000 1.635110 0.000000 
#    z 0.000000 0.000000 1.557890 
# 
# From -- ./inp_files/28502.got.cif
#   From: 2010.05.17/outbox.cif.g08.bks.cpg/sg51_15_cif.got.tgz:28502.got - 2010.06.03 11:52:47.
