data_PCOD9399692
_publ_section_title
;
Structure prediction by ZEFSAII (Michael W. Deem and Ramdas Pophale) SiO2 
 PCOD9399692
Probable space group: P M M A
;
_chemical_formula_sum "Si O2"
_cell_formula_units_Z 52
_cell_length_a 8.919315
_cell_length_b 15.112617
_cell_length_c 20.459508
_cell_angle_alpha 90.000000
_cell_angle_beta 90.000000
_cell_angle_gamma 90.000000
_cell_volume 2757.822839
_symmetry_space_group_name_H-M "P M M A"
_symmetry_group_IT_number 51
_symmetry_cell_setting 'orthorhombic'
loop_
_space_group_symop_operation_xyz
x,y,z
1/2-x,-y,z
1/2+x,-y,-z
-x,y,-z
-x,-y,-z
1/2+x,y,-z
1/2-x,y,z
x,-y,z
loop_
_atom_site_type_symbol
_atom_site_label
_atom_site_fract_x
_atom_site_fract_y
_atom_site_fract_z
Si Si1 0.569517 0.753573 0.693324
Si Si2 0.429274 0.681891 0.571966
Si Si3 0.430398 0.397827 0.204063
Si Si4 0.921762 0.392120 0.066819
Si Si5 0.422696 0.107966 0.933556
Si Si6 0.929421 0.101939 0.799553
Si Si7 0.430687 0.500000 0.427142
O O1 0.750000 0.749957 0.681602
O O2 0.481557 0.752505 0.625328
O O3 0.527410 0.669455 0.738649
O O4 0.534171 0.838345 0.737602
O O5 0.500000 0.697095 0.500000
O O6 0.250000 0.673487 0.566468
O O7 0.503341 0.590920 0.599631
O O8 0.250000 0.396588 0.199392
O O9 0.476353 0.500000 0.216963
O O10 0.495891 0.368777 0.134134
O O11 0.750000 0.363026 0.068455
O O12 0.923443 0.500000 0.065004
O O13 0.000000 0.361802 0.000000
O O14 0.250000 0.132767 0.933682
O O15 0.500127 0.137073 0.866688
O O16 0.432314 0.000000 0.933695
O O17 0.500000 0.138916 0.000000
O O18 0.750000 0.103637 0.807653
O O19 0.976378 0.000000 0.790308
O O20 0.250000 0.500000 0.426630
O O21 0.500000 0.500000 0.500000
#
# Coordination Sequence:
#
# PCOD9399692 Si02
#       7
#     8   8   8   8   8   8   4
#     4  10  21  36  55  80 108 141 178 218 268 327
#     4  11  22  37  57  83 113 146 182 222 266 317
#     4   9  18  32  49  71 100 134 169 208 257 311
#     4   9  16  27  45  67  92 127 171 217 258 300
#     4   9  16  27  47  75 105 137 175 220 273 331
#     4   9  18  34  55  78 107 142 181 226 276 329
#     4  10  18  32  54  80 112 146 181 216 257 310
#
# _framework density 18.855454999999999
#
# number of rings (size 3 to 8) (size 9 to 14) (size 15 to 20)
#    0.000    2.462    0.000    3.923    1.077    4.923 
#    0.000    0.769    0.000    0.462    0.000    0.000 
#    0.000    0.000    0.000    0.000    0.000    0.000 
#
# Total GULP energy -290210.259238 kJ/mol
# GULP energy per Si atom -5580.966524 kJ/mol
# Density = 1.881254 g / cm^3
# Si number density = 18.855455 Si / 1000 Ang^3
#
#
#
# Elastic Constant Matrix: (Units=GPa)
#
#
# Indices 1 2 3 4 5 6 
#
# 1 82.7720 32.6104 64.3108 0.0000 0.0000 0.0000
# 2 32.6104 60.9792 50.2281 0.0000 0.0000 0.0000
# 3 64.3108 50.2281 150.2233 0.0000 0.0000 0.0000
# 4 0.0000 0.0000 0.0000 3.4888 0.0000 0.0000
# 5 0.0000 0.0000 0.0000 0.0000 33.7719 0.0000
# 6 0.0000 0.0000 0.0000 0.0000 0.0000 8.5665
#
#
#
# Elastic Compliance Matrix: (Units=1/GPa)
#
#
# Indices 1 2 3 4 5 6 
#
# 1 0.019066 -0.004793 -0.006560 0.000000 0.000000 0.000000
# 2 -0.004793 0.023837 -0.005918 0.000000 0.000000 0.000000
# 3 -0.006560 -0.005918 0.011444 0.000000 0.000000 0.000000
# 4 0.000000 0.000000 0.000000 0.286630 0.000000 0.000000
# 5 0.000000 0.000000 0.000000 0.000000 0.029610 0.000000
# 6 0.000000 0.000000 0.000000 0.000000 0.000000 0.116734
#
#
# Mechanical properties :
#
#
# Convention : Reuss Voigt Hill
#
# Bulk Modulus (GPa) = 50.49174 65.36368 57.92771
# Shear Modulus (GPa) = 9.46136 18.95379 14.20757
#
# Velocity S-wave (km/s) = 2.24248 3.17395 2.74797
# Velocity P-wave (km/s) = 5.79150 6.94067 6.39196
#
# Compressibility (1/GPa) = 0.01980522
#
# Stress axis : x y z
#
# Youngs Moduli (GPa) = 52.44801 41.95163 87.38386
#
# Poissons Ratio (x) = 0.20108 0.57322
# Poissons Ratio (y) = 0.25139 0.51715
# Poissons Ratio (z) = 0.34405 0.24827
#
# Static dielectric constant tensor:
#      x y z
#    x 1.628860 0.000000 0.000000 
#    y 0.000000 1.718430 0.000000 
#    z 0.000000 0.000000 1.826950 
# 
# From -- ./inp_files/31779.got.cif
#   From: 2010.05.17/outbox.cif.g08.bks.cpg/sg51_16_cif.got.tgz:31779.got - 2010.06.03 11:52:47.
