data_PCOD9399217
_publ_section_title
;
Structure prediction by ZEFSAII (Michael W. Deem and Ramdas Pophale) SiO2 
 PCOD9399217
Probable space group: P M M A
;
_chemical_formula_sum "Si O2"
_cell_formula_units_Z 64
_cell_length_a 8.575303
_cell_length_b 24.435274
_cell_length_c 19.630873
_cell_angle_alpha 90.000000
_cell_angle_beta 90.000000
_cell_angle_gamma 90.000000
_cell_volume 4113.450742
_symmetry_space_group_name_H-M "P M M A"
_symmetry_group_IT_number 51
_symmetry_cell_setting 'orthorhombic'
loop_
_space_group_symop_operation_xyz
x,y,z
1/2-x,-y,z
1/2+x,-y,-z
-x,y,-z
-x,-y,-z
1/2+x,y,-z
1/2-x,y,z
x,-y,z
loop_
_atom_site_type_symbol
_atom_site_label
_atom_site_fract_x
_atom_site_fract_y
_atom_site_fract_z
Si Si1 0.937306 0.333231 0.841048
Si Si2 0.438260 0.562190 0.075363
Si Si3 0.063633 0.242251 0.426776
Si Si4 0.563257 0.726332 0.286072
Si Si5 0.062599 0.229711 0.924335
Si Si6 0.939291 0.835347 0.204687
Si Si7 0.561242 0.938238 0.289624
Si Si8 0.563101 0.114236 0.573415
O O1 0.750000 0.330808 0.840566
O O2 0.987510 0.391827 0.870874
O O3 0.999661 0.318826 0.766108
O O4 0.000578 0.286002 0.891344
O O5 0.250000 0.562655 0.072896
O O6 0.488858 0.500000 0.091499
O O7 0.500000 0.575896 0.000000
O O8 0.250000 0.244079 0.427099
O O9 0.015252 0.178212 0.418403
O O10 0.000000 0.260588 0.500000
O O11 0.998951 0.275280 0.362576
O O12 0.750000 0.724788 0.285896
O O13 0.513183 0.784995 0.253611
O O14 0.250000 0.232043 0.925378
O O15 0.013394 0.181992 0.871381
O O16 0.000000 0.222189 0.000000
O O17 0.750000 0.836380 0.205236
O O18 0.994217 0.892568 0.235637
O O19 0.750000 0.937361 0.289765
O O20 0.504205 0.919772 0.363957
O O21 0.510145 0.000000 0.274304
O O22 0.500000 0.095713 0.500000
O O23 0.750000 0.111589 0.573689
#
# Coordination Sequence:
#
# PCOD9399217 Si02
#       8
#     8   8   8   8   8   8   8   8
#     4  10  19  30  46  69  97 125 158 196 229 271
#     4   9  18  31  46  65  93 131 168 200 232 266
#     4  10  19  30  46  68  92 122 155 187 228 277
#     4  10  18  30  48  67  93 123 152 190 232 276
#     4  10  19  31  47  68  92 118 147 185 232 279
#     4   8  16  30  46  64  86 111 142 179 224 274
#     4  10  19  32  50  67  84 111 148 188 228 273
#     4  10  20  32  47  66  89 117 148 184 222 267
#
# _framework density 15.558712999999999
#
# number of rings (size 3 to 8) (size 9 to 14) (size 15 to 20)
#    0.000    2.375    1.250    3.000    0.000    3.500 
#    0.000    0.625    0.000    0.375    0.000    0.000 
#    0.000    0.500    0.000    1.375    0.000    2.500 
#
# Total GULP energy -356894.008393 kJ/mol
# GULP energy per Si atom -5576.468881 kJ/mol
# Density = 1.552330 g / cm^3
# Si number density = 15.558713 Si / 1000 Ang^3
#
#
#
# Elastic Constant Matrix: (Units=GPa)
#
#
# Indices 1 2 3 4 5 6 
#
# 1 31.3561 24.0088 30.8766 0.0000 0.0000 0.0000
# 2 24.0088 99.6232 71.8368 0.0000 0.0000 0.0000
# 3 30.8766 71.8368 143.0511 0.0000 0.0000 0.0000
# 4 0.0000 0.0000 0.0000 26.0287 0.0000 0.0000
# 5 0.0000 0.0000 0.0000 0.0000 25.1740 0.0000
# 6 0.0000 0.0000 0.0000 0.0000 0.0000 14.9381
#
#
#
# Elastic Compliance Matrix: (Units=1/GPa)
#
#
# Indices 1 2 3 4 5 6 
#
# 1 0.042456 -0.005681 -0.006311 0.000000 0.000000 0.000000
# 2 -0.005681 0.016496 -0.007058 0.000000 0.000000 0.000000
# 3 -0.006311 -0.007058 0.011897 0.000000 0.000000 0.000000
# 4 0.000000 0.000000 0.000000 0.038419 0.000000 0.000000
# 5 0.000000 0.000000 0.000000 0.000000 0.039723 0.000000
# 6 0.000000 0.000000 0.000000 0.000000 0.000000 0.066943
#
#
# Mechanical properties :
#
#
# Convention : Reuss Voigt Hill
#
# Bulk Modulus (GPa) = 30.53466 58.60829 44.57147
# Shear Modulus (GPa) = 18.87142 23.04871 20.96007
#
# Velocity S-wave (km/s) = 3.48647 3.85307 3.67435
# Velocity P-wave (km/s) = 5.98961 7.58589 6.83451
#
# Compressibility (1/GPa) = 0.03274967
#
# Stress axis : x y z
#
# Youngs Moduli (GPa) = 23.55376 60.62014 84.05529
#
# Poissons Ratio (x) = 0.34438 0.53047
# Poissons Ratio (y) = 0.13381 0.59324
# Poissons Ratio (z) = 0.14865 0.42784
#
# Static dielectric constant tensor:
#      x y z
#    x 1.522510 0.000000 0.000000 
#    y 0.000000 1.519510 0.000000 
#    z 0.000000 0.000000 1.508520 
# 
# From -- ./inp_files/28580.got.cif
#   From: 2010.05.17/outbox.cif.g08.bks.cpg/sg51_15_cif.got.tgz:28580.got - 2010.06.03 11:52:47.
