data_PCOD9399246
_publ_section_title
;
Structure prediction by ZEFSAII (Michael W. Deem and Ramdas Pophale) SiO2 
 PCOD9399246
Probable space group: P M M A
;
_chemical_formula_sum "Si O2"
_cell_formula_units_Z 56
_cell_length_a 8.569027
_cell_length_b 19.139915
_cell_length_c 19.724274
_cell_angle_alpha 90.000000
_cell_angle_beta 90.000000
_cell_angle_gamma 90.000000
_cell_volume 3234.987023
_symmetry_space_group_name_H-M "P M M A"
_symmetry_group_IT_number 51
_symmetry_cell_setting 'orthorhombic'
loop_
_space_group_symop_operation_xyz
x,y,z
1/2-x,-y,z
1/2+x,-y,-z
-x,y,-z
-x,-y,-z
1/2+x,y,-z
1/2-x,y,z
x,-y,z
loop_
_atom_site_type_symbol
_atom_site_label
_atom_site_fract_x
_atom_site_fract_y
_atom_site_fract_z
Si Si1 0.936697 0.712380 0.074898
Si Si2 0.060992 0.207727 0.795000
Si Si3 0.060795 0.920414 0.706531
Si Si4 0.062559 0.310098 0.571931
Si Si5 0.437906 0.350215 0.717884
Si Si6 0.436322 0.578703 0.152404
Si Si7 0.563696 0.848219 0.572451
O O1 0.750000 0.714088 0.073427
O O2 0.992781 0.769461 0.130308
O O3 0.988282 0.637472 0.104831
O O4 0.000000 0.723441 0.000000
O O5 0.250000 0.204857 0.797165
O O6 0.006306 0.135236 0.763076
O O7 0.021915 0.272420 0.745383
O O8 0.250000 0.917939 0.704311
O O9 0.998107 0.893902 0.634494
O O10 0.013495 0.000000 0.720031
O O11 0.250000 0.306085 0.569701
O O12 0.017612 0.353220 0.639041
O O13 0.000000 0.337032 0.500000
O O14 0.998570 0.231201 0.580233
O O15 0.250000 0.357643 0.723181
O O16 0.515846 0.402918 0.770442
O O17 0.250000 0.583222 0.146023
O O18 0.486494 0.500000 0.135457
O O19 0.500000 0.873930 0.500000
O O20 0.750000 0.847151 0.571424
#
# Coordination Sequence:
#
# PCOD9399246 Si02
#       7
#     8   8   8   8   8   8   8
#     4  10  20  35  56  80 106 136 168 204 244 294
#     4   8  15  31  51  73  99 126 163 206 247 295
#     4  10  19  33  53  73  97 132 171 214 261 308
#     4  10  18  30  48  72 100 129 169 216 261 304
#     4   9  17  31  52  72  99 134 170 212 251 299
#     4  10  21  35  52  78 110 138 167 203 243 295
#     4  11  21  32  47  68  98 134 171 214 262 310
#
# _framework density 17.310734
#
# number of rings (size 3 to 8) (size 9 to 14) (size 15 to 20)
#    0.000    2.286    1.429    4.286    0.000    3.143 
#    0.000    0.714    0.000    0.857    0.000    0.000 
#    0.000    0.000    0.000    0.000    0.000    0.571 
#
# Total GULP energy -312343.526126 kJ/mol
# GULP energy per Si atom -5577.562967 kJ/mol
# Density = 1.727133 g / cm^3
# Si number density = 17.310734 Si / 1000 Ang^3
#
#
#
# Elastic Constant Matrix: (Units=GPa)
#
#
# Indices 1 2 3 4 5 6 
#
# 1 37.6304 13.0493 25.3012 0.0000 0.0000 0.0000
# 2 13.0493 60.9370 47.0497 0.0000 0.0000 0.0000
# 3 25.3012 47.0497 150.3952 0.0000 0.0000 0.0000
# 4 0.0000 0.0000 0.0000 15.8968 0.0000 0.0000
# 5 0.0000 0.0000 0.0000 0.0000 29.0461 0.0000
# 6 0.0000 0.0000 0.0000 0.0000 0.0000 14.8802
#
#
#
# Elastic Compliance Matrix: (Units=1/GPa)
#
#
# Indices 1 2 3 4 5 6 
#
# 1 0.030484 -0.003386 -0.004069 0.000000 0.000000 0.000000
# 2 -0.003386 0.022013 -0.006317 0.000000 0.000000 0.000000
# 3 -0.004069 -0.006317 0.009310 0.000000 0.000000 0.000000
# 4 0.000000 0.000000 0.000000 0.062906 0.000000 0.000000
# 5 0.000000 0.000000 0.000000 0.000000 0.034428 0.000000
# 6 0.000000 0.000000 0.000000 0.000000 0.000000 0.067203
#
#
# Mechanical properties :
#
#
# Convention : Reuss Voigt Hill
#
# Bulk Modulus (GPa) = 29.18627 46.64032 37.91330
# Shear Modulus (GPa) = 18.84590 22.86877 20.85734
#
# Velocity S-wave (km/s) = 3.30310 3.63860 3.47490
# Velocity P-wave (km/s) = 5.60750 6.68237 6.16839
#
# Compressibility (1/GPa) = 0.03426268
#
# Stress axis : x y z
#
# Youngs Moduli (GPa) = 32.80366 45.42816 107.41326
#
# Poissons Ratio (x) = 0.15383 0.43707
# Poissons Ratio (y) = 0.11108 0.67851
# Poissons Ratio (z) = 0.13348 0.28696
#
# Static dielectric constant tensor:
#      x y z
#    x 1.584710 0.000000 0.000000 
#    y 0.000000 1.577050 0.000000 
#    z 0.000000 0.000000 1.596970 
# 
# From -- ./inp_files/32266.got.cif
#   From: 2010.05.17/outbox.cif.g08.bks.cpg/sg51_17_cif.got.tgz:32266.got - 2010.06.03 11:52:47.
