data_PCOD9399998
_publ_section_title
;
Structure prediction by ZEFSAII (Michael W. Deem and Ramdas Pophale) SiO2 
 PCOD9399998
Probable space group: P M M A
;
_chemical_formula_sum "Si O2"
_cell_formula_units_Z 56
_cell_length_a 8.990010
_cell_length_b 21.714228
_cell_length_c 18.624580
_cell_angle_alpha 90.000000
_cell_angle_beta 90.000000
_cell_angle_gamma 90.000000
_cell_volume 3635.725249
_symmetry_space_group_name_H-M "P M M A"
_symmetry_group_IT_number 51
_symmetry_cell_setting 'orthorhombic'
loop_
_space_group_symop_operation_xyz
x,y,z
1/2-x,-y,z
1/2+x,-y,-z
-x,y,-z
-x,-y,-z
1/2+x,y,-z
1/2-x,y,z
x,-y,z
loop_
_atom_site_type_symbol
_atom_site_label
_atom_site_fract_x
_atom_site_fract_y
_atom_site_fract_z
Si Si1 0.080247 0.632103 0.799555
Si Si2 0.073546 0.299063 0.077696
Si Si3 0.078515 0.243358 0.703095
Si Si4 0.426569 0.072615 0.922767
Si Si5 0.428110 0.314445 0.422152
Si Si6 0.928028 0.823392 0.829913
Si Si7 0.570827 0.570259 0.342476
O O1 0.250000 0.619399 0.821675
O O2 0.080175 0.694459 0.751548
O O3 0.031140 0.581473 0.741438
O O4 0.983074 0.647654 0.868620
O O5 0.250000 0.302221 0.070628
O O6 0.036576 0.233875 0.116409
O O7 0.000000 0.302374 0.000000
O O8 0.250000 0.227639 0.687365
O O9 0.988978 0.262376 0.632261
O O10 0.999012 0.193382 0.753200
O O11 0.250000 0.084343 0.926233
O O12 0.502228 0.115793 0.864081
O O13 0.449369 0.000000 0.908222
O O14 0.500000 0.086196 0.000000
O O15 0.500000 0.306305 0.500000
O O16 0.250000 0.313882 0.425178
O O17 0.485823 0.379583 0.389841
O O18 0.750000 0.827600 0.824513
O O19 0.750000 0.581319 0.348013
O O20 0.540792 0.500000 0.363400
#
# Coordination Sequence:
#
# PCOD9399998 Si02
#       7
#     8   8   8   8   8   8   8
#     4   8  15  28  45  63  84 110 139 176 223 270
#     4  10  19  28  41  62  86 111 142 183 228 273
#     4   9  17  31  49  68  91 119 150 185 227 272
#     4  10  20  32  45  63  91 129 169 206 243 280
#     4  11  21  33  49  70  97 125 152 183 223 269
#     4  10  19  30  46  68  92 120 155 193 233 277
#     4   9  18  33  51  69  89 116 150 184 221 269
#
# _framework density 15.402703000000001
#
# number of rings (size 3 to 8) (size 9 to 14) (size 15 to 20)
#    0.000    2.429    0.000    4.286    0.000    7.714 
#    0.000    0.000    0.000    0.429    0.000    0.000 
#    0.000    0.571    0.000    2.143    0.000    3.286 
#
# Total GULP energy -312230.149718 kJ/mol
# GULP energy per Si atom -5575.538388 kJ/mol
# Density = 1.536765 g / cm^3
# Si number density = 15.402703 Si / 1000 Ang^3
#
#
#
# Elastic Constant Matrix: (Units=GPa)
#
#
# Indices 1 2 3 4 5 6 
#
# 1 94.5301 42.0676 75.7150 0.0000 0.0000 0.0000
# 2 42.0676 59.3901 48.5443 0.0000 0.0000 0.0000
# 3 75.7150 48.5443 127.7517 0.0000 0.0000 0.0000
# 4 0.0000 0.0000 0.0000 18.8921 0.0000 0.0000
# 5 0.0000 0.0000 0.0000 0.0000 28.3202 0.0000
# 6 0.0000 0.0000 0.0000 0.0000 0.0000 18.3499
#
#
#
# Elastic Compliance Matrix: (Units=1/GPa)
#
#
# Indices 1 2 3 4 5 6 
#
# 1 0.022057 -0.007163 -0.010351 0.000000 0.000000 0.000000
# 2 -0.007163 0.026750 -0.005919 0.000000 0.000000 0.000000
# 3 -0.010351 -0.005919 0.016211 0.000000 0.000000 0.000000
# 4 0.000000 0.000000 0.000000 0.052932 0.000000 0.000000
# 5 0.000000 0.000000 0.000000 0.000000 0.035310 0.000000
# 6 0.000000 0.000000 0.000000 0.000000 0.000000 0.054496
#
#
# Mechanical properties :
#
#
# Convention : Reuss Voigt Hill
#
# Bulk Modulus (GPa) = 55.08954 68.25840 61.67397
# Shear Modulus (GPa) = 19.18107 20.80211 19.99159
#
# Velocity S-wave (km/s) = 3.53272 3.67897 3.60658
# Velocity P-wave (km/s) = 7.24458 7.90307 7.58098
#
# Compressibility (1/GPa) = 0.01815227
#
# Stress axis : x y z
#
# Youngs Moduli (GPa) = 45.33760 37.38326 61.68464
#
# Poissons Ratio (x) = 0.26778 0.63847
# Poissons Ratio (y) = 0.32475 0.36513
# Poissons Ratio (z) = 0.46927 0.22128
#
# Static dielectric constant tensor:
#      x y z
#    x 1.514560 0.000000 0.000000 
#    y 0.000000 1.506370 0.000000 
#    z 0.000000 0.000000 1.503880 
# 
# From -- ./inp_files/28191.got.cif
#   From: 2010.05.17/outbox.cif.g08.bks.cpg/sg51_15_cif.got.tgz:28191.got - 2010.06.03 11:52:47.
