data_PCOD9399213
_publ_section_title
;
Structure prediction by ZEFSAII (Michael W. Deem and Ramdas Pophale) SiO2 
 PCOD9399213
Probable space group: P M M A
;
_chemical_formula_sum "Si O2"
_cell_formula_units_Z 28
_cell_length_a 8.852556
_cell_length_b 13.040566
_cell_length_c 15.621445
_cell_angle_alpha 90.000000
_cell_angle_beta 90.000000
_cell_angle_gamma 90.000000
_cell_volume 1803.376177
_symmetry_space_group_name_H-M "P M M A"
_symmetry_group_IT_number 51
_symmetry_cell_setting 'orthorhombic'
loop_
_space_group_symop_operation_xyz
x,y,z
1/2-x,-y,z
1/2+x,-y,-z
-x,y,-z
-x,-y,-z
1/2+x,y,-z
1/2-x,y,z
x,-y,z
loop_
_atom_site_type_symbol
_atom_site_label
_atom_site_fract_x
_atom_site_fract_y
_atom_site_fract_z
Si Si1 0.068514 0.617732 0.267226
Si Si2 0.432279 0.211172 0.404885
Si Si3 0.923801 0.624723 0.087969
Si Si4 0.431705 0.000000 0.596253
O O1 0.250000 0.616249 0.261580
O O2 0.017314 0.500000 0.282185
O O3 0.027721 0.693856 0.343874
O O4 0.005120 0.654251 0.175926
O O5 0.500000 0.225986 0.500000
O O6 0.250000 0.201554 0.410562
O O7 0.503108 0.106121 0.367353
O O8 0.750000 0.655823 0.090058
O O9 0.929641 0.500000 0.086153
O O10 0.000000 0.660776 0.000000
O O11 0.500000 0.000000 0.500000
O O12 0.250000 0.000000 0.594465
#
# Coordination Sequence:
#
# PCOD9399213 Si02
#       4
#     8   8   8   4
#     4   9  18  31  45  64  92 123 152 182 219 265
#     4  10  19  31  47  66  90 119 151 187 225 264
#     4   9  16  26  42  63  87 116 149 185 222 260
#     4  10  18  30  48  66  85 110 147 192 230 264
#
# _framework density 15.526434
#
# number of rings (size 3 to 8) (size 9 to 14) (size 15 to 20)
#    0.000    2.571    0.000    4.714    0.000    6.286 
#    0.000    0.000    0.000    0.000    0.000    1.000 
#    0.000    0.000    0.000    0.000    0.000    0.000 
#
# Total GULP energy -155945.439568 kJ/mol
# GULP energy per Si atom -5569.479985 kJ/mol
# Density = 1.549110 g / cm^3
# Si number density = 15.526434 Si / 1000 Ang^3
#
#
#
# Elastic Constant Matrix: (Units=GPa)
#
#
# Indices 1 2 3 4 5 6 
#
# 1 61.8748 40.1677 42.8439 0.0000 0.0000 0.0000
# 2 40.1677 87.2314 65.0693 0.0000 0.0000 0.0000
# 3 42.8439 65.0693 109.3750 0.0000 0.0000 0.0000
# 4 0.0000 0.0000 0.0000 -0.5634 0.0000 0.0000
# 5 0.0000 0.0000 0.0000 0.0000 28.0583 0.0000
# 6 0.0000 0.0000 0.0000 0.0000 0.0000 17.8152
#
#
#
# Elastic Compliance Matrix: (Units=1/GPa)
#
#
# Indices 1 2 3 4 5 6 
#
# 1 0.024599 -0.007442 -0.005209 0.000000 0.000000 0.000000
# 2 -0.007442 0.022861 -0.010685 0.000000 0.000000 0.000000
# 3 -0.005209 -0.010685 0.017540 0.000000 0.000000 0.000000
# 4 0.000000 0.000000 0.000000 -1.774958 0.000000 0.000000
# 5 0.000000 0.000000 0.000000 0.000000 0.035640 0.000000
# 6 0.000000 0.000000 0.000000 0.000000 0.000000 0.056132
#
#
# Mechanical properties :
#
#
# Convention : Reuss Voigt Hill
#
# Bulk Modulus (GPa) = 54.55931 61.62700 58.09316
# Shear Modulus (GPa) = -3.19406 16.42204 6.61399
#
# Velocity S-wave (km/s) = -1.43584 3.25573 2.06617
# Velocity P-wave (km/s) = 5.69799 7.34240 6.57183
#
# Compressibility (1/GPa) = 0.01832868
#
# Stress axis : x y z
#
# Youngs Moduli (GPa) = 40.65132 43.74191 57.01217
#
# Poissons Ratio (x) = 0.32553 0.29695
# Poissons Ratio (y) = 0.30253 0.60920
# Poissons Ratio (z) = 0.21173 0.46740
#
# Static dielectric constant tensor:
#      x y z
#    x 1.522750 0.000000 0.000000 
#    y 0.000000 1.536800 0.000000 
#    z 0.000000 0.000000 1.504460 
# 
# From -- ./inp_files/19996.got.cif
#   From: 2010.05.17/outbox.cif.g08.bks.cpg/sg51_10_cif.got.tgz:19996.got - 2010.06.03 11:52:47.
