data_PCOD9399128
_publ_section_title
;
Structure prediction by ZEFSAII (Michael W. Deem and Ramdas Pophale) SiO2 
 PCOD9399128
Probable space group: P M M A
;
_chemical_formula_sum "Si O2"
_cell_formula_units_Z 56
_cell_length_a 15.926296
_cell_length_b 14.776596
_cell_length_c 12.999682
_cell_angle_alpha 90.000000
_cell_angle_beta 90.000000
_cell_angle_gamma 90.000000
_cell_volume 3059.298906
_symmetry_space_group_name_H-M "P M M A"
_symmetry_group_IT_number 51
_symmetry_cell_setting 'orthorhombic'
loop_
_space_group_symop_operation_xyz
x,y,z
1/2-x,-y,z
1/2+x,-y,-z
-x,y,-z
-x,-y,-z
1/2+x,y,-z
1/2-x,y,z
x,-y,z
loop_
_atom_site_type_symbol
_atom_site_label
_atom_site_fract_x
_atom_site_fract_y
_atom_site_fract_z
Si Si1 0.152629 0.099988 0.859213
Si Si2 0.147503 0.104405 0.468251
Si Si3 0.403163 0.602384 0.366565
Si Si4 0.915529 0.893275 0.931845
Si Si5 0.148808 0.213760 0.262479
Si Si6 0.150280 0.208946 0.669907
Si Si7 0.604740 0.600798 0.396117
O O1 0.250000 0.091304 0.832618
O O2 0.114544 0.165305 0.773890
O O3 0.113060 0.000000 0.851373
O O4 0.150087 0.127724 0.977456
O O5 0.250000 0.104110 0.471016
O O6 0.124771 0.154808 0.363091
O O7 0.115766 0.159707 0.567742
O O8 0.120199 0.000000 0.471238
O O9 0.378915 0.500000 0.334425
O O10 0.373957 0.682811 0.292515
O O11 0.504023 0.602858 0.381104
O O12 0.371548 0.616583 0.483947
O O13 0.898783 0.828899 0.835436
O O14 0.908213 0.000000 0.902312
O O15 0.000000 0.881398 0.000000
O O16 0.250000 0.206464 0.247375
O O17 0.250000 0.194406 0.665472
O O18 0.137726 0.315474 0.667189
O O19 0.633728 0.500000 0.368113
#
# Coordination Sequence:
#
# PCOD9399128 Si02
#       7
#     8   8   8   8   8   8   8
#     4   9  18  33  52  73 102 143 184 218 257 312
#     4   9  17  29  46  75 112 141 168 210 270 332
#     4   9  19  35  54  78 109 145 180 218 271 333
#     4  10  22  38  55  78 107 142 186 229 269 321
#     4  11  21  34  57  84 108 141 182 231 287 332
#     4  10  18  29  50  79 107 140 179 221 267 316
#     4   9  18  33  52  75 110 150 181 214 265 327
#
# _framework density 18.304846999999999
#
# number of rings (size 3 to 8) (size 9 to 14) (size 15 to 20)
#    0.000    2.429    1.429    2.143    2.000    3.714 
#    0.000    1.429    0.000    2.143    0.000    2.000 
#    0.000    0.000    0.000    0.000    0.000    0.000 
#
# Total GULP energy -312024.847945 kJ/mol
# GULP energy per Si atom -5571.872285 kJ/mol
# Density = 1.826318 g / cm^3
# Si number density = 18.304847 Si / 1000 Ang^3
#
#
#
# Elastic Constant Matrix: (Units=GPa)
#
#
# Indices 1 2 3 4 5 6 
#
# 1 30.3121 13.6135 19.5040 0.0000 0.0000 0.0000
# 2 13.6135 141.7193 82.3608 0.0000 0.0000 0.0000
# 3 19.5040 82.3608 86.8898 0.0000 0.0000 0.0000
# 4 0.0000 0.0000 0.0000 18.5664 0.0000 0.0000
# 5 0.0000 0.0000 0.0000 0.0000 16.2681 0.0000
# 6 0.0000 0.0000 0.0000 0.0000 0.0000 16.6385
#
#
#
# Elastic Compliance Matrix: (Units=1/GPa)
#
#
# Indices 1 2 3 4 5 6 
#
# 1 0.039122 0.002996 -0.011621 0.000000 0.000000 0.000000
# 2 0.002996 0.015940 -0.015782 0.000000 0.000000 0.000000
# 3 -0.011621 -0.015782 0.029076 0.000000 0.000000 0.000000
# 4 0.000000 0.000000 0.000000 0.053861 0.000000 0.000000
# 5 0.000000 0.000000 0.000000 0.000000 0.061470 0.000000
# 6 0.000000 0.000000 0.000000 0.000000 0.000000 0.060102
#
#
# Mechanical properties :
#
#
# Convention : Reuss Voigt Hill
#
# Bulk Modulus (GPa) = 28.30906 54.43086 41.36996
# Shear Modulus (GPa) = 15.61720 19.85746 17.73733
#
# Velocity S-wave (km/s) = 2.92408 3.29723 3.11625
# Velocity P-wave (km/s) = 5.18645 6.65552 5.96637
#
# Compressibility (1/GPa) = 0.03532438
#
# Stress axis : x y z
#
# Youngs Moduli (GPa) = 25.56092 62.73543 34.39217
#
# Poissons Ratio (x) = -0.18793 0.39968
# Poissons Ratio (y) = -0.07657 0.54276
# Poissons Ratio (z) = 0.29705 0.99006
#
# Static dielectric constant tensor:
#      x y z
#    x 1.763240 0.000000 0.000000 
#    y 0.000000 1.629490 0.000000 
#    z 0.000000 0.000000 1.627480 
# 
# From -- ./inp_files/16677.got.cif
#   From: 2010.05.17/outbox.cif.g08.bks.cpg/sg51_9_cif.got.tgz:16677.got - 2010.06.03 11:52:47.
