data_PCOD9399400
_publ_section_title
;
Structure prediction by ZEFSAII (Michael W. Deem and Ramdas Pophale) SiO2 
 PCOD9399400
Probable space group: P M M A
;
_chemical_formula_sum "Si O2"
_cell_formula_units_Z 56
_cell_length_a 8.802279
_cell_length_b 15.839341
_cell_length_c 20.594716
_cell_angle_alpha 90.000000
_cell_angle_beta 90.000000
_cell_angle_gamma 90.000000
_cell_volume 2871.362645
_symmetry_space_group_name_H-M "P M M A"
_symmetry_group_IT_number 51
_symmetry_cell_setting 'orthorhombic'
loop_
_space_group_symop_operation_xyz
x,y,z
1/2-x,-y,z
1/2+x,-y,-z
-x,y,-z
-x,-y,-z
1/2+x,y,-z
1/2-x,y,z
x,-y,z
loop_
_atom_site_type_symbol
_atom_site_label
_atom_site_fract_x
_atom_site_fract_y
_atom_site_fract_z
Si Si1 0.069720 0.407700 0.399370
Si Si2 0.069679 0.228547 0.566292
Si Si3 0.431711 0.188586 0.709159
Si Si4 0.069269 0.232220 0.069087
Si Si5 0.569303 0.406714 0.116686
Si Si6 0.432044 0.905579 0.834819
Si Si7 0.427627 0.364225 0.250503
O O1 0.250000 0.398897 0.413200
O O2 0.017666 0.500000 0.422463
O O3 0.052738 0.405372 0.321147
O O4 0.984289 0.325836 0.425619
O O5 0.250000 0.226953 0.561085
O O6 0.025181 0.181940 0.633456
O O7 0.000000 0.194039 0.500000
O O8 0.250000 0.207339 0.710893
O O9 0.458989 0.112241 0.758372
O O10 0.521274 0.267985 0.738438
O O11 0.250000 0.231138 0.067007
O O12 0.012774 0.326963 0.084803
O O13 0.009974 0.167113 0.123204
O O14 0.000000 0.206805 0.000000
O O15 0.750000 0.397222 0.108621
O O16 0.524078 0.500000 0.092292
O O17 0.526646 0.402027 0.192885
O O18 0.250000 0.899537 0.844925
O O19 0.481869 0.000000 0.852497
O O20 0.250000 0.369718 0.232594
#
# Coordination Sequence:
#
# PCOD9399400 Si02
#       7
#     8   8   8   8   8   8   8
#     4   9  18  31  46  68 102 142 187 240 293 348
#     4  10  20  33  50  74 104 146 193 239 291 351
#     4   9  18  34  57  83 115 151 192 239 291 352
#     4  12  26  44  66  91 124 164 202 248 300 354
#     4  11  23  38  58  85 120 162 206 251 297 350
#     4  10  21  40  68  98 126 156 193 242 300 363
#     4  10  18  30  52  81 112 149 192 242 298 350
#
# _framework density 19.502935000000001
#
# number of rings (size 3 to 8) (size 9 to 14) (size 15 to 20)
#    0.000    1.857    1.429    3.000    0.000    4.286 
#    0.000    0.000    0.000    0.429    0.000    0.000 
#    0.000    0.000    0.000    0.000    0.000    0.429 
#
# Total GULP energy -312700.349328 kJ/mol
# GULP energy per Si atom -5583.934809 kJ/mol
# Density = 1.945855 g / cm^3
# Si number density = 19.502935 Si / 1000 Ang^3
#
#
#
# Elastic Constant Matrix: (Units=GPa)
#
#
# Indices 1 2 3 4 5 6 
#
# 1 56.7878 39.2572 36.6626 0.0000 0.0000 0.0000
# 2 39.2572 93.1886 39.8921 0.0000 0.0000 0.0000
# 3 36.6626 39.8921 112.5311 0.0000 0.0000 0.0000
# 4 0.0000 0.0000 0.0000 -13.7083 0.0000 0.0000
# 5 0.0000 0.0000 0.0000 0.0000 32.3183 0.0000
# 6 0.0000 0.0000 0.0000 0.0000 0.0000 6.9271
#
#
#
# Elastic Compliance Matrix: (Units=1/GPa)
#
#
# Indices 1 2 3 4 5 6 
#
# 1 0.027686 -0.009198 -0.005760 0.000000 0.000000 0.000000
# 2 -0.009198 0.015706 -0.002571 0.000000 0.000000 0.000000
# 3 -0.005760 -0.002571 0.011674 0.000000 0.000000 0.000000
# 4 0.000000 0.000000 0.000000 -0.072948 0.000000 0.000000
# 5 0.000000 0.000000 0.000000 0.000000 0.030942 0.000000
# 6 0.000000 0.000000 0.000000 0.000000 0.000000 0.144361
#
#
# Mechanical properties :
#
#
# Convention : Reuss Voigt Hill
#
# Bulk Modulus (GPa) = 49.97542 54.90347 52.43944
# Shear Modulus (GPa) = 25.10679 14.88712 19.99696
#
# Velocity S-wave (km/s) = 3.59184 2.76583 3.20555
# Velocity P-wave (km/s) = 6.54843 6.19776 6.37551
#
# Compressibility (1/GPa) = 0.02000984
#
# Stress axis : x y z
#
# Youngs Moduli (GPa) = 36.11911 63.66871 85.65747
#
# Poissons Ratio (x) = 0.58561 0.49335
# Poissons Ratio (y) = 0.33221 0.22025
# Poissons Ratio (z) = 0.20803 0.16371
#
# Static dielectric constant tensor:
#      x y z
#    x 1.650630 0.000000 0.000000 
#    y 0.000000 1.674720 0.000000 
#    z 0.000000 0.000000 1.714690 
# 
# From -- ./inp_files/31904.got.cif
#   From: 2010.05.17/outbox.cif.g08.bks.cpg/sg51_16_cif.got.tgz:31904.got - 2010.06.03 11:52:47.
