data_PCOD9399592
_publ_section_title
;
Structure prediction by ZEFSAII (Michael W. Deem and Ramdas Pophale) SiO2 
 PCOD9399592
Probable space group: P M M A
;
_chemical_formula_sum "Si O2"
_cell_formula_units_Z 48
_cell_length_a 29.285930
_cell_length_b 7.563694
_cell_length_c 10.378406
_cell_angle_alpha 90.000000
_cell_angle_beta 90.000000
_cell_angle_gamma 90.000000
_cell_volume 2298.918773
_symmetry_space_group_name_H-M "P M M A"
_symmetry_group_IT_number 51
_symmetry_cell_setting 'orthorhombic'
loop_
_space_group_symop_operation_xyz
x,y,z
1/2-x,-y,z
1/2+x,-y,-z
-x,y,-z
-x,-y,-z
1/2+x,y,-z
1/2-x,y,z
x,-y,z
loop_
_atom_site_type_symbol
_atom_site_label
_atom_site_fract_x
_atom_site_fract_y
_atom_site_fract_z
Si Si1 0.250000 0.704757 0.434556
Si Si2 0.992406 0.215829 0.149524
Si Si3 0.154998 0.783711 0.012412
Si Si4 0.750000 0.785050 0.865586
Si Si5 0.911479 0.208193 0.763659
Si Si6 0.649520 0.293468 0.519428
Si Si7 0.606691 0.785993 0.244768
O O1 0.250000 0.500000 0.478180
O O2 0.250000 0.714830 0.279566
O O3 0.201143 0.783523 0.478204
O O4 0.036728 0.275830 0.230125
O O5 0.944368 0.275614 0.208617
O O6 0.990139 0.000000 0.149971
O O7 0.000000 0.267003 0.000000
O O8 0.204784 0.729260 0.059123
O O9 0.118476 0.720400 0.118107
O O10 0.154626 0.000000 0.013470
O O11 0.139884 0.728051 0.870843
O O12 0.750000 0.000000 0.856120
O O13 0.883287 0.225105 0.632521
O O14 0.915846 0.000000 0.789468
O O15 0.654708 0.500000 0.548245
O O16 0.625487 0.270587 0.382478
O O17 0.605947 0.000000 0.245375
#
# Coordination Sequence:
#
# PCOD9399592 Si02
#       7
#     4   8   8   4   8   8   8
#     4  10  22  39  56  74 104 148 190 223 266 324
#     4   9  16  30  57  87 112 140 180 227 273 323
#     4   9  17  30  54  85 111 134 172 226 275 318
#     4  10  18  31  56  88 112 132 172 233 284 324
#     4  10  18  33  59  86 108 140 183 226 272 324
#     4  11  24  40  55  77 112 150 187 228 272 325
#     4  10  20  36  57  84 115 146 180 223 274 328
#
# _framework density 20.879380999999999
#
# number of rings (size 3 to 8) (size 9 to 14) (size 15 to 20)
#    0.000    2.167    3.333    0.500    0.000    2.000 
#    0.000    6.667    0.000    1.000    0.000    0.000 
#    0.000    0.000    0.000    0.000    0.000    0.000 
#
# Total GULP energy -267981.200795 kJ/mol
# GULP energy per Si atom -5582.941683 kJ/mol
# Density = 2.083186 g / cm^3
# Si number density = 20.879381 Si / 1000 Ang^3
#
#
#
# Elastic Constant Matrix: (Units=GPa)
#
#
# Indices 1 2 3 4 5 6 
#
# 1 171.6489 -3.2524 54.5242 0.0000 0.0000 0.0000
# 2 -3.2524 41.9314 -20.6627 0.0000 0.0000 0.0000
# 3 54.5242 -20.6627 110.0174 0.0000 0.0000 0.0000
# 4 0.0000 0.0000 0.0000 158.2116 0.0000 0.0000
# 5 0.0000 0.0000 0.0000 0.0000 33.1434 0.0000
# 6 0.0000 0.0000 0.0000 0.0000 0.0000 2.9898
#
#
#
# Elastic Compliance Matrix: (Units=1/GPa)
#
#
# Indices 1 2 3 4 5 6 
#
# 1 0.006976 -0.001281 -0.003698 0.000000 0.000000 0.000000
# 2 -0.001281 0.026516 0.005615 0.000000 0.000000 0.000000
# 3 -0.003698 0.005615 0.011977 0.000000 0.000000 0.000000
# 4 0.000000 0.000000 0.000000 0.006321 0.000000 0.000000
# 5 0.000000 0.000000 0.000000 0.000000 0.030172 0.000000
# 6 0.000000 0.000000 0.000000 0.000000 0.000000 0.334475
#
#
# Mechanical properties :
#
#
# Convention : Reuss Voigt Hill
#
# Bulk Modulus (GPa) = 21.39466 42.75733 32.07600
# Shear Modulus (GPa) = 11.60778 58.40152 35.00465
#
# Velocity S-wave (km/s) = 2.36041 5.29449 4.09897
# Velocity P-wave (km/s) = 4.20687 7.60909 6.14801
#
# Compressibility (1/GPa) = 0.04674063
#
# Stress axis : x y z
#
# Youngs Moduli (GPa) = 143.34356 37.71303 83.49501
#
# Poissons Ratio (x) = 0.04832 0.30877
# Poissons Ratio (y) = 0.18365 -0.46882
# Poissons Ratio (z) = 0.53009 -0.21176
#
# Static dielectric constant tensor:
#      x y z
#    x 1.771650 0.000000 0.000000 
#    y 0.000000 1.833990 0.000000 
#    z 0.000000 0.000000 1.673350 
# 
# From -- ./inp_files/12986.got.cif
#   From: 2010.05.17/outbox.cif.g08.bks.cpg/sg51_7_cif.got.tgz:12986.got - 2010.06.03 11:52:47.
