data_PCOD9399761
_publ_section_title
;
Structure prediction by ZEFSAII (Michael W. Deem and Ramdas Pophale) SiO2 
 PCOD9399761
Probable space group: P M M A
;
_chemical_formula_sum "Si O2"
_cell_formula_units_Z 40
_cell_length_a 7.760696
_cell_length_b 11.264172
_cell_length_c 19.227817
_cell_angle_alpha 90.000000
_cell_angle_beta 90.000000
_cell_angle_gamma 90.000000
_cell_volume 1680.853741
_symmetry_space_group_name_H-M "P M M A"
_symmetry_group_IT_number 51
_symmetry_cell_setting 'orthorhombic'
loop_
_space_group_symop_operation_xyz
x,y,z
1/2-x,-y,z
1/2+x,-y,-z
-x,y,-z
-x,-y,-z
1/2+x,y,-z
1/2-x,y,z
x,-y,z
loop_
_atom_site_type_symbol
_atom_site_label
_atom_site_fract_x
_atom_site_fract_y
_atom_site_fract_z
Si Si1 0.051075 0.371142 0.283958
Si Si2 0.456521 0.240100 0.080467
Si Si3 0.449234 0.735390 0.580972
Si Si4 0.538923 0.128570 0.781471
Si Si5 0.043420 0.500000 0.081915
Si Si6 0.545575 0.000000 0.581877
O O1 0.250000 0.374631 0.259987
O O2 0.974461 0.500000 0.266592
O O3 0.974536 0.249570 0.253782
O O4 0.048451 0.350239 0.366837
O O5 0.250000 0.246089 0.083108
O O6 0.507955 0.143900 0.137286
O O7 0.521789 0.370902 0.104917
O O8 0.500000 0.218599 0.000000
O O9 0.500000 0.727552 0.500000
O O10 0.250000 0.706390 0.586983
O O11 0.478512 0.872051 0.605348
O O12 0.750000 0.128306 0.774863
O O13 0.480267 0.000000 0.755016
O O14 0.250000 0.500000 0.091865
O O15 0.000000 0.500000 0.000000
O O16 0.500000 0.000000 0.500000
O O17 0.750000 0.000000 0.592188
#
# Coordination Sequence:
#
# PCOD9399761 Si02
#       6
#     8   8   8   8   4   4
#     4  10  22  39  60  86 115 153 200 248 301 361
#     4   9  17  30  51  78 109 143 185 234 285 344
#     4  11  22  38  61  90 123 158 198 245 299 356
#     4   9  19  35  56  83 113 149 192 240 294 353
#     4   8  14  24  42  70 102 136 173 218 271 326
#     4  10  18  32  56  88 124 158 195 238 287 342
#
# _framework density 23.797429999999999
#
# number of rings (size 3 to 8) (size 9 to 14) (size 15 to 20)
#    0.000    2.400    0.000    3.900    2.800    1.200 
#    0.000    1.000    0.000    1.200    0.000    0.000 
#    0.000    0.000    0.000    0.000    0.000    0.000 
#
# Total GULP energy -223278.779818 kJ/mol
# GULP energy per Si atom -5581.969495 kJ/mol
# Density = 2.374327 g / cm^3
# Si number density = 23.797430 Si / 1000 Ang^3
#
#
#
# Elastic Constant Matrix: (Units=GPa)
#
#
# Indices 1 2 3 4 5 6 
#
# 1 50.4535 -0.5776 -3.6612 0.0000 0.0000 0.0000
# 2 -0.5776 196.9210 65.2870 0.0000 0.0000 0.0000
# 3 -3.6612 65.2870 97.7912 0.0000 0.0000 0.0000
# 4 0.0000 0.0000 0.0000 21.5427 0.0000 0.0000
# 5 0.0000 0.0000 0.0000 0.0000 11.6627 0.0000
# 6 0.0000 0.0000 0.0000 0.0000 0.0000 8.1050
#
#
#
# Elastic Compliance Matrix: (Units=1/GPa)
#
#
# Indices 1 2 3 4 5 6 
#
# 1 0.019883 -0.000242 0.000906 0.000000 0.000000 0.000000
# 2 -0.000242 0.006525 -0.004365 0.000000 0.000000 0.000000
# 3 0.000906 -0.004365 0.013174 0.000000 0.000000 0.000000
# 4 0.000000 0.000000 0.000000 0.046420 0.000000 0.000000
# 5 0.000000 0.000000 0.000000 0.000000 0.085744 0.000000
# 6 0.000000 0.000000 0.000000 0.000000 0.000000 0.123380
#
#
# Mechanical properties :
#
#
# Convention : Reuss Voigt Hill
#
# Bulk Modulus (GPa) = 31.07553 51.91801 41.49677
# Shear Modulus (GPa) = 15.96151 27.20325 21.58238
#
# Velocity S-wave (km/s) = 2.59264 3.38467 3.01478
# Velocity P-wave (km/s) = 4.69565 6.09415 5.44003
#
# Compressibility (1/GPa) = 0.03217966
#
# Stress axis : x y z
#
# Youngs Moduli (GPa) = 50.29369 153.26518 75.90743
#
# Poissons Ratio (x) = 0.03710 -0.06877
# Poissons Ratio (y) = 0.01217 0.33134
# Poissons Ratio (z) = -0.04557 0.66900
#
# Static dielectric constant tensor:
#      x y z
#    x 1.874790 0.000000 0.000000 
#    y 0.000000 1.932060 0.000000 
#    z 0.000000 0.000000 1.934460 
# 
# From -- ./inp_files/31386.got.cif
#   From: 2010.05.17/outbox.cif.g08.bks.cpg/sg51_16_cif.got.tgz:31386.got - 2010.06.03 11:52:47.
