data_PCOD9399531
_publ_section_title
;
Structure prediction by ZEFSAII (Michael W. Deem and Ramdas Pophale) SiO2 
 PCOD9399531
Probable space group: P M M A
;
_chemical_formula_sum "Si O2"
_cell_formula_units_Z 40
_cell_length_a 26.771975
_cell_length_b 8.559865
_cell_length_c 10.013955
_cell_angle_alpha 90.000000
_cell_angle_beta 90.000000
_cell_angle_gamma 90.000000
_cell_volume 2294.842908
_symmetry_space_group_name_H-M "P M M A"
_symmetry_group_IT_number 51
_symmetry_cell_setting 'orthorhombic'
loop_
_space_group_symop_operation_xyz
x,y,z
1/2-x,-y,z
1/2+x,-y,-z
-x,y,-z
-x,-y,-z
1/2+x,y,-z
1/2-x,y,z
x,-y,z
loop_
_atom_site_type_symbol
_atom_site_label
_atom_site_fract_x
_atom_site_fract_y
_atom_site_fract_z
Si Si1 0.641678 0.812100 0.349965
Si Si2 0.356549 0.312820 0.349985
Si Si3 0.250000 0.820499 0.342009
Si Si4 0.750000 0.180119 0.333192
Si Si5 0.556262 0.688987 0.157693
Si Si6 0.557159 0.690025 0.849875
O O1 0.635236 0.752261 0.501082
O O2 0.695927 0.751355 0.297179
O O3 0.596803 0.758205 0.256898
O O4 0.644311 0.000000 0.354224
O O5 0.357940 0.500000 0.356200
O O6 0.301596 0.260656 0.302002
O O7 0.399921 0.256458 0.250390
O O8 0.250000 0.819519 0.504596
O O9 0.250000 0.000000 0.298742
O O10 0.750000 0.000000 0.287054
O O11 0.558473 0.500000 0.164566
O O12 0.499148 0.736959 0.189588
O O13 0.565974 0.735906 0.003743
O O14 0.557462 0.500000 0.848619
#
# Coordination Sequence:
#
# PCOD9399531 Si02
#       6
#     8   8   4   4   8   8
#     4  10  19  32  49  73 101 130 162 203 247 292
#     4  10  18  31  52  76  97 127 167 203 237 288
#     4   9  17  31  48  71 102 132 156 194 248 293
#     4   7  14  29  46  61  90 128 156 184 230 281
#     4   9  17  34  54  71  94 129 166 205 250 295
#     4   8  17  33  53  72  95 127 166 207 248 290
#
# _framework density 17.430388000000001
#
# number of rings (size 3 to 8) (size 9 to 14) (size 15 to 20)
#    0.000    3.000    0.000    3.900    0.000    0.800 
#    0.000   12.500    0.000    3.600    0.000    0.000 
#    0.000    0.000    0.000    0.000    0.000    0.000 
#
# Total GULP energy -222792.160046 kJ/mol
# GULP energy per Si atom -5569.804001 kJ/mol
# Density = 1.739072 g / cm^3
# Si number density = 17.430388 Si / 1000 Ang^3
#
#
#
# Elastic Constant Matrix: (Units=GPa)
#
#
# Indices 1 2 3 4 5 6 
#
# 1 203.7242 37.3783 105.2825 0.0000 0.0000 0.0000
# 2 37.3783 39.4063 23.7538 0.0000 0.0000 0.0000
# 3 105.2825 23.7538 77.8812 0.0000 0.0000 0.0000
# 4 0.0000 0.0000 0.0000 -5.7129 0.0000 0.0000
# 5 0.0000 0.0000 0.0000 0.0000 -25.8488 0.0000
# 6 0.0000 0.0000 0.0000 0.0000 0.0000 16.6214
#
#
#
# Elastic Compliance Matrix: (Units=1/GPa)
#
#
# Indices 1 2 3 4 5 6 
#
# 1 0.016519 -0.002705 -0.021506 0.000000 0.000000 0.000000
# 2 -0.002705 0.031536 -0.005962 0.000000 0.000000 0.000000
# 3 -0.021506 -0.005962 0.043730 0.000000 0.000000 0.000000
# 4 0.000000 0.000000 0.000000 -0.175044 0.000000 0.000000
# 5 0.000000 0.000000 0.000000 0.000000 -0.038687 0.000000
# 6 0.000000 0.000000 0.000000 0.000000 0.000000 0.060163
#
#
# Mechanical properties :
#
#
# Convention : Reuss Voigt Hill
#
# Bulk Modulus (GPa) = 31.80594 72.64899 52.22746
# Shear Modulus (GPa) = 552.89050 7.31843 280.10447
#
# Velocity S-wave (km/s) = 17.82941 2.05129 12.69046
# Velocity P-wave (km/s) = 21.02706 6.88334 15.64477
#
# Compressibility (1/GPa) = 0.03144066
#
# Stress axis : x y z
#
# Youngs Moduli (GPa) = 60.53712 31.70953 22.86743
#
# Poissons Ratio (x) = 0.08578 0.49178
# Poissons Ratio (y) = 0.16377 0.13632
# Poissons Ratio (z) = 1.30189 0.18904
#
# Static dielectric constant tensor:
#      x y z
#    x 1.618570 0.000000 0.000000 
#    y 0.000000 1.599880 0.000000 
#    z 0.000000 0.000000 1.562220 
# 
# From -- ./inp_files/12173.got.cif
#   From: 2010.05.17/outbox.cif.g08.bks.cpg/sg51_7_cif.got.tgz:12173.got - 2010.06.03 11:52:47.
