data_PCOD9399328
_publ_section_title
;
Structure prediction by ZEFSAII (Michael W. Deem and Ramdas Pophale) SiO2 
 PCOD9399328
Probable space group: P M M A
;
_chemical_formula_sum "Si O2"
_cell_formula_units_Z 44
_cell_length_a 8.723784
_cell_length_b 9.451319
_cell_length_c 30.833098
_cell_angle_alpha 90.000000
_cell_angle_beta 90.000000
_cell_angle_gamma 90.000000
_cell_volume 2542.227948
_symmetry_space_group_name_H-M "P M M A"
_symmetry_group_IT_number 51
_symmetry_cell_setting 'orthorhombic'
loop_
_space_group_symop_operation_xyz
x,y,z
1/2-x,-y,z
1/2+x,-y,-z
-x,y,-z
-x,-y,-z
1/2+x,y,-z
1/2-x,y,z
x,-y,z
loop_
_atom_site_type_symbol
_atom_site_label
_atom_site_fract_x
_atom_site_fract_y
_atom_site_fract_z
Si Si1 0.428952 0.158145 0.622484
Si Si2 0.937261 0.337572 0.297497
Si Si3 0.430410 0.000000 0.452385
Si Si4 0.065345 0.164018 0.046614
Si Si5 0.064495 0.163893 0.787331
Si Si6 0.064501 0.664098 0.131413
O O1 0.250000 0.187160 0.613604
O O2 0.489213 0.269833 0.657008
O O3 0.513428 0.132889 0.576990
O O4 0.435965 0.000000 0.643489
O O5 0.750000 0.334120 0.298507
O O6 0.984657 0.500000 0.292473
O O7 0.985115 0.242811 0.256724
O O8 0.500000 0.000000 0.500000
O O9 0.250000 0.000000 0.455265
O O10 0.250000 0.167828 0.044478
O O11 0.015894 0.262344 0.086366
O O12 0.019372 0.000000 0.054428
O O13 0.000000 0.207571 0.000000
O O14 0.250000 0.167300 0.788564
O O15 0.001025 0.248045 0.828468
O O16 0.016182 0.000000 0.787860
O O17 0.250000 0.669145 0.133088
O O18 0.017318 0.500000 0.133389
#
# Coordination Sequence:
#
# PCOD9399328 Si02
#       6
#     8   8   4   8   8   8
#     4   8  15  28  47  71  98 129 164 203 246 292
#     4   9  16  28  49  75 102 132 167 206 249 296
#     4  10  18  30  50  76 102 130 168 212 253 292
#     4   9  18  33  52  72  95 125 162 204 250 301
#     4  10  20  33  52  77 103 133 172 214 250 293
#     4  10  21  36  52  72 101 135 168 204 252 307
#
# _framework density 17.307653999999999
#
# number of rings (size 3 to 8) (size 9 to 14) (size 15 to 20)
#    0.545    2.182    0.000    2.182    0.000    5.455 
#    0.000    2.727    0.000    2.182    0.000    0.000 
#    0.000    0.000    0.000    0.000    0.000    0.000 
#
# Total GULP energy -245102.736565 kJ/mol
# GULP energy per Si atom -5570.516740 kJ/mol
# Density = 1.726826 g / cm^3
# Si number density = 17.307654 Si / 1000 Ang^3
#
#
#
# Elastic Constant Matrix: (Units=GPa)
#
#
# Indices 1 2 3 4 5 6 
#
# 1 21.3946 30.0807 38.0666 0.0000 0.0000 0.0000
# 2 30.0807 134.8485 104.6653 0.0000 0.0000 0.0000
# 3 38.0666 104.6653 182.9081 0.0000 0.0000 0.0000
# 4 0.0000 0.0000 0.0000 6.0456 0.0000 0.0000
# 5 0.0000 0.0000 0.0000 0.0000 26.9439 0.0000
# 6 0.0000 0.0000 0.0000 0.0000 0.0000 17.0269
#
#
#
# Elastic Compliance Matrix: (Units=1/GPa)
#
#
# Indices 1 2 3 4 5 6 
#
# 1 0.079658 -0.008818 -0.011532 0.000000 0.000000 0.000000
# 2 -0.008818 0.014317 -0.006358 0.000000 0.000000 0.000000
# 3 -0.011532 -0.006358 0.011505 0.000000 0.000000 0.000000
# 4 0.000000 0.000000 0.000000 0.165410 0.000000 0.000000
# 5 0.000000 0.000000 0.000000 0.000000 0.037114 0.000000
# 6 0.000000 0.000000 0.000000 0.000000 0.000000 0.058731
#
#
# Mechanical properties :
#
#
# Convention : Reuss Voigt Hill
#
# Bulk Modulus (GPa) = 19.20692 76.08625 47.64658
# Shear Modulus (GPa) = 11.42840 21.09252 16.26046
#
# Velocity S-wave (km/s) = 2.57244 3.49475 3.06844
# Velocity P-wave (km/s) = 4.46595 7.76794 6.33583
#
# Compressibility (1/GPa) = 0.05206458
#
# Stress axis : x y z
#
# Youngs Moduli (GPa) = 12.55362 69.84521 86.91666
#
# Poissons Ratio (x) = 0.61592 1.00235
# Poissons Ratio (y) = 0.11070 0.55258
# Poissons Ratio (z) = 0.14477 0.44404
#
# Static dielectric constant tensor:
#      x y z
#    x 1.594780 0.000000 0.000000 
#    y 0.000000 1.587250 0.000000 
#    z 0.000000 0.000000 1.567250 
# 
# From -- ./inp_files/36811.got.cif
#   From: 2010.05.17/outbox.cif.g08.bks.cpg/sg51_19_cif.got.tgz:36811.got - 2010.06.03 11:52:47.
