data_PCOD9399910
_publ_section_title
;
Structure prediction by ZEFSAII (Michael W. Deem and Ramdas Pophale) SiO2 
 PCOD9399910
Probable space group: P M M A
;
_chemical_formula_sum "Si O2"
_cell_formula_units_Z 48
_cell_length_a 16.952104
_cell_length_b 14.194505
_cell_length_c 10.138093
_cell_angle_alpha 90.000000
_cell_angle_beta 90.000000
_cell_angle_gamma 90.000000
_cell_volume 2439.496116
_symmetry_space_group_name_H-M "P M M A"
_symmetry_group_IT_number 51
_symmetry_cell_setting 'orthorhombic'
loop_
_space_group_symop_operation_xyz
x,y,z
1/2-x,-y,z
1/2+x,-y,-z
-x,y,-z
-x,-y,-z
1/2+x,y,-z
1/2-x,y,z
x,-y,z
loop_
_atom_site_type_symbol
_atom_site_label
_atom_site_fract_x
_atom_site_fract_y
_atom_site_fract_z
Si Si1 0.912972 0.609620 0.552102
Si Si2 0.110750 0.779642 0.269599
Si Si3 0.905017 0.107157 0.475418
Si Si4 0.338883 0.108438 0.023791
Si Si5 0.074102 0.792873 0.792053
Si Si6 0.842373 0.607456 0.265559
O O1 0.920278 0.500000 0.589920
O O2 0.883782 0.674365 0.671503
O O3 0.858516 0.616290 0.422782
O O4 0.000000 0.642298 0.500000
O O5 0.129887 0.844187 0.395923
O O6 0.157303 0.819301 0.145502
O O7 0.019383 0.792212 0.227605
O O8 0.890026 0.164924 0.342912
O O9 0.000000 0.107243 0.500000
O O10 0.879141 0.000000 0.460429
O O11 0.250000 0.110406 0.968580
O O12 0.355735 0.000000 0.065354
O O13 0.399143 0.143074 0.913007
O O14 0.106795 0.687117 0.805742
O O15 0.750000 0.620708 0.239022
O O16 0.864820 0.500000 0.230288
#
# Coordination Sequence:
#
# PCOD9399910 Si02
#       6
#     8   8   8   8   8   8
#     4  10  18  34  60  92 127 155 189 241 298 357
#     4  11  20  36  60  90 116 152 198 247 303 356
#     4   9  17  30  53  85 114 137 182 247 299 346
#     4  11  26  44  58  79 119 166 205 248 306 366
#     4  11  20  37  61  87 115 153 202 250 299 357
#     4  10  20  34  57  89 123 159 195 238 297 356
#
# _framework density 19.676193999999999
#
# number of rings (size 3 to 8) (size 9 to 14) (size 15 to 20)
#    0.000    1.667    3.333    2.500    0.000    3.333 
#    0.000    0.833    0.000    6.000    0.000    0.000 
#    0.000    0.000    0.000    0.000    0.000    0.000 
#
# Total GULP energy -267994.591142 kJ/mol
# GULP energy per Si atom -5583.220649 kJ/mol
# Density = 1.963141 g / cm^3
# Si number density = 19.676194 Si / 1000 Ang^3
#
#
#
# Elastic Constant Matrix: (Units=GPa)
#
#
# Indices 1 2 3 4 5 6 
#
# 1 32.0483 18.4903 -2.7331 0.0000 0.0000 0.0000
# 2 18.4903 117.6333 14.7336 0.0000 0.0000 0.0000
# 3 -2.7331 14.7336 46.3202 0.0000 0.0000 0.0000
# 4 0.0000 0.0000 0.0000 30.1769 0.0000 0.0000
# 5 0.0000 0.0000 0.0000 0.0000 17.4166 0.0000
# 6 0.0000 0.0000 0.0000 0.0000 0.0000 12.2578
#
#
#
# Elastic Compliance Matrix: (Units=1/GPa)
#
#
# Indices 1 2 3 4 5 6 
#
# 1 0.035003 -0.006000 0.003974 0.000000 0.000000 0.000000
# 2 -0.006000 0.009882 -0.003497 0.000000 0.000000 0.000000
# 3 0.003974 -0.003497 0.022936 0.000000 0.000000 0.000000
# 4 0.000000 0.000000 0.000000 0.033138 0.000000 0.000000
# 5 0.000000 0.000000 0.000000 0.000000 0.057417 0.000000
# 6 0.000000 0.000000 0.000000 0.000000 0.000000 0.081581
#
#
# Mechanical properties :
#
#
# Convention : Reuss Voigt Hill
#
# Bulk Modulus (GPa) = 17.61352 28.55371 23.08361
# Shear Modulus (GPa) = 18.52346 23.00433 20.76389
#
# Velocity S-wave (km/s) = 3.07158 3.42299 3.25203
# Velocity P-wave (km/s) = 4.64226 5.49234 5.08509
#
# Compressibility (1/GPa) = 0.05677457
#
# Stress axis : x y z
#
# Youngs Moduli (GPa) = 28.56873 101.19304 43.60009
#
# Poissons Ratio (x) = 0.60713 -0.17326
# Poissons Ratio (y) = 0.17140 0.15248
# Poissons Ratio (z) = -0.11353 0.35390
#
# Static dielectric constant tensor:
#      x y z
#    x 1.800170 0.000000 0.000000 
#    y 0.000000 1.707050 0.000000 
#    z 0.000000 0.000000 1.662310 
# 
# From -- ./inp_files/9576.got.cif
#   From: 2010.05.17/outbox.cif.g08.bks.cpg/sg51_5_cif.got.tgz:9576.got - 2010.06.03 11:52:47.
