data_PCOD9399099
_publ_section_title
;
Structure prediction by ZEFSAII (Michael W. Deem and Ramdas Pophale) SiO2 
 PCOD9399099
Probable space group: P M M A
;
_chemical_formula_sum "Si O2"
_cell_formula_units_Z 64
_cell_length_a 29.710641
_cell_length_b 7.377978
_cell_length_c 12.851965
_cell_angle_alpha 90.000000
_cell_angle_beta 90.000000
_cell_angle_gamma 90.000000
_cell_volume 2817.207992
_symmetry_space_group_name_H-M "P M M A"
_symmetry_group_IT_number 51
_symmetry_cell_setting 'orthorhombic'
loop_
_space_group_symop_operation_xyz
x,y,z
1/2-x,-y,z
1/2+x,-y,-z
-x,y,-z
-x,-y,-z
1/2+x,y,-z
1/2-x,y,z
x,-y,z
loop_
_atom_site_type_symbol
_atom_site_label
_atom_site_fract_x
_atom_site_fract_y
_atom_site_fract_z
Si Si1 0.330034 0.280150 0.021566
Si Si2 0.009347 0.720539 0.828232
Si Si3 0.524488 0.278277 0.606559
Si Si4 0.301915 0.277300 0.568280
Si Si5 0.298409 0.209053 0.243942
Si Si6 0.431253 0.279832 0.012884
Si Si7 0.195995 0.293605 0.796383
Si Si8 0.127226 0.291677 0.398900
O O1 0.326749 0.500000 0.020627
O O2 0.301422 0.219673 0.119678
O O3 0.381314 0.222956 0.038805
O O4 0.316668 0.212992 0.907224
O O5 0.010178 0.500000 0.825926
O O6 0.002016 0.781199 0.710424
O O7 0.966738 0.775012 0.899263
O O8 0.051898 0.777398 0.898246
O O9 0.500000 0.223705 0.500000
O O10 0.524418 0.500000 0.609051
O O11 0.576797 0.217096 0.610989
O O12 0.250000 0.222344 0.547393
O O13 0.301164 0.500000 0.568731
O O14 0.316187 0.216094 0.684040
O O15 0.338250 0.214786 0.484331
O O16 0.250000 0.288257 0.278264
O O17 0.343231 0.291316 0.293777
O O18 0.298900 0.000000 0.275003
O O19 0.431580 0.500000 0.012527
O O20 0.250000 0.302478 0.794084
O O21 0.177745 0.500000 0.797402
O O22 0.120171 0.500000 0.430435
#
# Coordination Sequence:
#
# PCOD9399099 Si02
#       8
#     8   8   8   8   8   8   8   8
#     4  10  18  29  49  75  98 124 164 205 240 290
#     4   8  13  23  36  56  93 129 152 182 232 285
#     4   9  17  27  42  70 106 135 159 199 254 303
#     4   8  14  25  42  67  98 127 159 205 254 293
#     4  11  24  38  51  71 102 136 167 207 261 311
#     4   8  14  23  39  63  88 118 155 194 231 271
#     4   8  14  24  39  63  94 121 145 185 241 289
#     4  10  19  32  53  77 100 133 177 215 248 297
#
# _framework density 22.717528000000001
#
# number of rings (size 3 to 8) (size 9 to 14) (size 15 to 20)
#    0.000    3.000    0.000    3.375    0.000    5.000 
#    0.000    5.000    0.000    1.125    0.000   10.500 
#    0.000    0.000    0.000    0.000    0.000    0.000 
#
# Total GULP energy -357083.848773 kJ/mol
# GULP energy per Si atom -5579.435137 kJ/mol
# Density = 2.266582 g / cm^3
# Si number density = 22.717528 Si / 1000 Ang^3
#
#
#
# Elastic Constant Matrix: (Units=GPa)
#
#
# Indices 1 2 3 4 5 6 
#
# 1 94.5857 -1.4722 39.3756 0.0000 0.0000 0.0000
# 2 -1.4722 78.9761 -5.4984 0.0000 0.0000 0.0000
# 3 39.3756 -5.4984 151.0313 0.0000 0.0000 0.0000
# 4 0.0000 0.0000 0.0000 -31.5816 0.0000 0.0000
# 5 0.0000 0.0000 0.0000 0.0000 -114.1778 0.0000
# 6 0.0000 0.0000 0.0000 0.0000 0.0000 -9.1721
#
#
#
# Elastic Compliance Matrix: (Units=1/GPa)
#
#
# Indices 1 2 3 4 5 6 
#
# 1 0.011860 0.000006 -0.003092 0.000000 0.000000 0.000000
# 2 0.000006 0.012694 0.000461 0.000000 0.000000 0.000000
# 3 -0.003092 0.000461 0.007444 0.000000 0.000000 0.000000
# 4 0.000000 0.000000 0.000000 -0.031664 0.000000 0.000000
# 5 0.000000 0.000000 0.000000 0.000000 -0.008758 0.000000
# 6 0.000000 0.000000 0.000000 0.000000 0.000000 -0.109027
#
#
# Mechanical properties :
#
#
# Convention : Reuss Voigt Hill
#
# Bulk Modulus (GPa) = 37.38702 43.26700 40.32701
# Shear Modulus (GPa) = -48.40980 -11.50709 -29.95845
#
# Velocity S-wave (km/s) = -4.62122 -2.25306 -3.63538
# Velocity P-wave (km/s) = 3.46139 3.50979 0.41073
#
# Compressibility (1/GPa) = 0.02674725
#
# Stress axis : x y z
#
# Youngs Moduli (GPa) = 84.32001 78.77586 134.33707
#
# Poissons Ratio (x) = -0.00046 0.41533
# Poissons Ratio (y) = -0.00049 -0.06188
# Poissons Ratio (z) = 0.26069 -0.03629
#
# Static dielectric constant tensor:
#      x y z
#    x 1.796390 0.000000 0.000000 
#    y 0.000000 1.921620 0.000000 
#    z 0.000000 0.000000 1.845660 
# 
# From -- ./inp_files/19631.got.cif
#   From: 2010.05.17/outbox.cif.g08.bks.cpg/sg51_10_cif.got.tgz:19631.got - 2010.06.03 11:52:47.
