data_PCOD9399844
_publ_section_title
;
Structure prediction by ZEFSAII (Michael W. Deem and Ramdas Pophale) SiO2 
 PCOD9399844
Probable space group: P M M A
;
_chemical_formula_sum "Si O2"
_cell_formula_units_Z 64
_cell_length_a 16.097153
_cell_length_b 7.644966
_cell_length_c 24.422566
_cell_angle_alpha 90.000000
_cell_angle_beta 90.000000
_cell_angle_gamma 90.000000
_cell_volume 3005.494393
_symmetry_space_group_name_H-M "P M M A"
_symmetry_group_IT_number 51
_symmetry_cell_setting 'orthorhombic'
loop_
_space_group_symop_operation_xyz
x,y,z
1/2-x,-y,z
1/2+x,-y,-z
-x,y,-z
-x,-y,-z
1/2+x,y,-z
1/2-x,y,z
x,-y,z
loop_
_atom_site_type_symbol
_atom_site_label
_atom_site_fract_x
_atom_site_fract_y
_atom_site_fract_z
Si Si1 0.004694 0.294666 0.310801
Si Si2 0.403454 0.711715 0.502325
Si Si3 0.340997 0.705716 0.122208
Si Si4 0.841121 0.709585 0.116177
Si Si5 0.342444 0.285882 0.383659
Si Si6 0.404858 0.791138 0.003659
Si Si7 0.497525 0.715494 0.813328
Si Si8 0.658090 0.795139 0.377816
O O1 0.022803 0.500000 0.304375
O O2 0.996073 0.224879 0.249441
O O3 0.919267 0.280497 0.344401
O O4 0.082090 0.222345 0.345702
O O5 0.500000 0.766251 0.500000
O O6 0.402264 0.500000 0.504090
O O7 0.359450 0.767699 0.446343
O O8 0.360739 0.774028 0.557759
O O9 0.250000 0.782274 0.133676
O O10 0.337208 0.500000 0.135483
O O11 0.418928 0.776216 0.156191
O O12 0.361143 0.721136 0.057908
O O13 0.750000 0.778340 0.131114
O O14 0.839486 0.500000 0.122850
O O15 0.859513 0.745744 0.052606
O O16 0.917049 0.775721 0.152886
O O17 0.250000 0.232933 0.366120
O O18 0.344533 0.500000 0.383700
O O19 0.407064 0.000000 0.009066
O O20 0.500000 0.725971 0.000000
O O21 0.496430 0.500000 0.814570
O O22 0.750000 0.721440 0.365636
O O23 0.659521 0.000000 0.365016
#
# Coordination Sequence:
#
# PCOD9399844 Si02
#       8
#     8   8   8   8   8   8   8   8
#     4  10  20  37  59  82 108 145 189 230 273 322
#     4  10  18  33  58  85 111 142 183 226 274 332
#     4  10  20  35  57  84 112 144 178 216 271 331
#     4  10  20  35  56  80 106 139 177 220 274 328
#     4   9  17  30  52  83 114 140 172 221 276 324
#     4  11  22  35  54  81 110 143 181 220 268 323
#     4   9  19  35  56  81 109 139 178 228 269 314
#     4  11  24  39  55  80 114 150 186 228 280 331
#
# _framework density 21.294333000000002
#
# number of rings (size 3 to 8) (size 9 to 14) (size 15 to 20)
#    0.000    2.000    2.500    1.500    0.000    5.250 
#    0.000    5.000    0.000    0.375    0.000    0.000 
#    0.000    0.000    0.000    0.000    0.000    0.000 
#
# Total GULP energy -357561.851579 kJ/mol
# GULP energy per Si atom -5586.903931 kJ/mol
# Density = 2.124587 g / cm^3
# Si number density = 21.294333 Si / 1000 Ang^3
#
#
#
# Elastic Constant Matrix: (Units=GPa)
#
#
# Indices 1 2 3 4 5 6 
#
# 1 196.4361 -1.4629 75.8087 0.0000 0.0000 0.0000
# 2 -1.4629 37.5101 -10.6057 0.0000 0.0000 0.0000
# 3 75.8087 -10.6057 142.3616 0.0000 0.0000 0.0000
# 4 0.0000 0.0000 0.0000 -177.2901 0.0000 0.0000
# 5 0.0000 0.0000 0.0000 0.0000 5.9280 0.0000
# 6 0.0000 0.0000 0.0000 0.0000 0.0000 -10.9426
#
#
#
# Elastic Compliance Matrix: (Units=1/GPa)
#
#
# Indices 1 2 3 4 5 6 
#
# 1 0.006427 -0.000732 -0.003477 0.000000 0.000000 0.000000
# 2 -0.000732 0.027317 0.002425 0.000000 0.000000 0.000000
# 3 -0.003477 0.002425 0.009057 0.000000 0.000000 0.000000
# 4 0.000000 0.000000 0.000000 -0.005640 0.000000 0.000000
# 5 0.000000 0.000000 0.000000 0.000000 0.168692 0.000000
# 6 0.000000 0.000000 0.000000 0.000000 0.000000 -0.091386
#
#
# Mechanical properties :
#
#
# Convention : Reuss Voigt Hill
#
# Bulk Modulus (GPa) = 25.48976 55.97645 40.73311
# Shear Modulus (GPa) = 38.13518 -15.62312 11.25603
#
# Velocity S-wave (km/s) = 4.23645 -2.71158 2.30161
# Velocity P-wave (km/s) = 5.99384 4.06700 5.12185
#
# Compressibility (1/GPa) = 0.03923144
#
# Stress axis : x y z
#
# Youngs Moduli (GPa) = 155.59044 36.60776 110.41679
#
# Poissons Ratio (x) = 0.02681 0.38393
# Poissons Ratio (y) = 0.11396 -0.26777
# Poissons Ratio (z) = 0.54100 -0.08878
#
# Static dielectric constant tensor:
#      x y z
#    x 1.777160 0.000000 0.000000 
#    y 0.000000 1.786290 0.000000 
#    z 0.000000 0.000000 1.716160 
# 
# From -- ./inp_files/35856.got.cif
#   From: 2010.05.17/outbox.cif.g08.bks.cpg/sg51_18_cif.got.tgz:35856.got - 2010.06.03 11:52:47.
