data_PCOD9399660
_publ_section_title
;
Structure prediction by ZEFSAII (Michael W. Deem and Ramdas Pophale) SiO2 
 PCOD9399660
Probable space group: P M M A
;
_chemical_formula_sum "Si O2"
_cell_formula_units_Z 32
_cell_length_a 8.522544
_cell_length_b 22.253197
_cell_length_c 9.184952
_cell_angle_alpha 90.000000
_cell_angle_beta 90.000000
_cell_angle_gamma 90.000000
_cell_volume 1741.961514
_symmetry_space_group_name_H-M "P M M A"
_symmetry_group_IT_number 51
_symmetry_cell_setting 'orthorhombic'
loop_
_space_group_symop_operation_xyz
x,y,z
1/2-x,-y,z
1/2+x,-y,-z
-x,y,-z
-x,-y,-z
1/2+x,y,-z
1/2-x,y,z
x,-y,z
loop_
_atom_site_type_symbol
_atom_site_label
_atom_site_fract_x
_atom_site_fract_y
_atom_site_fract_z
Si Si1 0.563500 0.625020 0.835440
Si Si2 0.061089 0.260179 0.665463
Si Si3 0.560569 0.870811 0.333576
Si Si4 0.563321 0.500000 0.166504
Si Si5 0.939954 0.000000 0.332859
O O1 0.750000 0.621378 0.838908
O O2 0.508218 0.683805 0.750976
O O3 0.497779 0.562672 0.768866
O O4 0.500000 0.629317 0.000000
O O5 0.250000 0.263743 0.666476
O O6 0.012777 0.194259 0.728073
O O7 0.000000 0.262582 0.500000
O O8 0.500000 0.870899 0.500000
O O9 0.750000 0.870864 0.336050
O O10 0.509016 0.935329 0.268242
O O11 0.750000 0.500000 0.163862
O O12 0.500000 0.500000 0.000000
O O13 0.000000 0.000000 0.500000
O O14 0.750000 0.000000 0.334615
#
# Coordination Sequence:
#
# PCOD9399660 Si02
#       5
#     8   8   8   4   4
#     4  11  21  35  54  76  99 127 161 200 240 285
#     4  10  19  32  48  71 101 134 165 199 242 290
#     4   8  14  23  38  59  88 121 156 193 234 279
#     4  10  18  32  53  76  99 124 155 196 238 282
#     4   8  12  20  34  56  83 116 153 192 232 274
#
# _framework density 18.370094999999999
#
# number of rings (size 3 to 8) (size 9 to 14) (size 15 to 20)
#    0.000    2.500    0.000    5.625    0.000    1.000 
#    0.000    0.625    0.000    0.000    0.000    0.875 
#    0.000    0.000    0.000    0.000    0.000    0.000 
#
# Total GULP energy -178135.566745 kJ/mol
# GULP energy per Si atom -5566.736461 kJ/mol
# Density = 1.832828 g / cm^3
# Si number density = 18.370095 Si / 1000 Ang^3
#
#
#
# Elastic Constant Matrix: (Units=GPa)
#
#
# Indices 1 2 3 4 5 6 
#
# 1 98.3934 60.8435 10.8864 0.0000 0.0000 0.0000
# 2 60.8435 259.4462 40.5712 0.0000 0.0000 0.0000
# 3 10.8864 40.5712 16.0472 0.0000 0.0000 0.0000
# 4 0.0000 0.0000 0.0000 184.8214 0.0000 0.0000
# 5 0.0000 0.0000 0.0000 0.0000 18.1972 0.0000
# 6 0.0000 0.0000 0.0000 0.0000 0.0000 50.7786
#
#
#
# Elastic Compliance Matrix: (Units=1/GPa)
#
#
# Indices 1 2 3 4 5 6 
#
# 1 0.011915 -0.002531 -0.001685 0.000000 0.000000 0.000000
# 2 -0.002531 0.006912 -0.015759 0.000000 0.000000 0.000000
# 3 -0.001685 -0.015759 0.103301 0.000000 0.000000 0.000000
# 4 0.000000 0.000000 0.000000 0.005411 0.000000 0.000000
# 5 0.000000 0.000000 0.000000 0.000000 0.054953 0.000000
# 6 0.000000 0.000000 0.000000 0.000000 0.000000 0.019693
#
#
# Mechanical properties :
#
#
# Convention : Reuss Voigt Hill
#
# Bulk Modulus (GPa) = 12.16846 66.49878 39.33362
# Shear Modulus (GPa) = 18.55103 68.19849 43.37476
#
# Velocity S-wave (km/s) = 3.18126 6.09962 4.86445
# Velocity P-wave (km/s) = 4.48691 9.26742 7.28071
#
# Compressibility (1/GPa) = 0.08217967
#
# Stress axis : x y z
#
# Youngs Moduli (GPa) = 83.93084 144.67305 9.68043
#
# Poissons Ratio (x) = 0.36612 0.01631
# Poissons Ratio (y) = 0.21240 0.15255
# Poissons Ratio (z) = 0.14140 2.27987
#
# Static dielectric constant tensor:
#      x y z
#    x 1.613040 0.000000 0.000000 
#    y 0.000000 1.740570 0.000000 
#    z 0.000000 0.000000 1.594290 
# 
# From -- ./inp_files/13946.got.cif
#   From: 2010.05.17/outbox.cif.g08.bks.cpg/sg51_7_cif.got.tgz:13946.got - 2010.06.03 11:52:47.
