data_PCOD9400370
_publ_section_title
;
Structure prediction by ZEFSAII (Michael W. Deem and Ramdas Pophale) SiO2 
 PCOD9400370
Probable space group: P M M A
;
_chemical_formula_sum "Si O2"
_cell_formula_units_Z 64
_cell_length_a 9.816063
_cell_length_b 23.425865
_cell_length_c 15.193382
_cell_angle_alpha 90.000000
_cell_angle_beta 90.000000
_cell_angle_gamma 90.000000
_cell_volume 3493.714646
_symmetry_space_group_name_H-M "P M M A"
_symmetry_group_IT_number 51
_symmetry_cell_setting 'orthorhombic'
loop_
_space_group_symop_operation_xyz
x,y,z
1/2-x,-y,z
1/2+x,-y,-z
-x,y,-z
-x,-y,-z
1/2+x,y,-z
1/2-x,y,z
x,-y,z
loop_
_atom_site_type_symbol
_atom_site_label
_atom_site_fract_x
_atom_site_fract_y
_atom_site_fract_z
Si Si1 0.590822 0.107244 0.916271
Si Si2 0.406368 0.438288 0.743558
Si Si3 0.915596 0.063749 0.726918
Si Si4 0.470246 0.716021 0.395891
Si Si5 0.406949 0.157462 0.413642
Si Si6 0.597531 0.310123 0.218429
Si Si7 0.909861 0.244418 0.914031
Si Si8 0.902686 0.410958 0.584620
O O1 0.750000 0.092886 0.931159
O O2 0.542423 0.078022 0.826354
O O3 0.583070 0.175814 0.903046
O O4 0.500000 0.091873 0.000000
O O5 0.250000 0.435261 0.708529
O O6 0.418120 0.500000 0.790281
O O7 0.423555 0.378304 0.793724
O O8 0.515806 0.437342 0.665787
O O9 0.750000 0.065210 0.727747
O O10 0.957710 0.112447 0.658668
O O11 0.958605 0.000000 0.701334
O O12 0.500000 0.720471 0.500000
O O13 0.409997 0.778086 0.375358
O O14 0.586051 0.704432 0.322751
O O15 0.391334 0.656427 0.392435
O O16 0.500000 0.154513 0.500000
O O17 0.250000 0.144451 0.436464
O O18 0.750000 0.295128 0.187823
O O19 0.481898 0.275753 0.167302
O O20 0.750000 0.259545 0.923043
O O21 0.000000 0.258827 0.000000
O O22 0.750000 0.432775 0.570278
O O23 0.000000 0.417124 0.500000
#
# Coordination Sequence:
#
# PCOD9400370 Si02
#       8
#     8   8   8   8   8   8   8   8
#     4   9  18  33  53  78 106 135 166 202 248 303
#     4   9  19  35  51  68  95 132 171 209 251 301
#     4   9  18  33  52  73 100 136 174 209 250 304
#     4   9  19  32  49  74 106 138 171 210 259 314
#     4  10  20  34  52  73  98 132 174 218 263 308
#     4  10  20  34  55  81 107 137 173 214 261 309
#     4  10  20  35  56  82 111 139 169 209 259 314
#     4  10  19  30  46  68  95 128 167 213 261 309
#
# _framework density 18.318612000000002
#
# number of rings (size 3 to 8) (size 9 to 14) (size 15 to 20)
#    0.000    2.500    0.000    1.875    0.000   10.000 
#    0.000    0.625    0.000    1.125    0.000    0.000 
#    0.000    0.000    0.000    0.000    0.000    0.000 
#
# Total GULP energy -356362.323278 kJ/mol
# GULP energy per Si atom -5568.161301 kJ/mol
# Density = 1.827692 g / cm^3
# Si number density = 18.318612 Si / 1000 Ang^3
#
#
#
# Elastic Constant Matrix: (Units=GPa)
#
#
# Indices 1 2 3 4 5 6 
#
# 1 84.4404 15.0399 20.8734 0.0000 0.0000 0.0000
# 2 15.0399 93.3460 36.3159 0.0000 0.0000 0.0000
# 3 20.8734 36.3159 55.6511 0.0000 0.0000 0.0000
# 4 0.0000 0.0000 0.0000 -118.6763 0.0000 0.0000
# 5 0.0000 0.0000 0.0000 0.0000 25.2340 0.0000
# 6 0.0000 0.0000 0.0000 0.0000 0.0000 49.1581
#
#
#
# Elastic Compliance Matrix: (Units=1/GPa)
#
#
# Indices 1 2 3 4 5 6 
#
# 1 0.013058 -0.000266 -0.004724 0.000000 0.000000 0.000000
# 2 -0.000266 0.014363 -0.009273 0.000000 0.000000 0.000000
# 3 -0.004724 -0.009273 0.025792 0.000000 0.000000 0.000000
# 4 0.000000 0.000000 0.000000 -0.008426 0.000000 0.000000
# 5 0.000000 0.000000 0.000000 0.000000 0.039629 0.000000
# 6 0.000000 0.000000 0.000000 0.000000 0.000000 0.020343
#
#
# Mechanical properties :
#
#
# Convention : Reuss Voigt Hill
#
# Bulk Modulus (GPa) = 40.50729 41.98842 41.24785
# Shear Modulus (GPa) = 35.33202 1.89038 18.61120
#
# Velocity S-wave (km/s) = 4.39652 1.01695 3.19089
# Velocity P-wave (km/s) = 6.92338 4.93456 6.01178
#
# Compressibility (1/GPa) = 0.02468692
#
# Stress axis : x y z
#
# Youngs Moduli (GPa) = 76.58237 69.62135 38.77110
#
# Poissons Ratio (x) = 0.01852 0.18316
# Poissons Ratio (y) = 0.02037 0.35954
# Poissons Ratio (z) = 0.36178 0.64562
#
# Static dielectric constant tensor:
#      x y z
#    x 1.636290 0.000000 0.000000 
#    y 0.000000 1.662660 0.000000 
#    z 0.000000 0.000000 1.625170 
# 
# From -- ./inp_files/22341.got.cif
#   From: 2010.05.17/outbox.cif.g08.bks.cpg/sg51_12_cif.got.tgz:22341.got - 2010.06.03 11:52:47.
