data_PCOD9400874
_publ_section_title
;
Structure prediction by ZEFSAII (Michael W. Deem and Ramdas Pophale) SiO2 
 PCOD9400874
Probable space group: P M M A
;
_chemical_formula_sum "Si O2"
_cell_formula_units_Z 64
_cell_length_a 15.954419
_cell_length_b 19.582948
_cell_length_c 11.396962
_cell_angle_alpha 90.000000
_cell_angle_beta 90.000000
_cell_angle_gamma 90.000000
_cell_volume 3560.804781
_symmetry_space_group_name_H-M "P M M A"
_symmetry_group_IT_number 51
_symmetry_cell_setting 'orthorhombic'
loop_
_space_group_symop_operation_xyz
x,y,z
1/2-x,-y,z
1/2+x,-y,-z
-x,y,-z
-x,-y,-z
1/2+x,y,-z
1/2-x,y,z
x,-y,z
loop_
_atom_site_type_symbol
_atom_site_label
_atom_site_fract_x
_atom_site_fract_y
_atom_site_fract_z
Si Si1 0.649571 0.422854 0.794150
Si Si2 0.655325 0.922994 0.756885
Si Si3 0.150389 0.304893 0.023637
Si Si4 0.151987 0.074284 0.525025
Si Si5 0.411172 0.279030 0.768377
Si Si6 0.447318 0.340469 0.390527
Si Si7 0.964502 0.819769 0.881720
Si Si8 0.153123 0.226741 0.533397
O O1 0.750000 0.424849 0.789747
O O2 0.617865 0.500000 0.810000
O O3 0.616979 0.390305 0.672953
O O4 0.628392 0.372327 0.901870
O O5 0.750000 0.902044 0.789004
O O6 0.651252 0.925878 0.616202
O O7 0.589394 0.870705 0.806061
O O8 0.641410 0.000000 0.800508
O O9 0.250000 0.291349 0.037185
O O10 0.128876 0.310419 0.885486
O O11 0.094301 0.243565 0.076680
O O12 0.250000 0.074358 0.563053
O O13 0.117999 0.149787 0.553276
O O14 0.115585 0.000000 0.563776
O O15 0.485516 0.322093 0.709381
O O16 0.457345 0.210375 0.811120
O O17 0.350414 0.262966 0.660089
O O18 0.500000 0.369484 0.500000
O O19 0.400910 0.272635 0.442775
O O20 0.000000 0.852951 0.000000
O O21 0.250000 0.221799 0.492470
#
# Coordination Sequence:
#
# PCOD9400874 Si02
#       8
#     8   8   8   8   8   8   8   8
#     4  10  21  37  58  84 110 139 181 226 264 316
#     4   9  17  30  48  71  99 132 175 223 265 316
#     4  10  20  35  57  78 102 139 180 220 268 317
#     4   8  15  27  45  71  99 129 171 219 261 306
#     4  10  20  34  50  78 111 133 174 225 267 317
#     4  10  20  34  54  79 111 145 176 219 265 325
#     4  10  19  31  50  71  99 132 172 220 268 321
#     4  10  19  32  54  78 106 145 185 222 267 319
#
# _framework density 17.973465000000001
#
# number of rings (size 3 to 8) (size 9 to 14) (size 15 to 20)
#    0.000    2.375    1.250    2.625    0.000    0.500 
#    0.000    1.875    0.000    6.375    0.000   14.000 
#    0.000    0.000    0.000    0.000    0.000    0.000 
#
# Total GULP energy -356516.298337 kJ/mol
# GULP energy per Si atom -5570.567162 kJ/mol
# Density = 1.793256 g / cm^3
# Si number density = 17.973465 Si / 1000 Ang^3
#
#
#
# Elastic Constant Matrix: (Units=GPa)
#
#
# Indices 1 2 3 4 5 6 
#
# 1 39.0082 19.1744 14.8979 0.0000 0.0000 0.0000
# 2 19.1744 79.0132 33.6970 0.0000 0.0000 0.0000
# 3 14.8979 33.6970 64.2892 0.0000 0.0000 0.0000
# 4 0.0000 0.0000 0.0000 3.0991 0.0000 0.0000
# 5 0.0000 0.0000 0.0000 0.0000 27.3040 0.0000
# 6 0.0000 0.0000 0.0000 0.0000 0.0000 12.5859
#
#
#
# Elastic Compliance Matrix: (Units=1/GPa)
#
#
# Indices 1 2 3 4 5 6 
#
# 1 0.029895 -0.005538 -0.004025 0.000000 0.000000 0.000000
# 2 -0.005538 0.017326 -0.007798 0.000000 0.000000 0.000000
# 3 -0.004025 -0.007798 0.020575 0.000000 0.000000 0.000000
# 4 0.000000 0.000000 0.000000 0.322673 0.000000 0.000000
# 5 0.000000 0.000000 0.000000 0.000000 0.036625 0.000000
# 6 0.000000 0.000000 0.000000 0.000000 0.000000 0.079454
#
#
# Mechanical properties :
#
#
# Convention : Reuss Voigt Hill
#
# Bulk Modulus (GPa) = 30.23559 35.31658 32.77608
# Shear Modulus (GPa) = 9.05316 16.23388 12.64352
#
# Velocity S-wave (km/s) = 2.24675 3.00861 2.65515
# Velocity P-wave (km/s) = 4.85689 5.63568 5.26072
#
# Compressibility (1/GPa) = 0.03307361
#
# Stress axis : x y z
#
# Youngs Moduli (GPa) = 33.45029 57.71792 48.60362
#
# Poissons Ratio (x) = 0.31966 0.19562
# Poissons Ratio (y) = 0.18526 0.37900
# Poissons Ratio (z) = 0.13463 0.45007
#
# Static dielectric constant tensor:
#      x y z
#    x 1.631340 0.000000 0.000000 
#    y 0.000000 1.634440 0.000000 
#    z 0.000000 0.000000 1.612280 
# 
# From -- ./inp_files/16833.got.cif
#   From: 2010.05.17/outbox.cif.g08.bks.cpg/sg51_9_cif.got.tgz:16833.got - 2010.06.03 11:52:47.
