data_PCOD9400534
_publ_section_title
;
Structure prediction by ZEFSAII (Michael W. Deem and Ramdas Pophale) SiO2 
 PCOD9400534
Probable space group: P M M A
;
_chemical_formula_sum "Si O2"
_cell_formula_units_Z 44
_cell_length_a 7.386114
_cell_length_b 8.470279
_cell_length_c 30.980168
_cell_angle_alpha 90.000000
_cell_angle_beta 90.000000
_cell_angle_gamma 90.000000
_cell_volume 1938.195097
_symmetry_space_group_name_H-M "P M M A"
_symmetry_group_IT_number 51
_symmetry_cell_setting 'orthorhombic'
loop_
_space_group_symop_operation_xyz
x,y,z
1/2-x,-y,z
1/2+x,-y,-z
-x,y,-z
-x,-y,-z
1/2+x,y,-z
1/2-x,y,z
x,-y,z
loop_
_atom_site_type_symbol
_atom_site_label
_atom_site_fract_x
_atom_site_fract_y
_atom_site_fract_z
Si Si1 0.966259 0.000000 0.550789
Si Si2 0.533404 0.821360 0.046448
Si Si3 0.960742 0.673639 0.590853
Si Si4 0.529321 0.315177 0.230157
Si Si5 0.031318 0.314213 0.863402
Si Si6 0.969027 0.822040 0.320757
O O1 0.038760 0.165171 0.570337
O O2 0.000000 0.000000 0.500000
O O3 0.750000 0.000000 0.559346
O O4 0.750000 0.826734 0.050312
O O5 0.463002 0.750671 0.091136
O O6 0.462785 0.000000 0.043506
O O7 0.500000 0.741141 0.000000
O O8 0.750000 0.668760 0.577938
O O9 0.038008 0.500000 0.580263
O O10 0.970589 0.702859 0.642202
O O11 0.750000 0.310408 0.229882
O O12 0.479278 0.500000 0.233563
O O13 0.469328 0.251056 0.183278
O O14 0.469699 0.225019 0.272873
O O15 0.250000 0.294377 0.863836
O O16 0.994487 0.500000 0.862648
O O17 0.750000 0.819896 0.320665
O O18 0.028138 0.000000 0.331610
#
# Coordination Sequence:
#
# PCOD9400534 Si02
#       6
#     4   8   8   8   8   8
#     4  10  22  40  60  84 114 144 180 226 265 310
#     4   9  17  28  42  60  81 107 141 183 231 284
#     4  10  21  38  59  81 109 148 185 217 262 315
#     4   8  14  25  41  64  95 126 156 197 247 292
#     4   8  14  25  41  61  86 116 150 189 234 283
#     4  10  19  30  49  79 110 138 173 216 259 303
#
# _framework density 22.701530999999999
#
# number of rings (size 3 to 8) (size 9 to 14) (size 15 to 20)
#    0.000    2.909    0.909    1.636    0.000    3.273 
#    0.000    3.636    0.000    1.091    0.000    5.091 
#    0.000    0.000    0.000    0.000    0.000    0.000 
#
# Total GULP energy -245408.971096 kJ/mol
# GULP energy per Si atom -5577.476616 kJ/mol
# Density = 2.264986 g / cm^3
# Si number density = 22.701531 Si / 1000 Ang^3
#
#
#
# Elastic Constant Matrix: (Units=GPa)
#
#
# Indices 1 2 3 4 5 6 
#
# 1 78.0787 10.9331 -6.7890 0.0000 0.0000 0.0000
# 2 10.9331 119.9088 65.7777 0.0000 0.0000 0.0000
# 3 -6.7890 65.7777 155.4156 0.0000 0.0000 0.0000
# 4 0.0000 0.0000 0.0000 157.9085 0.0000 0.0000
# 5 0.0000 0.0000 0.0000 0.0000 10.5836 0.0000
# 6 0.0000 0.0000 0.0000 0.0000 0.0000 -6.7483
#
#
#
# Elastic Compliance Matrix: (Units=1/GPa)
#
#
# Indices 1 2 3 4 5 6 
#
# 1 0.013208 -0.001981 0.001415 0.000000 0.000000 0.000000
# 2 -0.001981 0.011158 -0.004809 0.000000 0.000000 0.000000
# 3 0.001415 -0.004809 0.008532 0.000000 0.000000 0.000000
# 4 0.000000 0.000000 0.000000 0.006333 0.000000 0.000000
# 5 0.000000 0.000000 0.000000 0.000000 0.094486 0.000000
# 6 0.000000 0.000000 0.000000 0.000000 0.000000 -0.148185
#
#
# Mechanical properties :
#
#
# Convention : Reuss Voigt Hill
#
# Bulk Modulus (GPa) = 45.14903 54.80518 49.97711
# Shear Modulus (GPa) = 1364.70010 51.24751 707.97381
#
# Velocity S-wave (km/s) = 24.54494 4.75641 17.67876
# Velocity P-wave (km/s) = 28.69152 7.37283 20.94710
#
# Compressibility (1/GPa) = 0.02214887
#
# Stress axis : x y z
#
# Youngs Moduli (GPa) = 75.71170 89.61858 117.21125
#
# Poissons Ratio (x) = 0.17750 -0.16588
# Poissons Ratio (y) = 0.14996 0.56369
# Poissons Ratio (z) = -0.10715 0.43099
#
# Static dielectric constant tensor:
#      x y z
#    x 1.908750 0.000000 0.000000 
#    y 0.000000 1.829990 0.000000 
#    z 0.000000 0.000000 1.853730 
# 
# From -- ./inp_files/36817.got.cif
#   From: 2010.05.17/outbox.cif.g08.bks.cpg/sg51_19_cif.got.tgz:36817.got - 2010.06.03 11:52:47.
