data_PCOD9400648
_publ_section_title
;
Structure prediction by ZEFSAII (Michael W. Deem and Ramdas Pophale) SiO2 
 PCOD9400648
Probable space group: P M M A
;
_chemical_formula_sum "Si O2"
_cell_formula_units_Z 44
_cell_length_a 8.243452
_cell_length_b 30.270503
_cell_length_c 9.162631
_cell_angle_alpha 90.000000
_cell_angle_beta 90.000000
_cell_angle_gamma 90.000000
_cell_volume 2286.382819
_symmetry_space_group_name_H-M "P M M A"
_symmetry_group_IT_number 51
_symmetry_cell_setting 'orthorhombic'
loop_
_space_group_symop_operation_xyz
x,y,z
1/2-x,-y,z
1/2+x,-y,-z
-x,y,-z
-x,-y,-z
1/2+x,y,-z
1/2-x,y,z
x,-y,z
loop_
_atom_site_type_symbol
_atom_site_label
_atom_site_fract_x
_atom_site_fract_y
_atom_site_fract_z
Si Si1 0.946184 0.047495 0.669812
Si Si2 0.446005 0.588047 0.666745
Si Si3 0.056590 0.763315 0.667946
Si Si4 0.944119 0.142665 0.669379
Si Si5 0.446237 0.323942 0.833507
Si Si6 0.553942 0.500000 0.166825
O O1 0.750000 0.047545 0.673664
O O2 0.000714 0.095090 0.731955
O O3 0.000000 0.047475 0.500000
O O4 0.002177 0.000000 0.732409
O O5 0.500000 0.587124 0.500000
O O6 0.250000 0.588045 0.670806
O O7 0.502814 0.632787 0.745813
O O8 0.503155 0.544251 0.751247
O O9 0.250000 0.762168 0.666793
O O10 0.994865 0.721243 0.757848
O O11 0.000000 0.760170 0.500000
O O12 0.005319 0.810958 0.731458
O O13 0.750000 0.143591 0.672384
O O14 0.000000 0.142803 0.500000
O O15 0.250000 0.323620 0.828773
O O16 0.500000 0.326328 0.000000
O O17 0.750000 0.500000 0.170848
O O18 0.500000 0.500000 0.000000
#
# Coordination Sequence:
#
# PCOD9400648 Si02
#       6
#     8   8   8   8   8   4
#     4   8  13  20  30  47  74 108 145 183 224 273
#     4  10  21  37  56  81 108 136 172 210 248 294
#     4  10  19  31  47  68  93 123 159 198 239 287
#     4   9  15  23  37  57  82 115 152 190 233 280
#     4  10  22  37  53  74 100 129 164 204 247 295
#     4  10  21  36  56  82 112 142 175 212 250 294
#
# _framework density 19.244371999999998
#
# number of rings (size 3 to 8) (size 9 to 14) (size 15 to 20)
#    0.000    2.545    0.000    3.545    0.000    3.636 
#    0.000    0.000    0.000    0.000    0.000    0.000 
#    0.000    0.727    0.000    1.636    0.000    8.545 
#
# Total GULP energy -245223.131646 kJ/mol
# GULP energy per Si atom -5573.252992 kJ/mol
# Density = 1.920057 g / cm^3
# Si number density = 19.244372 Si / 1000 Ang^3
#
#
#
# Elastic Constant Matrix: (Units=GPa)
#
#
# Indices 1 2 3 4 5 6 
#
# 1 16.7035 24.5261 3.9944 0.0000 0.0000 0.0000
# 2 24.5261 261.1835 87.8768 0.0000 0.0000 0.0000
# 3 3.9944 87.8768 90.7773 0.0000 0.0000 0.0000
# 4 0.0000 0.0000 0.0000 -4.9213 0.0000 0.0000
# 5 0.0000 0.0000 0.0000 0.0000 21.8842 0.0000
# 6 0.0000 0.0000 0.0000 0.0000 0.0000 15.8727
#
#
#
# Elastic Compliance Matrix: (Units=1/GPa)
#
#
# Indices 1 2 3 4 5 6 
#
# 1 0.070901 -0.008317 0.004932 0.000000 0.000000 0.000000
# 2 -0.008317 0.006654 -0.006075 0.000000 0.000000 0.000000
# 3 0.004932 -0.006075 0.016680 0.000000 0.000000 0.000000
# 4 0.000000 0.000000 0.000000 -0.203200 0.000000 0.000000
# 5 0.000000 0.000000 0.000000 0.000000 0.045695 0.000000
# 6 0.000000 0.000000 0.000000 0.000000 0.000000 0.063001
#
#
# Mechanical properties :
#
#
# Convention : Reuss Voigt Hill
#
# Bulk Modulus (GPa) = 13.27795 66.82877 40.05336
# Shear Modulus (GPa) = 114.26782 23.38493 68.82637
#
# Velocity S-wave (km/s) = 7.71402 3.48969 5.98682
# Velocity P-wave (km/s) = 9.28742 7.14416 8.28539
#
# Compressibility (1/GPa) = 0.07531285
#
# Stress axis : x y z
#
# Youngs Moduli (GPa) = 14.10427 150.29093 59.95190
#
# Poissons Ratio (x) = 1.24998 -0.29565
# Poissons Ratio (y) = 0.11731 0.36422
# Poissons Ratio (z) = -0.06956 0.91305
#
# Static dielectric constant tensor:
#      x y z
#    x 1.685890 0.000000 0.000000 
#    y 0.000000 1.754980 0.000000 
#    z 0.000000 0.000000 1.610010 
# 
# From -- ./inp_files/5818.got.cif
#   From: 2010.05.17/outbox.cif.g08.bks.cpg/sg51_3_cif.got.tgz:5818.got - 2010.06.03 11:52:47.
