data_PCOD9400906
_publ_section_title
;
Structure prediction by ZEFSAII (Michael W. Deem and Ramdas Pophale) SiO2 
 PCOD9400906
Probable space group: P M M A
;
_chemical_formula_sum "Si O2"
_cell_formula_units_Z 40
_cell_length_a 34.814729
_cell_length_b 7.457895
_cell_length_c 7.413531
_cell_angle_alpha 90.000000
_cell_angle_beta 90.000000
_cell_angle_gamma 90.000000
_cell_volume 1924.883242
_symmetry_space_group_name_H-M "P M M A"
_symmetry_group_IT_number 51
_symmetry_cell_setting 'orthorhombic'
loop_
_space_group_symop_operation_xyz
x,y,z
1/2-x,-y,z
1/2+x,-y,-z
-x,y,-z
-x,-y,-z
1/2+x,y,-z
1/2-x,y,z
x,-y,z
loop_
_atom_site_type_symbol
_atom_site_label
_atom_site_fract_x
_atom_site_fract_y
_atom_site_fract_z
Si Si1 0.707113 0.212622 0.229916
Si Si2 0.292704 0.284554 0.347584
Si Si3 0.561376 0.281075 0.997242
Si Si4 0.502003 0.281472 0.293925
Si Si5 0.853334 0.706394 0.933688
O O1 0.750000 0.280968 0.182427
O O2 0.701362 0.246727 0.441802
O O3 0.706893 0.000000 0.200109
O O4 0.673575 0.291801 0.109326
O O5 0.250000 0.216956 0.297423
O O6 0.291778 0.500000 0.324567
O O7 0.326833 0.212583 0.223577
O O8 0.561718 0.500000 0.003295
O O9 0.534623 0.229848 0.827924
O O10 0.604809 0.215980 0.974016
O O11 0.539443 0.224487 0.179748
O O12 0.500000 0.219559 0.500000
O O13 0.502338 0.500000 0.297962
O O14 0.860628 0.500000 0.880304
#
# Coordination Sequence:
#
# PCOD9400906 Si02
#       5
#     8   8   8   8   8
#     4  10  21  35  50  69  95 129 166 201 239 286
#     4   9  18  32  49  69  94 125 160 198 241 288
#     4   8  15  25  38  64  96 122 153 189 229 282
#     4   8  13  23  39  59  90 128 155 181 225 279
#     4  10  19  31  50  75 101 127 158 201 248 288
#
# _framework density 20.780481000000002
#
# number of rings (size 3 to 8) (size 9 to 14) (size 15 to 20)
#    0.000    3.000    0.000    2.400    0.000    4.400 
#    0.000    8.000    0.000    0.000    0.000    2.800 
#    0.000    8.000    0.000    0.000    0.000    0.000 
#
# Total GULP energy -223184.073315 kJ/mol
# GULP energy per Si atom -5579.601833 kJ/mol
# Density = 2.073318 g / cm^3
# Si number density = 20.780481 Si / 1000 Ang^3
#
#
#
# Elastic Constant Matrix: (Units=GPa)
#
#
# Indices 1 2 3 4 5 6 
#
# 1 169.1027 -3.1635 72.9246 0.0000 0.0000 0.0000
# 2 -3.1635 62.6951 -11.1366 0.0000 0.0000 0.0000
# 3 72.9246 -11.1366 124.1087 0.0000 0.0000 0.0000
# 4 0.0000 0.0000 0.0000 409.2708 0.0000 0.0000
# 5 0.0000 0.0000 0.0000 0.0000 24.2808 0.0000
# 6 0.0000 0.0000 0.0000 0.0000 0.0000 -12.4238
#
#
#
# Elastic Compliance Matrix: (Units=1/GPa)
#
#
# Indices 1 2 3 4 5 6 
#
# 1 0.007932 -0.000435 -0.004700 0.000000 0.000000 0.000000
# 2 -0.000435 0.016232 0.001712 0.000000 0.000000 0.000000
# 3 -0.004700 0.001712 0.010973 0.000000 0.000000 0.000000
# 4 0.000000 0.000000 0.000000 0.002443 0.000000 0.000000
# 5 0.000000 0.000000 0.000000 0.000000 0.041185 0.000000
# 6 0.000000 0.000000 0.000000 0.000000 0.000000 -0.080490
#
#
# Mechanical properties :
#
#
# Convention : Reuss Voigt Hill
#
# Bulk Modulus (GPa) = 35.34542 52.57282 43.95912
# Shear Modulus (GPa) = 343.62530 104.04436 223.83483
#
# Velocity S-wave (km/s) = 12.87317 7.08357 10.38979
# Velocity P-wave (km/s) = 15.42738 9.60504 12.85031
#
# Compressibility (1/GPa) = 0.02829221
#
# Stress axis : x y z
#
# Youngs Moduli (GPa) = 126.06804 61.60526 91.13576
#
# Poissons Ratio (x) = 0.02677 0.42833
# Poissons Ratio (y) = 0.05479 -0.15602
# Poissons Ratio (z) = 0.59250 -0.10546
#
# Static dielectric constant tensor:
#      x y z
#    x 1.738400 0.000000 0.000000 
#    y 0.000000 1.719820 0.000000 
#    z 0.000000 0.000000 1.707530 
# 
# From -- ./inp_files/12586.got.cif
#   From: 2010.05.17/outbox.cif.g08.bks.cpg/sg51_7_cif.got.tgz:12586.got - 2010.06.03 11:52:47.
