data_PCOD9400674
_publ_section_title
;
Structure prediction by ZEFSAII (Michael W. Deem and Ramdas Pophale) SiO2 
 PCOD9400674
Probable space group: P M M A
;
_chemical_formula_sum "Si O2"
_cell_formula_units_Z 64
_cell_length_a 9.715686
_cell_length_b 22.888769
_cell_length_c 17.848654
_cell_angle_alpha 90.000000
_cell_angle_beta 90.000000
_cell_angle_gamma 90.000000
_cell_volume 3969.185328
_symmetry_space_group_name_H-M "P M M A"
_symmetry_group_IT_number 51
_symmetry_cell_setting 'orthorhombic'
loop_
_space_group_symop_operation_xyz
x,y,z
1/2-x,-y,z
1/2+x,-y,-z
-x,y,-z
-x,-y,-z
1/2+x,y,-z
1/2-x,y,z
x,-y,z
loop_
_atom_site_type_symbol
_atom_site_label
_atom_site_fract_x
_atom_site_fract_y
_atom_site_fract_z
Si Si1 0.993044 0.358123 0.693083
Si Si2 0.408168 0.728553 0.572797
Si Si3 0.587401 0.179601 0.664544
Si Si4 0.413151 0.566082 0.830925
Si Si5 0.082308 0.680231 0.923108
Si Si6 0.093332 0.743611 0.198410
Si Si7 0.912452 0.067410 0.573424
Si Si8 0.599466 0.566325 0.563902
O O1 0.089577 0.322093 0.636102
O O2 0.060061 0.403527 0.750791
O O3 0.915003 0.309887 0.742197
O O4 0.901268 0.395125 0.637091
O O5 0.500000 0.714664 0.500000
O O6 0.250000 0.741107 0.552197
O O7 0.486912 0.782199 0.612756
O O8 0.750000 0.193215 0.649584
O O9 0.563854 0.199517 0.750435
O O10 0.564383 0.112720 0.640840
O O11 0.250000 0.561052 0.839857
O O12 0.471841 0.500000 0.836796
O O13 0.456217 0.615428 0.891092
O O14 0.250000 0.684225 0.928765
O O15 0.019632 0.726592 0.863478
O O16 0.000000 0.688628 0.000000
O O17 0.250000 0.746751 0.168496
O O18 0.750000 0.070337 0.554698
O O19 0.000000 0.083953 0.500000
O O20 0.945420 0.000000 0.592275
O O21 0.500000 0.587928 0.500000
O O22 0.750000 0.565444 0.529954
O O23 0.559067 0.500000 0.583768
#
# Coordination Sequence:
#
# PCOD9400674 Si02
#       8
#     8   8   8   8   8   8   8   8
#     4  10  19  31  48  64  84 112 147 186 230 278
#     4  11  22  32  44  63  87 118 157 201 246 289
#     4   9  18  32  49  69  95 127 161 199 241 281
#     4   9  18  32  49  69  91 114 142 178 222 273
#     4  10  20  34  53  75  98 122 147 177 218 270
#     4   9  18  32  50  71  94 119 148 183 225 272
#     4   9  17  29  45  67  97 134 175 213 245 277
#     4  10  21  34  46  61  81 107 142 185 232 279
#
# _framework density 16.124216000000001
#
# number of rings (size 3 to 8) (size 9 to 14) (size 15 to 20)
#    0.000    2.375    0.000    2.625    0.000    8.250 
#    0.000    1.250    0.000    7.125    0.000    0.000 
#    0.000    0.500    0.000    0.875    0.000    1.250 
#
# Total GULP energy -356367.328016 kJ/mol
# GULP energy per Si atom -5568.239500 kJ/mol
# Density = 1.608752 g / cm^3
# Si number density = 16.124216 Si / 1000 Ang^3
#
#
#
# Elastic Constant Matrix: (Units=GPa)
#
#
# Indices 1 2 3 4 5 6 
#
# 1 74.9111 30.4654 46.8748 0.0000 0.0000 0.0000
# 2 30.4654 82.9679 43.0274 0.0000 0.0000 0.0000
# 3 46.8748 43.0274 96.7541 0.0000 0.0000 0.0000
# 4 0.0000 0.0000 0.0000 57.3038 0.0000 0.0000
# 5 0.0000 0.0000 0.0000 0.0000 21.9474 0.0000
# 6 0.0000 0.0000 0.0000 0.0000 0.0000 19.0061
#
#
#
# Elastic Compliance Matrix: (Units=1/GPa)
#
#
# Indices 1 2 3 4 5 6 
#
# 1 0.019704 -0.002969 -0.008225 0.000000 0.000000 0.000000
# 2 -0.002969 0.016113 -0.005727 0.000000 0.000000 0.000000
# 3 -0.008225 -0.005727 0.016867 0.000000 0.000000 0.000000
# 4 0.000000 0.000000 0.000000 0.017451 0.000000 0.000000
# 5 0.000000 0.000000 0.000000 0.000000 0.045564 0.000000
# 6 0.000000 0.000000 0.000000 0.000000 0.000000 0.052615
#
#
# Mechanical properties :
#
#
# Convention : Reuss Voigt Hill
#
# Bulk Modulus (GPa) = 53.07707 55.04092 54.05900
# Shear Modulus (GPa) = 23.98800 28.60249 26.29525
#
# Velocity S-wave (km/s) = 3.86126 4.21632 4.04269
# Velocity P-wave (km/s) = 7.27105 7.61005 7.44248
#
# Compressibility (1/GPa) = 0.01884053
#
# Stress axis : x y z
#
# Youngs Moduli (GPa) = 50.75182 62.06057 59.28599
#
# Poissons Ratio (x) = 0.18428 0.48765
# Poissons Ratio (y) = 0.15070 0.33954
# Poissons Ratio (z) = 0.41746 0.35543
#
# Static dielectric constant tensor:
#      x y z
#    x 1.536680 0.000000 0.000000 
#    y 0.000000 1.573270 0.000000 
#    z 0.000000 0.000000 1.533220 
# 
# From -- ./inp_files/28638.got.cif
#   From: 2010.05.17/outbox.cif.g08.bks.cpg/sg51_15_cif.got.tgz:28638.got - 2010.06.03 11:52:47.
