data_PCOD9400861
_publ_section_title
;
Structure prediction by ZEFSAII (Michael W. Deem and Ramdas Pophale) SiO2 
 PCOD9400861
Probable space group: P M M A
;
_chemical_formula_sum "Si O2"
_cell_formula_units_Z 56
_cell_length_a 23.275315
_cell_length_b 7.679610
_cell_length_c 14.688425
_cell_angle_alpha 90.000000
_cell_angle_beta 90.000000
_cell_angle_gamma 90.000000
_cell_volume 2625.487548
_symmetry_space_group_name_H-M "P M M A"
_symmetry_group_IT_number 51
_symmetry_cell_setting 'orthorhombic'
loop_
_space_group_symop_operation_xyz
x,y,z
1/2-x,-y,z
1/2+x,-y,-z
-x,y,-z
-x,-y,-z
1/2+x,y,-z
1/2-x,y,z
x,-y,z
loop_
_atom_site_type_symbol
_atom_site_label
_atom_site_fract_x
_atom_site_fract_y
_atom_site_fract_z
Si Si1 0.132767 0.789936 0.642578
Si Si2 0.410702 0.707331 0.266457
Si Si3 0.936394 0.708417 0.532104
Si Si4 0.933205 0.799893 0.021278
Si Si5 0.250000 0.208502 0.741635
Si Si6 0.960612 0.789099 0.215262
Si Si7 0.341657 0.694565 0.104336
Si Si8 0.750000 0.710711 0.041712
O O1 0.114053 0.742948 0.540543
O O2 0.192149 0.727378 0.689472
O O3 0.078078 0.728588 0.701430
O O4 0.134260 0.000000 0.647829
O O5 0.400014 0.500000 0.271459
O O6 0.417720 0.777501 0.368818
O O7 0.473867 0.732412 0.223438
O O8 0.360207 0.779063 0.200438
O O9 0.942748 0.500000 0.541025
O O10 0.000000 0.774463 0.500000
O O11 0.928644 0.732579 0.123535
O O12 0.912186 0.000000 0.015207
O O13 0.901796 0.686858 0.947658
O O14 0.000000 0.804961 0.000000
O O15 0.250000 0.237748 0.851648
O O16 0.250000 0.000000 0.731454
O O17 0.961547 0.000000 0.212337
O O18 0.319074 0.500000 0.122870
O O19 0.302356 0.770559 0.023544
O O20 0.750000 0.500000 0.045379
#
# Coordination Sequence:
#
# PCOD9400861 Si02
#       8
#     8   8   8   8   4   8   8   4
#     4  10  21  36  57  82 110 145 186 230 280 332
#     4  10  20  34  52  77 109 144 180 222 274 330
#     4  10  20  35  55  82 115 147 183 229 280 335
#     4  10  19  31  49  76 109 139 173 221 273 328
#     4  10  22  42  63  84 112 148 189 232 277 336
#     4  10  19  31  49  77 109 141 176 219 273 329
#     4  10  21  36  54  76 107 145 186 228 275 330
#     4  10  22  40  59  82 110 146 191 234 273 330
#
# _framework density 21.329370999999998
#
# number of rings (size 3 to 8) (size 9 to 14) (size 15 to 20)
#    0.000    2.000    2.857    0.857    0.000    4.000 
#    0.000    0.714    0.000    1.714    0.000    0.000 
#    0.000    0.000    0.000    0.000    0.000    0.000 
#
# Total GULP energy -312065.762421 kJ/mol
# GULP energy per Si atom -5572.602900 kJ/mol
# Density = 2.128082 g / cm^3
# Si number density = 21.329371 Si / 1000 Ang^3
#
#
#
# Elastic Constant Matrix: (Units=GPa)
#
#
# Indices 1 2 3 4 5 6 
#
# 1 108.9882 4.9017 61.2697 0.0000 0.0000 0.0000
# 2 4.9017 37.8574 4.5737 0.0000 0.0000 0.0000
# 3 61.2697 4.5737 173.1614 0.0000 0.0000 0.0000
# 4 0.0000 0.0000 0.0000 6.0764 0.0000 0.0000
# 5 0.0000 0.0000 0.0000 0.0000 36.9552 0.0000
# 6 0.0000 0.0000 0.0000 0.0000 0.0000 4.1831
#
#
#
# Elastic Compliance Matrix: (Units=1/GPa)
#
#
# Indices 1 2 3 4 5 6 
#
# 1 0.011491 -0.001000 -0.004040 0.000000 0.000000 0.000000
# 2 -0.001000 0.026586 -0.000348 0.000000 0.000000 0.000000
# 3 -0.004040 -0.000348 0.007213 0.000000 0.000000 0.000000
# 4 0.000000 0.000000 0.000000 0.164572 0.000000 0.000000
# 5 0.000000 0.000000 0.000000 0.000000 0.027060 0.000000
# 6 0.000000 0.000000 0.000000 0.000000 0.000000 0.239057
#
#
# Mechanical properties :
#
#
# Convention : Reuss Voigt Hill
#
# Bulk Modulus (GPa) = 28.97249 51.27749 40.12499
# Shear Modulus (GPa) = 10.03492 26.06040 18.04766
#
# Velocity S-wave (km/s) = 2.17140 3.49923 2.91201
# Velocity P-wave (km/s) = 4.46088 6.35760 5.49175
#
# Compressibility (1/GPa) = 0.03451551
#
# Stress axis : x y z
#
# Youngs Moduli (GPa) = 87.02350 37.61308 138.62972
#
# Poissons Ratio (x) = 0.03761 0.56000
# Poissons Ratio (y) = 0.08701 0.04831
# Poissons Ratio (z) = 0.35153 0.01311
#
# Static dielectric constant tensor:
#      x y z
#    x 1.804850 0.000000 0.000000 
#    y 0.000000 1.824880 0.000000 
#    z 0.000000 0.000000 1.859560 
# 
# From -- ./inp_files/25822.got.cif
#   From: 2010.05.17/outbox.cif.g08.bks.cpg/sg51_13_cif.got.tgz:25822.got - 2010.06.03 11:52:47.
