data_PCOD9400811
_publ_section_title
;
Structure prediction by ZEFSAII (Michael W. Deem and Ramdas Pophale) SiO2 
 PCOD9400811
Probable space group: P M M A
;
_chemical_formula_sum "Si O2"
_cell_formula_units_Z 64
_cell_length_a 32.514105
_cell_length_b 9.319630
_cell_length_c 11.996971
_cell_angle_alpha 90.000000
_cell_angle_beta 90.000000
_cell_angle_gamma 90.000000
_cell_volume 3635.315295
_symmetry_space_group_name_H-M "P M M A"
_symmetry_group_IT_number 51
_symmetry_cell_setting 'orthorhombic'
loop_
_space_group_symop_operation_xyz
x,y,z
1/2-x,-y,z
1/2+x,-y,-z
-x,y,-z
-x,-y,-z
1/2+x,y,-z
1/2-x,y,z
x,-y,z
loop_
_atom_site_type_symbol
_atom_site_label
_atom_site_fract_x
_atom_site_fract_y
_atom_site_fract_z
Si Si1 0.951643 0.330173 0.499248
Si Si2 0.117970 0.835365 0.365169
Si Si3 0.135473 0.172849 0.916429
Si Si4 0.202943 0.827143 0.290349
Si Si5 0.580763 0.162803 0.872823
Si Si6 0.418815 0.329284 0.751316
Si Si7 0.998627 0.661780 0.866652
Si Si8 0.701701 0.333893 0.946596
O O1 0.952700 0.500000 0.525428
O O2 0.919194 0.252620 0.580353
O O3 0.931609 0.311720 0.376805
O O4 0.000000 0.281499 0.500000
O O5 0.165627 0.786317 0.373869
O O6 0.111006 0.835717 0.231837
O O7 0.114800 0.000000 0.404973
O O8 0.103055 0.213636 0.015207
O O9 0.176866 0.245599 0.961038
O O10 0.138355 0.000000 0.912476
O O11 0.118775 0.239592 0.801689
O O12 0.250000 0.799820 0.329097
O O13 0.197678 0.743228 0.173659
O O14 0.199401 0.000000 0.271392
O O15 0.541462 0.251711 0.837190
O O16 0.567394 0.000000 0.893834
O O17 0.412247 0.500000 0.772501
O O18 0.459168 0.279139 0.819052
O O19 0.994947 0.500000 0.822769
O O20 0.000000 0.658427 0.000000
O O21 0.750000 0.334082 0.973007
O O22 0.687451 0.500000 0.940363
#
# Coordination Sequence:
#
# PCOD9400811 Si02
#       8
#     8   8   8   8   8   8   8   8
#     4  10  22  40  59  78 105 145 191 235 282 335
#     4  10  20  35  54  79 109 140 182 228 274 324
#     4  11  21  34  53  78 110 144 179 217 268 328
#     4   9  17  32  54  80 113 148 179 220 275 331
#     4  10  20  32  47  74 108 139 172 216 262 313
#     4  10  21  37  54  76 106 137 180 230 272 322
#     4  10  19  31  49  72  98 134 173 212 263 317
#     4  10  20  33  52  81 115 148 181 219 267 326
#
# _framework density 17.605076
#
# number of rings (size 3 to 8) (size 9 to 14) (size 15 to 20)
#    0.000    2.000    2.500    1.500    0.000    4.750 
#    0.000    0.000    0.000    0.750    0.000    3.500 
#    0.000    0.000    0.000    0.000    0.000    0.000 
#
# Total GULP energy -356654.115581 kJ/mol
# GULP energy per Si atom -5572.720556 kJ/mol
# Density = 1.756501 g / cm^3
# Si number density = 17.605076 Si / 1000 Ang^3
#
#
#
# Elastic Constant Matrix: (Units=GPa)
#
#
# Indices 1 2 3 4 5 6 
#
# 1 125.1318 51.7899 32.4468 0.0000 0.0000 0.0000
# 2 51.7899 50.5207 23.1990 0.0000 0.0000 0.0000
# 3 32.4468 23.1990 51.7167 0.0000 0.0000 0.0000
# 4 0.0000 0.0000 0.0000 21.5381 0.0000 0.0000
# 5 0.0000 0.0000 0.0000 0.0000 30.9858 0.0000
# 6 0.0000 0.0000 0.0000 0.0000 0.0000 20.4286
#
#
#
# Elastic Compliance Matrix: (Units=1/GPa)
#
#
# Indices 1 2 3 4 5 6 
#
# 1 0.014243 -0.013220 -0.003005 0.000000 0.000000 0.000000
# 2 -0.013220 0.037200 -0.008393 0.000000 0.000000 0.000000
# 3 -0.003005 -0.008393 0.024987 0.000000 0.000000 0.000000
# 4 0.000000 0.000000 0.000000 0.046429 0.000000 0.000000
# 5 0.000000 0.000000 0.000000 0.000000 0.032273 0.000000
# 6 0.000000 0.000000 0.000000 0.000000 0.000000 0.048951
#
#
# Mechanical properties :
#
#
# Convention : Reuss Voigt Hill
#
# Bulk Modulus (GPa) = 36.77517 49.13785 42.95651
# Shear Modulus (GPa) = 19.05608 22.58608 20.82108
#
# Velocity S-wave (km/s) = 3.29358 3.58569 3.44273
# Velocity P-wave (km/s) = 5.94961 6.71674 6.34478
#
# Compressibility (1/GPa) = 0.02719226
#
# Stress axis : x y z
#
# Youngs Moduli (GPa) = 70.21231 26.88151 40.02161
#
# Poissons Ratio (x) = 0.35538 0.12028
# Poissons Ratio (y) = 0.92823 0.33590
# Poissons Ratio (z) = 0.21101 0.22561
#
# Static dielectric constant tensor:
#      x y z
#    x 1.642230 0.000000 0.000000 
#    y 0.000000 1.611940 0.000000 
#    z 0.000000 0.000000 1.604020 
# 
# From -- ./inp_files/19481.got.cif
#   From: 2010.05.17/outbox.cif.g08.bks.cpg/sg51_10_cif.got.tgz:19481.got - 2010.06.03 11:52:47.
