data_PCOD9400232
_publ_section_title
;
Structure prediction by ZEFSAII (Michael W. Deem and Ramdas Pophale) SiO2 
 PCOD9400232
Probable space group: P M M A
;
_chemical_formula_sum "Si O2"
_cell_formula_units_Z 48
_cell_length_a 21.491798
_cell_length_b 7.469537
_cell_length_c 15.646863
_cell_angle_alpha 90.000000
_cell_angle_beta 90.000000
_cell_angle_gamma 90.000000
_cell_volume 2511.850068
_symmetry_space_group_name_H-M "P M M A"
_symmetry_group_IT_number 51
_symmetry_cell_setting 'orthorhombic'
loop_
_space_group_symop_operation_xyz
x,y,z
1/2-x,-y,z
1/2+x,-y,-z
-x,y,-z
-x,-y,-z
1/2+x,y,-z
1/2-x,y,z
x,-y,z
loop_
_atom_site_type_symbol
_atom_site_label
_atom_site_fract_x
_atom_site_fract_y
_atom_site_fract_z
Si Si1 0.446060 0.780093 0.433606
Si Si2 0.995311 0.795083 0.263309
Si Si3 0.356312 0.287026 0.699994
Si Si4 0.817813 0.790288 0.110107
Si Si5 0.316757 0.787411 0.510786
Si Si6 0.956521 0.780285 0.078846
O O1 0.500000 0.725953 0.500000
O O2 0.462146 0.717153 0.337956
O O3 0.379167 0.717867 0.466693
O O4 0.446945 0.000000 0.432669
O O5 0.925481 0.793534 0.301312
O O6 0.986439 0.717415 0.168616
O O7 0.015838 0.000000 0.250834
O O8 0.361856 0.500000 0.705375
O O9 0.324076 0.223622 0.787010
O O10 0.322922 0.239198 0.612439
O O11 0.750000 0.713807 0.085295
O O12 0.884210 0.719425 0.075384
O O13 0.816641 0.000000 0.087468
O O14 0.250000 0.714204 0.482190
O O15 0.316442 0.000000 0.495075
O O16 0.954512 0.000000 0.082022
O O17 0.000000 0.729003 0.000000
#
# Coordination Sequence:
#
# PCOD9400232 Si02
#       6
#     8   8   8   8   8   8
#     4   9  15  26  46  65  82 110 153 188 209 246
#     4   9  16  29  48  65  85 117 153 182 214 259
#     4  11  20  28  41  64  93 117 142 178 223 265
#     4   9  17  29  45  63  86 118 150 175 208 264
#     4  10  19  30  44  61  84 116 151 184 217 258
#     4   8  14  25  44  68  88 107 139 180 218 254
#
# _framework density 19.109421999999999
#
# number of rings (size 3 to 8) (size 9 to 14) (size 15 to 20)
#    0.000    2.667    1.667    3.000    0.000    2.667 
#    0.000    1.667    0.000    9.000    0.000    7.000 
#    0.000    0.000    0.000    6.500    0.000    9.333 
#
# Total GULP energy -267582.909569 kJ/mol
# GULP energy per Si atom -5574.643949 kJ/mol
# Density = 1.906593 g / cm^3
# Si number density = 19.109422 Si / 1000 Ang^3
#
#
#
# Elastic Constant Matrix: (Units=GPa)
#
#
# Indices 1 2 3 4 5 6 
#
# 1 179.2014 4.5564 94.7073 0.0000 0.0000 0.0000
# 2 4.5564 59.1910 -0.5710 0.0000 0.0000 0.0000
# 3 94.7073 -0.5710 106.0687 0.0000 0.0000 0.0000
# 4 0.0000 0.0000 0.0000 -38.7580 0.0000 0.0000
# 5 0.0000 0.0000 0.0000 0.0000 37.3136 0.0000
# 6 0.0000 0.0000 0.0000 0.0000 0.0000 -24.3617
#
#
#
# Elastic Compliance Matrix: (Units=1/GPa)
#
#
# Indices 1 2 3 4 5 6 
#
# 1 0.010615 -0.000909 -0.009483 0.000000 0.000000 0.000000
# 2 -0.000909 0.016973 0.000903 0.000000 0.000000 0.000000
# 3 -0.009483 0.000903 0.017900 0.000000 0.000000 0.000000
# 4 0.000000 0.000000 0.000000 -0.025801 0.000000 0.000000
# 5 0.000000 0.000000 0.000000 0.000000 0.026800 0.000000
# 6 0.000000 0.000000 0.000000 0.000000 0.000000 -0.041048
#
#
# Mechanical properties :
#
#
# Convention : Reuss Voigt Hill
#
# Bulk Modulus (GPa) = 37.72118 60.20517 48.96317
# Shear Modulus (GPa) = 150.35880 11.22333 80.79107
#
# Velocity S-wave (km/s) = 8.87997 2.42610 6.50922
# Velocity P-wave (km/s) = 11.17680 6.27868 9.06484
#
# Compressibility (1/GPa) = 0.02651031
#
# Stress axis : x y z
#
# Youngs Moduli (GPa) = 94.20479 58.91671 55.86592
#
# Poissons Ratio (x) = 0.05353 0.52978
# Poissons Ratio (y) = 0.08560 -0.05043
# Poissons Ratio (z) = 0.89335 -0.05318
#
# Static dielectric constant tensor:
#      x y z
#    x 1.690760 0.000000 0.000000 
#    y 0.000000 1.694020 0.000000 
#    z 0.000000 0.000000 1.641000 
# 
# From -- ./inp_files/26037.got.cif
#   From: 2010.05.17/outbox.cif.g08.bks.cpg/sg51_14_cif.got.tgz:26037.got - 2010.06.03 11:52:47.
