data_PCOD9400558
_publ_section_title
;
Structure prediction by ZEFSAII (Michael W. Deem and Ramdas Pophale) SiO2 
 PCOD9400558
Probable space group: P M M A
;
_chemical_formula_sum "Si O2"
_cell_formula_units_Z 64
_cell_length_a 9.453584
_cell_length_b 19.805458
_cell_length_c 19.612440
_cell_angle_alpha 90.000000
_cell_angle_beta 90.000000
_cell_angle_gamma 90.000000
_cell_volume 3672.087366
_symmetry_space_group_name_H-M "P M M A"
_symmetry_group_IT_number 51
_symmetry_cell_setting 'orthorhombic'
loop_
_space_group_symop_operation_xyz
x,y,z
1/2-x,-y,z
1/2+x,-y,-z
-x,y,-z
-x,-y,-z
1/2+x,y,-z
1/2-x,y,z
x,-y,z
loop_
_atom_site_type_symbol
_atom_site_label
_atom_site_fract_x
_atom_site_fract_y
_atom_site_fract_z
Si Si1 0.417887 0.775912 0.646808
Si Si2 0.590393 0.286254 0.063628
Si Si3 0.582853 0.339638 0.568464
Si Si4 0.079850 0.694952 0.781090
Si Si5 0.409069 0.125035 0.937171
Si Si6 0.916915 0.421808 0.704335
Si Si7 0.083489 0.924822 0.673480
Si Si8 0.089870 0.078714 0.187549
O O1 0.250000 0.762116 0.636369
O O2 0.512274 0.727786 0.600071
O O3 0.450365 0.754863 0.725997
O O4 0.442542 0.855279 0.633412
O O5 0.750000 0.314074 0.061070
O O6 0.532889 0.295356 0.140630
O O7 0.601171 0.205585 0.053797
O O8 0.500000 0.312973 0.000000
O O9 0.500000 0.357201 0.500000
O O10 0.750000 0.330048 0.556156
O O11 0.565557 0.396522 0.626578
O O12 0.250000 0.689273 0.782373
O O13 0.008560 0.628385 0.750220
O O14 0.250000 0.097252 0.934960
O O15 0.491811 0.113754 0.867541
O O16 0.500000 0.097035 0.000000
O O17 0.750000 0.414055 0.720683
O O18 0.955618 0.500000 0.711839
O O19 0.250000 0.922003 0.693773
O O20 0.984245 0.919714 0.739253
O O21 0.061087 0.000000 0.642442
O O22 0.250000 0.105769 0.189213
O O23 0.096880 0.000000 0.167744
#
# Coordination Sequence:
#
# PCOD9400558 Si02
#       8
#     8   8   8   8   8   8   8   8
#     4   9  17  31  51  74 101 132 166 206 250 296
#     4   9  18  31  47  69  95 122 156 201 250 297
#     4  10  20  34  53  78 107 138 169 200 237 283
#     4   9  17  30  49  73 100 130 165 204 246 294
#     4  10  19  31  45  60  81 111 148 192 243 298
#     4   9  19  35  53  76 106 136 166 200 238 282
#     4   9  17  30  49  71  94 123 159 200 248 297
#     4  10  20  31  42  59  84 114 150 193 241 294
#
# _framework density 17.428778999999999
#
# number of rings (size 3 to 8) (size 9 to 14) (size 15 to 20)
#    0.000    2.625    0.000    1.875    0.000    5.500 
#    0.000    2.500    0.000    0.750    0.000    0.000 
#    0.000    0.000    0.000    0.000    0.000    0.000 
#
# Total GULP energy -356488.926886 kJ/mol
# GULP energy per Si atom -5570.139483 kJ/mol
# Density = 1.738911 g / cm^3
# Si number density = 17.428779 Si / 1000 Ang^3
#
#
#
# Elastic Constant Matrix: (Units=GPa)
#
#
# Indices 1 2 3 4 5 6 
#
# 1 49.6723 13.3675 14.7296 0.0000 0.0000 0.0000
# 2 13.3675 67.3062 -5.9122 0.0000 0.0000 0.0000
# 3 14.7296 -5.9122 40.3378 0.0000 0.0000 0.0000
# 4 0.0000 0.0000 0.0000 9.4758 0.0000 0.0000
# 5 0.0000 0.0000 0.0000 0.0000 26.6871 0.0000
# 6 0.0000 0.0000 0.0000 0.0000 0.0000 13.9016
#
#
#
# Elastic Compliance Matrix: (Units=1/GPa)
#
#
# Indices 1 2 3 4 5 6 
#
# 1 0.024591 -0.005747 -0.009822 0.000000 0.000000 0.000000
# 2 -0.005747 0.016394 0.004501 0.000000 0.000000 0.000000
# 3 -0.009822 0.004501 0.029037 0.000000 0.000000 0.000000
# 4 0.000000 0.000000 0.000000 0.105531 0.000000 0.000000
# 5 0.000000 0.000000 0.000000 0.000000 0.037471 0.000000
# 6 0.000000 0.000000 0.000000 0.000000 0.000000 0.071934
#
#
# Mechanical properties :
#
#
# Convention : Reuss Voigt Hill
#
# Bulk Modulus (GPa) = 20.88223 22.40956 21.64589
# Shear Modulus (GPa) = 15.47719 19.02166 17.24943
#
# Velocity S-wave (km/s) = 2.98321 3.30721 3.14938
# Velocity P-wave (km/s) = 4.88605 5.24111 5.06669
#
# Compressibility (1/GPa) = 0.04788762
#
# Stress axis : x y z
#
# Youngs Moduli (GPa) = 40.66533 60.99721 34.43899
#
# Poissons Ratio (x) = 0.35053 0.33825
# Poissons Ratio (y) = 0.23369 -0.15502
# Poissons Ratio (z) = 0.39941 -0.27457
#
# Static dielectric constant tensor:
#      x y z
#    x 1.602430 0.000000 0.000000 
#    y 0.000000 1.597600 0.000000 
#    z 0.000000 0.000000 1.583880 
# 
# From -- ./inp_files/28404.got.cif
#   From: 2010.05.17/outbox.cif.g08.bks.cpg/sg51_15_cif.got.tgz:28404.got - 2010.06.03 11:52:47.
