data_PCOD9400777
_publ_section_title
;
Structure prediction by ZEFSAII (Michael W. Deem and Ramdas Pophale) SiO2 
 PCOD9400777
Probable space group: P M M A
;
_chemical_formula_sum "Si O2"
_cell_formula_units_Z 56
_cell_length_a 27.880584
_cell_length_b 17.593392
_cell_length_c 7.109471
_cell_angle_alpha 90.000000
_cell_angle_beta 90.000000
_cell_angle_gamma 90.000000
_cell_volume 3487.295367
_symmetry_space_group_name_H-M "P M M A"
_symmetry_group_IT_number 51
_symmetry_cell_setting 'orthorhombic'
loop_
_space_group_symop_operation_xyz
x,y,z
1/2-x,-y,z
1/2+x,-y,-z
-x,y,-z
-x,-y,-z
1/2+x,y,-z
1/2-x,y,z
x,-y,z
loop_
_atom_site_type_symbol
_atom_site_label
_atom_site_fract_x
_atom_site_fract_y
_atom_site_fract_z
Si Si1 0.101506 0.913559 0.258151
Si Si2 0.648793 0.287986 0.386003
Si Si3 0.049386 0.913679 0.882912
Si Si4 0.807273 0.410698 0.651427
Si Si5 0.946604 0.202903 0.459440
Si Si6 0.694863 0.169611 0.665052
Si Si7 0.693984 0.701736 0.983558
O O1 0.070647 0.851438 0.370209
O O2 0.156438 0.896778 0.309582
O O3 0.087540 0.000000 0.306968
O O4 0.091180 0.904332 0.036961
O O5 0.664582 0.364684 0.491745
O O6 0.593760 0.266169 0.425708
O O7 0.679540 0.220755 0.486206
O O8 0.661668 0.291964 0.167190
O O9 0.052105 0.851941 0.721517
O O10 0.051286 0.000000 0.806560
O O11 0.000000 0.906921 0.000000
O O12 0.750000 0.399728 0.619283
O O13 0.817337 0.500000 0.652891
O O14 0.817789 0.370286 0.850964
O O15 0.000000 0.231845 0.500000
O O16 0.750000 0.145957 0.650432
O O17 0.689635 0.225960 0.844599
O O18 0.750000 0.695857 0.041057
#
# Coordination Sequence:
#
# PCOD9400777 Si02
#       7
#     8   8   8   8   8   8   8
#     4  10  20  32  47  68  94 126 162 204 253 293
#     4  10  19  31  50  73  99 129 160 196 238 287
#     4  10  19  31  49  70  95 125 161 210 262 300
#     4   9  18  32  51  78 106 126 150 186 228 280
#     4  11  21  33  49  71  96 125 164 206 248 291
#     4   9  18  31  46  67  96 128 164 200 234 286
#     4   9  16  29  49  71  96 126 156 188 232 281
#
# _framework density 16.058291000000001
#
# number of rings (size 3 to 8) (size 9 to 14) (size 15 to 20)
#    0.000    2.286    1.429    3.429    0.000    1.429 
#    0.000    1.429    0.000    0.429    0.000    5.000 
#    0.000    0.000    0.000    0.000    0.000    0.000 
#
# Total GULP energy -312320.449893 kJ/mol
# GULP energy per Si atom -5577.150891 kJ/mol
# Density = 1.602174 g / cm^3
# Si number density = 16.058291 Si / 1000 Ang^3
#
#
#
# Elastic Constant Matrix: (Units=GPa)
#
#
# Indices 1 2 3 4 5 6 
#
# 1 80.7223 13.2592 20.2969 0.0000 0.0000 0.0000
# 2 13.2592 46.5863 19.4255 0.0000 0.0000 0.0000
# 3 20.2969 19.4255 68.2212 0.0000 0.0000 0.0000
# 4 0.0000 0.0000 0.0000 6.3485 0.0000 0.0000
# 5 0.0000 0.0000 0.0000 0.0000 19.1953 0.0000
# 6 0.0000 0.0000 0.0000 0.0000 0.0000 16.0625
#
#
#
# Elastic Compliance Matrix: (Units=1/GPa)
#
#
# Indices 1 2 3 4 5 6 
#
# 1 0.013639 -0.002485 -0.003350 0.000000 0.000000 0.000000
# 2 -0.002485 0.024810 -0.006325 0.000000 0.000000 0.000000
# 3 -0.003350 -0.006325 0.017456 0.000000 0.000000 0.000000
# 4 0.000000 0.000000 0.000000 0.157519 0.000000 0.000000
# 5 0.000000 0.000000 0.000000 0.000000 0.052096 0.000000
# 6 0.000000 0.000000 0.000000 0.000000 0.000000 0.062257
#
#
# Mechanical properties :
#
#
# Convention : Reuss Voigt Hill
#
# Bulk Modulus (GPa) = 31.66121 33.49921 32.58021
# Shear Modulus (GPa) = 13.78834 17.82447 15.80641
#
# Velocity S-wave (km/s) = 2.93344 3.33526 3.14078
# Velocity P-wave (km/s) = 5.58862 5.97815 5.78666
#
# Compressibility (1/GPa) = 0.03158439
#
# Stress axis : x y z
#
# Youngs Moduli (GPa) = 73.32093 40.30587 57.28686
#
# Poissons Ratio (x) = 0.10015 0.19192
# Poissons Ratio (y) = 0.18219 0.36236
# Poissons Ratio (z) = 0.24564 0.25495
#
# Static dielectric constant tensor:
#      x y z
#    x 1.548310 0.000000 0.000000 
#    y 0.000000 1.516430 0.000000 
#    z 0.000000 0.000000 1.534800 
# 
# From -- ./inp_files/3642.got.cif
#   From: 2010.05.17/outbox.cif.g08.bks.cpg/sg51_2_cif.got.tgz:3642.got - 2010.06.03 11:52:47.
