data_PCOD9400509
_publ_section_title
;
Structure prediction by ZEFSAII (Michael W. Deem and Ramdas Pophale) SiO2 
 PCOD9400509
Probable space group: P M M A
;
_chemical_formula_sum "Si O2"
_cell_formula_units_Z 64
_cell_length_a 24.800913
_cell_length_b 8.727938
_cell_length_c 17.126885
_cell_angle_alpha 90.000000
_cell_angle_beta 90.000000
_cell_angle_gamma 90.000000
_cell_volume 3707.299760
_symmetry_space_group_name_H-M "P M M A"
_symmetry_group_IT_number 51
_symmetry_cell_setting 'orthorhombic'
loop_
_space_group_symop_operation_xyz
x,y,z
1/2-x,-y,z
1/2+x,-y,-z
-x,y,-z
-x,-y,-z
1/2+x,y,-z
1/2-x,y,z
x,-y,z
loop_
_atom_site_type_symbol
_atom_site_label
_atom_site_fract_x
_atom_site_fract_y
_atom_site_fract_z
Si Si1 0.912966 0.813014 0.640160
Si Si2 0.688068 0.315728 0.374110
Si Si3 0.591211 0.815885 0.463557
Si Si4 0.875681 0.316989 0.216677
Si Si5 0.811900 0.815151 0.739528
Si Si6 0.972502 0.814777 0.308438
Si Si7 0.187105 0.183271 0.929315
Si Si8 0.184668 0.675316 0.094505
O O1 0.920981 0.761204 0.550825
O O2 0.856260 0.762825 0.676902
O O3 0.964986 0.768806 0.691114
O O4 0.912378 0.000000 0.638719
O O5 0.750000 0.269175 0.379764
O O6 0.684656 0.500000 0.382021
O O7 0.650363 0.237495 0.437928
O O8 0.663604 0.275827 0.289344
O O9 0.551970 0.766486 0.393063
O O10 0.588504 0.000000 0.464918
O O11 0.877315 0.500000 0.210349
O O12 0.934094 0.254812 0.242433
O O13 0.850538 0.247615 0.138692
O O14 0.750000 0.762968 0.724925
O O15 0.829735 0.759764 0.825344
O O16 0.811069 0.000000 0.739232
O O17 0.969095 0.000000 0.304030
O O18 0.250000 0.232197 0.916968
O O19 0.186158 0.000000 0.928626
O O20 0.168882 0.242637 0.014254
O O21 0.250000 0.675023 0.093728
O O22 0.165979 0.500000 0.095348
#
# Coordination Sequence:
#
# PCOD9400509 Si02
#       8
#     8   8   8   8   8   8   8   8
#     4   9  17  30  50  72  93 122 159 199 243 287
#     4   9  18  31  44  61  92 131 161 188 232 286
#     4   9  17  29  47  70  92 119 160 206 243 278
#     4  10  19  31  47  68  96 129 163 198 237 279
#     4   9  17  30  48  70  96 124 155 192 235 285
#     4   9  17  31  49  68  93 125 162 202 242 283
#     4  10  19  30  48  75 102 127 158 193 229 275
#     4   9  17  30  48  70  97 127 156 188 231 280
#
# _framework density 17.263238000000001
#
# number of rings (size 3 to 8) (size 9 to 14) (size 15 to 20)
#    0.000    2.750    0.000    1.875    0.000    5.500 
#    0.000    3.125    0.000    5.250    0.000    5.250 
#    0.000    0.000    0.000    0.000    0.000    0.000 
#
# Total GULP energy -356673.512444 kJ/mol
# GULP energy per Si atom -5573.023632 kJ/mol
# Density = 1.722395 g / cm^3
# Si number density = 17.263238 Si / 1000 Ang^3
#
#
#
# Elastic Constant Matrix: (Units=GPa)
#
#
# Indices 1 2 3 4 5 6 
#
# 1 85.2164 11.7634 26.6370 0.0000 0.0000 0.0000
# 2 11.7634 14.3206 11.5530 0.0000 0.0000 0.0000
# 3 26.6370 11.5530 62.7471 0.0000 0.0000 0.0000
# 4 0.0000 0.0000 0.0000 13.1683 0.0000 0.0000
# 5 0.0000 0.0000 0.0000 0.0000 18.2585 0.0000
# 6 0.0000 0.0000 0.0000 0.0000 0.0000 12.1504
#
#
#
# Elastic Compliance Matrix: (Units=1/GPa)
#
#
# Indices 1 2 3 4 5 6 
#
# 1 0.014275 -0.008030 -0.004582 0.000000 0.000000 0.000000
# 2 -0.008030 0.086528 -0.012523 0.000000 0.000000 0.000000
# 3 -0.004582 -0.012523 0.020188 0.000000 0.000000 0.000000
# 4 0.000000 0.000000 0.000000 0.075940 0.000000 0.000000
# 5 0.000000 0.000000 0.000000 0.000000 0.054769 0.000000
# 6 0.000000 0.000000 0.000000 0.000000 0.000000 0.082302
#
#
# Mechanical properties :
#
#
# Convention : Reuss Voigt Hill
#
# Bulk Modulus (GPa) = 14.13977 29.13232 21.63605
# Shear Modulus (GPa) = 12.25956 16.20415 14.23185
#
# Velocity S-wave (km/s) = 2.66776 3.06706 2.87436
# Velocity P-wave (km/s) = 4.20687 5.42720 4.85552
#
# Compressibility (1/GPa) = 0.07072249
#
# Stress axis : x y z
#
# Youngs Moduli (GPa) = 70.05041 11.55692 49.53530
#
# Poissons Ratio (x) = 0.09280 0.22695
# Poissons Ratio (y) = 0.56251 0.62032
# Poissons Ratio (z) = 0.32094 0.14472
#
# Static dielectric constant tensor:
#      x y z
#    x 1.586550 0.000000 0.000000 
#    y 0.000000 1.580770 0.000000 
#    z 0.000000 0.000000 1.574330 
# 
# From -- ./inp_files/26184.got.cif
#   From: 2010.05.17/outbox.cif.g08.bks.cpg/sg51_14_cif.got.tgz:26184.got - 2010.06.03 11:52:47.
