data_PCOD9400820
_publ_section_title
;
Structure prediction by ZEFSAII (Michael W. Deem and Ramdas Pophale) SiO2 
 PCOD9400820
Probable space group: P M M A
;
_chemical_formula_sum "Si O2"
_cell_formula_units_Z 44
_cell_length_a 8.601452
_cell_length_b 30.122867
_cell_length_c 9.335935
_cell_angle_alpha 90.000000
_cell_angle_beta 90.000000
_cell_angle_gamma 90.000000
_cell_volume 2418.944442
_symmetry_space_group_name_H-M "P M M A"
_symmetry_group_IT_number 51
_symmetry_cell_setting 'orthorhombic'
loop_
_space_group_symop_operation_xyz
x,y,z
1/2-x,-y,z
1/2+x,-y,-z
-x,y,-z
-x,-y,-z
1/2+x,y,-z
1/2-x,y,z
x,-y,z
loop_
_atom_site_type_symbol
_atom_site_label
_atom_site_fract_x
_atom_site_fract_y
_atom_site_fract_z
Si Si1 0.437758 0.952321 0.663007
Si Si2 0.935644 0.416775 0.162768
Si Si3 0.936641 0.855586 0.338319
Si Si4 0.564043 0.500000 0.660928
Si Si5 0.936636 0.324284 0.837271
Si Si6 0.563937 0.773270 0.838677
O O1 0.500000 0.952393 0.500000
O O2 0.250000 0.952384 0.659356
O O3 0.485223 0.904231 0.723580
O O4 0.487801 0.000000 0.728028
O O5 0.750000 0.418717 0.157951
O O6 0.002762 0.456786 0.255523
O O7 0.989562 0.369004 0.224626
O O8 0.000000 0.420306 0.000000
O O9 0.750000 0.853926 0.341188
O O10 0.000000 0.853110 0.500000
O O11 0.999539 0.814233 0.250285
O O12 0.750000 0.500000 0.659929
O O13 0.500000 0.500000 0.500000
O O14 0.750000 0.328795 0.839060
O O15 0.977853 0.275669 0.776417
O O16 0.000000 0.322867 0.000000
O O17 0.750000 0.775407 0.843550
O O18 0.500000 0.775786 0.000000
#
# Coordination Sequence:
#
# PCOD9400820 Si02
#       6
#     8   8   8   4   8   8
#     4   8  14  25  42  65  92 123 160 203 250 299
#     4  11  21  36  59  86 111 139 176 218 258 299
#     4  10  19  31  49  73 102 133 167 209 256 305
#     4  12  25  42  59  80 112 146 178 214 259 312
#     4   9  17  31  52  78 104 133 170 214 258 301
#     4  10  20  34  53  76 104 136 172 211 255 307
#
# _framework density 18.189751000000001
#
# number of rings (size 3 to 8) (size 9 to 14) (size 15 to 20)
#    0.000    2.182    0.000    5.455    0.000    2.909 
#    0.000    0.909    0.000    4.909    0.000    0.000 
#    0.000    0.000    0.000    0.000    0.000    0.000 
#
# Total GULP energy -245215.565458 kJ/mol
# GULP energy per Si atom -5573.081033 kJ/mol
# Density = 1.814835 g / cm^3
# Si number density = 18.189751 Si / 1000 Ang^3
#
#
#
# Elastic Constant Matrix: (Units=GPa)
#
#
# Indices 1 2 3 4 5 6 
#
# 1 102.3239 73.0341 26.0468 0.0000 0.0000 0.0000
# 2 73.0341 247.0091 66.0354 0.0000 0.0000 0.0000
# 3 26.0468 66.0354 45.9093 0.0000 0.0000 0.0000
# 4 0.0000 0.0000 0.0000 24.4823 0.0000 0.0000
# 5 0.0000 0.0000 0.0000 0.0000 24.6608 0.0000
# 6 0.0000 0.0000 0.0000 0.0000 0.0000 29.8481
#
#
#
# Elastic Compliance Matrix: (Units=1/GPa)
#
#
# Indices 1 2 3 4 5 6 
#
# 1 0.012622 -0.002953 -0.002913 0.000000 0.000000 0.000000
# 2 -0.002953 0.007269 -0.008780 0.000000 0.000000 0.000000
# 3 -0.002913 -0.008780 0.036064 0.000000 0.000000 0.000000
# 4 0.000000 0.000000 0.000000 0.040846 0.000000 0.000000
# 5 0.000000 0.000000 0.000000 0.000000 0.040550 0.000000
# 6 0.000000 0.000000 0.000000 0.000000 0.000000 0.033503
#
#
# Mechanical properties :
#
#
# Convention : Reuss Voigt Hill
#
# Bulk Modulus (GPa) = 37.50655 80.60831 59.05743
# Shear Modulus (GPa) = 23.91946 31.13996 27.52971
#
# Velocity S-wave (km/s) = 3.63022 4.14206 3.89456
# Velocity P-wave (km/s) = 6.18350 8.20287 7.26370
#
# Compressibility (1/GPa) = 0.02666201
#
# Stress axis : x y z
#
# Youngs Moduli (GPa) = 79.22428 137.57350 27.72850
#
# Poissons Ratio (x) = 0.40628 0.08079
# Poissons Ratio (y) = 0.23397 0.24345
# Poissons Ratio (z) = 0.23082 1.20788
#
# Static dielectric constant tensor:
#      x y z
#    x 1.620220 0.000000 0.000000 
#    y 0.000000 1.700170 0.000000 
#    z 0.000000 0.000000 1.544680 
# 
# From -- ./inp_files/5811.got.cif
#   From: 2010.05.17/outbox.cif.g08.bks.cpg/sg51_3_cif.got.tgz:5811.got - 2010.06.03 11:52:47.
