data_PCOD9400568
_publ_section_title
;
Structure prediction by ZEFSAII (Michael W. Deem and Ramdas Pophale) SiO2 
 PCOD9400568
Probable space group: P M M A
;
_chemical_formula_sum "Si O2"
_cell_formula_units_Z 64
_cell_length_a 30.488655
_cell_length_b 8.672075
_cell_length_c 15.438759
_cell_angle_alpha 90.000000
_cell_angle_beta 90.000000
_cell_angle_gamma 90.000000
_cell_volume 4082.006379
_symmetry_space_group_name_H-M "P M M A"
_symmetry_group_IT_number 51
_symmetry_cell_setting 'orthorhombic'
loop_
_space_group_symop_operation_xyz
x,y,z
1/2-x,-y,z
1/2+x,-y,-z
-x,y,-z
-x,-y,-z
1/2+x,y,-z
1/2-x,y,z
x,-y,z
loop_
_atom_site_type_symbol
_atom_site_label
_atom_site_fract_x
_atom_site_fract_y
_atom_site_fract_z
Si Si1 0.030857 0.813771 0.870256
Si Si2 0.700533 0.184028 0.504550
Si Si3 0.563763 0.812858 0.949308
Si Si4 0.699443 0.679886 0.696138
Si Si5 0.890780 0.313870 0.459672
Si Si6 0.561237 0.313439 0.638589
Si Si7 0.620018 0.184973 0.793513
Si Si8 0.537678 0.685917 0.320776
O O1 0.041164 0.745159 0.777119
O O2 0.981681 0.770396 0.901205
O O3 0.032220 0.000000 0.864255
O O4 0.061383 0.762844 0.950861
O O5 0.750000 0.236726 0.479070
O O6 0.694509 0.233322 0.604782
O O7 0.658759 0.252676 0.455229
O O8 0.699460 0.000000 0.498280
O O9 0.603014 0.762216 0.887492
O O10 0.564059 0.000000 0.951445
O O11 0.750000 0.693492 0.722952
O O12 0.689266 0.500000 0.680674
O O13 0.666422 0.747565 0.765634
O O14 0.889331 0.500000 0.459260
O O15 0.913688 0.267462 0.550663
O O16 0.922644 0.261795 0.382222
O O17 0.563514 0.500000 0.644616
O O18 0.585670 0.241439 0.720821
O O19 0.510005 0.268613 0.640942
O O20 0.621373 0.000000 0.792069
O O21 0.538319 0.500000 0.319896
#
# Coordination Sequence:
#
# PCOD9400568 Si02
#       8
#     8   8   8   8   8   8   8   8
#     4   9  16  31  49  65  90 125 160 193 233 279
#     4  10  20  33  49  70  94 119 154 201 241 273
#     4   8  16  29  47  68  92 122 155 191 235 281
#     4  10  20  33  48  67  94 127 157 186 231 289
#     4  10  20  33  48  66  94 132 164 192 235 285
#     4  10  19  31  45  64  95 133 165 191 226 277
#     4  11  19  29  48  72  96 122 158 199 234 273
#     4  10  20  32  46  68  97 128 164 203 236 271
#
# _framework density 15.678566
#
# number of rings (size 3 to 8) (size 9 to 14) (size 15 to 20)
#    0.000    2.250    2.500    2.250    0.000    3.500 
#    0.000    2.500    0.000    2.250    0.000    0.875 
#    0.000    1.000    0.000    0.000    0.000    0.000 
#
# Total GULP energy -356820.990963 kJ/mol
# GULP energy per Si atom -5575.327984 kJ/mol
# Density = 1.564288 g / cm^3
# Si number density = 15.678566 Si / 1000 Ang^3
#
#
#
# Elastic Constant Matrix: (Units=GPa)
#
#
# Indices 1 2 3 4 5 6 
#
# 1 105.3300 23.7505 51.7607 0.0000 0.0000 0.0000
# 2 23.7505 15.1401 14.2224 0.0000 0.0000 0.0000
# 3 51.7607 14.2224 78.5396 0.0000 0.0000 0.0000
# 4 0.0000 0.0000 0.0000 24.3791 0.0000 0.0000
# 5 0.0000 0.0000 0.0000 0.0000 24.6126 0.0000
# 6 0.0000 0.0000 0.0000 0.0000 0.0000 15.3370
#
#
#
# Elastic Compliance Matrix: (Units=1/GPa)
#
#
# Indices 1 2 3 4 5 6 
#
# 1 0.018260 -0.020894 -0.008250 0.000000 0.000000 0.000000
# 2 -0.020894 0.103497 -0.004972 0.000000 0.000000 0.000000
# 3 -0.008250 -0.004972 0.019070 0.000000 0.000000 0.000000
# 4 0.000000 0.000000 0.000000 0.041019 0.000000 0.000000
# 5 0.000000 0.000000 0.000000 0.000000 0.040630 0.000000
# 6 0.000000 0.000000 0.000000 0.000000 0.000000 0.065202
#
#
# Mechanical properties :
#
#
# Convention : Reuss Voigt Hill
#
# Bulk Modulus (GPa) = 13.77519 42.05298 27.91408
# Shear Modulus (GPa) = 13.15423 20.15082 16.65252
#
# Velocity S-wave (km/s) = 2.89968 3.58892 3.26255
# Velocity P-wave (km/s) = 4.47392 6.63732 5.65994
#
# Compressibility (1/GPa) = 0.07259428
#
# Stress axis : x y z
#
# Youngs Moduli (GPa) = 54.76600 9.66216 52.43861
#
# Poissons Ratio (x) = 0.20188 0.43263
# Poissons Ratio (y) = 1.14427 0.26072
# Poissons Ratio (z) = 0.45183 0.04804
#
# Static dielectric constant tensor:
#      x y z
#    x 1.535690 0.000000 0.000000 
#    y 0.000000 1.534440 0.000000 
#    z 0.000000 0.000000 1.508990 
# 
# From -- ./inp_files/26638.got.cif
#   From: 2010.05.17/outbox.cif.g08.bks.cpg/sg51_14_cif.got.tgz:26638.got - 2010.06.03 11:52:47.
