data_PCOD9400234
_publ_section_title
;
Structure prediction by ZEFSAII (Michael W. Deem and Ramdas Pophale) SiO2 
 PCOD9400234
Probable space group: P M M A
;
_chemical_formula_sum "Si O2"
_cell_formula_units_Z 56
_cell_length_a 8.821049
_cell_length_b 14.100107
_cell_length_c 29.988647
_cell_angle_alpha 90.000000
_cell_angle_beta 90.000000
_cell_angle_gamma 90.000000
_cell_volume 3729.919982
_symmetry_space_group_name_H-M "P M M A"
_symmetry_group_IT_number 51
_symmetry_cell_setting 'orthorhombic'
loop_
_space_group_symop_operation_xyz
x,y,z
1/2-x,-y,z
1/2+x,-y,-z
-x,y,-z
-x,-y,-z
1/2+x,y,-z
1/2-x,y,z
x,-y,z
loop_
_atom_site_type_symbol
_atom_site_label
_atom_site_fract_x
_atom_site_fract_y
_atom_site_fract_z
Si Si1 0.066838 0.109022 0.770672
Si Si2 0.566222 0.208657 0.137433
Si Si3 0.930727 0.289214 0.725435
Si Si4 0.430930 0.388080 0.640004
Si Si5 0.432780 0.888878 0.952619
Si Si6 0.066719 0.391895 0.810838
Si Si7 0.924506 0.615277 0.546068
O O1 0.250000 0.117351 0.767556
O O2 0.023928 0.141065 0.821017
O O3 0.992544 0.184811 0.737649
O O4 0.025161 0.000000 0.762723
O O5 0.750000 0.206844 0.135494
O O6 0.511952 0.170747 0.089942
O O7 0.521195 0.314713 0.151946
O O8 0.750000 0.290152 0.726360
O O9 0.991316 0.327562 0.678557
O O10 0.995616 0.357163 0.764447
O O11 0.250000 0.379695 0.643089
O O12 0.469921 0.500000 0.645905
O O13 0.486532 0.358438 0.590863
O O14 0.250000 0.882904 0.954741
O O15 0.471850 0.000000 0.945927
O O16 0.500000 0.858256 0.000000
O O17 0.250000 0.387035 0.806338
O O18 0.024995 0.500000 0.820937
O O19 0.750000 0.645365 0.548730
O O20 0.926351 0.500000 0.544696
O O21 0.000000 0.648308 0.500000
#
# Coordination Sequence:
#
# PCOD9400234 Si02
#       7
#     8   8   8   8   8   8   8
#     4   9  17  31  50  67  84 110 144 179 213 253
#     4   8  14  26  45  66  84 106 139 175 210 249
#     4  11  21  30  42  63  91 118 143 175 217 264
#     4  10  19  30  44  61  84 117 155 191 222 254
#     4   9  16  26  41  61  84 108 134 167 209 257
#     4   9  17  30  47  64  82 108 145 184 215 249
#     4   9  16  26  40  59  84 114 148 184 223 266
#
# _framework density 15.013726999999999
#
# number of rings (size 3 to 8) (size 9 to 14) (size 15 to 20)
#    0.000    2.714    0.000    3.857    0.000    6.571 
#    0.000    2.857    0.000    3.857    0.000    0.000 
#    0.000    0.571    0.000    2.143    0.000    3.286 
#
# Total GULP energy -312065.342803 kJ/mol
# GULP energy per Si atom -5572.595407 kJ/mol
# Density = 1.497955 g / cm^3
# Si number density = 15.013727 Si / 1000 Ang^3
#
#
#
# Elastic Constant Matrix: (Units=GPa)
#
#
# Indices 1 2 3 4 5 6 
#
# 1 38.0472 35.2814 37.9915 0.0000 0.0000 0.0000
# 2 35.2814 99.6250 69.4594 0.0000 0.0000 0.0000
# 3 37.9915 69.4594 141.7305 0.0000 0.0000 0.0000
# 4 0.0000 0.0000 0.0000 18.9397 0.0000 0.0000
# 5 0.0000 0.0000 0.0000 0.0000 24.8210 0.0000
# 6 0.0000 0.0000 0.0000 0.0000 0.0000 10.6028
#
#
#
# Elastic Compliance Matrix: (Units=1/GPa)
#
#
# Indices 1 2 3 4 5 6 
#
# 1 0.042319 -0.010752 -0.006075 0.000000 0.000000 0.000000
# 2 -0.010752 0.017979 -0.005929 0.000000 0.000000 0.000000
# 3 -0.006075 -0.005929 0.011590 0.000000 0.000000 0.000000
# 4 0.000000 0.000000 0.000000 0.052799 0.000000 0.000000
# 5 0.000000 0.000000 0.000000 0.000000 0.040288 0.000000
# 6 0.000000 0.000000 0.000000 0.000000 0.000000 0.094315
#
#
# Mechanical properties :
#
#
# Convention : Reuss Voigt Hill
#
# Bulk Modulus (GPa) = 37.91197 62.76305 50.33751
# Shear Modulus (GPa) = 15.94421 19.98405 17.96413
#
# Velocity S-wave (km/s) = 3.26233 3.65232 3.46282
# Velocity P-wave (km/s) = 6.28465 7.72531 7.04192
#
# Compressibility (1/GPa) = 0.02637690
#
# Stress axis : x y z
#
# Youngs Moduli (GPa) = 23.63013 55.62001 86.28308
#
# Poissons Ratio (x) = 0.59801 0.52413
# Poissons Ratio (y) = 0.25406 0.51159
# Poissons Ratio (z) = 0.14354 0.32978
#
# Static dielectric constant tensor:
#      x y z
#    x 1.504630 0.000000 0.000000 
#    y 0.000000 1.489180 0.000000 
#    z 0.000000 0.000000 1.486450 
# 
# From -- ./inp_files/37497.got.cif
#   From: 2010.05.17/outbox.cif.g08.bks.cpg/sg51_19_cif.got.tgz:37497.got - 2010.06.03 11:52:47.
