data_PCOD9400294
_publ_section_title
;
Structure prediction by ZEFSAII (Michael W. Deem and Ramdas Pophale) SiO2 
 PCOD9400294
Probable space group: P M M A
;
_chemical_formula_sum "Si O2"
_cell_formula_units_Z 64
_cell_length_a 7.678198
_cell_length_b 30.161539
_cell_length_c 14.964507
_cell_angle_alpha 90.000000
_cell_angle_beta 90.000000
_cell_angle_gamma 90.000000
_cell_volume 3465.574335
_symmetry_space_group_name_H-M "P M M A"
_symmetry_group_IT_number 51
_symmetry_cell_setting 'orthorhombic'
loop_
_space_group_symop_operation_xyz
x,y,z
1/2-x,-y,z
1/2+x,-y,-z
-x,y,-z
-x,-y,-z
1/2+x,y,-z
1/2-x,y,z
x,-y,z
loop_
_atom_site_type_symbol
_atom_site_label
_atom_site_fract_x
_atom_site_fract_y
_atom_site_fract_z
Si Si1 0.959322 0.870573 0.396769
Si Si2 0.957429 0.093161 0.897733
Si Si3 0.459899 0.770655 0.602789
Si Si4 0.046779 0.724518 0.774277
Si Si5 0.960334 0.355178 0.105106
Si Si6 0.542046 0.193914 0.896802
Si Si7 0.040796 0.452408 0.894267
Si Si8 0.454662 0.951408 0.720001
O O1 0.750000 0.868855 0.386004
O O2 0.025593 0.820782 0.377787
O O3 0.029653 0.909684 0.334350
O O4 0.000000 0.880240 0.500000
O O5 0.750000 0.093567 0.888383
O O6 0.022014 0.143622 0.880171
O O7 0.030597 0.060162 0.824317
O O8 0.000000 0.081994 0.000000
O O9 0.500000 0.760031 0.500000
O O10 0.250000 0.771932 0.610885
O O11 0.528093 0.736765 0.677261
O O12 0.250000 0.713528 0.760877
O O13 0.971033 0.684442 0.832943
O O14 0.035983 0.769384 0.832321
O O15 0.750000 0.355465 0.110234
O O16 0.023825 0.404052 0.135630
O O17 0.000000 0.348393 0.000000
O O18 0.750000 0.194523 0.885754
O O19 0.500000 0.204422 0.000000
O O20 0.250000 0.452480 0.883378
O O21 0.975056 0.500000 0.858079
O O22 0.000000 0.452759 0.000000
O O23 0.250000 0.953332 0.697198
O O24 0.530421 0.000000 0.700947
#
# Coordination Sequence:
#
# PCOD9400294 Si02
#       8
#     8   8   8   8   8   8   8   8
#     4   9  18  33  52  72  93 116 142 173 212 259
#     4  10  21  36  53  71  91 118 152 187 219 253
#     4   9  18  32  49  67  87 113 144 179 218 261
#     4  10  19  30  45  65  91 121 149 181 224 268
#     4   9  17  27  39  59  88 120 153 186 220 261
#     4  10  20  32  47  68  92 119 151 183 215 256
#     4   8  13  22  36  53  76 110 150 188 222 255
#     4  10  21  36  53  73  96 120 145 175 214 260
#
# _framework density 18.467358000000001
#
# number of rings (size 3 to 8) (size 9 to 14) (size 15 to 20)
#    0.000    2.625    0.000    1.875    0.000    5.750 
#    0.000    2.500    0.000    0.000    0.000    0.000 
#    0.000    0.500    0.000    0.375    0.000    1.000 
#
# Total GULP energy -356856.358170 kJ/mol
# GULP energy per Si atom -5575.880596 kJ/mol
# Density = 1.842533 g / cm^3
# Si number density = 18.467358 Si / 1000 Ang^3
#
#
#
# Elastic Constant Matrix: (Units=GPa)
#
#
# Indices 1 2 3 4 5 6 
#
# 1 36.5476 8.3602 -2.8538 0.0000 0.0000 0.0000
# 2 8.3602 112.8328 81.9684 0.0000 0.0000 0.0000
# 3 -2.8538 81.9684 81.9069 0.0000 0.0000 0.0000
# 4 0.0000 0.0000 0.0000 17.6263 0.0000 0.0000
# 5 0.0000 0.0000 0.0000 0.0000 18.8701 0.0000
# 6 0.0000 0.0000 0.0000 0.0000 0.0000 5.8782
#
#
#
# Elastic Compliance Matrix: (Units=1/GPa)
#
#
# Indices 1 2 3 4 5 6 
#
# 1 0.030898 -0.011251 0.012336 0.000000 0.000000 0.000000
# 2 -0.011251 0.036561 -0.036981 0.000000 0.000000 0.000000
# 3 0.012336 -0.036981 0.049647 0.000000 0.000000 0.000000
# 4 0.000000 0.000000 0.000000 0.056733 0.000000 0.000000
# 5 0.000000 0.000000 0.000000 0.000000 0.052994 0.000000
# 6 0.000000 0.000000 0.000000 0.000000 0.000000 0.170121
#
#
# Mechanical properties :
#
#
# Convention : Reuss Voigt Hill
#
# Bulk Modulus (GPa) = 22.06746 45.13743 33.60245
# Shear Modulus (GPa) = 10.33374 18.06242 14.19808
#
# Velocity S-wave (km/s) = 2.36809 3.13081 2.77577
# Velocity P-wave (km/s) = 4.41050 6.12895 5.33931
#
# Compressibility (1/GPa) = 0.04531559
#
# Stress axis : x y z
#
# Youngs Moduli (GPa) = 32.36406 27.35136 20.14211
#
# Poissons Ratio (x) = 0.30773 -0.24847
# Poissons Ratio (y) = 0.36413 0.74487
# Poissons Ratio (z) = -0.39924 1.01147
#
# Static dielectric constant tensor:
#      x y z
#    x 1.692350 0.000000 0.000000 
#    y 0.000000 1.690500 0.000000 
#    z 0.000000 0.000000 1.536150 
# 
# From -- ./inp_files/22569.got.cif
#   From: 2010.05.17/outbox.cif.g08.bks.cpg/sg51_12_cif.got.tgz:22569.got - 2010.06.03 11:52:47.
