data_PCOD9400313
_publ_section_title
;
Structure prediction by ZEFSAII (Michael W. Deem and Ramdas Pophale) SiO2 
 PCOD9400313
Probable space group: P M M A
;
_chemical_formula_sum "Si O2"
_cell_formula_units_Z 36
_cell_length_a 9.050716
_cell_length_b 12.639679
_cell_length_c 20.127858
_cell_angle_alpha 90.000000
_cell_angle_beta 90.000000
_cell_angle_gamma 90.000000
_cell_volume 2302.589617
_symmetry_space_group_name_H-M "P M M A"
_symmetry_group_IT_number 51
_symmetry_cell_setting 'orthorhombic'
loop_
_space_group_symop_operation_xyz
x,y,z
1/2-x,-y,z
1/2+x,-y,-z
-x,y,-z
-x,-y,-z
1/2+x,y,-z
1/2-x,y,z
x,-y,z
loop_
_atom_site_type_symbol
_atom_site_label
_atom_site_fract_x
_atom_site_fract_y
_atom_site_fract_z
Si Si1 0.079447 0.871244 0.567605
Si Si2 0.075074 0.127144 0.294935
Si Si3 0.075304 0.374127 0.070444
Si Si4 0.426941 0.000000 0.927962
Si Si5 0.072607 0.204106 0.838642
O O1 0.250000 0.837681 0.569677
O O2 0.000000 0.835719 0.500000
O O3 0.993158 0.840254 0.634244
O O4 0.078440 0.000000 0.566386
O O5 0.250000 0.147536 0.293219
O O6 0.993245 0.182086 0.233823
O O7 0.053429 0.000000 0.288326
O O8 0.250000 0.350974 0.067600
O O9 0.056802 0.500000 0.080602
O O10 0.997520 0.306733 0.127423
O O11 0.000000 0.346792 0.000000
O O12 0.466997 0.103829 0.885502
O O13 0.250000 0.000000 0.936053
O O14 0.500000 0.000000 0.000000
O O15 0.250000 0.211390 0.835761
#
# Coordination Sequence:
#
# PCOD9400313 Si02
#       5
#     8   8   8   4   8
#     4   9  16  26  41  61  88 123 162 201 236 278
#     4  10  19  30  45  66  94 129 164 198 239 287
#     4  10  21  37  55  74  95 121 158 203 249 294
#     4  10  22  34  46  66  93 124 157 194 234 282
#     4  11  21  34  50  70  97 128 162 199 242 291
#
# _framework density 15.634570999999999
#
# number of rings (size 3 to 8) (size 9 to 14) (size 15 to 20)
#    0.000    2.000    1.111    3.333    0.000    8.444 
#    0.000    0.000    0.000    0.000    0.000    0.000 
#    0.000    0.889    0.000    3.333    0.000    5.111 
#
# Total GULP energy -200934.713810 kJ/mol
# GULP energy per Si atom -5581.519828 kJ/mol
# Density = 1.559899 g / cm^3
# Si number density = 15.634571 Si / 1000 Ang^3
#
#
#
# Elastic Constant Matrix: (Units=GPa)
#
#
# Indices 1 2 3 4 5 6 
#
# 1 114.0567 42.5787 87.8825 0.0000 0.0000 0.0000
# 2 42.5787 32.5459 44.9677 0.0000 0.0000 0.0000
# 3 87.8825 44.9677 173.6206 0.0000 0.0000 0.0000
# 4 0.0000 0.0000 0.0000 15.9418 0.0000 0.0000
# 5 0.0000 0.0000 0.0000 0.0000 36.1853 0.0000
# 6 0.0000 0.0000 0.0000 0.0000 0.0000 18.9008
#
#
#
# Elastic Compliance Matrix: (Units=1/GPa)
#
#
# Indices 1 2 3 4 5 6 
#
# 1 0.019692 -0.018672 -0.005131 0.000000 0.000000 0.000000
# 2 -0.018672 0.065554 -0.007527 0.000000 0.000000 0.000000
# 3 -0.005131 -0.007527 0.010307 0.000000 0.000000 0.000000
# 4 0.000000 0.000000 0.000000 0.062728 0.000000 0.000000
# 5 0.000000 0.000000 0.000000 0.000000 0.027636 0.000000
# 6 0.000000 0.000000 0.000000 0.000000 0.000000 0.052908
#
#
# Mechanical properties :
#
#
# Convention : Reuss Voigt Hill
#
# Bulk Modulus (GPa) = 30.40340 74.56455 52.48397
# Shear Modulus (GPa) = 16.00256 23.85854 19.93055
#
# Velocity S-wave (km/s) = 3.20275 3.91066 3.57427
# Velocity P-wave (km/s) = 5.75893 8.25752 7.11870
#
# Compressibility (1/GPa) = 0.03289106
#
# Stress axis : x y z
#
# Youngs Moduli (GPa) = 50.78178 15.25453 97.02512
#
# Poissons Ratio (x) = 0.28484 0.49788
# Poissons Ratio (y) = 0.94822 0.73031
# Poissons Ratio (z) = 0.26059 0.11482
#
# Static dielectric constant tensor:
#      x y z
#    x 1.518940 0.000000 0.000000 
#    y 0.000000 1.502440 0.000000 
#    z 0.000000 0.000000 1.501940 
# 
# From -- ./inp_files/27009.got.cif
#   From: 2010.05.17/outbox.cif.g08.bks.cpg/sg51_14_cif.got.tgz:27009.got - 2010.06.03 11:52:47.
