data_PCOD9400705
_publ_section_title
;
Structure prediction by ZEFSAII (Michael W. Deem and Ramdas Pophale) SiO2 
 PCOD9400705
Probable space group: P M M A
;
_chemical_formula_sum "Si O2"
_cell_formula_units_Z 56
_cell_length_a 7.741347
_cell_length_b 15.026576
_cell_length_c 26.351086
_cell_angle_alpha 90.000000
_cell_angle_beta 90.000000
_cell_angle_gamma 90.000000
_cell_volume 3065.314824
_symmetry_space_group_name_H-M "P M M A"
_symmetry_group_IT_number 51
_symmetry_cell_setting 'orthorhombic'
loop_
_space_group_symop_operation_xyz
x,y,z
1/2-x,-y,z
1/2+x,-y,-z
-x,y,-z
-x,-y,-z
1/2+x,y,-z
1/2-x,y,z
x,-y,z
loop_
_atom_site_type_symbol
_atom_site_label
_atom_site_fract_x
_atom_site_fract_y
_atom_site_fract_z
Si Si1 0.955416 0.100769 0.442721
Si Si2 0.455736 0.785933 0.345725
Si Si3 0.543287 0.781898 0.150329
Si Si4 0.959337 0.599106 0.194897
Si Si5 0.540886 0.102007 0.750926
Si Si6 0.543826 0.402043 0.686506
Si Si7 0.042058 0.898605 0.942398
O O1 0.750000 0.096222 0.438948
O O2 0.000000 0.128555 0.500000
O O3 0.016652 0.166483 0.399098
O O4 0.025831 0.000000 0.435209
O O5 0.250000 0.779503 0.337682
O O6 0.522693 0.846887 0.299435
O O7 0.525785 0.685459 0.341446
O O8 0.750000 0.773970 0.144313
O O9 0.476679 0.682802 0.162407
O O10 0.510375 0.843406 0.199264
O O11 0.475034 0.831540 0.100378
O O12 0.750000 0.599953 0.194225
O O13 0.016199 0.500000 0.178820
O O14 0.014568 0.611520 0.253359
O O15 0.750000 0.099803 0.749210
O O16 0.479570 0.000000 0.752592
O O17 0.750000 0.405877 0.677957
O O18 0.472307 0.500000 0.673245
O O19 0.250000 0.901667 0.937936
O O20 0.977683 0.000000 0.934356
O O21 0.000000 0.872476 0.000000
#
# Coordination Sequence:
#
# PCOD9400705 Si02
#       7
#     8   8   8   8   8   8   8
#     4  10  21  36  54  75  98 128 167 206 243 285
#     4  10  19  32  50  72 101 132 161 197 240 285
#     4  10  19  31  48  69  95 125 158 197 240 286
#     4   9  17  29  46  69  96 125 157 194 237 285
#     4  10  20  31  44  68 101 132 159 190 235 288
#     4   9  17  30  49  72  98 129 163 197 235 281
#     4   9  18  32  48  66  88 118 158 200 240 283
#
# _framework density 18.268923000000001
#
# number of rings (size 3 to 8) (size 9 to 14) (size 15 to 20)
#    0.000    2.429    1.429    1.286    0.000    4.000 
#    0.000    1.429    0.000    0.857    0.000    0.000 
#    0.000    0.000    0.000    0.000    0.000    0.000 
#
# Total GULP energy -312362.502179 kJ/mol
# GULP energy per Si atom -5577.901825 kJ/mol
# Density = 1.822734 g / cm^3
# Si number density = 18.268923 Si / 1000 Ang^3
#
#
#
# Elastic Constant Matrix: (Units=GPa)
#
#
# Indices 1 2 3 4 5 6 
#
# 1 22.4450 2.9808 -10.6062 0.0000 0.0000 0.0000
# 2 2.9808 184.3951 105.9077 0.0000 0.0000 0.0000
# 3 -10.6062 105.9077 124.4484 0.0000 0.0000 0.0000
# 4 0.0000 0.0000 0.0000 22.4920 0.0000 0.0000
# 5 0.0000 0.0000 0.0000 0.0000 20.3592 0.0000
# 6 0.0000 0.0000 0.0000 0.0000 0.0000 12.8835
#
#
#
# Elastic Compliance Matrix: (Units=1/GPa)
#
#
# Indices 1 2 3 4 5 6 
#
# 1 0.049971 -0.006365 0.009675 0.000000 0.000000 0.000000
# 2 -0.006365 0.011419 -0.010260 0.000000 0.000000 0.000000
# 3 0.009675 -0.010260 0.017592 0.000000 0.000000 0.000000
# 4 0.000000 0.000000 0.000000 0.044460 0.000000 0.000000
# 5 0.000000 0.000000 0.000000 0.000000 0.049118 0.000000
# 6 0.000000 0.000000 0.000000 0.000000 0.000000 0.077618
#
#
# Mechanical properties :
#
#
# Convention : Reuss Voigt Hill
#
# Bulk Modulus (GPa) = 15.36524 58.65037 37.00780
# Shear Modulus (GPa) = 17.49651 26.68070 22.08861
#
# Velocity S-wave (km/s) = 3.09806 3.82572 3.48096
# Velocity P-wave (km/s) = 4.60719 7.18947 6.03799
#
# Compressibility (1/GPa) = 0.06508196
#
# Stress axis : x y z
#
# Youngs Moduli (GPa) = 20.01173 87.57327 56.84510
#
# Poissons Ratio (x) = 0.55739 -0.55000
# Poissons Ratio (y) = 0.12737 0.58324
# Poissons Ratio (z) = -0.19362 0.89852
#
# Static dielectric constant tensor:
#      x y z
#    x 1.668030 0.000000 0.000000 
#    y 0.000000 1.670870 0.000000 
#    z 0.000000 0.000000 1.597250 
# 
# From -- ./inp_files/32010.got.cif
#   From: 2010.05.17/outbox.cif.g08.bks.cpg/sg51_17_cif.got.tgz:32010.got - 2010.06.03 11:52:47.
