data_PCOD9400015
_publ_section_title
;
Structure prediction by ZEFSAII (Michael W. Deem and Ramdas Pophale) SiO2 
 PCOD9400015
Probable space group: P M M A
;
_chemical_formula_sum "Si O2"
_cell_formula_units_Z 56
_cell_length_a 9.194448
_cell_length_b 16.108667
_cell_length_c 30.683443
_cell_angle_alpha 90.000000
_cell_angle_beta 90.000000
_cell_angle_gamma 90.000000
_cell_volume 4544.533981
_symmetry_space_group_name_H-M "P M M A"
_symmetry_group_IT_number 51
_symmetry_cell_setting 'orthorhombic'
loop_
_space_group_symop_operation_xyz
x,y,z
1/2-x,-y,z
1/2+x,-y,-z
-x,y,-z
-x,-y,-z
1/2+x,y,-z
1/2-x,y,z
x,-y,z
loop_
_atom_site_type_symbol
_atom_site_label
_atom_site_fract_x
_atom_site_fract_y
_atom_site_fract_z
Si Si1 0.923093 0.400753 0.191177
Si Si2 0.917993 0.601156 0.543929
Si Si3 0.576150 0.500000 0.953498
Si Si4 0.074903 0.182424 0.047312
Si Si5 0.424078 0.000000 0.046895
Si Si6 0.925105 0.340212 0.894816
Si Si7 0.417656 0.399048 0.280520
Si Si8 0.418093 0.398801 0.631857
O O1 0.750000 0.388755 0.192851
O O2 0.950145 0.500000 0.185228
O O3 0.994758 0.353549 0.150765
O O4 0.996679 0.375559 0.236809
O O5 0.750000 0.627172 0.544051
O O6 0.918952 0.500000 0.543896
O O7 0.000000 0.627696 0.500000
O O8 0.000695 0.627561 0.587756
O O9 0.750000 0.500000 0.959810
O O10 0.538220 0.581662 0.925774
O O11 0.500000 0.500000 0.000000
O O12 0.250000 0.186858 0.041163
O O13 0.038337 0.090439 0.066018
O O14 0.034069 0.256224 0.079856
O O15 0.000000 0.191917 0.000000
O O16 0.250000 0.000000 0.041555
O O17 0.500000 0.000000 0.000000
O O18 0.750000 0.340833 0.888069
O O19 0.250000 0.371961 0.279410
O O20 0.417329 0.500000 0.281472
O O21 0.498305 0.371685 0.324570
O O22 0.250000 0.372962 0.632161
O O23 0.419227 0.500000 0.631952
#
# Coordination Sequence:
#
# PCOD9400015 Si02
#       8
#     8   8   4   8   4   8   8   8
#     4  10  19  29  40  53  67  86 112 141 170 200
#     4   9  15  21  28  38  53  73  96 122 157 201
#     4  10  20  30  40  52  70  92 116 140 163 192
#     4   9  17  28  43  60  77  95 115 138 166 199
#     4   8  14  26  42  60  78  94 112 136 164 196
#     4  10  19  30  41  54  72  95 117 139 167 201
#     4   9  16  25  37  49  61  79 102 131 165 200
#     4   9  15  22  31  43  58  74  96 127 160 197
#
# _framework density 12.322495999999999
#
# number of rings (size 3 to 8) (size 9 to 14) (size 15 to 20)
#    0.000    2.714    0.714    2.143    0.000    6.857 
#    0.000    0.000    0.000    0.000    0.000    0.000 
#    0.000    0.000    0.000    0.000    0.000    0.000 
#
# Total GULP energy -311809.174926 kJ/mol
# GULP energy per Si atom -5568.020981 kJ/mol
# Density = 1.229445 g / cm^3
# Si number density = 12.322496 Si / 1000 Ang^3
#
#
#
# Elastic Constant Matrix: (Units=GPa)
#
#
# Indices 1 2 3 4 5 6 
#
# 1 72.5047 25.3374 64.2072 0.0000 0.0000 0.0000
# 2 25.3374 57.9924 37.9462 0.0000 0.0000 0.0000
# 3 64.2072 37.9462 129.5251 0.0000 0.0000 0.0000
# 4 0.0000 0.0000 0.0000 3.0227 0.0000 0.0000
# 5 0.0000 0.0000 0.0000 0.0000 26.2761 0.0000
# 6 0.0000 0.0000 0.0000 0.0000 0.0000 5.1150
#
#
#
# Elastic Compliance Matrix: (Units=1/GPa)
#
#
# Indices 1 2 3 4 5 6 
#
# 1 0.025146 -0.003501 -0.011439 0.000000 0.000000 0.000000
# 2 -0.003501 0.021821 -0.004657 0.000000 0.000000 0.000000
# 3 -0.011439 -0.004657 0.014756 0.000000 0.000000 0.000000
# 4 0.000000 0.000000 0.000000 0.330827 0.000000 0.000000
# 5 0.000000 0.000000 0.000000 0.000000 0.038057 0.000000
# 6 0.000000 0.000000 0.000000 0.000000 0.000000 0.195505
#
#
# Mechanical properties :
#
#
# Convention : Reuss Voigt Hill
#
# Bulk Modulus (GPa) = 44.39188 57.22264 50.80726
# Shear Modulus (GPa) = 7.43145 15.71819 11.57482
#
# Velocity S-wave (km/s) = 2.45843 3.57539 3.06816
# Velocity P-wave (km/s) = 6.64543 7.97389 7.33978
#
# Compressibility (1/GPa) = 0.02252664
#
# Stress axis : x y z
#
# Youngs Moduli (GPa) = 39.76751 45.82822 67.77113
#
# Poissons Ratio (x) = 0.16046 0.77527
# Poissons Ratio (y) = 0.13924 0.31561
# Poissons Ratio (z) = 0.45492 0.21342
#
# Static dielectric constant tensor:
#      x y z
#    x 1.410590 0.000000 0.000000 
#    y 0.000000 1.385350 0.000000 
#    z 0.000000 0.000000 1.387180 
# 
# From -- ./inp_files/37504.got.cif
#   From: 2010.05.17/outbox.cif.g08.bks.cpg/sg51_19_cif.got.tgz:37504.got - 2010.06.03 11:52:47.
