data_PCOD9400616
_publ_section_title
;
Structure prediction by ZEFSAII (Michael W. Deem and Ramdas Pophale) SiO2 
 PCOD9400616
Probable space group: P M M A
;
_chemical_formula_sum "Si O2"
_cell_formula_units_Z 64
_cell_length_a 8.973794
_cell_length_b 15.147016
_cell_length_c 27.389882
_cell_angle_alpha 90.000000
_cell_angle_beta 90.000000
_cell_angle_gamma 90.000000
_cell_volume 3723.002614
_symmetry_space_group_name_H-M "P M M A"
_symmetry_group_IT_number 51
_symmetry_cell_setting 'orthorhombic'
loop_
_space_group_symop_operation_xyz
x,y,z
1/2-x,-y,z
1/2+x,-y,-z
-x,y,-z
-x,-y,-z
1/2+x,y,-z
1/2-x,y,z
x,-y,z
loop_
_atom_site_type_symbol
_atom_site_label
_atom_site_fract_x
_atom_site_fract_y
_atom_site_fract_z
Si Si1 0.421770 0.107328 0.450078
Si Si2 0.914689 0.396313 0.045488
Si Si3 0.918075 0.371836 0.855011
Si Si4 0.579318 0.106141 0.950058
Si Si5 0.081253 0.838156 0.154606
Si Si6 0.427547 0.598157 0.755700
Si Si7 0.930239 0.789033 0.740400
Si Si8 0.573256 0.105565 0.348177
O O1 0.500000 0.137520 0.500000
O O2 0.250000 0.136003 0.447678
O O3 0.510838 0.132066 0.401359
O O4 0.421683 0.000000 0.451446
O O5 0.750000 0.358084 0.053745
O O6 0.895325 0.500000 0.034559
O O7 0.016310 0.392918 0.092753
O O8 0.000000 0.354405 0.000000
O O9 0.750000 0.404450 0.847773
O O10 0.910178 0.266600 0.852048
O O11 0.026756 0.403729 0.812620
O O12 0.750000 0.140253 0.949862
O O13 0.511596 0.128121 0.896383
O O14 0.583963 0.000000 0.952576
O O15 0.500000 0.136486 0.000000
O O16 0.250000 0.876563 0.156485
O O17 0.017406 0.840748 0.209837
O O18 0.250000 0.608164 0.750134
O O19 0.469370 0.500000 0.735548
O O20 0.508151 0.688167 0.738007
O O21 0.750000 0.785185 0.742788
O O22 0.987420 0.842434 0.693934
O O23 0.750000 0.122083 0.345345
O O24 0.549309 0.000000 0.342808
#
# Coordination Sequence:
#
# PCOD9400616 Si02
#       8
#     8   8   8   8   8   8   8   8
#     4   9  16  27  45  70 101 139 183 225 261 299
#     4  10  20  32  44  59  80 105 133 165 204 256
#     4  10  19  31  47  66  88 111 139 178 223 277
#     4   9  17  31  49  65  82 106 139 181 228 280
#     4   8  17  32  47  65  87 112 143 181 230 286
#     4  10  20  34  52  72  95 125 160 199 247 304
#     4  10  20  34  52  74 100 130 169 215 258 306
#     4  10  20  33  49  72 106 146 182 217 259 305
#
# _framework density 17.190425999999999
#
# number of rings (size 3 to 8) (size 9 to 14) (size 15 to 20)
#    0.000    2.500    0.000    3.375    0.000    6.500 
#    0.000    6.250    0.000    1.500    0.000    0.000 
#    0.000    0.500    0.000    1.875    0.000    2.875 
#
# Total GULP energy -356347.492076 kJ/mol
# GULP energy per Si atom -5567.929564 kJ/mol
# Density = 1.715130 g / cm^3
# Si number density = 17.190426 Si / 1000 Ang^3
#
#
#
# Elastic Constant Matrix: (Units=GPa)
#
#
# Indices 1 2 3 4 5 6 
#
# 1 68.5586 20.9663 44.0111 0.0000 0.0000 0.0000
# 2 20.9663 37.8649 36.7630 0.0000 0.0000 0.0000
# 3 44.0111 36.7630 135.8777 0.0000 0.0000 0.0000
# 4 0.0000 0.0000 0.0000 6.1810 0.0000 0.0000
# 5 0.0000 0.0000 0.0000 0.0000 26.6698 0.0000
# 6 0.0000 0.0000 0.0000 0.0000 0.0000 18.8163
#
#
#
# Elastic Compliance Matrix: (Units=1/GPa)
#
#
# Indices 1 2 3 4 5 6 
#
# 1 0.019469 -0.006317 -0.004597 0.000000 0.000000 0.000000
# 2 -0.006317 0.037868 -0.008200 0.000000 0.000000 0.000000
# 3 -0.004597 -0.008200 0.011067 0.000000 0.000000 0.000000
# 4 0.000000 0.000000 0.000000 0.161786 0.000000 0.000000
# 5 0.000000 0.000000 0.000000 0.000000 0.037496 0.000000
# 6 0.000000 0.000000 0.000000 0.000000 0.000000 0.053146
#
#
# Mechanical properties :
#
#
# Convention : Reuss Voigt Hill
#
# Bulk Modulus (GPa) = 33.13748 49.53134 41.33441
# Shear Modulus (GPa) = 13.54582 19.70413 16.62497
#
# Velocity S-wave (km/s) = 2.81015 3.38927 3.11321
# Velocity P-wave (km/s) = 5.46332 6.64771 6.08440
#
# Compressibility (1/GPa) = 0.03017731
#
# Stress axis : x y z
#
# Youngs Moduli (GPa) = 51.36406 26.40720 90.35895
#
# Poissons Ratio (x) = 0.16682 0.41537
# Poissons Ratio (y) = 0.32447 0.74090
# Poissons Ratio (z) = 0.23611 0.21653
#
# Static dielectric constant tensor:
#      x y z
#    x 1.616740 0.000000 0.000000 
#    y 0.000000 1.600970 0.000000 
#    z 0.000000 0.000000 1.594640 
# 
# From -- ./inp_files/35013.got.cif
#   From: 2010.05.17/outbox.cif.g08.bks.cpg/sg51_18_cif.got.tgz:35013.got - 2010.06.03 11:52:47.
