data_PCOD9400076
_publ_section_title
;
Structure prediction by ZEFSAII (Michael W. Deem and Ramdas Pophale) SiO2 
 PCOD9400076
Probable space group: P M M A
;
_chemical_formula_sum "Si O2"
_cell_formula_units_Z 64
_cell_length_a 9.241054
_cell_length_b 25.212470
_cell_length_c 15.270704
_cell_angle_alpha 90.000000
_cell_angle_beta 90.000000
_cell_angle_gamma 90.000000
_cell_volume 3557.918221
_symmetry_space_group_name_H-M "P M M A"
_symmetry_group_IT_number 51
_symmetry_cell_setting 'orthorhombic'
loop_
_space_group_symop_operation_xyz
x,y,z
1/2-x,-y,z
1/2+x,-y,-z
-x,y,-z
-x,-y,-z
1/2+x,y,-z
1/2-x,y,z
x,-y,z
loop_
_atom_site_type_symbol
_atom_site_label
_atom_site_fract_x
_atom_site_fract_y
_atom_site_fract_z
Si Si1 0.917109 0.304830 0.868336
Si Si2 0.417576 0.337953 0.334546
Si Si3 0.423731 0.441308 0.717951
Si Si4 0.422972 0.769722 0.413729
Si Si5 0.580799 0.063574 0.409266
Si Si6 0.921670 0.409462 0.085119
Si Si7 0.923377 0.138737 0.723807
Si Si8 0.576358 0.182501 0.910380
O O1 0.750000 0.314874 0.896783
O O2 0.919991 0.313788 0.763838
O O3 0.956129 0.244751 0.892083
O O4 0.024732 0.348633 0.906254
O O5 0.250000 0.348689 0.356142
O O6 0.504969 0.392400 0.332341
O O7 0.473734 0.290219 0.394443
O O8 0.250000 0.437189 0.712283
O O9 0.468020 0.500000 0.688112
O O10 0.461318 0.435206 0.821380
O O11 0.500000 0.790687 0.500000
O O12 0.250000 0.768517 0.425743
O O13 0.451381 0.807534 0.331317
O O14 0.500000 0.077478 0.500000
O O15 0.750000 0.077845 0.415781
O O16 0.506413 0.093034 0.328102
O O17 0.569942 0.000000 0.398836
O O18 0.750000 0.412780 0.074792
O O19 0.000000 0.432556 0.000000
O O20 0.750000 0.129249 0.721088
O O21 0.966154 0.149201 0.824259
O O22 0.750000 0.178712 0.918954
O O23 0.500000 0.166177 0.000000
#
# Coordination Sequence:
#
# PCOD9400076 Si02
#       8
#     8   8   8   8   8   8   8   8
#     4   9  16  30  49  67  94 132 170 208 254 305
#     4   9  17  32  52  72  98 131 165 204 252 309
#     4   9  19  34  49  66  90 121 160 209 261 309
#     4  10  20  34  53  80 112 142 170 208 260 319
#     4  10  21  37  58  86 118 151 188 229 272 320
#     4  10  19  29  42  63  90 121 159 205 256 309
#     4  10  20  36  56  80 115 152 186 225 271 318
#     4  10  20  33  50  74 106 146 186 227 270 315
#
# _framework density 17.988047999999999
#
# number of rings (size 3 to 8) (size 9 to 14) (size 15 to 20)
#    0.000    2.375    1.250    1.500    0.000    5.750 
#    0.000    0.000    0.000    0.750    0.000    0.000 
#    0.000    0.000    0.000    0.000    0.000    0.000 
#
# Total GULP energy -357074.480048 kJ/mol
# GULP energy per Si atom -5579.288751 kJ/mol
# Density = 1.794711 g / cm^3
# Si number density = 17.988048 Si / 1000 Ang^3
#
#
#
# Elastic Constant Matrix: (Units=GPa)
#
#
# Indices 1 2 3 4 5 6 
#
# 1 41.4035 38.9743 36.8626 0.0000 0.0000 0.0000
# 2 38.9743 76.9517 41.4887 0.0000 0.0000 0.0000
# 3 36.8626 41.4887 94.6844 0.0000 0.0000 0.0000
# 4 0.0000 0.0000 0.0000 6.2273 0.0000 0.0000
# 5 0.0000 0.0000 0.0000 0.0000 25.6136 0.0000
# 6 0.0000 0.0000 0.0000 0.0000 0.0000 22.9587
#
#
#
# Elastic Compliance Matrix: (Units=1/GPa)
#
#
# Indices 1 2 3 4 5 6 
#
# 1 0.054975 -0.021347 -0.012049 0.000000 0.000000 0.000000
# 2 -0.021347 0.025304 -0.002777 0.000000 0.000000 0.000000
# 3 -0.012049 -0.002777 0.016469 0.000000 0.000000 0.000000
# 4 0.000000 0.000000 0.000000 0.160583 0.000000 0.000000
# 5 0.000000 0.000000 0.000000 0.000000 0.039042 0.000000
# 6 0.000000 0.000000 0.000000 0.000000 0.000000 0.043557
#
#
# Mechanical properties :
#
#
# Convention : Reuss Voigt Hill
#
# Bulk Modulus (GPa) = 40.98022 49.74344 45.36183
# Shear Modulus (GPa) = 11.89317 17.34086 14.61701
#
# Velocity S-wave (km/s) = 2.57411 3.10824 2.85370
# Velocity P-wave (km/s) = 5.62727 6.37143 6.01088
#
# Compressibility (1/GPa) = 0.02440202
#
# Stress axis : x y z
#
# Youngs Moduli (GPa) = 18.19013 39.51910 60.72002
#
# Poissons Ratio (x) = 0.84363 0.73161
# Poissons Ratio (y) = 0.38831 0.16861
# Poissons Ratio (z) = 0.21917 0.10974
#
# Static dielectric constant tensor:
#      x y z
#    x 1.600880 0.000000 0.000000 
#    y 0.000000 1.618550 0.000000 
#    z 0.000000 0.000000 1.623230 
# 
# From -- ./inp_files/22218.got.cif
#   From: 2010.05.17/outbox.cif.g08.bks.cpg/sg51_12_cif.got.tgz:22218.got - 2010.06.03 11:52:47.
