data_PCOD9401800
_publ_section_title
;
Structure prediction by ZEFSAII (Michael W. Deem and Ramdas Pophale) SiO2 
 PCOD9401800
Probable space group: P M M A
;
_chemical_formula_sum "Si O2"
_cell_formula_units_Z 64
_cell_length_a 31.416999
_cell_length_b 9.162596
_cell_length_c 12.420556
_cell_angle_alpha 90.000000
_cell_angle_beta 90.000000
_cell_angle_gamma 90.000000
_cell_volume 3575.397016
_symmetry_space_group_name_H-M "P M M A"
_symmetry_group_IT_number 51
_symmetry_cell_setting 'orthorhombic'
loop_
_space_group_symop_operation_xyz
x,y,z
1/2-x,-y,z
1/2+x,-y,-z
-x,y,-z
-x,-y,-z
1/2+x,y,-z
1/2-x,y,z
x,-y,z
loop_
_atom_site_type_symbol
_atom_site_label
_atom_site_fract_x
_atom_site_fract_y
_atom_site_fract_z
Si Si1 0.109043 0.175093 0.864032
Si Si2 0.519625 0.328049 0.118098
Si Si3 0.299927 0.324621 0.488820
Si Si4 0.374174 0.175845 0.624490
Si Si5 0.134039 0.825947 0.099455
Si Si6 0.564014 0.673319 0.752481
Si Si7 0.449601 0.324680 0.495288
Si Si8 0.699387 0.666948 0.761066
O O1 0.061257 0.234363 0.865323
O O2 0.129486 0.217806 0.750406
O O3 0.108355 0.000000 0.866307
O O4 0.130363 0.225026 0.975663
O O5 0.530308 0.500000 0.124256
O O6 0.483600 0.296378 0.205987
O O7 0.500000 0.301060 0.000000
O O8 0.250000 0.287891 0.508993
O O9 0.304130 0.500000 0.502656
O O10 0.334053 0.241270 0.560689
O O11 0.309583 0.293385 0.363100
O O12 0.418067 0.242187 0.576433
O O13 0.375174 0.000000 0.615087
O O14 0.096362 0.759074 0.171934
O O15 0.176661 0.771326 0.155819
O O16 0.131059 0.000000 0.101587
O O17 0.571272 0.500000 0.766915
O O18 0.566777 0.705747 0.626051
O O19 0.500000 0.286409 0.500000
O O20 0.446820 0.500000 0.514180
O O21 0.750000 0.668951 0.773378
O O22 0.684397 0.500000 0.777330
#
# Coordination Sequence:
#
# PCOD9401800 Si02
#       8
#     8   8   8   8   8   8   8   8
#     4  10  23  39  52  73 110 152 185 220 269 321
#     4  10  19  33  55  80 103 136 186 232 267 312
#     4   9  19  38  63  88 112 140 177 223 278 337
#     4  11  23  38  56  80 112 149 190 232 276 327
#     4  11  22  35  53  78 107 140 178 215 259 316
#     4  10  20  34  53  79 108 136 173 224 274 317
#     4  10  21  37  56  78 109 148 185 225 279 334
#     4   9  19  37  60  84 110 137 166 210 269 325
#
# _framework density 17.900110000000002
#
# number of rings (size 3 to 8) (size 9 to 14) (size 15 to 20)
#    0.000    2.000    1.250    3.000    0.000    8.000 
#    0.000    1.875    0.000    3.750    0.000    0.000 
#    0.000    0.000    0.000    0.000    0.000    0.000 
#
# Total GULP energy -357291.273548 kJ/mol
# GULP energy per Si atom -5582.676149 kJ/mol
# Density = 1.785937 g / cm^3
# Si number density = 17.900110 Si / 1000 Ang^3
#
#
#
# Elastic Constant Matrix: (Units=GPa)
#
#
# Indices 1 2 3 4 5 6 
#
# 1 77.6571 31.9917 64.3618 0.0000 0.0000 0.0000
# 2 31.9917 27.6373 53.8157 0.0000 0.0000 0.0000
# 3 64.3618 53.8157 133.9218 0.0000 0.0000 0.0000
# 4 0.0000 0.0000 0.0000 23.8532 0.0000 0.0000
# 5 0.0000 0.0000 0.0000 0.0000 24.3881 0.0000
# 6 0.0000 0.0000 0.0000 0.0000 0.0000 55.2756
#
#
#
# Elastic Compliance Matrix: (Units=1/GPa)
#
#
# Indices 1 2 3 4 5 6 
#
# 1 0.024705 -0.025183 -0.001753 0.000000 0.000000 0.000000
# 2 -0.025183 0.192009 -0.065055 0.000000 0.000000 0.000000
# 3 -0.001753 -0.065055 0.034452 0.000000 0.000000 0.000000
# 4 0.000000 0.000000 0.000000 0.041923 0.000000 0.000000
# 5 0.000000 0.000000 0.000000 0.000000 0.041004 0.000000
# 6 0.000000 0.000000 0.000000 0.000000 0.000000 0.018091
#
#
# Mechanical properties :
#
#
# Convention : Reuss Voigt Hill
#
# Bulk Modulus (GPa) = 14.88471 59.95050 37.41761
# Shear Modulus (GPa) = 8.95159 26.63985 17.79572
#
# Velocity S-wave (km/s) = 2.23869 3.86197 3.15646
# Velocity P-wave (km/s) = 3.87502 7.31101 5.85092
#
# Compressibility (1/GPa) = 0.06718302
#
# Stress axis : x y z
#
# Youngs Moduli (GPa) = 40.47835 5.20808 29.02626
#
# Poissons Ratio (x) = 0.13116 0.05089
# Poissons Ratio (y) = 1.01937 1.88830
# Poissons Ratio (z) = 0.07097 0.33881
#
# Static dielectric constant tensor:
#      x y z
#    x 1.610400 0.000000 0.000000 
#    y 0.000000 1.597000 0.000000 
#    z 0.000000 0.000000 1.625190 
# 
# From -- ./inp_files/19636.got.cif
#   From: 2010.05.17/outbox.cif.g08.bks.cpg/sg51_10_cif.got.tgz:19636.got - 2010.06.03 11:52:47.
