data_PCOD9401526
_publ_section_title
;
Structure prediction by ZEFSAII (Michael W. Deem and Ramdas Pophale) SiO2 
 PCOD9401526
Probable space group: P M M A
;
_chemical_formula_sum "Si O2"
_cell_formula_units_Z 64
_cell_length_a 8.719473
_cell_length_b 31.793099
_cell_length_c 14.803201
_cell_angle_alpha 90.000000
_cell_angle_beta 90.000000
_cell_angle_gamma 90.000000
_cell_volume 4103.729589
_symmetry_space_group_name_H-M "P M M A"
_symmetry_group_IT_number 51
_symmetry_cell_setting 'orthorhombic'
loop_
_space_group_symop_operation_xyz
x,y,z
1/2-x,-y,z
1/2+x,-y,-z
-x,y,-z
-x,-y,-z
1/2+x,y,-z
1/2-x,y,z
x,-y,z
loop_
_atom_site_type_symbol
_atom_site_label
_atom_site_fract_x
_atom_site_fract_y
_atom_site_fract_z
Si Si1 0.434702 0.658817 0.095736
Si Si2 0.433933 0.953987 0.398148
Si Si3 0.934627 0.756932 0.904018
Si Si4 0.933459 0.451337 0.401736
Si Si5 0.067126 0.867044 0.601743
Si Si6 0.934786 0.704668 0.600473
Si Si7 0.935530 0.377431 0.714578
Si Si8 0.564256 0.788750 0.710513
O O1 0.250000 0.658094 0.092279
O O2 0.480711 0.707848 0.108345
O O3 0.483630 0.632324 0.182782
O O4 0.500000 0.644274 0.000000
O O5 0.500000 0.955261 0.500000
O O6 0.250000 0.949797 0.401735
O O7 0.506245 0.911560 0.359194
O O8 0.470174 0.000000 0.357016
O O9 0.750000 0.757722 0.908092
O O10 0.981570 0.782441 0.815019
O O11 0.000000 0.771513 0.000000
O O12 0.750000 0.448836 0.405320
O O13 0.977347 0.500000 0.384345
O O14 0.000000 0.439581 0.500000
O O15 0.997126 0.419508 0.327733
O O16 0.250000 0.867897 0.595634
O O17 0.000000 0.862214 0.500000
O O18 0.009876 0.828602 0.662344
O O19 0.750000 0.704220 0.596159
O O20 0.982728 0.662597 0.653476
O O21 0.978633 0.746306 0.656307
O O22 0.000000 0.705721 0.500000
O O23 0.750000 0.379473 0.712550
O O24 0.750000 0.792425 0.706859
#
# Coordination Sequence:
#
# PCOD9401526 Si02
#       8
#     8   8   8   8   8   8   8   8
#     4   9  17  31  50  73  98 124 154 192 237 282
#     4   9  16  27  44  64  86 116 156 199 241 284
#     4   9  17  31  50  69  92 122 155 195 239 279
#     4  10  21  36  53  74  99 126 157 193 234 280
#     4  11  21  31  44  64  92 127 165 201 238 282
#     4  10  20  32  45  64  92 125 158 192 228 269
#     4  10  19  33  52  73  98 125 157 195 236 281
#     4  10  19  33  48  63  92 129 160 193 234 277
#
# _framework density 15.595568999999999
#
# number of rings (size 3 to 8) (size 9 to 14) (size 15 to 20)
#    0.000    2.250    1.250    3.375    0.000    5.500 
#    0.000    0.000    0.000    0.375    0.000    0.000 
#    0.000    0.500    0.000    1.625    0.000    2.250 
#
# Total GULP energy -356896.308625 kJ/mol
# GULP energy per Si atom -5576.504822 kJ/mol
# Density = 1.556007 g / cm^3
# Si number density = 15.595569 Si / 1000 Ang^3
#
#
#
# Elastic Constant Matrix: (Units=GPa)
#
#
# Indices 1 2 3 4 5 6 
#
# 1 38.8321 35.5933 35.5686 0.0000 0.0000 0.0000
# 2 35.5933 106.9154 71.2476 0.0000 0.0000 0.0000
# 3 35.5686 71.2476 131.4144 0.0000 0.0000 0.0000
# 4 0.0000 0.0000 0.0000 6.8134 0.0000 0.0000
# 5 0.0000 0.0000 0.0000 0.0000 25.4829 0.0000
# 6 0.0000 0.0000 0.0000 0.0000 0.0000 26.0878
#
#
#
# Elastic Compliance Matrix: (Units=1/GPa)
#
#
# Indices 1 2 3 4 5 6 
#
# 1 0.039510 -0.009436 -0.005578 0.000000 0.000000 0.000000
# 2 -0.009436 0.016898 -0.006607 0.000000 0.000000 0.000000
# 3 -0.005578 -0.006607 0.012701 0.000000 0.000000 0.000000
# 4 0.000000 0.000000 0.000000 0.146771 0.000000 0.000000
# 5 0.000000 0.000000 0.000000 0.000000 0.039242 0.000000
# 6 0.000000 0.000000 0.000000 0.000000 0.000000 0.038332
#
#
# Mechanical properties :
#
#
# Convention : Reuss Voigt Hill
#
# Bulk Modulus (GPa) = 38.66006 62.44233 50.55119
# Shear Modulus (GPa) = 14.47937 20.66030 17.56983
#
# Velocity S-wave (km/s) = 3.05032 3.64367 3.36011
# Velocity P-wave (km/s) = 6.10318 7.60442 6.89478
#
# Compressibility (1/GPa) = 0.02586649
#
# Stress axis : x y z
#
# Youngs Moduli (GPa) = 25.30991 59.17983 78.73179
#
# Poissons Ratio (x) = 0.55844 0.43915
# Poissons Ratio (y) = 0.23883 0.52019
# Poissons Ratio (z) = 0.14117 0.39101
#
# Static dielectric constant tensor:
#      x y z
#    x 1.525760 0.000000 0.000000 
#    y 0.000000 1.529520 0.000000 
#    z 0.000000 0.000000 1.500810 
# 
# From -- ./inp_files/22605.got.cif
#   From: 2010.05.17/outbox.cif.g08.bks.cpg/sg51_12_cif.got.tgz:22605.got - 2010.06.03 11:52:47.
