data_PCOD9401657
_publ_section_title
;
Structure prediction by ZEFSAII (Michael W. Deem and Ramdas Pophale) SiO2 
 PCOD9401657
Probable space group: P M M A
;
_chemical_formula_sum "Si O2"
_cell_formula_units_Z 44
_cell_length_a 8.730440
_cell_length_b 28.598849
_cell_length_c 9.849603
_cell_angle_alpha 90.000000
_cell_angle_beta 90.000000
_cell_angle_gamma 90.000000
_cell_volume 2459.254149
_symmetry_space_group_name_H-M "P M M A"
_symmetry_group_IT_number 51
_symmetry_cell_setting 'orthorhombic'
loop_
_space_group_symop_operation_xyz
x,y,z
1/2-x,-y,z
1/2+x,-y,-z
-x,y,-z
-x,-y,-z
1/2+x,y,-z
1/2-x,y,z
x,-y,z
loop_
_atom_site_type_symbol
_atom_site_label
_atom_site_fract_x
_atom_site_fract_y
_atom_site_fract_z
Si Si1 0.065701 0.897618 0.152551
Si Si2 0.065965 0.000000 0.151996
Si Si3 0.566160 0.820141 0.351190
Si Si4 0.932816 0.444853 0.646928
Si Si5 0.934220 0.287353 0.351954
Si Si6 0.433949 0.369615 0.849042
O O1 0.250000 0.894762 0.147709
O O2 0.999670 0.856446 0.243712
O O3 0.021317 0.949337 0.210369
O O4 0.000000 0.894340 0.000000
O O5 0.250000 0.000000 0.144835
O O6 0.000000 0.000000 0.000000
O O7 0.500000 0.830774 0.500000
O O8 0.750000 0.822841 0.353661
O O9 0.521781 0.766247 0.319837
O O10 0.750000 0.438556 0.645692
O O11 0.965837 0.500000 0.666170
O O12 0.000000 0.431051 0.500000
O O13 0.006603 0.413990 0.764440
O O14 0.750000 0.289042 0.360998
O O15 0.982995 0.323968 0.237495
O O16 0.000000 0.299500 0.500000
O O17 0.250000 0.370504 0.854858
O O18 0.500000 0.368858 0.000000
#
# Coordination Sequence:
#
# PCOD9401657 Si02
#       6
#     8   4   8   8   8   8
#     4  10  19  33  53  78 105 137 175 217 263 313
#     4   8  16  30  49  72 101 134 172 214 258 310
#     4  10  20  36  55  78 107 139 175 217 265 316
#     4  10  21  38  60  85 112 144 182 222 264 314
#     4   9  20  37  57  79 104 137 177 218 263 316
#     4  11  23  38  56  81 112 145 180 221 268 316
#
# _framework density 17.891604000000001
#
# number of rings (size 3 to 8) (size 9 to 14) (size 15 to 20)
#    0.000    2.182    0.000    2.727    0.000    6.545 
#    0.000    2.273    0.000    0.000    0.000    0.000 
#    0.000    0.000    0.000    0.000    0.000    0.000 
#
# Total GULP energy -245544.163168 kJ/mol
# GULP energy per Si atom -5580.549163 kJ/mol
# Density = 1.785088 g / cm^3
# Si number density = 17.891604 Si / 1000 Ang^3
#
#
#
# Elastic Constant Matrix: (Units=GPa)
#
#
# Indices 1 2 3 4 5 6 
#
# 1 52.0576 54.0600 49.8040 0.0000 0.0000 0.0000
# 2 54.0600 131.1781 109.0896 0.0000 0.0000 0.0000
# 3 49.8040 109.0896 145.4171 0.0000 0.0000 0.0000
# 4 0.0000 0.0000 0.0000 33.8128 0.0000 0.0000
# 5 0.0000 0.0000 0.0000 0.0000 35.4437 0.0000
# 6 0.0000 0.0000 0.0000 0.0000 0.0000 23.6058
#
#
#
# Elastic Compliance Matrix: (Units=1/GPa)
#
#
# Indices 1 2 3 4 5 6 
#
# 1 0.034072 -0.011531 -0.003019 0.000000 0.000000 0.000000
# 2 -0.011531 0.024169 -0.014182 0.000000 0.000000 0.000000
# 3 -0.003019 -0.014182 0.018550 0.000000 0.000000 0.000000
# 4 0.000000 0.000000 0.000000 0.029575 0.000000 0.000000
# 5 0.000000 0.000000 0.000000 0.000000 0.028214 0.000000
# 6 0.000000 0.000000 0.000000 0.000000 0.000000 0.042363
#
#
# Mechanical properties :
#
#
# Convention : Reuss Voigt Hill
#
# Bulk Modulus (GPa) = 51.74045 83.83999 67.79022
# Shear Modulus (GPa) = 20.75984 26.28575 23.52279
#
# Velocity S-wave (km/s) = 3.41003 3.83713 3.62987
# Velocity P-wave (km/s) = 6.66979 8.16046 7.45249
#
# Compressibility (1/GPa) = 0.01932724
#
# Stress axis : x y z
#
# Youngs Moduli (GPa) = 29.34938 41.37472 53.90774
#
# Poissons Ratio (x) = 0.47708 0.16277
# Poissons Ratio (y) = 0.33842 0.76454
# Poissons Ratio (z) = 0.08862 0.58679
#
# Static dielectric constant tensor:
#      x y z
#    x 1.600740 0.000000 0.000000 
#    y 0.000000 1.638140 0.000000 
#    z 0.000000 0.000000 1.562950 
# 
# From -- ./inp_files/5807.got.cif
#   From: 2010.05.17/outbox.cif.g08.bks.cpg/sg51_3_cif.got.tgz:5807.got - 2010.06.03 11:52:47.
