data_PCOD9401104
_publ_section_title
;
Structure prediction by ZEFSAII (Michael W. Deem and Ramdas Pophale) SiO2 
 PCOD9401104
Probable space group: P M M A
;
_chemical_formula_sum "Si O2"
_cell_formula_units_Z 48
_cell_length_a 8.939552
_cell_length_b 19.402655
_cell_length_c 16.219762
_cell_angle_alpha 90.000000
_cell_angle_beta 90.000000
_cell_angle_gamma 90.000000
_cell_volume 2813.334641
_symmetry_space_group_name_H-M "P M M A"
_symmetry_group_IT_number 51
_symmetry_cell_setting 'orthorhombic'
loop_
_space_group_symop_operation_xyz
x,y,z
1/2-x,-y,z
1/2+x,-y,-z
-x,y,-z
-x,-y,-z
1/2+x,y,-z
1/2-x,y,z
x,-y,z
loop_
_atom_site_type_symbol
_atom_site_label
_atom_site_fract_x
_atom_site_fract_y
_atom_site_fract_z
Si Si1 0.076795 0.583891 0.084589
Si Si2 0.430504 0.670772 0.585974
Si Si3 0.429470 0.419922 0.744869
Si Si4 0.932387 0.079228 0.736557
Si Si5 0.930743 0.822405 0.585905
Si Si6 0.077772 0.083996 0.083424
O O1 0.250000 0.602969 0.084446
O O2 0.066835 0.500000 0.084269
O O3 0.000139 0.606317 0.169732
O O4 0.000000 0.607877 0.000000
O O5 0.500000 0.644082 0.500000
O O6 0.250000 0.675036 0.578872
O O7 0.469327 0.623765 0.664320
O O8 0.500429 0.746529 0.598228
O O9 0.250000 0.418089 0.753617
O O10 0.474004 0.500000 0.733582
O O11 0.750000 0.078281 0.740877
O O12 0.973053 0.128543 0.661749
O O13 0.985840 0.103771 0.826967
O O14 0.980049 0.000000 0.723175
O O15 0.750000 0.818466 0.580084
O O16 0.000000 0.848671 0.500000
O O17 0.250000 0.105281 0.079808
O O18 0.074063 0.000000 0.083679
O O19 0.000000 0.107890 0.000000
#
# Coordination Sequence:
#
# PCOD9401104 Si02
#       6
#     8   8   8   8   8   8
#     4   9  16  26  43  68  97 127 156 188 228 275
#     4  10  20  34  51  69  92 122 155 191 232 280
#     4   9  18  32  49  70  95 122 154 194 237 276
#     4   8  15  28  46  68  93 121 152 186 226 270
#     4  10  19  32  50  68  89 120 156 190 227 275
#     4   8  13  23  40  62  88 116 145 177 215 260
#
# _framework density 17.061602000000001
#
# number of rings (size 3 to 8) (size 9 to 14) (size 15 to 20)
#    0.000    3.000    0.000    3.500    0.000    4.000 
#    0.000    1.667    0.000    4.500    0.000    4.667 
#    0.000    0.000    0.000    0.000    0.000    0.000 
#
# Total GULP energy -267303.911792 kJ/mol
# GULP energy per Si atom -5568.831496 kJ/mol
# Density = 1.702277 g / cm^3
# Si number density = 17.061602 Si / 1000 Ang^3
#
#
#
# Elastic Constant Matrix: (Units=GPa)
#
#
# Indices 1 2 3 4 5 6 
#
# 1 49.9224 23.2488 67.2320 0.0000 0.0000 0.0000
# 2 23.2488 33.5116 68.4070 0.0000 0.0000 0.0000
# 3 67.2320 68.4070 225.3271 0.0000 0.0000 0.0000
# 4 0.0000 0.0000 0.0000 -10.4136 0.0000 0.0000
# 5 0.0000 0.0000 0.0000 0.0000 31.8190 0.0000
# 6 0.0000 0.0000 0.0000 0.0000 0.0000 12.1236
#
#
#
# Elastic Compliance Matrix: (Units=1/GPa)
#
#
# Indices 1 2 3 4 5 6 
#
# 1 0.034211 -0.007618 -0.007895 0.000000 0.000000 0.000000
# 2 -0.007618 0.080165 -0.022064 0.000000 0.000000 0.000000
# 3 -0.007895 -0.022064 0.013492 0.000000 0.000000 0.000000
# 4 0.000000 0.000000 0.000000 -0.096028 0.000000 0.000000
# 5 0.000000 0.000000 0.000000 0.000000 0.031428 0.000000
# 6 0.000000 0.000000 0.000000 0.000000 0.000000 0.082484
#
#
# Mechanical properties :
#
#
# Convention : Reuss Voigt Hill
#
# Bulk Modulus (GPa) = 18.97037 69.61518 44.29278
# Shear Modulus (GPa) = 20.96626 16.69734 18.83180
#
# Velocity S-wave (km/s) = 3.50931 3.13173 3.32588
# Velocity P-wave (km/s) = 5.25007 7.34628 6.38479
#
# Compressibility (1/GPa) = 0.05271379
#
# Stress axis : x y z
#
# Youngs Moduli (GPa) = 29.23011 12.47424 74.11713
#
# Poissons Ratio (x) = 0.09503 0.58516
# Poissons Ratio (y) = 0.22268 1.63534
# Poissons Ratio (z) = 0.23077 0.27524
#
# Static dielectric constant tensor:
#      x y z
#    x 1.579140 0.000000 0.000000 
#    y 0.000000 1.560130 0.000000 
#    z 0.000000 0.000000 1.596090 
# 
# From -- ./inp_files/21422.got.cif
#   From: 2010.05.17/outbox.cif.g08.bks.cpg/sg51_11_cif.got.tgz:21422.got - 2010.06.03 11:52:47.
