data_PCOD9401607
_publ_section_title
;
Structure prediction by ZEFSAII (Michael W. Deem and Ramdas Pophale) SiO2 
 PCOD9401607
Probable space group: P M M A
;
_chemical_formula_sum "Si O2"
_cell_formula_units_Z 52
_cell_length_a 8.614346
_cell_length_b 24.027164
_cell_length_c 14.663074
_cell_angle_alpha 90.000000
_cell_angle_beta 90.000000
_cell_angle_gamma 90.000000
_cell_volume 3034.938189
_symmetry_space_group_name_H-M "P M M A"
_symmetry_group_IT_number 51
_symmetry_cell_setting 'orthorhombic'
loop_
_space_group_symop_operation_xyz
x,y,z
1/2-x,-y,z
1/2+x,-y,-z
-x,y,-z
-x,-y,-z
1/2+x,y,-z
1/2-x,y,z
x,-y,z
loop_
_atom_site_type_symbol
_atom_site_label
_atom_site_fract_x
_atom_site_fract_y
_atom_site_fract_z
Si Si1 0.936817 0.061837 0.781639
Si Si2 0.063541 0.500000 0.102655
Si Si3 0.064974 0.107712 0.596737
Si Si4 0.064653 0.273984 0.783870
Si Si5 0.937250 0.377661 0.896282
Si Si6 0.435551 0.766728 0.402383
Si Si7 0.936866 0.830604 0.897732
O O1 0.750000 0.064855 0.771652
O O2 0.983518 0.111629 0.848913
O O3 0.011163 0.072317 0.683016
O O4 0.977241 0.000000 0.815155
O O5 0.250000 0.500000 0.099772
O O6 0.017544 0.439469 0.140399
O O7 0.000000 0.500000 0.000000
O O8 0.250000 0.111028 0.592278
O O9 0.000000 0.086646 0.500000
O O10 0.996862 0.169978 0.609764
O O11 0.250000 0.272617 0.781250
O O12 0.006200 0.328978 0.835022
O O13 0.997163 0.268636 0.682234
O O14 0.003084 0.220676 0.839907
O O15 0.750000 0.373445 0.898436
O O16 0.000000 0.372468 0.000000
O O17 0.500000 0.747311 0.500000
O O18 0.250000 0.767800 0.403362
O O19 0.750000 0.827097 0.898289
O O20 0.000000 0.828274 0.000000
#
# Coordination Sequence:
#
# PCOD9401607 Si02
#       7
#     8   4   8   8   8   8   8
#     4  10  22  40  59  78 103 137 178 222 270 325
#     4   8  16  30  50  74 107 148 189 228 270 314
#     4  11  21  35  57  82 108 138 171 213 265 324
#     4  12  23  36  55  82 112 144 182 224 268 319
#     4  10  19  33  52  79 113 151 190 230 271 318
#     4  11  21  36  57  82 110 141 174 216 267 323
#     4  11  23  39  58  78 105 139 177 224 273 322
#
# _framework density 17.133792
#
# number of rings (size 3 to 8) (size 9 to 14) (size 15 to 20)
#    0.000    1.385    1.538    6.462    0.000    2.154 
#    0.000    0.000    0.000    0.000    0.000    0.538 
#    0.000    0.000    0.000    0.000    0.000    0.000 
#
# Total GULP energy -290481.699722 kJ/mol
# GULP energy per Si atom -5586.186533 kJ/mol
# Density = 1.709479 g / cm^3
# Si number density = 17.133792 Si / 1000 Ang^3
#
#
#
# Elastic Constant Matrix: (Units=GPa)
#
#
# Indices 1 2 3 4 5 6 
#
# 1 91.8080 50.6758 42.1181 0.0000 0.0000 0.0000
# 2 50.6758 142.9044 72.0892 0.0000 0.0000 0.0000
# 3 42.1181 72.0892 118.0175 0.0000 0.0000 0.0000
# 4 0.0000 0.0000 0.0000 43.1898 0.0000 0.0000
# 5 0.0000 0.0000 0.0000 0.0000 29.4782 0.0000
# 6 0.0000 0.0000 0.0000 0.0000 0.0000 -62.9607
#
#
#
# Elastic Compliance Matrix: (Units=1/GPa)
#
#
# Indices 1 2 3 4 5 6 
#
# 1 0.014188 -0.003580 -0.002877 0.000000 0.000000 0.000000
# 2 -0.003580 0.011018 -0.005452 0.000000 0.000000 0.000000
# 3 -0.002877 -0.005452 0.012830 0.000000 0.000000 0.000000
# 4 0.000000 0.000000 0.000000 0.023154 0.000000 0.000000
# 5 0.000000 0.000000 0.000000 0.000000 0.033923 0.000000
# 6 0.000000 0.000000 0.000000 0.000000 0.000000 -0.015883
#
#
# Mechanical properties :
#
#
# Convention : Reuss Voigt Hill
#
# Bulk Modulus (GPa) = 70.33286 75.83289 73.08288
# Shear Modulus (GPa) = 46.38748 14.46460 30.42604
#
# Velocity S-wave (km/s) = 5.20888 2.90869 4.21859
# Velocity P-wave (km/s) = 8.79289 7.45895 8.15325
#
# Compressibility (1/GPa) = 0.01421810
#
# Stress axis : x y z
#
# Youngs Moduli (GPa) = 70.48146 90.76284 77.94015
#
# Poissons Ratio (x) = 0.32495 0.22420
# Poissons Ratio (y) = 0.25234 0.42495
# Poissons Ratio (z) = 0.20274 0.49487
#
# Static dielectric constant tensor:
#      x y z
#    x 1.570360 0.000000 0.000000 
#    y 0.000000 1.594910 0.000000 
#    z 0.000000 0.000000 1.558130 
# 
# From -- ./inp_files/21504.got.cif
#   From: 2010.05.17/outbox.cif.g08.bks.cpg/sg51_11_cif.got.tgz:21504.got - 2010.06.03 11:52:47.
