data_PCOD9401975
_publ_section_title
;
Structure prediction by ZEFSAII (Michael W. Deem and Ramdas Pophale) SiO2 
 PCOD9401975
Probable space group: P M M A
;
_chemical_formula_sum "Si O2"
_cell_formula_units_Z 64
_cell_length_a 11.748448
_cell_length_b 13.469425
_cell_length_c 18.654849
_cell_angle_alpha 90.000000
_cell_angle_beta 90.000000
_cell_angle_gamma 90.000000
_cell_volume 2952.033580
_symmetry_space_group_name_H-M "P M M A"
_symmetry_group_IT_number 51
_symmetry_cell_setting 'orthorhombic'
loop_
_space_group_symop_operation_xyz
x,y,z
1/2-x,-y,z
1/2+x,-y,-z
-x,y,-z
-x,-y,-z
1/2+x,y,-z
1/2-x,y,z
x,-y,z
loop_
_atom_site_type_symbol
_atom_site_label
_atom_site_fract_x
_atom_site_fract_y
_atom_site_fract_z
Si Si1 0.122636 0.387318 0.936792
Si Si2 0.043732 0.389342 0.199304
Si Si3 0.870836 0.823887 0.808035
Si Si4 0.625183 0.363770 0.484303
Si Si5 0.984336 0.110076 0.318221
Si Si6 0.618042 0.861188 0.540202
Si Si7 0.625966 0.320749 0.318620
Si Si8 0.377273 0.181286 0.021785
O O1 0.250000 0.381887 0.905307
O O2 0.112252 0.500000 0.967415
O O3 0.032088 0.376539 0.872947
O O4 0.118025 0.296536 0.993383
O O5 0.093412 0.500000 0.197778
O O6 0.123817 0.294436 0.204885
O O7 0.962619 0.375503 0.267934
O O8 0.750000 0.864969 0.784029
O O9 0.967254 0.875729 0.761719
O O10 0.878783 0.831625 0.893067
O O11 0.500000 0.404179 0.500000
O O12 0.750000 0.401516 0.507988
O O13 0.621758 0.253805 0.518391
O O14 0.627690 0.361990 0.398410
O O15 0.085395 0.123055 0.376650
O O16 0.902570 0.203981 0.328293
O O17 0.935091 0.000000 0.327703
O O18 0.500000 0.897011 0.500000
O O19 0.750000 0.895524 0.525571
O O20 0.750000 0.331237 0.285365
O O21 0.250000 0.145449 0.997280
O O22 0.500000 0.136760 0.000000
#
# Coordination Sequence:
#
# PCOD9401975 Si02
#       8
#     8   8   8   8   8   8   8   8
#     4   9  17  29  49  80 114 144 178 225 282 343
#     4  10  20  34  55  84 118 151 191 235 286 347
#     4  10  22  38  56  81 114 155 199 241 290 346
#     4   9  16  31  52  78 110 147 188 232 286 346
#     4  11  23  39  58  83 115 154 198 242 290 350
#     4  10  19  34  55  83 115 148 186 234 294 357
#     4  10  20  36  56  82 116 155 192 234 291 350
#     4  10  19  34  54  81 113 149 191 235 286 348
#
# _framework density 21.679970000000001
#
# number of rings (size 3 to 8) (size 9 to 14) (size 15 to 20)
#    0.000    2.125    3.750    0.750    0.000    3.250 
#    0.000    1.250    0.000    0.750    0.000    0.000 
#    0.000    0.000    0.000    0.000    0.000    0.000 
#
# Total GULP energy -356319.078151 kJ/mol
# GULP energy per Si atom -5567.485596 kJ/mol
# Density = 2.163063 g / cm^3
# Si number density = 21.679970 Si / 1000 Ang^3
#
#
#
# Elastic Constant Matrix: (Units=GPa)
#
#
# Indices 1 2 3 4 5 6 
#
# 1 151.1656 10.6681 14.1681 0.0000 0.0000 0.0000
# 2 10.6681 57.0501 9.2168 0.0000 0.0000 0.0000
# 3 14.1681 9.2168 72.8168 0.0000 0.0000 0.0000
# 4 0.0000 0.0000 0.0000 185.0774 0.0000 0.0000
# 5 0.0000 0.0000 0.0000 0.0000 -3.0108 0.0000
# 6 0.0000 0.0000 0.0000 0.0000 0.0000 -75.8106
#
#
#
# Elastic Compliance Matrix: (Units=1/GPa)
#
#
# Indices 1 2 3 4 5 6 
#
# 1 0.006803 -0.001080 -0.001187 0.000000 0.000000 0.000000
# 2 -0.001080 0.018066 -0.002076 0.000000 0.000000 0.000000
# 3 -0.001187 -0.002076 0.014227 0.000000 0.000000 0.000000
# 4 0.000000 0.000000 0.000000 0.005403 0.000000 0.000000
# 5 0.000000 0.000000 0.000000 0.000000 -0.332132 0.000000
# 6 0.000000 0.000000 0.000000 0.000000 0.000000 -0.013191
#
#
# Mechanical properties :
#
#
# Convention : Reuss Voigt Hill
#
# Bulk Modulus (GPa) = 32.88595 38.79317 35.83956
# Shear Modulus (GPa) = -17.73045 37.71648 9.99302
#
# Velocity S-wave (km/s) = -2.86287 4.17549 2.14926
# Velocity P-wave (km/s) = 2.06730 6.41706 4.76720
#
# Compressibility (1/GPa) = 0.03040813
#
# Stress axis : x y z
#
# Youngs Moduli (GPa) = 146.99949 55.35278 70.28959
#
# Poissons Ratio (x) = 0.05980 0.08343
# Poissons Ratio (y) = 0.15881 0.14596
# Poissons Ratio (z) = 0.17447 0.11494
#
# Static dielectric constant tensor:
#      x y z
#    x 1.850080 0.000000 0.000000 
#    y 0.000000 1.795580 0.000000 
#    z 0.000000 0.000000 1.750670 
# 
# From -- ./inp_files/29140.got.cif
#   From: 2010.05.17/outbox.cif.g08.bks.cpg/sg51_15_cif.got.tgz:29140.got - 2010.06.03 11:52:47.
