data_PCOD9401822
_publ_section_title
;
Structure prediction by ZEFSAII (Michael W. Deem and Ramdas Pophale) SiO2 
 PCOD9401822
Probable space group: P M M A
;
_chemical_formula_sum "Si O2"
_cell_formula_units_Z 48
_cell_length_a 9.776492
_cell_length_b 7.661286
_cell_length_c 29.167320
_cell_angle_alpha 90.000000
_cell_angle_beta 90.000000
_cell_angle_gamma 90.000000
_cell_volume 2184.646889
_symmetry_space_group_name_H-M "P M M A"
_symmetry_group_IT_number 51
_symmetry_cell_setting 'orthorhombic'
loop_
_space_group_symop_operation_xyz
x,y,z
1/2-x,-y,z
1/2+x,-y,-z
-x,y,-z
-x,-y,-z
1/2+x,y,-z
1/2-x,y,z
x,-y,z
loop_
_atom_site_type_symbol
_atom_site_label
_atom_site_fract_x
_atom_site_fract_y
_atom_site_fract_z
Si Si1 0.903781 0.795088 0.712671
Si Si2 0.750000 0.212797 0.032369
Si Si3 0.102340 0.295929 0.788786
Si Si4 0.250000 0.786333 0.072578
Si Si5 0.091422 0.710027 0.457242
Si Si6 0.962968 0.211176 0.108158
Si Si7 0.906853 0.209989 0.368803
O O1 0.750000 0.720538 0.710835
O O2 0.974117 0.781964 0.762217
O O3 0.011969 0.721844 0.675879
O O4 0.891400 0.000000 0.701909
O O5 0.877777 0.266039 0.063530
O O6 0.750000 0.000000 0.030220
O O7 0.750000 0.273424 0.980218
O O8 0.250000 0.220740 0.773870
O O9 0.102033 0.500000 0.778127
O O10 0.091125 0.274680 0.843336
O O11 0.383601 0.731179 0.099437
O O12 0.250000 0.000000 0.071196
O O13 0.250000 0.773844 0.456306
O O14 0.099523 0.500000 0.461177
O O15 0.000000 0.775078 0.500000
O O16 0.004326 0.750784 0.411889
O O17 0.956205 0.000000 0.109695
O O18 0.750000 0.275791 0.373204
O O19 0.896591 0.000000 0.365204
#
# Coordination Sequence:
#
# PCOD9401822 Si02
#       7
#     8   4   8   4   8   8   8
#     4  10  22  40  63  88 113 143 184 235 289 344
#     4   9  16  30  53  81 109 141 179 225 274 321
#     4  11  24  40  57  79 111 149 189 231 276 333
#     4   9  18  30  51  83 113 137 175 227 276 325
#     4  10  21  37  58  85 119 161 206 248 290 338
#     4  10  19  33  55  81 109 142 181 227 276 327
#     4  10  21  38  61  89 119 152 191 237 290 346
#
# _framework density 21.971515
#
# number of rings (size 3 to 8) (size 9 to 14) (size 15 to 20)
#    0.000    2.000    0.833    2.500    1.167    7.000 
#    0.000    0.000    0.000    3.000    0.000    0.000 
#    0.000    0.000    0.000    0.000    0.000    0.000 
#
# Total GULP energy -268075.531137 kJ/mol
# GULP energy per Si atom -5584.906899 kJ/mol
# Density = 2.192151 g / cm^3
# Si number density = 21.971515 Si / 1000 Ang^3
#
#
#
# Elastic Constant Matrix: (Units=GPa)
#
#
# Indices 1 2 3 4 5 6 
#
# 1 217.8047 12.0372 58.0712 0.0000 0.0000 0.0000
# 2 12.0372 41.8518 -5.5012 0.0000 0.0000 0.0000
# 3 58.0712 -5.5012 101.4783 0.0000 0.0000 0.0000
# 4 0.0000 0.0000 0.0000 31.1644 0.0000 0.0000
# 5 0.0000 0.0000 0.0000 0.0000 31.0735 0.0000
# 6 0.0000 0.0000 0.0000 0.0000 0.0000 4.2533
#
#
#
# Elastic Compliance Matrix: (Units=1/GPa)
#
#
# Indices 1 2 3 4 5 6 
#
# 1 0.005586 -0.002041 -0.003307 0.000000 0.000000 0.000000
# 2 -0.002041 0.024811 0.002513 0.000000 0.000000 0.000000
# 3 -0.003307 0.002513 0.011883 0.000000 0.000000 0.000000
# 4 0.000000 0.000000 0.000000 0.032088 0.000000 0.000000
# 5 0.000000 0.000000 0.000000 0.000000 0.032182 0.000000
# 6 0.000000 0.000000 0.000000 0.000000 0.000000 0.235112
#
#
# Mechanical properties :
#
#
# Convention : Reuss Voigt Hill
#
# Bulk Modulus (GPa) = 27.31521 54.48324 40.89923
# Shear Modulus (GPa) = 13.90684 33.06674 23.48679
#
# Velocity S-wave (km/s) = 2.51858 3.88362 3.27305
# Velocity P-wave (km/s) = 4.57348 6.70530 5.73924
#
# Compressibility (1/GPa) = 0.03660964
#
# Stress axis : x y z
#
# Youngs Moduli (GPa) = 179.02402 40.30424 84.15309
#
# Poissons Ratio (x) = 0.08227 0.27831
# Poissons Ratio (y) = 0.36544 -0.21149
# Poissons Ratio (z) = 0.59206 -0.10129
#
# Static dielectric constant tensor:
#      x y z
#    x 1.843510 0.000000 0.000000 
#    y 0.000000 1.830940 0.000000 
#    z 0.000000 0.000000 1.762570 
# 
# From -- ./inp_files/37127.got.cif
#   From: 2010.05.17/outbox.cif.g08.bks.cpg/sg51_19_cif.got.tgz:37127.got - 2010.06.03 11:52:47.
