data_PCOD9401920
_publ_section_title
;
Structure prediction by ZEFSAII (Michael W. Deem and Ramdas Pophale) SiO2 
 PCOD9401920
Probable space group: P M M A
;
_chemical_formula_sum "Si O2"
_cell_formula_units_Z 64
_cell_length_a 31.307403
_cell_length_b 8.081636
_cell_length_c 14.896398
_cell_angle_alpha 90.000000
_cell_angle_beta 90.000000
_cell_angle_gamma 90.000000
_cell_volume 3769.012664
_symmetry_space_group_name_H-M "P M M A"
_symmetry_group_IT_number 51
_symmetry_cell_setting 'orthorhombic'
loop_
_space_group_symop_operation_xyz
x,y,z
1/2-x,-y,z
1/2+x,-y,-z
-x,y,-z
-x,-y,-z
1/2+x,y,-z
1/2-x,y,z
x,-y,z
loop_
_atom_site_type_symbol
_atom_site_label
_atom_site_fract_x
_atom_site_fract_y
_atom_site_fract_z
Si Si1 0.701468 0.799651 0.647032
Si Si2 0.422329 0.690227 0.261773
Si Si3 0.382724 0.809522 0.439969
Si Si4 0.959342 0.694286 0.440531
Si Si5 0.015521 0.189980 0.746668
Si Si6 0.458379 0.299292 0.940719
Si Si7 0.702052 0.300362 0.852500
Si Si8 0.884200 0.298664 0.930163
O O1 0.750000 0.745773 0.626813
O O2 0.665024 0.742235 0.577999
O O3 0.691643 0.744379 0.749092
O O4 0.700454 0.000000 0.646535
O O5 0.408551 0.500000 0.276829
O O6 0.403886 0.798733 0.341486
O O7 0.473214 0.699880 0.262200
O O8 0.406536 0.743435 0.164200
O O9 0.415599 0.718811 0.505171
O O10 0.380055 0.000000 0.469153
O O11 0.966543 0.500000 0.425518
O O12 0.958187 0.781207 0.344167
O O13 0.000000 0.756023 0.500000
O O14 0.038070 0.235058 0.839727
O O15 0.001632 0.000000 0.750645
O O16 0.458676 0.500000 0.938276
O O17 0.500000 0.250048 0.000000
O O18 0.415220 0.242051 0.990578
O O19 0.750000 0.238349 0.871385
O O20 0.702844 0.500000 0.857207
O O21 0.664601 0.241262 0.918646
O O22 0.883530 0.500000 0.935393
#
# Coordination Sequence:
#
# PCOD9401920 Si02
#       8
#     8   8   8   8   8   8   8   8
#     4   9  18  31  46  69 103 137 164 194 243 300
#     4  11  19  31  49  70  99 135 171 201 239 291
#     4  11  21  32  49  75 102 133 169 209 247 284
#     4  11  23  37  54  72  95 133 171 203 246 302
#     4  12  24  36  50  72 101 128 163 211 252 287
#     4  10  19  34  52  69  94 132 170 201 240 293
#     4   9  16  27  45  70  98 128 165 205 239 277
#     4   9  17  29  47  70  96 131 169 201 237 284
#
# _framework density 16.980575000000002
#
# number of rings (size 3 to 8) (size 9 to 14) (size 15 to 20)
#    0.000    1.750    3.750    2.250    0.000    1.250 
#    0.000    0.625    0.000    0.000    0.000    0.875 
#    0.000    3.000    0.000    0.000    0.000    0.000 
#
# Total GULP energy -357039.602445 kJ/mol
# GULP energy per Si atom -5578.743788 kJ/mol
# Density = 1.694193 g / cm^3
# Si number density = 16.980575 Si / 1000 Ang^3
#
#
#
# Elastic Constant Matrix: (Units=GPa)
#
#
# Indices 1 2 3 4 5 6 
#
# 1 123.1555 3.3963 51.8310 0.0000 0.0000 0.0000
# 2 3.3963 25.2818 9.9608 0.0000 0.0000 0.0000
# 3 51.8310 9.9608 94.9071 0.0000 0.0000 0.0000
# 4 0.0000 0.0000 0.0000 370.4333 0.0000 0.0000
# 5 0.0000 0.0000 0.0000 0.0000 22.1676 0.0000
# 6 0.0000 0.0000 0.0000 0.0000 0.0000 -10.0410
#
#
#
# Elastic Compliance Matrix: (Units=1/GPa)
#
#
# Indices 1 2 3 4 5 6 
#
# 1 0.010562 0.000891 -0.005862 0.000000 0.000000 0.000000
# 2 0.000891 0.041335 -0.004825 0.000000 0.000000 0.000000
# 3 -0.005862 -0.004825 0.014244 0.000000 0.000000 0.000000
# 4 0.000000 0.000000 0.000000 0.002700 0.000000 0.000000
# 5 0.000000 0.000000 0.000000 0.000000 0.045111 0.000000
# 6 0.000000 0.000000 0.000000 0.000000 0.000000 -0.099592
#
#
# Mechanical properties :
#
#
# Convention : Reuss Voigt Hill
#
# Bulk Modulus (GPa) = 21.48217 41.52450 31.50333
# Shear Modulus (GPa) = 101.07354 88.38906 94.73130
#
# Velocity S-wave (km/s) = 7.72349 7.22261 7.47724
# Velocity P-wave (km/s) = 9.60286 9.69855 9.65082
#
# Compressibility (1/GPa) = 0.04655024
#
# Stress axis : x y z
#
# Youngs Moduli (GPa) = 94.67709 24.19231 70.20393
#
# Poissons Ratio (x) = -0.02154 0.41152
# Poissons Ratio (y) = -0.08432 0.33871
# Poissons Ratio (z) = 0.55497 0.11672
#
# Static dielectric constant tensor:
#      x y z
#    x 1.614950 0.000000 0.000000 
#    y 0.000000 1.592720 0.000000 
#    z 0.000000 0.000000 1.547170 
# 
# From -- ./inp_files/26645.got.cif
#   From: 2010.05.17/outbox.cif.g08.bks.cpg/sg51_14_cif.got.tgz:26645.got - 2010.06.03 11:52:47.
