data_PCOD9401461
_publ_section_title
;
Structure prediction by ZEFSAII (Michael W. Deem and Ramdas Pophale) SiO2 
 PCOD9401461
Probable space group: P M M A
;
_chemical_formula_sum "Si O2"
_cell_formula_units_Z 60
_cell_length_a 25.244937
_cell_length_b 24.428055
_cell_length_c 5.309477
_cell_angle_alpha 90.000000
_cell_angle_beta 90.000000
_cell_angle_gamma 90.000000
_cell_volume 3274.273281
_symmetry_space_group_name_H-M "P M M A"
_symmetry_group_IT_number 51
_symmetry_cell_setting 'orthorhombic'
loop_
_space_group_symop_operation_xyz
x,y,z
1/2-x,-y,z
1/2+x,-y,-z
-x,y,-z
-x,-y,-z
1/2+x,y,-z
1/2-x,y,z
x,-y,z
loop_
_atom_site_type_symbol
_atom_site_label
_atom_site_fract_x
_atom_site_fract_y
_atom_site_fract_z
Si Si1 0.307221 0.157945 0.629293
Si Si2 0.123043 0.744375 0.521532
Si Si3 0.964043 0.000000 0.252129
Si Si4 0.561682 0.216739 0.972441
Si Si5 0.306725 0.058256 0.253346
Si Si6 0.186136 0.437785 0.032895
Si Si7 0.101545 0.099688 0.936676
Si Si8 0.185673 0.369114 0.533314
O O1 0.250000 0.166649 0.750739
O O2 0.328356 0.212994 0.507137
O O3 0.303629 0.110760 0.424362
O O4 0.351873 0.134632 0.808924
O O5 0.091419 0.760063 0.777986
O O6 0.149940 0.685113 0.530413
O O7 0.087028 0.756459 0.277269
O O8 0.930202 0.056472 0.234551
O O9 0.000000 0.000000 0.500000
O O10 0.000000 0.000000 0.000000
O O11 0.567098 0.149836 0.952466
O O12 0.500000 0.229581 0.000000
O O13 0.250000 0.058205 0.103017
O O14 0.306847 0.000000 0.394447
O O15 0.363170 0.062687 0.120418
O O16 0.250000 0.441593 0.031452
O O17 0.165335 0.500000 0.031904
O O18 0.172576 0.404113 0.782458
O O19 0.172987 0.404776 0.285665
O O20 0.250000 0.357760 0.534085
#
# Coordination Sequence:
#
# PCOD9401461 Si02
#       8
#     8   8   4   8   8   8   8   8
#     4  10  22  37  56  84 115 150 184 224 287 350
#     4  11  22  39  60  84 117 150 192 242 288 343
#     4  12  30  44  65  86 109 140 186 246 301 351
#     4  11  24  41  61  81 106 148 193 246 297 350
#     4  10  20  35  57  83 112 146 184 227 279 350
#     4   9  17  30  50  80 124 170 203 229 265 322
#     4  11  23  39  61  78 113 140 187 230 294 353
#     4  10  19  32  53  85 122 162 198 233 279 335
#
# _framework density 18.324676
#
# number of rings (size 3 to 8) (size 9 to 14) (size 15 to 20)
#    0.000    1.600    2.000    2.800    2.800    3.733 
#    0.000    1.333    0.000    0.000    0.000    0.000 
#    0.000   37.333    0.000    0.000    0.000    0.000 
#
# Total GULP energy -334349.903644 kJ/mol
# GULP energy per Si atom -5572.498394 kJ/mol
# Density = 1.828297 g / cm^3
# Si number density = 18.324676 Si / 1000 Ang^3
#
#
#
# Elastic Constant Matrix: (Units=GPa)
#
#
# Indices 1 2 3 4 5 6 
#
# 1 87.6225 46.8318 32.4379 0.0000 0.0000 0.0000
# 2 46.8318 167.3978 57.0788 0.0000 0.0000 0.0000
# 3 32.4379 57.0788 106.6398 0.0000 0.0000 0.0000
# 4 0.0000 0.0000 0.0000 20.8998 0.0000 0.0000
# 5 0.0000 0.0000 0.0000 0.0000 21.9804 0.0000
# 6 0.0000 0.0000 0.0000 0.0000 0.0000 22.7932
#
#
#
# Elastic Compliance Matrix: (Units=1/GPa)
#
#
# Indices 1 2 3 4 5 6 
#
# 1 0.014004 -0.003016 -0.002646 0.000000 0.000000 0.000000
# 2 -0.003016 0.007957 -0.003342 0.000000 0.000000 0.000000
# 3 -0.002646 -0.003342 0.011971 0.000000 0.000000 0.000000
# 4 0.000000 0.000000 0.000000 0.047847 0.000000 0.000000
# 5 0.000000 0.000000 0.000000 0.000000 0.045495 0.000000
# 6 0.000000 0.000000 0.000000 0.000000 0.000000 0.043873
#
#
# Mechanical properties :
#
#
# Convention : Reuss Voigt Hill
#
# Bulk Modulus (GPa) = 62.79168 70.48410 66.63789
# Shear Modulus (GPa) = 25.71211 28.15544 26.93377
#
# Velocity S-wave (km/s) = 3.74992 3.92404 3.83797
# Velocity P-wave (km/s) = 7.28627 7.68625 7.48893
#
# Compressibility (1/GPa) = 0.01592568
#
# Stress axis : x y z
#
# Youngs Moduli (GPa) = 71.40933 125.67750 83.53747
#
# Poissons Ratio (x) = 0.37900 0.22100
# Poissons Ratio (y) = 0.21535 0.27915
# Poissons Ratio (z) = 0.18892 0.41996
#
# Static dielectric constant tensor:
#      x y z
#    x 1.677430 0.000000 0.000000 
#    y 0.000000 1.633540 0.000000 
#    z 0.000000 0.000000 1.589210 
# 
# From -- ./inp_files/3158.got.cif
#   From: 2010.05.17/outbox.cif.g08.bks.cpg/sg51_2_cif.got.tgz:3158.got - 2010.06.03 11:52:47.
