data_PCOD9401911
_publ_section_title
;
Structure prediction by ZEFSAII (Michael W. Deem and Ramdas Pophale) SiO2 
 PCOD9401911
Probable space group: P M M A
;
_chemical_formula_sum "Si O2"
_cell_formula_units_Z 40
_cell_length_a 15.315443
_cell_length_b 7.990176
_cell_length_c 18.584440
_cell_angle_alpha 90.000000
_cell_angle_beta 90.000000
_cell_angle_gamma 90.000000
_cell_volume 2274.235257
_symmetry_space_group_name_H-M "P M M A"
_symmetry_group_IT_number 51
_symmetry_cell_setting 'orthorhombic'
loop_
_space_group_symop_operation_xyz
x,y,z
1/2-x,-y,z
1/2+x,-y,-z
-x,y,-z
-x,-y,-z
1/2+x,y,-z
1/2-x,y,z
x,-y,z
loop_
_atom_site_type_symbol
_atom_site_label
_atom_site_fract_x
_atom_site_fract_y
_atom_site_fract_z
Si Si1 0.553760 0.298872 0.069079
Si Si2 0.147619 0.000000 0.285677
Si Si3 0.442275 0.692025 0.209854
Si Si4 0.996847 0.000000 0.585955
Si Si5 0.750000 0.202553 0.265741
Si Si6 0.575932 0.317450 0.342161
Si Si7 0.750000 0.800702 0.100248
O O1 0.551725 0.500000 0.068429
O O2 0.500428 0.250214 0.141289
O O3 0.656178 0.251675 0.068024
O O4 0.500000 0.236033 0.000000
O O5 0.123701 0.164053 0.237193
O O6 0.088859 0.000000 0.359913
O O7 0.250000 0.000000 0.303173
O O8 0.408365 0.500000 0.196224
O O9 0.508153 0.678170 0.276496
O O10 0.047685 0.167297 0.607718
O O11 0.000000 0.000000 0.500000
O O12 0.666921 0.273170 0.306049
O O13 0.750000 0.259379 0.182977
O O14 0.750000 0.000000 0.267074
O O15 0.577829 0.500000 0.377315
O O16 0.750000 0.000000 0.100571
#
# Coordination Sequence:
#
# PCOD9401911 Si02
#       7
#     8   4   8   4   4   8   4
#     4  10  21  38  56  78 115 158 196 243 300 355
#     4  10  22  40  62  84 110 151 194 233 284 347
#     4   9  19  36  59  83 110 147 193 242 284 331
#     4  10  22  41  60  85 119 151 182 233 283 345
#     4  11  19  31  55  88 121 145 185 243 292 339
#     4  10  19  33  58  86 113 151 188 229 284 338
#     4  11  23  33  57  87 114 152 193 247 308 362
#
# _framework density 17.588329999999999
#
# number of rings (size 3 to 8) (size 9 to 14) (size 15 to 20)
#    0.000    2.000    3.000    0.600    1.400    2.000 
#    3.600    0.000    0.000    0.000    0.000    0.000 
#    0.000    0.000    0.000    0.000    0.000    0.000 
#
# Total GULP energy -222775.500378 kJ/mol
# GULP energy per Si atom -5569.387509 kJ/mol
# Density = 1.754830 g / cm^3
# Si number density = 17.588330 Si / 1000 Ang^3
#
#
#
# Elastic Constant Matrix: (Units=GPa)
#
#
# Indices 1 2 3 4 5 6 
#
# 1 123.9996 49.0655 45.1035 0.0000 0.0000 0.0000
# 2 49.0655 106.1317 42.4623 0.0000 0.0000 0.0000
# 3 45.1035 42.4623 108.6298 0.0000 0.0000 0.0000
# 4 0.0000 0.0000 0.0000 72.3343 0.0000 0.0000
# 5 0.0000 0.0000 0.0000 0.0000 14.8654 0.0000
# 6 0.0000 0.0000 0.0000 0.0000 0.0000 -16.5942
#
#
#
# Elastic Compliance Matrix: (Units=1/GPa)
#
#
# Indices 1 2 3 4 5 6 
#
# 1 0.010612 -0.003726 -0.002950 0.000000 0.000000 0.000000
# 2 -0.003726 0.012477 -0.003330 0.000000 0.000000 0.000000
# 3 -0.002950 -0.003330 0.011732 0.000000 0.000000 0.000000
# 4 0.000000 0.000000 0.000000 0.013825 0.000000 0.000000
# 5 0.000000 0.000000 0.000000 0.000000 0.067271 0.000000
# 6 0.000000 0.000000 0.000000 0.000000 0.000000 -0.060262
#
#
# Mechanical properties :
#
#
# Convention : Reuss Voigt Hill
#
# Bulk Modulus (GPa) = 67.52391 68.00262 67.76327
# Shear Modulus (GPa) = 62.03350 27.59642 44.81496
#
# Velocity S-wave (km/s) = 5.94527 3.96538 5.05324
# Velocity P-wave (km/s) = 9.25219 7.72742 8.52397
#
# Compressibility (1/GPa) = 0.01480957
#
# Stress axis : x y z
#
# Youngs Moduli (GPa) = 94.23580 80.14688 85.23664
#
# Poissons Ratio (x) = 0.29861 0.25142
# Poissons Ratio (y) = 0.35110 0.28386
# Poissons Ratio (z) = 0.27796 0.26691
#
# Static dielectric constant tensor:
#      x y z
#    x 1.461710 0.000000 0.000000 
#    y 0.000000 1.613770 0.000000 
#    z 0.000000 0.000000 1.583380 
# 
# From -- ./inp_files/23844.got.cif
#   From: 2010.05.17/outbox.cif.g08.bks.cpg/sg51_12_cif.got.tgz:23844.got - 2010.06.03 11:52:47.
