data_PCOD9401779
_publ_section_title
;
Structure prediction by ZEFSAII (Michael W. Deem and Ramdas Pophale) SiO2 
 PCOD9401779
Probable space group: P M M A
;
_chemical_formula_sum "Si O2"
_cell_formula_units_Z 56
_cell_length_a 14.589314
_cell_length_b 9.037435
_cell_length_c 23.385797
_cell_angle_alpha 90.000000
_cell_angle_beta 90.000000
_cell_angle_gamma 90.000000
_cell_volume 3083.416796
_symmetry_space_group_name_H-M "P M M A"
_symmetry_group_IT_number 51
_symmetry_cell_setting 'orthorhombic'
loop_
_space_group_symop_operation_xyz
x,y,z
1/2-x,-y,z
1/2+x,-y,-z
-x,y,-z
-x,-y,-z
1/2+x,y,-z
1/2-x,y,z
x,-y,z
loop_
_atom_site_type_symbol
_atom_site_label
_atom_site_fract_x
_atom_site_fract_y
_atom_site_fract_z
Si Si1 0.644767 0.822097 0.597715
Si Si2 0.355662 0.176497 0.094762
Si Si3 0.141893 0.326481 0.973565
Si Si4 0.470667 0.321623 0.860434
Si Si5 0.855372 0.680322 0.250448
Si Si6 0.140928 0.173343 0.535383
Si Si7 0.466973 0.676828 0.637116
O O1 0.750000 0.779659 0.610242
O O2 0.625542 0.785536 0.530878
O O3 0.568221 0.745318 0.635685
O O4 0.638667 0.000000 0.602417
O O5 0.250000 0.218501 0.107187
O O6 0.429459 0.250290 0.136142
O O7 0.362866 0.000000 0.096597
O O8 0.376184 0.234011 0.030557
O O9 0.250000 0.313660 0.959753
O O10 0.123174 0.500000 0.986024
O O11 0.083100 0.282050 0.918735
O O12 0.478402 0.500000 0.859194
O O13 0.411359 0.274269 0.805792
O O14 0.750000 0.731264 0.249771
O O15 0.853117 0.500000 0.250119
O O16 0.908495 0.725622 0.307742
O O17 0.250000 0.186950 0.545769
O O18 0.085065 0.268073 0.580433
O O19 0.115932 0.000000 0.541892
O O20 0.472452 0.500000 0.637364
#
# Coordination Sequence:
#
# PCOD9401779 Si02
#       7
#     8   8   8   8   8   8   8
#     4   9  19  36  55  74 100 137 177 214 254 302
#     4  10  21  35  50  72 105 139 165 198 252 308
#     4   9  17  30  51  79 105 129 164 208 249 294
#     4  10  19  33  55  77  97 130 174 213 247 287
#     4   9  19  36  55  76 104 135 166 203 250 303
#     4   9  18  33  53  76 103 137 175 212 252 303
#     4  11  21  32  51  79 108 137 168 208 260 310
#
# _framework density 18.161671999999999
#
# number of rings (size 3 to 8) (size 9 to 14) (size 15 to 20)
#    0.000    2.429    0.000    3.429    0.000    8.286 
#    0.000    3.571    0.000    7.286    0.000    0.000 
#    0.000    0.000    0.000    0.000    0.000    0.000 
#
# Total GULP energy -312601.585581 kJ/mol
# GULP energy per Si atom -5582.171171 kJ/mol
# Density = 1.812033 g / cm^3
# Si number density = 18.161672 Si / 1000 Ang^3
#
#
#
# Elastic Constant Matrix: (Units=GPa)
#
#
# Indices 1 2 3 4 5 6 
#
# 1 155.0748 46.1618 97.0969 0.0000 0.0000 0.0000
# 2 46.1618 21.6131 31.0331 0.0000 0.0000 0.0000
# 3 97.0969 31.0331 75.6555 0.0000 0.0000 0.0000
# 4 0.0000 0.0000 0.0000-1927.6222 0.0000 0.0000
# 5 0.0000 0.0000 0.0000 0.0000 33.6468 0.0000
# 6 0.0000 0.0000 0.0000 0.0000 0.0000 29.7254
#
#
#
# Elastic Compliance Matrix: (Units=1/GPa)
#
#
# Indices 1 2 3 4 5 6 
#
# 1 0.038544 -0.027481 -0.038196 0.000000 0.000000 0.000000
# 2 -0.027481 0.132160 -0.018942 0.000000 0.000000 0.000000
# 3 -0.038196 -0.018942 0.070008 0.000000 0.000000 0.000000
# 4 0.000000 0.000000 0.000000 -0.000519 0.000000 0.000000
# 5 0.000000 0.000000 0.000000 0.000000 0.029721 0.000000
# 6 0.000000 0.000000 0.000000 0.000000 0.000000 0.033641
#
#
# Mechanical properties :
#
#
# Convention : Reuss Voigt Hill
#
# Bulk Modulus (GPa) = 13.99069 66.76966 40.38018
# Shear Modulus (GPa) = 10.06812 -367.64657 -178.78923
#
# Velocity S-wave (km/s) = 2.35704 -14.24322 -9.93262
# Velocity P-wave (km/s) = 3.88943 15.28557 10.45277
#
# Compressibility (1/GPa) = 0.07147608
#
# Stress axis : x y z
#
# Youngs Moduli (GPa) = 25.94413 7.56661 14.28400
#
# Poissons Ratio (x) = 0.20794 0.54559
# Poissons Ratio (y) = 0.71296 0.27056
# Poissons Ratio (z) = 0.99096 0.14332
#
# Static dielectric constant tensor:
#      x y z
#    x 1.638530 0.000000 0.000000 
#    y 0.000000 1.606070 0.000000 
#    z 0.000000 0.000000 1.601390 
# 
# From -- ./inp_files/33350.got.cif
#   From: 2010.05.17/outbox.cif.g08.bks.cpg/sg51_17_cif.got.tgz:33350.got - 2010.06.03 11:52:47.
