data_PCOD9401996
_publ_section_title
;
Structure prediction by ZEFSAII (Michael W. Deem and Ramdas Pophale) SiO2 
 PCOD9401996
Probable space group: P M M A
;
_chemical_formula_sum "Si O2"
_cell_formula_units_Z 40
_cell_length_a 16.658727
_cell_length_b 7.595526
_cell_length_c 14.156895
_cell_angle_alpha 90.000000
_cell_angle_beta 90.000000
_cell_angle_gamma 90.000000
_cell_volume 1791.297323
_symmetry_space_group_name_H-M "P M M A"
_symmetry_group_IT_number 51
_symmetry_cell_setting 'orthorhombic'
loop_
_space_group_symop_operation_xyz
x,y,z
1/2-x,-y,z
1/2+x,-y,-z
-x,y,-z
-x,-y,-z
1/2+x,y,-z
1/2-x,y,z
x,-y,z
loop_
_atom_site_type_symbol
_atom_site_label
_atom_site_fract_x
_atom_site_fract_y
_atom_site_fract_z
Si Si1 0.250000 0.784280 0.267117
Si Si2 0.337735 0.708099 0.551114
Si Si3 0.088237 0.792872 0.364709
Si Si4 0.583356 0.784544 0.050722
Si Si5 0.250000 0.785307 0.047961
Si Si6 0.072104 0.788138 0.733397
O O1 0.169842 0.720736 0.319021
O O2 0.250000 0.734217 0.157614
O O3 0.250000 0.000000 0.270985
O O4 0.250000 0.783223 0.527082
O O5 0.335685 0.500000 0.538629
O O6 0.403190 0.775822 0.477125
O O7 0.358505 0.745968 0.659152
O O8 0.009089 0.718376 0.315932
O O9 0.086999 0.000000 0.343356
O O10 0.582702 0.726026 0.159813
O O11 0.583444 0.000000 0.048760
O O12 0.500000 0.730343 0.000000
O O13 0.666465 0.728341 0.000850
O O14 0.250000 0.000000 0.044468
O O15 0.067536 0.000000 0.738715
#
# Coordination Sequence:
#
# PCOD9401996 Si02
#       6
#     4   8   8   8   4   8
#     4   9  16  28  50  77 108 142 177 217 264 315
#     4  11  24  39  54  76 107 144 184 226 272 322
#     4  10  19  34  55  81 108 140 178 222 271 321
#     4   9  17  30  48  77 114 142 172 218 264 316
#     4   9  16  26  45  73 106 144 175 207 266 319
#     4  10  21  34  55  83 112 143 178 219 270 324
#
# _framework density 22.330185
#
# number of rings (size 3 to 8) (size 9 to 14) (size 15 to 20)
#    0.000    2.200    1.000    2.400    1.400    9.200 
#    0.000    0.000    0.000    0.600    0.000    2.800 
#    0.000    0.000    0.000    0.000    0.000    0.000 
#
# Total GULP energy -223472.609984 kJ/mol
# GULP energy per Si atom -5586.815250 kJ/mol
# Density = 2.227936 g / cm^3
# Si number density = 22.330185 Si / 1000 Ang^3
#
#
#
# Elastic Constant Matrix: (Units=GPa)
#
#
# Indices 1 2 3 4 5 6 
#
# 1 127.9223 0.8828 53.9331 0.0000 0.0000 0.0000
# 2 0.8828 48.0787 -10.6717 0.0000 0.0000 0.0000
# 3 53.9331 -10.6717 133.3897 0.0000 0.0000 0.0000
# 4 0.0000 0.0000 0.0000 -59.7078 0.0000 0.0000
# 5 0.0000 0.0000 0.0000 0.0000 39.7628 0.0000
# 6 0.0000 0.0000 0.0000 0.0000 0.0000 -10.5529
#
#
#
# Elastic Compliance Matrix: (Units=1/GPa)
#
#
# Indices 1 2 3 4 5 6 
#
# 1 0.009475 -0.001043 -0.003914 0.000000 0.000000 0.000000
# 2 -0.001043 0.021290 0.002125 0.000000 0.000000 0.000000
# 3 -0.003914 0.002125 0.009250 0.000000 0.000000 0.000000
# 4 0.000000 0.000000 0.000000 -0.016748 0.000000 0.000000
# 5 0.000000 0.000000 0.000000 0.000000 0.025149 0.000000
# 6 0.000000 0.000000 0.000000 0.000000 0.000000 -0.094761
#
#
# Mechanical properties :
#
#
# Convention : Reuss Voigt Hill
#
# Bulk Modulus (GPa) = 29.11220 44.18657 36.64938
# Shear Modulus (GPa) = -171.05034 11.58351 -79.73341
#
# Velocity S-wave (km/s) = -8.76167 2.28005 -5.98198
# Velocity P-wave (km/s) = 9.44935 5.17323 5.59142
#
# Compressibility (1/GPa) = 0.03434986
#
# Stress axis : x y z
#
# Youngs Moduli (GPa) = 105.54367 46.97033 108.11390
#
# Poissons Ratio (x) = 0.04898 0.42319
# Poissons Ratio (y) = 0.11006 -0.22973
# Poissons Ratio (z) = 0.41313 -0.09981
#
# Static dielectric constant tensor:
#      x y z
#    x 1.832910 0.000000 0.000000 
#    y 0.000000 1.836510 0.000000 
#    z 0.000000 0.000000 1.780870 
# 
# From -- ./inp_files/23754.got.cif
#   From: 2010.05.17/outbox.cif.g08.bks.cpg/sg51_12_cif.got.tgz:23754.got - 2010.06.03 11:52:47.
