data_PCOD9401306
_publ_section_title
;
Structure prediction by ZEFSAII (Michael W. Deem and Ramdas Pophale) SiO2 
 PCOD9401306
Probable space group: P M M A
;
_chemical_formula_sum "Si O2"
_cell_formula_units_Z 64
_cell_length_a 15.360709
_cell_length_b 9.414422
_cell_length_c 21.384962
_cell_angle_alpha 90.000000
_cell_angle_beta 90.000000
_cell_angle_gamma 90.000000
_cell_volume 3092.526332
_symmetry_space_group_name_H-M "P M M A"
_symmetry_group_IT_number 51
_symmetry_cell_setting 'orthorhombic'
loop_
_space_group_symop_operation_xyz
x,y,z
1/2-x,-y,z
1/2+x,-y,-z
-x,y,-z
-x,-y,-z
1/2+x,y,-z
1/2-x,y,z
x,-y,z
loop_
_atom_site_type_symbol
_atom_site_label
_atom_site_fract_x
_atom_site_fract_y
_atom_site_fract_z
Si Si1 0.395076 0.662835 0.120032
Si Si2 0.854653 0.339323 0.742329
Si Si3 0.645024 0.337842 0.367009
Si Si4 0.645176 0.837917 0.246686
Si Si5 0.895687 0.662381 0.122091
Si Si6 0.606692 0.836355 0.000615
Si Si7 0.897124 0.837625 0.490643
Si Si8 0.853131 0.159399 0.626817
O O1 0.361778 0.500000 0.115394
O O2 0.373188 0.720586 0.188858
O O3 0.499614 0.655769 0.116263
O O4 0.364284 0.759229 0.062923
O O5 0.750000 0.347484 0.736426
O O6 0.889945 0.500000 0.741053
O O7 0.889285 0.250911 0.683762
O O8 0.750000 0.344047 0.362389
O O9 0.612185 0.500000 0.365949
O O10 0.613158 0.246367 0.307842
O O11 0.623897 0.258201 0.431410
O O12 0.750000 0.845756 0.251428
O O13 0.624744 0.749422 0.184528
O O14 0.611802 0.000000 0.243649
O O15 0.863290 0.500000 0.125023
O O16 0.864294 0.746843 0.060929
O O17 0.634346 0.000000 0.004079
O O18 0.500000 0.836251 0.000000
O O19 0.862916 0.780486 0.557083
O O20 0.000000 0.844874 0.500000
O O21 0.863589 0.000000 0.481647
O O22 0.750000 0.147261 0.637848
O O23 0.891200 0.000000 0.626125
#
# Coordination Sequence:
#
# PCOD9401306 Si02
#       8
#     8   8   8   8   8   8   8   8
#     4   9  18  32  50  74 102 133 170 212 259 305
#     4   9  18  33  52  73  99 131 167 207 249 295
#     4  10  21  37  57  79 103 136 177 215 255 309
#     4  10  21  37  56  77 103 135 171 213 259 309
#     4  10  19  32  52  76 103 134 169 212 259 309
#     4   9  17  30  49  73 100 133 174 214 253 302
#     4  10  21  36  54  79 109 138 170 212 261 308
#     4   9  18  33  52  72  97 132 170 205 245 297
#
# _framework density 20.695055
#
# number of rings (size 3 to 8) (size 9 to 14) (size 15 to 20)
#    0.000    2.500    0.000    1.875    0.000    6.250 
#    0.000    4.375    0.000    2.250    0.000    0.000 
#    0.000    0.000    0.000    0.000    0.000    0.000 
#
# Total GULP energy -357263.555418 kJ/mol
# GULP energy per Si atom -5582.243053 kJ/mol
# Density = 2.064795 g / cm^3
# Si number density = 20.695055 Si / 1000 Ang^3
#
#
#
# Elastic Constant Matrix: (Units=GPa)
#
#
# Indices 1 2 3 4 5 6 
#
# 1 24.3526 6.2457 -2.2259 0.0000 0.0000 0.0000
# 2 6.2457 165.1389 134.3610 0.0000 0.0000 0.0000
# 3 -2.2259 134.3610 239.1777 0.0000 0.0000 0.0000
# 4 0.0000 0.0000 0.0000 31.2825 0.0000 0.0000
# 5 0.0000 0.0000 0.0000 0.0000 26.8845 0.0000
# 6 0.0000 0.0000 0.0000 0.0000 0.0000 8.2180
#
#
#
# Elastic Compliance Matrix: (Units=1/GPa)
#
#
# Indices 1 2 3 4 5 6 
#
# 1 0.042185 -0.003527 0.002374 0.000000 0.000000 0.000000
# 2 -0.003527 0.011448 -0.006464 0.000000 0.000000 0.000000
# 3 0.002374 -0.006464 0.007834 0.000000 0.000000 0.000000
# 4 0.000000 0.000000 0.000000 0.031967 0.000000 0.000000
# 5 0.000000 0.000000 0.000000 0.000000 0.037196 0.000000
# 6 0.000000 0.000000 0.000000 0.000000 0.000000 0.121685
#
#
# Mechanical properties :
#
#
# Convention : Reuss Voigt Hill
#
# Bulk Modulus (GPa) = 21.62940 78.38118 50.00529
# Shear Modulus (GPa) = 17.67034 32.62955 25.14994
#
# Velocity S-wave (km/s) = 2.92523 3.97506 3.48984
# Velocity P-wave (km/s) = 4.67798 7.68275 6.36035
#
# Compressibility (1/GPa) = 0.04623338
#
# Stress axis : x y z
#
# Youngs Moduli (GPa) = 23.70516 87.35059 127.64405
#
# Poissons Ratio (x) = 0.30808 -0.30301
# Poissons Ratio (y) = 0.08361 0.82508
# Poissons Ratio (z) = -0.05627 0.56463
#
# Static dielectric constant tensor:
#      x y z
#    x 1.765700 0.000000 0.000000 
#    y 0.000000 1.740670 0.000000 
#    z 0.000000 0.000000 1.715180 
# 
# From -- ./inp_files/33867.got.cif
#   From: 2010.05.17/outbox.cif.g08.bks.cpg/sg51_17_cif.got.tgz:33867.got - 2010.06.03 11:52:47.
