data_PCOD9401136
_publ_section_title
;
Structure prediction by ZEFSAII (Michael W. Deem and Ramdas Pophale) SiO2 
 PCOD9401136
Probable space group: P M M A
;
_chemical_formula_sum "Si O2"
_cell_formula_units_Z 56
_cell_length_a 13.601834
_cell_length_b 13.699514
_cell_length_c 16.522684
_cell_angle_alpha 90.000000
_cell_angle_beta 90.000000
_cell_angle_gamma 90.000000
_cell_volume 3078.812405
_symmetry_space_group_name_H-M "P M M A"
_symmetry_group_IT_number 51
_symmetry_cell_setting 'orthorhombic'
loop_
_space_group_symop_operation_xyz
x,y,z
1/2-x,-y,z
1/2+x,-y,-z
-x,y,-z
-x,-y,-z
1/2+x,y,-z
1/2-x,y,z
x,-y,z
loop_
_atom_site_type_symbol
_atom_site_label
_atom_site_fract_x
_atom_site_fract_y
_atom_site_fract_z
Si Si1 0.639821 0.881934 0.715095
Si Si2 0.637925 0.382769 0.947708
Si Si3 0.868688 0.806497 0.365938
Si Si4 0.935180 0.689217 0.118911
Si Si5 0.368723 0.392698 0.711008
Si Si6 0.445470 0.112600 0.800599
Si Si7 0.630261 0.113225 0.538213
O O1 0.750000 0.846981 0.732130
O O2 0.560130 0.864304 0.783458
O O3 0.604617 0.844829 0.626828
O O4 0.644160 0.000000 0.706835
O O5 0.750000 0.360933 0.922366
O O6 0.623292 0.500000 0.942658
O O7 0.550348 0.330080 0.899263
O O8 0.622058 0.349755 0.040651
O O9 0.750000 0.808279 0.368425
O O10 0.901290 0.696797 0.344875
O O11 0.898242 0.872170 0.288644
O O12 0.903218 0.840065 0.454179
O O13 0.905093 0.630383 0.198822
O O14 0.911059 0.802552 0.139018
O O15 0.250000 0.391401 0.712432
O O16 0.401416 0.500000 0.684875
O O17 0.432371 0.000000 0.825851
O O18 0.750000 0.115932 0.538428
O O19 0.601715 0.000000 0.536092
#
# Coordination Sequence:
#
# PCOD9401136 Si02
#       7
#     8   8   8   8   8   8   8
#     4   8  15  28  44  62  86 118 157 197 230 258
#     4  10  20  35  56  78  95 112 140 181 227 271
#     4   9  17  27  40  63  93 122 155 195 235 272
#     4  10  19  32  50  72  97 120 145 182 223 266
#     4   9  16  27  45  68  92 119 151 187 230 278
#     4  10  20  31  45  67  94 127 159 184 217 265
#     4   8  13  23  40  61  87 118 151 191 233 266
#
# _framework density 18.188831
#
# number of rings (size 3 to 8) (size 9 to 14) (size 15 to 20)
#    0.000    2.857    0.000    3.429    0.000    3.714 
#    0.000    3.571    0.000    0.857    0.000   10.000 
#    0.000    9.143    0.000    0.000    0.000    0.000 
#
# Total GULP energy -312064.123719 kJ/mol
# GULP energy per Si atom -5572.573638 kJ/mol
# Density = 1.814743 g / cm^3
# Si number density = 18.188831 Si / 1000 Ang^3
#
#
#
# Elastic Constant Matrix: (Units=GPa)
#
#
# Indices 1 2 3 4 5 6 
#
# 1 31.2625 1.5181 -12.8445 0.0000 0.0000 0.0000
# 2 1.5181 90.1947 19.7900 0.0000 0.0000 0.0000
# 3 -12.8445 19.7900 28.6812 0.0000 0.0000 0.0000
# 4 0.0000 0.0000 0.0000 15.5456 0.0000 0.0000
# 5 0.0000 0.0000 0.0000 0.0000 17.3518 0.0000
# 6 0.0000 0.0000 0.0000 0.0000 0.0000 15.3816
#
#
#
# Elastic Compliance Matrix: (Units=1/GPa)
#
#
# Indices 1 2 3 4 5 6 
#
# 1 0.041490 -0.005627 0.022464 0.000000 0.000000 0.000000
# 2 -0.005627 0.013828 -0.012062 0.000000 0.000000 0.000000
# 3 0.022464 -0.012062 0.053249 0.000000 0.000000 0.000000
# 4 0.000000 0.000000 0.000000 0.064327 0.000000 0.000000
# 5 0.000000 0.000000 0.000000 0.000000 0.057631 0.000000
# 6 0.000000 0.000000 0.000000 0.000000 0.000000 0.065013
#
#
# Mechanical properties :
#
#
# Convention : Reuss Voigt Hill
#
# Bulk Modulus (GPa) = 8.46623 18.56284 13.51454
# Shear Modulus (GPa) = 15.36759 19.10078 17.23418
#
# Velocity S-wave (km/s) = 2.90985 3.24410 3.08151
# Velocity P-wave (km/s) = 3.99430 4.92545 4.48411
#
# Compressibility (1/GPa) = 0.11811626
#
# Stress axis : x y z
#
# Youngs Moduli (GPa) = 24.10228 72.31523 18.77982
#
# Poissons Ratio (x) = 0.40693 -0.42186
# Poissons Ratio (y) = 0.13563 0.22652
# Poissons Ratio (z) = -0.54142 0.87224
#
# Static dielectric constant tensor:
#      x y z
#    x 1.694850 0.000000 0.000000 
#    y 0.000000 1.619310 0.000000 
#    z 0.000000 0.000000 1.625710 
# 
# From -- ./inp_files/29902.got.cif
#   From: 2010.05.17/outbox.cif.g08.bks.cpg/sg51_15_cif.got.tgz:29902.got - 2010.06.03 11:52:47.
