data_PCOD9401262
_publ_section_title
;
Structure prediction by ZEFSAII (Michael W. Deem and Ramdas Pophale) SiO2 
 PCOD9401262
Probable space group: P M M A
;
_chemical_formula_sum "Si O2"
_cell_formula_units_Z 56
_cell_length_a 20.086919
_cell_length_b 7.576236
_cell_length_c 18.012718
_cell_angle_alpha 90.000000
_cell_angle_beta 90.000000
_cell_angle_gamma 90.000000
_cell_volume 2741.233766
_symmetry_space_group_name_H-M "P M M A"
_symmetry_group_IT_number 51
_symmetry_cell_setting 'orthorhombic'
loop_
_space_group_symop_operation_xyz
x,y,z
1/2-x,-y,z
1/2+x,-y,-z
-x,y,-z
-x,-y,-z
1/2+x,y,-z
1/2-x,y,z
x,-y,z
loop_
_atom_site_type_symbol
_atom_site_label
_atom_site_fract_x
_atom_site_fract_y
_atom_site_fract_z
Si Si1 0.909478 0.715478 0.368697
Si Si2 0.942418 0.296999 0.611906
Si Si3 0.575017 0.202984 0.779748
Si Si4 0.674121 0.787155 0.072773
Si Si5 0.927816 0.292379 0.202720
Si Si6 0.674741 0.283789 0.506816
Si Si7 0.826849 0.784615 0.906055
O O1 0.910752 0.500000 0.369458
O O2 0.901249 0.770677 0.283099
O O3 0.852556 0.768491 0.425798
O O4 0.982878 0.778242 0.395069
O O5 0.948404 0.500000 0.587049
O O6 0.926036 0.292634 0.699394
O O7 0.881266 0.221598 0.565125
O O8 0.499774 0.207862 0.810402
O O9 0.624875 0.278242 0.841103
O O10 0.593798 0.000000 0.765773
O O11 0.750000 0.726949 0.087059
O O12 0.623766 0.734260 0.136842
O O13 0.675409 0.000000 0.071215
O O14 0.654606 0.727728 0.989631
O O15 0.940927 0.500000 0.210406
O O16 0.750000 0.223723 0.521007
O O17 0.676352 0.500000 0.509672
O O18 0.750000 0.735516 0.893178
O O19 0.829824 0.000000 0.905962
#
# Coordination Sequence:
#
# PCOD9401262 Si02
#       7
#     8   8   8   8   8   8   8
#     4   8  15  28  45  64  90 126 160 189 226 278
#     4   9  17  30  47  68  95 123 152 192 243 289
#     4  10  19  32  52  74  96 126 165 204 241 288
#     4   9  18  34  54  73  96 128 165 202 240 287
#     4  10  20  33  50  74 103 130 160 203 249 290
#     4   9  16  26  44  70  94 118 155 198 234 276
#     4   8  16  32  52  72  94 126 168 205 237 284
#
# _framework density 20.428757999999998
#
# number of rings (size 3 to 8) (size 9 to 14) (size 15 to 20)
#    0.000    3.000    0.000    3.000    0.000    3.714 
#    0.000    5.714    0.000   10.714    0.000    0.000 
#    0.000    0.000    0.000    0.000    0.000    0.000 
#
# Total GULP energy -312334.116743 kJ/mol
# GULP energy per Si atom -5577.394942 kJ/mol
# Density = 2.038226 g / cm^3
# Si number density = 20.428758 Si / 1000 Ang^3
#
#
#
# Elastic Constant Matrix: (Units=GPa)
#
#
# Indices 1 2 3 4 5 6 
#
# 1 74.4638 -6.7143 50.1132 0.0000 0.0000 0.0000
# 2 -6.7143 46.0972 -7.9744 0.0000 0.0000 0.0000
# 3 50.1132 -7.9744 69.1404 0.0000 0.0000 0.0000
# 4 0.0000 0.0000 0.0000 19.5383 0.0000 0.0000
# 5 0.0000 0.0000 0.0000 0.0000 18.4516 0.0000
# 6 0.0000 0.0000 0.0000 0.0000 0.0000 7.3946
#
#
#
# Elastic Compliance Matrix: (Units=1/GPa)
#
#
# Indices 1 2 3 4 5 6 
#
# 1 0.026231 0.000543 -0.018950 0.000000 0.000000 0.000000
# 2 0.000543 0.022146 0.002161 0.000000 0.000000 0.000000
# 3 -0.018950 0.002161 0.028448 0.000000 0.000000 0.000000
# 4 0.000000 0.000000 0.000000 0.051181 0.000000 0.000000
# 5 0.000000 0.000000 0.000000 0.000000 0.054196 0.000000
# 6 0.000000 0.000000 0.000000 0.000000 0.000000 0.135234
#
#
# Mechanical properties :
#
#
# Convention : Reuss Voigt Hill
#
# Bulk Modulus (GPa) = 22.55694 28.95002 25.75348
# Shear Modulus (GPa) = 13.70965 19.36204 16.53584
#
# Velocity S-wave (km/s) = 2.59336 3.08195 2.84815
# Velocity P-wave (km/s) = 4.47583 5.18329 4.84250
#
# Compressibility (1/GPa) = 0.04433226
#
# Stress axis : x y z
#
# Youngs Moduli (GPa) = 38.12235 45.15458 35.15240
#
# Poissons Ratio (x) = -0.02450 0.66614
# Poissons Ratio (y) = -0.02068 -0.07597
# Poissons Ratio (z) = 0.72242 -0.09758
#
# Static dielectric constant tensor:
#      x y z
#    x 1.700140 0.000000 0.000000 
#    y 0.000000 1.803240 0.000000 
#    z 0.000000 0.000000 1.713560 
# 
# From -- ./inp_files/25727.got.cif
#   From: 2010.05.17/outbox.cif.g08.bks.cpg/sg51_13_cif.got.tgz:25727.got - 2010.06.03 11:52:47.
