data_PCOD9401660
_publ_section_title
;
Structure prediction by ZEFSAII (Michael W. Deem and Ramdas Pophale) SiO2 
 PCOD9401660
Probable space group: P M M A
;
_chemical_formula_sum "Si O2"
_cell_formula_units_Z 48
_cell_length_a 26.609674
_cell_length_b 9.055183
_cell_length_c 11.976388
_cell_angle_alpha 90.000000
_cell_angle_beta 90.000000
_cell_angle_gamma 90.000000
_cell_volume 2885.776171
_symmetry_space_group_name_H-M "P M M A"
_symmetry_group_IT_number 51
_symmetry_cell_setting 'orthorhombic'
loop_
_space_group_symop_operation_xyz
x,y,z
1/2-x,-y,z
1/2+x,-y,-z
-x,y,-z
-x,-y,-z
1/2+x,y,-z
1/2-x,y,z
x,-y,z
loop_
_atom_site_type_symbol
_atom_site_label
_atom_site_fract_x
_atom_site_fract_y
_atom_site_fract_z
Si Si1 0.884372 0.171282 0.844289
Si Si2 0.040709 0.831983 0.363046
Si Si3 0.943335 0.322855 0.040148
Si Si4 0.571711 0.174266 0.279301
Si Si5 0.116548 0.674717 0.518190
Si Si6 0.308728 0.322553 0.321522
O O1 0.929480 0.175954 0.753598
O O2 0.837465 0.243328 0.779852
O O3 0.874765 0.000000 0.871488
O O4 0.903792 0.259797 0.950967
O O5 0.067604 0.719197 0.445495
O O6 0.982739 0.805535 0.337859
O O7 0.047142 0.000000 0.407252
O O8 0.941117 0.500000 0.044032
O O9 0.931632 0.255580 0.161049
O O10 0.000000 0.281067 0.000000
O O11 0.612073 0.241154 0.364928
O O12 0.579301 0.000000 0.262780
O O13 0.117932 0.500000 0.537157
O O14 0.162793 0.717468 0.437022
O O15 0.250000 0.286208 0.325095
O O16 0.314144 0.500000 0.308767
#
# Coordination Sequence:
#
# PCOD9401660 Si02
#       6
#     8   8   8   8   8   8
#     4  10  19  33  53  78 107 138 176 219 261 309
#     4   9  18  31  47  69 101 140 174 206 251 308
#     4  11  22  34  51  75 106 143 182 219 256 308
#     4  11  21  33  49  70 104 145 178 209 254 310
#     4  10  20  32  49  75 103 132 172 218 261 310
#     4   9  19  37  59  80 104 135 171 217 272 320
#
# _framework density 16.633306000000001
#
# number of rings (size 3 to 8) (size 9 to 14) (size 15 to 20)
#    0.000    2.000    1.667    2.500    0.000    5.667 
#    0.000    0.000    0.000    1.000    0.000    2.333 
#    0.000    0.000    0.000    0.000    0.000    0.000 
#
# Total GULP energy -267888.548394 kJ/mol
# GULP energy per Si atom -5581.011425 kJ/mol
# Density = 1.659545 g / cm^3
# Si number density = 16.633306 Si / 1000 Ang^3
#
#
#
# Elastic Constant Matrix: (Units=GPa)
#
#
# Indices 1 2 3 4 5 6 
#
# 1 97.6765 51.6573 57.3420 0.0000 0.0000 0.0000
# 2 51.6573 74.5266 62.7714 0.0000 0.0000 0.0000
# 3 57.3420 62.7714 114.5681 0.0000 0.0000 0.0000
# 4 0.0000 0.0000 0.0000 31.6890 0.0000 0.0000
# 5 0.0000 0.0000 0.0000 0.0000 9.5339 0.0000
# 6 0.0000 0.0000 0.0000 0.0000 0.0000 31.4778
#
#
#
# Elastic Compliance Matrix: (Units=1/GPa)
#
#
# Indices 1 2 3 4 5 6 
#
# 1 0.017016 -0.008581 -0.003815 0.000000 0.000000 0.000000
# 2 -0.008581 0.029244 -0.011728 0.000000 0.000000 0.000000
# 3 -0.003815 -0.011728 0.017063 0.000000 0.000000 0.000000
# 4 0.000000 0.000000 0.000000 0.031557 0.000000 0.000000
# 5 0.000000 0.000000 0.000000 0.000000 0.104889 0.000000
# 6 0.000000 0.000000 0.000000 0.000000 0.000000 0.031768
#
#
# Mechanical properties :
#
#
# Convention : Reuss Voigt Hill
#
# Bulk Modulus (GPa) = 66.33276 70.03473 68.18374
# Shear Modulus (GPa) = 17.55563 22.20684 19.88123
#
# Velocity S-wave (km/s) = 3.25229 3.65784 3.46101
# Velocity P-wave (km/s) = 7.35318 7.74831 7.55333
#
# Compressibility (1/GPa) = 0.01507551
#
# Stress axis : x y z
#
# Youngs Moduli (GPa) = 58.76956 34.19548 58.60511
#
# Poissons Ratio (x) = 0.29343 0.22357
# Poissons Ratio (y) = 0.50430 0.68730
# Poissons Ratio (z) = 0.22420 0.40103
#
# Static dielectric constant tensor:
#      x y z
#    x 1.540380 0.000000 0.000000 
#    y 0.000000 1.558750 0.000000 
#    z 0.000000 0.000000 1.558240 
# 
# From -- ./inp_files/18618.got.cif
#   From: 2010.05.17/outbox.cif.g08.bks.cpg/sg51_10_cif.got.tgz:18618.got - 2010.06.03 11:52:47.
