data_PCOD9401269
_publ_section_title
;
Structure prediction by ZEFSAII (Michael W. Deem and Ramdas Pophale) SiO2 
 PCOD9401269
Probable space group: P M M A
;
_chemical_formula_sum "Si O2"
_cell_formula_units_Z 52
_cell_length_a 8.605124
_cell_length_b 24.139696
_cell_length_c 14.806704
_cell_angle_alpha 90.000000
_cell_angle_beta 90.000000
_cell_angle_gamma 90.000000
_cell_volume 3075.723734
_symmetry_space_group_name_H-M "P M M A"
_symmetry_group_IT_number 51
_symmetry_cell_setting 'orthorhombic'
loop_
_space_group_symop_operation_xyz
x,y,z
1/2-x,-y,z
1/2+x,-y,-z
-x,y,-z
-x,-y,-z
1/2+x,y,-z
1/2-x,y,z
x,-y,z
loop_
_atom_site_type_symbol
_atom_site_label
_atom_site_fract_x
_atom_site_fract_y
_atom_site_fract_z
Si Si1 0.936709 0.104732 0.404223
Si Si2 0.438029 0.938045 0.789930
Si Si3 0.564172 0.234041 0.403689
Si Si4 0.561896 0.621275 0.897786
Si Si5 0.936162 0.833933 0.899067
Si Si6 0.437251 0.500000 0.102054
Si Si7 0.937793 0.272987 0.782545
O O1 0.750000 0.103117 0.408280
O O2 0.985925 0.072823 0.314137
O O3 0.985257 0.169274 0.393821
O O4 0.000000 0.083962 0.500000
O O5 0.250000 0.934549 0.792945
O O6 0.505689 0.889975 0.852000
O O7 0.484124 0.000000 0.817692
O O8 0.500000 0.253629 0.500000
O O9 0.750000 0.235304 0.404599
O O10 0.501346 0.267174 0.318217
O O11 0.750000 0.622742 0.902123
O O12 0.514238 0.560238 0.861135
O O13 0.510517 0.671786 0.834845
O O14 0.500000 0.627663 0.000000
O O15 0.750000 0.833953 0.901772
O O16 0.987564 0.781189 0.839346
O O17 0.000000 0.829294 0.000000
O O18 0.250000 0.500000 0.101061
O O19 0.500000 0.500000 0.000000
O O20 0.750000 0.273085 0.779209
#
# Coordination Sequence:
#
# PCOD9401269 Si02
#       7
#     8   8   8   8   8   4   8
#     4   9  18  32  51  75  99 124 153 190 238 291
#     4  10  21  38  56  73  96 126 162 202 244 293
#     4  10  19  32  52  75 101 130 160 198 244 295
#     4   9  17  29  46  71 103 137 172 206 242 286
#     4  11  23  37  54  73  97 127 162 203 247 291
#     4   8  14  26  44  66  97 136 171 204 241 282
#     4  10  20  33  50  75 103 131 164 203 244 290
#
# _framework density 16.906590000000001
#
# number of rings (size 3 to 8) (size 9 to 14) (size 15 to 20)
#    0.000    2.308    1.538    1.385    0.000    3.385 
#    0.000    0.000    0.000    0.000    0.000    0.538 
#    0.000    0.000    0.000    0.000    0.000    0.000 
#
# Total GULP energy -290027.557222 kJ/mol
# GULP energy per Si atom -5577.453024 kJ/mol
# Density = 1.686811 g / cm^3
# Si number density = 16.906590 Si / 1000 Ang^3
#
#
#
# Elastic Constant Matrix: (Units=GPa)
#
#
# Indices 1 2 3 4 5 6 
#
# 1 11.5775 27.4623 23.7167 0.0000 0.0000 0.0000
# 2 27.4623 144.5081 74.6340 0.0000 0.0000 0.0000
# 3 23.7167 74.6340 124.0426 0.0000 0.0000 0.0000
# 4 0.0000 0.0000 0.0000 20.6552 0.0000 0.0000
# 5 0.0000 0.0000 0.0000 0.0000 30.3304 0.0000
# 6 0.0000 0.0000 0.0000 0.0000 0.0000 12.6287
#
#
#
# Elastic Compliance Matrix: (Units=1/GPa)
#
#
# Indices 1 2 3 4 5 6 
#
# 1 0.188837 -0.025012 -0.021056 0.000000 0.000000 0.000000
# 2 -0.025012 0.013353 -0.003252 0.000000 0.000000 0.000000
# 3 -0.021056 -0.003252 0.014044 0.000000 0.000000 0.000000
# 4 0.000000 0.000000 0.000000 0.048414 0.000000 0.000000
# 5 0.000000 0.000000 0.000000 0.000000 0.032970 0.000000
# 6 0.000000 0.000000 0.000000 0.000000 0.000000 0.079185
#
#
# Mechanical properties :
#
#
# Convention : Reuss Voigt Hill
#
# Bulk Modulus (GPa) = 8.50380 59.08380 33.79380
# Shear Modulus (GPa) = 9.71551 23.01052 16.36301
#
# Velocity S-wave (km/s) = 2.39980 3.69323 3.11440
# Velocity P-wave (km/s) = 3.56645 7.29449 5.74148
#
# Compressibility (1/GPa) = 0.11759445
#
# Stress axis : x y z
#
# Youngs Moduli (GPa) = 5.29557 74.89095 71.20339
#
# Poissons Ratio (x) = 1.87314 1.49927
# Poissons Ratio (y) = 0.13245 0.23155
# Poissons Ratio (z) = 0.11150 0.24354
#
# Static dielectric constant tensor:
#      x y z
#    x 1.595310 0.000000 0.000000 
#    y 0.000000 1.594400 0.000000 
#    z 0.000000 0.000000 1.542150 
# 
# From -- ./inp_files/21572.got.cif
#   From: 2010.05.17/outbox.cif.g08.bks.cpg/sg51_11_cif.got.tgz:21572.got - 2010.06.03 11:52:47.
