data_PCOD9401619
_publ_section_title
;
Structure prediction by ZEFSAII (Michael W. Deem and Ramdas Pophale) SiO2 
 PCOD9401619
Probable space group: P M M A
;
_chemical_formula_sum "Si O2"
_cell_formula_units_Z 56
_cell_length_a 20.372205
_cell_length_b 7.568123
_cell_length_c 17.984418
_cell_angle_alpha 90.000000
_cell_angle_beta 90.000000
_cell_angle_gamma 90.000000
_cell_volume 2772.825935
_symmetry_space_group_name_H-M "P M M A"
_symmetry_group_IT_number 51
_symmetry_cell_setting 'orthorhombic'
loop_
_space_group_symop_operation_xyz
x,y,z
1/2-x,-y,z
1/2+x,-y,-z
-x,y,-z
-x,-y,-z
1/2+x,y,-z
1/2-x,y,z
x,-y,z
loop_
_atom_site_type_symbol
_atom_site_label
_atom_site_fract_x
_atom_site_fract_y
_atom_site_fract_z
Si Si1 0.095215 0.287244 0.047828
Si Si2 0.177496 0.791438 0.184281
Si Si3 0.452822 0.716049 0.891964
Si Si4 0.580001 0.785647 0.688984
Si Si5 0.675574 0.713017 0.388616
Si Si6 0.431965 0.291444 0.726449
Si Si7 0.675720 0.789107 0.559649
O O1 0.094668 0.500000 0.047526
O O2 0.154546 0.229741 0.099617
O O3 0.027065 0.229294 0.086998
O O4 0.091822 0.229475 0.962033
O O5 0.250000 0.716408 0.197297
O O6 0.121197 0.721794 0.239146
O O7 0.181180 0.000000 0.200198
O O8 0.453227 0.500000 0.890494
O O9 0.432818 0.780734 0.810651
O O10 0.505021 0.727273 0.693797
O O11 0.621128 0.724438 0.617201
O O12 0.578243 0.000000 0.689194
O O13 0.750000 0.776926 0.374953
O O14 0.676731 0.500000 0.383897
O O15 0.622664 0.781386 0.329620
O O16 0.658469 0.756404 0.473862
O O17 0.418347 0.500000 0.733594
O O18 0.750000 0.719590 0.572957
O O19 0.679167 0.000000 0.570500
#
# Coordination Sequence:
#
# PCOD9401619 Si02
#       7
#     8   8   8   8   8   8   8
#     4   9  16  30  51  72  95 127 167 204 239 286
#     4  10  20  33  48  70 104 138 165 202 251 295
#     4   8  15  29  50  73  98 125 157 202 247 285
#     4  10  20  33  50  74 101 130 168 206 242 292
#     4   9  19  35  53  73  97 126 162 204 250 299
#     4  10  19  33  53  75 101 131 162 202 251 297
#     4   9  18  34  54  72  95 132 171 203 241 291
#
# _framework density 20.196005
#
# number of rings (size 3 to 8) (size 9 to 14) (size 15 to 20)
#    0.000    2.714    1.429    1.286    0.000    3.714 
#    0.000    5.714    0.000    5.143    0.000    2.000 
#    0.000    0.000    0.000    0.000    0.000    0.000 
#
# Total GULP energy -312405.969347 kJ/mol
# GULP energy per Si atom -5578.678024 kJ/mol
# Density = 2.015004 g / cm^3
# Si number density = 20.196005 Si / 1000 Ang^3
#
#
#
# Elastic Constant Matrix: (Units=GPa)
#
#
# Indices 1 2 3 4 5 6 
#
# 1 103.5224 -6.9566 84.8472 0.0000 0.0000 0.0000
# 2 -6.9566 42.5523 -5.7142 0.0000 0.0000 0.0000
# 3 84.8472 -5.7142 158.9624 0.0000 0.0000 0.0000
# 4 0.0000 0.0000 0.0000 17.2177 0.0000 0.0000
# 5 0.0000 0.0000 0.0000 0.0000 14.6645 0.0000
# 6 0.0000 0.0000 0.0000 0.0000 0.0000 17.1299
#
#
#
# Elastic Compliance Matrix: (Units=1/GPa)
#
#
# Indices 1 2 3 4 5 6 
#
# 1 0.017279 0.001594 -0.009165 0.000000 0.000000 0.000000
# 2 0.001594 0.023762 0.000003 0.000000 0.000000 0.000000
# 3 -0.009165 0.000003 0.011183 0.000000 0.000000 0.000000
# 4 0.000000 0.000000 0.000000 0.058080 0.000000 0.000000
# 5 0.000000 0.000000 0.000000 0.000000 0.068192 0.000000
# 6 0.000000 0.000000 0.000000 0.000000 0.000000 0.058378
#
#
# Mechanical properties :
#
#
# Convention : Reuss Voigt Hill
#
# Bulk Modulus (GPa) = 26.96341 49.93221 38.44781
# Shear Modulus (GPa) = 18.91281 25.32646 22.11963
#
# Velocity S-wave (km/s) = 3.06349 3.54507 3.31304
# Velocity P-wave (km/s) = 5.08853 6.44470 5.80635
#
# Compressibility (1/GPa) = 0.03708730
#
# Stress axis : x y z
#
# Youngs Moduli (GPa) = 57.87433 42.08480 89.42150
#
# Poissons Ratio (x) = -0.06708 0.81958
# Poissons Ratio (y) = -0.09225 -0.00030
# Poissons Ratio (z) = 0.53044 -0.00014
#
# Static dielectric constant tensor:
#      x y z
#    x 1.693570 0.000000 0.000000 
#    y 0.000000 1.779120 0.000000 
#    z 0.000000 0.000000 1.718630 
# 
# From -- ./inp_files/30764.got.cif
#   From: 2010.05.17/outbox.cif.g08.bks.cpg/sg51_16_cif.got.tgz:30764.got - 2010.06.03 11:52:47.
