data_PCOD9401182
_publ_section_title
;
Structure prediction by ZEFSAII (Michael W. Deem and Ramdas Pophale) SiO2 
 PCOD9401182
Probable space group: P M M A
;
_chemical_formula_sum "Si O2"
_cell_formula_units_Z 48
_cell_length_a 7.444912
_cell_length_b 14.696015
_cell_length_c 19.355005
_cell_angle_alpha 90.000000
_cell_angle_beta 90.000000
_cell_angle_gamma 90.000000
_cell_volume 2117.641518
_symmetry_space_group_name_H-M "P M M A"
_symmetry_group_IT_number 51
_symmetry_cell_setting 'orthorhombic'
loop_
_space_group_symop_operation_xyz
x,y,z
1/2-x,-y,z
1/2+x,-y,-z
-x,y,-z
-x,-y,-z
1/2+x,y,-z
1/2-x,y,z
x,-y,z
loop_
_atom_site_type_symbol
_atom_site_label
_atom_site_fract_x
_atom_site_fract_y
_atom_site_fract_z
Si Si1 0.034349 0.395794 0.921965
Si Si2 0.035205 0.597462 0.582430
Si Si3 0.450273 0.251408 0.817001
Si Si4 0.464659 0.203360 0.580909
Si Si5 0.036814 0.100527 0.080903
Si Si6 0.530093 0.101563 0.288279
O O1 0.250000 0.396365 0.914879
O O2 0.968907 0.500000 0.920393
O O3 0.964775 0.336990 0.857099
O O4 0.000000 0.359484 0.000000
O O5 0.250000 0.597182 0.593303
O O6 0.966013 0.500000 0.609986
O O7 0.965512 0.696535 0.604070
O O8 0.000000 0.596359 0.500000
O O9 0.250000 0.278515 0.792390
O O10 0.438923 0.179018 0.879000
O O11 0.532750 0.187228 0.757834
O O12 0.500000 0.188532 0.500000
O O13 0.250000 0.208038 0.587354
O O14 0.523372 0.125558 0.633376
O O15 0.250000 0.109089 0.092445
O O16 0.978707 0.000000 0.104064
O O17 0.000000 0.106532 0.000000
O O18 0.750000 0.101014 0.282948
O O19 0.469595 0.000000 0.268531
#
# Coordination Sequence:
#
# PCOD9401182 Si02
#       6
#     8   8   8   8   8   8
#     4   9  18  32  50  74 102 130 162 200 240 282
#     4   8  13  22  38  61  87 112 139 175 221 272
#     4  10  19  32  51  71  94 128 166 201 240 289
#     4   9  17  30  48  69  92 120 157 199 244 295
#     4  10  20  32  47  70  99 128 159 197 238 279
#     4   9  18  32  49  69  94 125 160 199 247 300
#
# _framework density 22.666727999999999
#
# number of rings (size 3 to 8) (size 9 to 14) (size 15 to 20)
#    0.000    2.833    0.000    1.500    0.000    4.000 
#    0.000    1.667    0.000    6.000    0.000    0.000 
#    0.000    8.000    0.000    0.000    0.000    0.000 
#
# Total GULP energy -267511.568385 kJ/mol
# GULP energy per Si atom -5573.157675 kJ/mol
# Density = 2.261514 g / cm^3
# Si number density = 22.666728 Si / 1000 Ang^3
#
#
#
# Elastic Constant Matrix: (Units=GPa)
#
#
# Indices 1 2 3 4 5 6 
#
# 1 76.5281 1.8571 -6.2247 0.0000 0.0000 0.0000
# 2 1.8571 100.4557 61.9107 0.0000 0.0000 0.0000
# 3 -6.2247 61.9107 100.4778 0.0000 0.0000 0.0000
# 4 0.0000 0.0000 0.0000 45.1932 0.0000 0.0000
# 5 0.0000 0.0000 0.0000 0.0000 9.7834 0.0000
# 6 0.0000 0.0000 0.0000 0.0000 0.0000 5.0835
#
#
#
# Elastic Compliance Matrix: (Units=1/GPa)
#
#
# Indices 1 2 3 4 5 6 
#
# 1 0.013224 -0.001208 0.001564 0.000000 0.000000 0.000000
# 2 -0.001208 0.016160 -0.010032 0.000000 0.000000 0.000000
# 3 0.001564 -0.010032 0.016231 0.000000 0.000000 0.000000
# 4 0.000000 0.000000 0.000000 0.022127 0.000000 0.000000
# 5 0.000000 0.000000 0.000000 0.000000 0.102214 0.000000
# 6 0.000000 0.000000 0.000000 0.000000 0.000000 0.196715
#
#
# Mechanical properties :
#
#
# Convention : Reuss Voigt Hill
#
# Bulk Modulus (GPa) = 38.07911 43.61644 40.84778
# Shear Modulus (GPa) = 12.66540 26.67323 19.66931
#
# Velocity S-wave (km/s) = 2.36639 3.43411 2.94898
# Velocity P-wave (km/s) = 4.92975 5.91679 5.44568
#
# Compressibility (1/GPa) = 0.02626112
#
# Stress axis : x y z
#
# Youngs Moduli (GPa) = 75.62239 61.88300 61.61231
#
# Poissons Ratio (x) = 0.07476 -0.09634
# Poissons Ratio (y) = 0.09136 0.61808
# Poissons Ratio (z) = -0.11824 0.62080
#
# Static dielectric constant tensor:
#      x y z
#    x 1.926750 0.000000 0.000000 
#    y 0.000000 1.885820 0.000000 
#    z 0.000000 0.000000 1.811010 
# 
# From -- ./inp_files/27531.got.cif
#   From: 2010.05.17/outbox.cif.g08.bks.cpg/sg51_14_cif.got.tgz:27531.got - 2010.06.03 11:52:47.
