data_PCOD9401386
_publ_section_title
;
Structure prediction by ZEFSAII (Michael W. Deem and Ramdas Pophale) SiO2 
 PCOD9401386
Probable space group: P M M A
;
_chemical_formula_sum "Si O2"
_cell_formula_units_Z 64
_cell_length_a 9.056460
_cell_length_b 14.395762
_cell_length_c 31.971140
_cell_angle_alpha 90.000000
_cell_angle_beta 90.000000
_cell_angle_gamma 90.000000
_cell_volume 4168.225955
_symmetry_space_group_name_H-M "P M M A"
_symmetry_group_IT_number 51
_symmetry_cell_setting 'orthorhombic'
loop_
_space_group_symop_operation_xyz
x,y,z
1/2-x,-y,z
1/2+x,-y,-z
-x,y,-z
-x,-y,-z
1/2+x,y,-z
1/2-x,y,z
x,-y,z
loop_
_atom_site_type_symbol
_atom_site_label
_atom_site_fract_x
_atom_site_fract_y
_atom_site_fract_z
Si Si1 0.076498 0.893167 0.165033
Si Si2 0.920107 0.386966 0.627492
Si Si3 0.574187 0.711873 0.957834
Si Si4 0.427462 0.391633 0.713636
Si Si5 0.424542 0.610111 0.880612
Si Si6 0.573053 0.276719 0.204174
Si Si7 0.079712 0.613224 0.542587
Si Si8 0.574084 0.893126 0.074516
O O1 0.250000 0.876137 0.156284
O O2 0.013079 0.818777 0.197200
O O3 0.983820 0.883490 0.122138
O O4 0.061228 0.000000 0.179050
O O5 0.750000 0.358385 0.627510
O O6 0.924365 0.500000 0.626944
O O7 0.000099 0.359285 0.670338
O O8 0.000070 0.355774 0.585072
O O9 0.750000 0.711609 0.961016
O O10 0.519298 0.654818 0.917570
O O11 0.512917 0.816318 0.951403
O O12 0.500000 0.673612 0.000000
O O13 0.250000 0.388499 0.709379
O O14 0.467996 0.500000 0.720696
O O15 0.469109 0.330619 0.753677
O O16 0.250000 0.625957 0.889531
O O17 0.448550 0.500000 0.877518
O O18 0.457274 0.659433 0.836479
O O19 0.750000 0.260414 0.205111
O O20 0.250000 0.641219 0.542511
O O21 0.075804 0.500000 0.542661
O O22 0.000000 0.643407 0.500000
O O23 0.750000 0.876128 0.072826
O O24 0.546276 0.000000 0.061615
#
# Coordination Sequence:
#
# PCOD9401386 Si02
#       8
#     8   8   8   8   8   8   8   8
#     4  10  20  33  51  76 103 128 152 182 223 269
#     4   9  16  25  36  52  77 110 148 191 236 278
#     4  12  25  40  58  78 102 129 157 189 226 271
#     4   9  17  29  44  64  90 121 156 192 232 276
#     4  10  21  38  58  78 100 126 157 194 232 270
#     4  10  19  32  53  76  98 124 155 190 229 273
#     4   9  15  22  33  49  70 100 141 190 239 284
#     4  10  20  36  58  81 104 128 153 183 222 269
#
# _framework density 15.354255
#
# number of rings (size 3 to 8) (size 9 to 14) (size 15 to 20)
#    0.000    2.125    1.250    3.000    0.000    7.250 
#    0.000    0.000    0.000    2.250    0.000    0.000 
#    0.000    0.000    0.000    0.000    0.000    0.625 
#
# Total GULP energy -357090.656674 kJ/mol
# GULP energy per Si atom -5579.541511 kJ/mol
# Density = 1.531931 g / cm^3
# Si number density = 15.354255 Si / 1000 Ang^3
#
#
#
# Elastic Constant Matrix: (Units=GPa)
#
#
# Indices 1 2 3 4 5 6 
#
# 1 87.3262 35.1842 64.2429 0.0000 0.0000 0.0000
# 2 35.1842 49.6632 35.7487 0.0000 0.0000 0.0000
# 3 64.2429 35.7487 128.8072 0.0000 0.0000 0.0000
# 4 0.0000 0.0000 0.0000 4.4273 0.0000 0.0000
# 5 0.0000 0.0000 0.0000 0.0000 26.7830 0.0000
# 6 0.0000 0.0000 0.0000 0.0000 0.0000 17.6482
#
#
#
# Elastic Compliance Matrix: (Units=1/GPa)
#
#
# Indices 1 2 3 4 5 6 
#
# 1 0.020961 -0.009154 -0.007914 0.000000 0.000000 0.000000
# 2 -0.009154 0.029160 -0.003528 0.000000 0.000000 0.000000
# 3 -0.007914 -0.003528 0.012690 0.000000 0.000000 0.000000
# 4 0.000000 0.000000 0.000000 0.225873 0.000000 0.000000
# 5 0.000000 0.000000 0.000000 0.000000 0.037337 0.000000
# 6 0.000000 0.000000 0.000000 0.000000 0.000000 0.056663
#
#
# Mechanical properties :
#
#
# Convention : Reuss Voigt Hill
#
# Bulk Modulus (GPa) = 46.25231 59.57202 52.91217
# Shear Modulus (GPa) = 11.59875 18.47975 15.03925
#
# Velocity S-wave (km/s) = 2.75145 3.47300 3.13307
# Velocity P-wave (km/s) = 6.34688 7.41383 6.90100
#
# Compressibility (1/GPa) = 0.02162054
#
# Stress axis : x y z
#
# Youngs Moduli (GPa) = 47.70651 34.29384 78.80369
#
# Poissons Ratio (x) = 0.31391 0.62366
# Poissons Ratio (y) = 0.43668 0.27798
# Poissons Ratio (z) = 0.37756 0.12097
#
# Static dielectric constant tensor:
#      x y z
#    x 1.514180 0.000000 0.000000 
#    y 0.000000 1.499870 0.000000 
#    z 0.000000 0.000000 1.504020 
# 
# From -- ./inp_files/37659.got.cif
#   From: 2010.05.17/outbox.cif.g08.bks.cpg/sg51_19_cif.got.tgz:37659.got - 2010.06.03 11:52:47.
