data_PCOD9401056
_publ_section_title
;
Structure prediction by ZEFSAII (Michael W. Deem and Ramdas Pophale) SiO2 
 PCOD9401056
Probable space group: P M M A
;
_chemical_formula_sum "Si O2"
_cell_formula_units_Z 52
_cell_length_a 8.565917
_cell_length_b 27.459931
_cell_length_c 14.107717
_cell_angle_alpha 90.000000
_cell_angle_beta 90.000000
_cell_angle_gamma 90.000000
_cell_volume 3318.409995
_symmetry_space_group_name_H-M "P M M A"
_symmetry_group_IT_number 51
_symmetry_cell_setting 'orthorhombic'
loop_
_space_group_symop_operation_xyz
x,y,z
1/2-x,-y,z
1/2+x,-y,-z
-x,y,-z
-x,-y,-z
1/2+x,y,-z
1/2-x,y,z
x,-y,z
loop_
_atom_site_type_symbol
_atom_site_label
_atom_site_fract_x
_atom_site_fract_y
_atom_site_fract_z
Si Si1 0.064166 0.352585 0.787421
Si Si2 0.939384 0.106491 0.607769
Si Si3 0.438151 0.000000 0.392559
Si Si4 0.562711 0.301838 0.604574
Si Si5 0.562533 0.259011 0.895617
Si Si6 0.060374 0.796442 0.289767
Si Si7 0.937034 0.556041 0.894405
O O1 0.250000 0.350201 0.788910
O O2 0.001965 0.338596 0.683497
O O3 0.997264 0.311168 0.857993
O O4 0.006823 0.404821 0.822903
O O5 0.750000 0.107780 0.604496
O O6 0.994521 0.151750 0.671086
O O7 0.000000 0.111620 0.500000
O O8 0.987284 0.052899 0.646267
O O9 0.500000 0.000000 0.500000
O O10 0.250000 0.000000 0.393260
O O11 0.500000 0.311100 0.500000
O O12 0.750000 0.303787 0.605418
O O13 0.514509 0.247695 0.640245
O O14 0.750000 0.260336 0.897118
O O15 0.511774 0.219890 0.815617
O O16 0.500000 0.248825 0.000000
O O17 0.250000 0.797676 0.289254
O O18 0.750000 0.559969 0.895134
O O19 0.979364 0.500000 0.871706
O O20 0.000000 0.566451 0.000000
#
# Coordination Sequence:
#
# PCOD9401056 Si02
#       7
#     8   8   4   8   8   8   8
#     4  11  21  33  50  71  95 124 154 185 222 267
#     4   9  15  25  39  59  85 114 144 177 217 260
#     4   8  14  22  36  56  81 110 142 176 213 260
#     4  10  19  32  48  68  93 122 155 190 226 266
#     4  10  19  32  47  65  89 117 148 185 226 270
#     4   8  16  28  43  62  87 116 147 183 222 264
#     4  10  20  34  52  74  99 125 153 187 226 268
#
# _framework density 15.670154999999999
#
# number of rings (size 3 to 8) (size 9 to 14) (size 15 to 20)
#    0.000    2.462    0.000    4.615    0.000    0.923 
#    0.000    3.846    0.000    0.462    0.000    0.538 
#    0.000    0.000    0.000    0.000    0.000    0.000 
#
# Total GULP energy -289865.306738 kJ/mol
# GULP energy per Si atom -5574.332822 kJ/mol
# Density = 1.563449 g / cm^3
# Si number density = 15.670155 Si / 1000 Ang^3
#
#
#
# Elastic Constant Matrix: (Units=GPa)
#
#
# Indices 1 2 3 4 5 6 
#
# 1 52.7530 37.3590 33.1457 0.0000 0.0000 0.0000
# 2 37.3590 141.3067 83.3563 0.0000 0.0000 0.0000
# 3 33.1457 83.3563 119.8314 0.0000 0.0000 0.0000
# 4 0.0000 0.0000 0.0000 15.1361 0.0000 0.0000
# 5 0.0000 0.0000 0.0000 0.0000 23.9014 0.0000
# 6 0.0000 0.0000 0.0000 0.0000 0.0000 13.8826
#
#
#
# Elastic Compliance Matrix: (Units=1/GPa)
#
#
# Indices 1 2 3 4 5 6 
#
# 1 0.024313 -0.004173 -0.003822 0.000000 0.000000 0.000000
# 2 -0.004173 0.012718 -0.007692 0.000000 0.000000 0.000000
# 3 -0.003822 -0.007692 0.014753 0.000000 0.000000 0.000000
# 4 0.000000 0.000000 0.000000 0.066067 0.000000 0.000000
# 5 0.000000 0.000000 0.000000 0.000000 0.041839 0.000000
# 6 0.000000 0.000000 0.000000 0.000000 0.000000 0.072033
#
#
# Mechanical properties :
#
#
# Convention : Reuss Voigt Hill
#
# Bulk Modulus (GPa) = 48.99867 69.06811 59.03339
# Shear Modulus (GPa) = 18.52529 21.25269 19.88899
#
# Velocity S-wave (km/s) = 3.44205 3.68673 3.56649
# Velocity P-wave (km/s) = 6.86539 7.89269 7.39689
#
# Compressibility (1/GPa) = 0.02040872
#
# Stress axis : x y z
#
# Youngs Moduli (GPa) = 41.12979 78.62960 67.78218
#
# Poissons Ratio (x) = 0.32815 0.25907
# Poissons Ratio (y) = 0.17165 0.52140
# Poissons Ratio (z) = 0.15720 0.60485
#
# Static dielectric constant tensor:
#      x y z
#    x 1.532800 0.000000 0.000000 
#    y 0.000000 1.543120 0.000000 
#    z 0.000000 0.000000 1.495280 
# 
# From -- ./inp_files/14735.got.cif
#   From: 2010.05.17/outbox.cif.g08.bks.cpg/sg51_8_cif.got.tgz:14735.got - 2010.06.03 11:52:47.
