data_PCOD9401802
_publ_section_title
;
Structure prediction by ZEFSAII (Michael W. Deem and Ramdas Pophale) SiO2 
 PCOD9401802
Probable space group: P M M A
;
_chemical_formula_sum "Si O2"
_cell_formula_units_Z 56
_cell_length_a 14.716341
_cell_length_b 8.309149
_cell_length_c 23.350409
_cell_angle_alpha 90.000000
_cell_angle_beta 90.000000
_cell_angle_gamma 90.000000
_cell_volume 2855.294320
_symmetry_space_group_name_H-M "P M M A"
_symmetry_group_IT_number 51
_symmetry_cell_setting 'orthorhombic'
loop_
_space_group_symop_operation_xyz
x,y,z
1/2-x,-y,z
1/2+x,-y,-z
-x,y,-z
-x,-y,-z
1/2+x,y,-z
1/2-x,y,z
x,-y,z
loop_
_atom_site_type_symbol
_atom_site_label
_atom_site_fract_x
_atom_site_fract_y
_atom_site_fract_z
Si Si1 0.152445 0.309394 0.408824
Si Si2 0.406025 0.191502 0.524431
Si Si3 0.537390 0.806690 0.916328
Si Si4 0.966096 0.307668 0.693949
Si Si5 0.354763 0.194176 0.196473
Si Si6 0.851604 0.805254 0.349016
Si Si7 0.644408 0.307024 0.029228
O O1 0.250000 0.289493 0.379133
O O2 0.138993 0.500000 0.418506
O O3 0.155553 0.225194 0.469874
O O4 0.076016 0.245360 0.366202
O O5 0.500000 0.262308 0.500000
O O6 0.373299 0.252941 0.585842
O O7 0.416353 0.000000 0.531535
O O8 0.585860 0.750777 0.858041
O O9 0.433727 0.747602 0.925849
O O10 0.534920 0.000000 0.917127
O O11 0.601320 0.751114 0.968982
O O12 0.959605 0.500000 0.693120
O O13 0.906715 0.244425 0.746149
O O14 0.070474 0.255504 0.693049
O O15 0.250000 0.252046 0.194714
O O16 0.351879 0.000000 0.194334
O O17 0.750000 0.753650 0.333723
O O18 0.853433 0.000000 0.349501
O O19 0.750000 0.251477 0.036908
O O20 0.646020 0.500000 0.029278
#
# Coordination Sequence:
#
# PCOD9401802 Si02
#       7
#     8   8   8   8   8   8   8
#     4  10  21  35  51  75 107 139 171 212 266 327
#     4  10  19  33  55  80 105 134 172 219 269 325
#     4  10  20  35  58  87 118 153 195 240 282 329
#     4  11  23  38  57  80 109 142 182 228 275 330
#     4  10  22  40  61  85 113 147 188 232 279 331
#     4  10  21  38  58  79 106 141 182 227 276 333
#     4  10  20  34  55  86 124 162 196 232 278 331
#
# _framework density 19.612687999999999
#
# number of rings (size 3 to 8) (size 9 to 14) (size 15 to 20)
#    0.000    1.857    1.429    3.429    0.000    6.286 
#    0.000    0.714    0.000    0.857    0.000    0.000 
#    0.000    0.000    0.000    0.000    0.000    0.000 
#
# Total GULP energy -312375.572960 kJ/mol
# GULP energy per Si atom -5578.135231 kJ/mol
# Density = 1.956805 g / cm^3
# Si number density = 19.612688 Si / 1000 Ang^3
#
#
#
# Elastic Constant Matrix: (Units=GPa)
#
#
# Indices 1 2 3 4 5 6 
#
# 1 186.6219 17.8482 60.4353 0.0000 0.0000 0.0000
# 2 17.8482 16.4714 3.6696 0.0000 0.0000 0.0000
# 3 60.4353 3.6696 89.3382 0.0000 0.0000 0.0000
# 4 0.0000 0.0000 0.0000 45.4271 0.0000 0.0000
# 5 0.0000 0.0000 0.0000 0.0000 27.2805 0.0000
# 6 0.0000 0.0000 0.0000 0.0000 0.0000 26.8033
#
#
#
# Elastic Compliance Matrix: (Units=1/GPa)
#
#
# Indices 1 2 3 4 5 6 
#
# 1 0.007618 -0.007172 -0.004859 0.000000 0.000000 0.000000
# 2 -0.007172 0.068025 0.002058 0.000000 0.000000 0.000000
# 3 -0.004859 0.002058 0.014396 0.000000 0.000000 0.000000
# 4 0.000000 0.000000 0.000000 0.022013 0.000000 0.000000
# 5 0.000000 0.000000 0.000000 0.000000 0.036656 0.000000
# 6 0.000000 0.000000 0.000000 0.000000 0.000000 0.037309
#
#
# Mechanical properties :
#
#
# Convention : Reuss Voigt Hill
#
# Bulk Modulus (GPa) = 14.26702 50.70420 32.48561
# Shear Modulus (GPa) = 21.80299 33.93408 27.86853
#
# Velocity S-wave (km/s) = 3.33780 4.16409 3.77363
# Velocity P-wave (km/s) = 4.70582 7.00203 5.96545
#
# Compressibility (1/GPa) = 0.07009170
#
# Stress axis : x y z
#
# Youngs Moduli (GPa) = 131.27209 14.70058 69.46536
#
# Poissons Ratio (x) = 0.10543 0.33751
# Poissons Ratio (y) = 0.94149 -0.14293
# Poissons Ratio (z) = 0.63781 -0.03025
#
# Static dielectric constant tensor:
#      x y z
#    x 1.790450 0.000000 0.000000 
#    y 0.000000 1.681200 0.000000 
#    z 0.000000 0.000000 1.676790 
# 
# From -- ./inp_files/33470.got.cif
#   From: 2010.05.17/outbox.cif.g08.bks.cpg/sg51_17_cif.got.tgz:33470.got - 2010.06.03 11:52:47.
