data_PCOD9401473
_publ_section_title
;
Structure prediction by ZEFSAII (Michael W. Deem and Ramdas Pophale) SiO2 
 PCOD9401473
Probable space group: P M M A
;
_chemical_formula_sum "Si O2"
_cell_formula_units_Z 64
_cell_length_a 15.216098
_cell_length_b 8.022861
_cell_length_c 24.863114
_cell_angle_alpha 90.000000
_cell_angle_beta 90.000000
_cell_angle_gamma 90.000000
_cell_volume 3035.205398
_symmetry_space_group_name_H-M "P M M A"
_symmetry_group_IT_number 51
_symmetry_cell_setting 'orthorhombic'
loop_
_space_group_symop_operation_xyz
x,y,z
1/2-x,-y,z
1/2+x,-y,-z
-x,y,-z
-x,-y,-z
1/2+x,y,-z
1/2-x,y,z
x,-y,z
loop_
_atom_site_type_symbol
_atom_site_label
_atom_site_fract_x
_atom_site_fract_y
_atom_site_fract_z
Si Si1 0.150656 0.798668 0.972327
Si Si2 0.846945 0.197867 0.640012
Si Si3 0.849446 0.803112 0.224331
Si Si4 0.848029 0.201162 0.902856
Si Si5 0.028580 0.204770 0.679228
Si Si6 0.462695 0.693323 0.874101
Si Si7 0.908790 0.305468 0.523881
Si Si8 0.844740 0.199104 0.414703
O O1 0.250000 0.751752 0.954561
O O2 0.076818 0.730029 0.933060
O O3 0.145384 0.000000 0.971013
O O4 0.141484 0.746846 0.034516
O O5 0.750000 0.270162 0.649384
O O6 0.873205 0.221188 0.577481
O O7 0.928129 0.263100 0.675402
O O8 0.842255 0.000000 0.649888
O O9 0.750000 0.733947 0.223025
O O10 0.913158 0.735147 0.270991
O O11 0.900324 0.785110 0.168285
O O12 0.841214 0.000000 0.235424
O O13 0.750000 0.256425 0.884908
O O14 0.934875 0.257697 0.871927
O O15 0.847558 0.000000 0.902141
O O16 0.077889 0.255006 0.624386
O O17 0.027665 0.000000 0.680049
O O18 0.454669 0.500000 0.862427
O O19 0.921507 0.500000 0.536573
O O20 0.847163 0.284293 0.472410
O O21 0.000000 0.234292 0.500000
O O22 0.750000 0.228162 0.387966
O O23 0.853224 0.000000 0.422955
#
# Coordination Sequence:
#
# PCOD9401473 Si02
#       8
#     8   8   8   8   8   8   8   8
#     4   9  18  34  57  84 114 150 193 238 280 327
#     4  10  20  35  57  82 107 138 175 217 270 327
#     4  10  21  39  62  83 105 140 186 233 281 332
#     4   9  19  37  60  84 111 148 194 238 278 324
#     4   9  18  35  58  81 104 130 172 231 279 316
#     4  12  24  35  52  82 119 155 187 227 282 339
#     4  11  22  34  49  74 109 147 180 210 251 311
#     4  10  19  32  54  80 103 132 170 214 269 321
#
# _framework density 21.085888000000001
#
# number of rings (size 3 to 8) (size 9 to 14) (size 15 to 20)
#    0.000    2.000    1.250    3.750    0.000    8.250 
#    0.000    3.125    0.000    3.750    0.000    0.000 
#    0.000    0.000    0.000    0.000    0.000    0.000 
#
# Total GULP energy -357267.567891 kJ/mol
# GULP energy per Si atom -5582.305748 kJ/mol
# Density = 2.103790 g / cm^3
# Si number density = 21.085888 Si / 1000 Ang^3
#
#
#
# Elastic Constant Matrix: (Units=GPa)
#
#
# Indices 1 2 3 4 5 6 
#
# 1 198.6313 10.4967 46.6016 0.0000 0.0000 0.0000
# 2 10.4967 14.2264 -4.8448 0.0000 0.0000 0.0000
# 3 46.6016 -4.8448 50.1747 0.0000 0.0000 0.0000
# 4 0.0000 0.0000 0.0000 -45.4456 0.0000 0.0000
# 5 0.0000 0.0000 0.0000 0.0000 24.7242 0.0000
# 6 0.0000 0.0000 0.0000 0.0000 0.0000 -8.7386
#
#
#
# Elastic Compliance Matrix: (Units=1/GPa)
#
#
# Indices 1 2 3 4 5 6 
#
# 1 0.007194 -0.007841 -0.007439 0.000000 0.000000 0.000000
# 2 -0.007841 0.081229 0.015126 0.000000 0.000000 0.000000
# 3 -0.007439 0.015126 0.028300 0.000000 0.000000 0.000000
# 4 0.000000 0.000000 0.000000 -0.022004 0.000000 0.000000
# 5 0.000000 0.000000 0.000000 0.000000 0.040446 0.000000
# 6 0.000000 0.000000 0.000000 0.000000 0.000000 -0.114435
#
#
# Mechanical properties :
#
#
# Convention : Reuss Voigt Hill
#
# Bulk Modulus (GPa) = 8.58997 40.83770 24.71383
# Shear Modulus (GPa) = 83.55293 8.15995 45.85644
#
# Velocity S-wave (km/s) = 6.30167 1.96933 4.66848
# Velocity P-wave (km/s) = 7.55187 4.95786 6.38792
#
# Compressibility (1/GPa) = 0.11641486
#
# Stress axis : x y z
#
# Youngs Moduli (GPa) = 139.00269 12.31092 35.33552
#
# Poissons Ratio (x) = 0.09653 0.26286
# Poissons Ratio (y) = 1.08997 -0.53449
# Poissons Ratio (z) = 1.03403 -0.18622
#
# Static dielectric constant tensor:
#      x y z
#    x 1.828280 0.000000 0.000000 
#    y 0.000000 1.752970 0.000000 
#    z 0.000000 0.000000 1.733690 
# 
# From -- ./inp_files/35687.got.cif
#   From: 2010.05.17/outbox.cif.g08.bks.cpg/sg51_18_cif.got.tgz:35687.got - 2010.06.03 11:52:47.
