data_PCOD9402246
_publ_section_title
;
Structure prediction by ZEFSAII (Michael W. Deem and Ramdas Pophale) SiO2 
 PCOD9402246
Probable space group: P M M A
;
_chemical_formula_sum "Si O2"
_cell_formula_units_Z 44
_cell_length_a 8.978291
_cell_length_b 16.857902
_cell_length_c 16.070783
_cell_angle_alpha 90.000000
_cell_angle_beta 90.000000
_cell_angle_gamma 90.000000
_cell_volume 2432.395768
_symmetry_space_group_name_H-M "P M M A"
_symmetry_group_IT_number 51
_symmetry_cell_setting 'orthorhombic'
loop_
_space_group_symop_operation_xyz
x,y,z
1/2-x,-y,z
1/2+x,-y,-z
-x,y,-z
-x,-y,-z
1/2+x,y,-z
1/2-x,y,z
x,-y,z
loop_
_atom_site_type_symbol
_atom_site_label
_atom_site_fract_x
_atom_site_fract_y
_atom_site_fract_z
Si Si1 0.073995 0.500000 0.411245
Si Si2 0.427388 0.243000 0.083918
Si Si3 0.429245 0.198730 0.269662
Si Si4 0.421581 0.410826 0.884348
Si Si5 0.921092 0.634744 0.307391
Si Si6 0.425045 0.095450 0.587968
O O1 0.250000 0.500000 0.415656
O O2 0.000000 0.500000 0.500000
O O3 0.014516 0.576840 0.364077
O O4 0.250000 0.241972 0.077029
O O5 0.468588 0.198732 0.170573
O O6 0.482337 0.334742 0.089861
O O7 0.500000 0.209154 0.000000
O O8 0.250000 0.199003 0.275285
O O9 0.499103 0.281059 0.301141
O O10 0.496115 0.132760 0.331085
O O11 0.250000 0.401954 0.914176
O O12 0.474262 0.500000 0.905879
O O13 0.417576 0.403408 0.784507
O O14 0.750000 0.642750 0.335727
O O15 0.500000 0.120723 0.500000
O O16 0.250000 0.116662 0.587401
O O17 0.437095 0.000000 0.592025
#
# Coordination Sequence:
#
# PCOD9402246 Si02
#       6
#     4   8   8   8   8   8
#     4  12  24  36  50  70  99 136 181 232 282 332
#     4  10  21  35  52  77 108 145 188 234 281 332
#     4  10  21  37  58  86 115 148 188 230 281 335
#     4   9  17  31  51  72  97 133 176 225 280 333
#     4  10  19  35  54  74 101 137 182 228 276 330
#     4  10  21  38  62  92 122 151 182 221 273 333
#
# _framework density 18.089162000000002
#
# number of rings (size 3 to 8) (size 9 to 14) (size 15 to 20)
#    0.000    2.000    0.909    3.000    0.000    5.455 
#    0.000    3.636    0.000    0.545    0.000    0.000 
#    0.000    0.000    0.000    0.000    0.000    0.000 
#
# Total GULP energy -245497.398347 kJ/mol
# GULP energy per Si atom -5579.486326 kJ/mol
# Density = 1.804799 g / cm^3
# Si number density = 18.089162 Si / 1000 Ang^3
#
#
#
# Elastic Constant Matrix: (Units=GPa)
#
#
# Indices 1 2 3 4 5 6 
#
# 1 123.8882 34.7553 80.5225 0.0000 0.0000 0.0000
# 2 34.7553 42.0508 41.3018 0.0000 0.0000 0.0000
# 3 80.5225 41.3018 139.5575 0.0000 0.0000 0.0000
# 4 0.0000 0.0000 0.0000 122.2929 0.0000 0.0000
# 5 0.0000 0.0000 0.0000 0.0000 33.6449 0.0000
# 6 0.0000 0.0000 0.0000 0.0000 0.0000 22.2633
#
#
#
# Elastic Compliance Matrix: (Units=1/GPa)
#
#
# Indices 1 2 3 4 5 6 
#
# 1 0.013619 -0.004988 -0.006382 0.000000 0.000000 0.000000
# 2 -0.004988 0.035353 -0.007585 0.000000 0.000000 0.000000
# 3 -0.006382 -0.007585 0.013092 0.000000 0.000000 0.000000
# 4 0.000000 0.000000 0.000000 0.008177 0.000000 0.000000
# 5 0.000000 0.000000 0.000000 0.000000 0.029722 0.000000
# 6 0.000000 0.000000 0.000000 0.000000 0.000000 0.044917
#
#
# Mechanical properties :
#
#
# Convention : Reuss Voigt Hill
#
# Bulk Modulus (GPa) = 41.39861 68.73953 55.06907
# Shear Modulus (GPa) = 26.19977 45.56800 35.88389
#
# Velocity S-wave (km/s) = 3.80987 5.02449 4.45873
# Velocity P-wave (km/s) = 6.50300 8.47015 7.55091
#
# Compressibility (1/GPa) = 0.02415540
#
# Stress axis : x y z
#
# Youngs Moduli (GPa) = 73.42659 28.28615 76.38086
#
# Poissons Ratio (x) = 0.14110 0.48744
# Poissons Ratio (y) = 0.36627 0.57931
# Poissons Ratio (z) = 0.46859 0.21454
#
# Static dielectric constant tensor:
#      x y z
#    x 1.613200 0.000000 0.000000 
#    y 0.000000 1.586030 0.000000 
#    z 0.000000 0.000000 1.637400 
# 
# From -- ./inp_files/20866.got.cif
#   From: 2010.05.17/outbox.cif.g08.bks.cpg/sg51_11_cif.got.tgz:20866.got - 2010.06.03 11:52:47.
