data_PCOD9402333
_publ_section_title
;
Structure prediction by ZEFSAII (Michael W. Deem and Ramdas Pophale) SiO2 
 PCOD9402333
Probable space group: P M M A
;
_chemical_formula_sum "Si O2"
_cell_formula_units_Z 64
_cell_length_a 24.586282
_cell_length_b 8.405372
_cell_length_c 15.446860
_cell_angle_alpha 90.000000
_cell_angle_beta 90.000000
_cell_angle_gamma 90.000000
_cell_volume 3192.199373
_symmetry_space_group_name_H-M "P M M A"
_symmetry_group_IT_number 51
_symmetry_cell_setting 'orthorhombic'
loop_
_space_group_symop_operation_xyz
x,y,z
1/2-x,-y,z
1/2+x,-y,-z
-x,y,-z
-x,-y,-z
1/2+x,y,-z
1/2-x,y,z
x,-y,z
loop_
_atom_site_type_symbol
_atom_site_label
_atom_site_fract_x
_atom_site_fract_y
_atom_site_fract_z
Si Si1 0.403317 0.807766 0.856542
Si Si2 0.622265 0.806116 0.329514
Si Si3 0.812156 0.807171 0.495275
Si Si4 0.129107 0.813097 0.046700
Si Si5 0.482103 0.679140 0.100839
Si Si6 0.309699 0.309620 0.201666
Si Si7 0.495246 0.808102 0.600022
Si Si8 0.889164 0.690545 0.649609
O O1 0.371839 0.756234 0.770277
O O2 0.465868 0.750560 0.851203
O O3 0.404438 0.000000 0.859719
O O4 0.378798 0.752140 0.948358
O O5 0.666618 0.756547 0.400206
O O6 0.562306 0.754563 0.361342
O O7 0.622515 0.000000 0.329762
O O8 0.750000 0.754786 0.511892
O O9 0.855249 0.746158 0.565583
O O10 0.813010 0.000000 0.498078
O O11 0.072385 0.781171 0.097012
O O12 0.174795 0.731302 0.103830
O O13 0.139514 0.000000 0.042778
O O14 0.469837 0.500000 0.131241
O O15 0.500000 0.671355 0.000000
O O16 0.250000 0.246977 0.224414
O O17 0.308801 0.500000 0.210276
O O18 0.355179 0.249232 0.267839
O O19 0.500000 0.756145 0.500000
O O20 0.549273 0.751351 0.648052
O O21 0.494970 0.000000 0.601150
O O22 0.890508 0.500000 0.650337
#
# Coordination Sequence:
#
# PCOD9402333 Si02
#       8
#     8   8   8   8   8   8   8   8
#     4   9  18  33  53  79 112 147 181 222 275 325
#     4   9  18  34  55  82 117 151 182 223 275 328
#     4  10  20  37  61  84 107 143 190 229 266 325
#     4  10  20  34  54  80 109 139 181 232 277 321
#     4   9  17  30  49  74 105 141 180 219 263 321
#     4  10  23  42  59  77 107 147 187 230 285 345
#     4  10  19  35  58  83 116 151 186 225 271 332
#     4  11  23  38  58  84 115 144 180 230 286 340
#
# _framework density 20.048873
#
# number of rings (size 3 to 8) (size 9 to 14) (size 15 to 20)
#    0.000    2.250    1.250    1.500    1.750    4.250 
#    0.000    1.250    0.000    2.250    0.000    0.000 
#    0.000    0.000    0.000    0.000    0.000    0.000 
#
# Total GULP energy -357198.421584 kJ/mol
# GULP energy per Si atom -5581.225337 kJ/mol
# Density = 2.000324 g / cm^3
# Si number density = 20.048873 Si / 1000 Ang^3
#
#
#
# Elastic Constant Matrix: (Units=GPa)
#
#
# Indices 1 2 3 4 5 6 
#
# 1 64.7925 -0.7133 6.5661 0.0000 0.0000 0.0000
# 2 -0.7133 3.1931 -0.1758 0.0000 0.0000 0.0000
# 3 6.5661 -0.1758 83.6650 0.0000 0.0000 0.0000
# 4 0.0000 0.0000 0.0000 15.4200 0.0000 0.0000
# 5 0.0000 0.0000 0.0000 0.0000 21.5309 0.0000
# 6 0.0000 0.0000 0.0000 0.0000 0.0000 17.0924
#
#
#
# Elastic Compliance Matrix: (Units=1/GPa)
#
#
# Indices 1 2 3 4 5 6 
#
# 1 0.015595 0.003417 -0.001217 0.000000 0.000000 0.000000
# 2 0.003417 0.313958 0.000392 0.000000 0.000000 0.000000
# 3 -0.001217 0.000392 0.012049 0.000000 0.000000 0.000000
# 4 0.000000 0.000000 0.000000 0.064851 0.000000 0.000000
# 5 0.000000 0.000000 0.000000 0.000000 0.046445 0.000000
# 6 0.000000 0.000000 0.000000 0.000000 0.000000 0.058506
#
#
# Mechanical properties :
#
#
# Convention : Reuss Voigt Hill
#
# Bulk Modulus (GPa) = 2.88363 18.11161 10.49762
# Shear Modulus (GPa) = 8.04097 20.54023 14.29060
#
# Velocity S-wave (km/s) = 2.00484 3.20427 2.67271
# Velocity P-wave (km/s) = 2.60780 4.76897 3.84342
#
# Compressibility (1/GPa) = 0.34678488
#
# Stress axis : x y z
#
# Youngs Moduli (GPa) = 64.12393 3.18514 82.99622
#
# Poissons Ratio (x) = -0.01088 0.10098
# Poissons Ratio (y) = -0.21909 -0.03250
# Poissons Ratio (z) = 0.07802 -0.00125
#
# Static dielectric constant tensor:
#      x y z
#    x 1.693880 0.000000 0.000000 
#    y 0.000000 1.698500 0.000000 
#    z 0.000000 0.000000 1.737860 
# 
# From -- ./inp_files/26312.got.cif
#   From: 2010.05.17/outbox.cif.g08.bks.cpg/sg51_14_cif.got.tgz:26312.got - 2010.06.03 11:52:47.
