data_PCOD9402396
_publ_section_title
;
Structure prediction by ZEFSAII (Michael W. Deem and Ramdas Pophale) SiO2 
 PCOD9402396
Probable space group: P M M A
;
_chemical_formula_sum "Si O2"
_cell_formula_units_Z 64
_cell_length_a 8.764079
_cell_length_b 20.529826
_cell_length_c 18.686092
_cell_angle_alpha 90.000000
_cell_angle_beta 90.000000
_cell_angle_gamma 90.000000
_cell_volume 3362.095419
_symmetry_space_group_name_H-M "P M M A"
_symmetry_group_IT_number 51
_symmetry_cell_setting 'orthorhombic'
loop_
_space_group_symop_operation_xyz
x,y,z
1/2-x,-y,z
1/2+x,-y,-z
-x,y,-z
-x,-y,-z
1/2+x,y,-z
1/2-x,y,z
x,-y,z
loop_
_atom_site_type_symbol
_atom_site_label
_atom_site_fract_x
_atom_site_fract_y
_atom_site_fract_z
Si Si1 0.428134 0.312317 0.186807
Si Si2 0.435513 0.574397 0.282146
Si Si3 0.431301 0.073125 0.138556
Si Si4 0.577935 0.097408 0.288093
Si Si5 0.916419 0.075264 0.566754
Si Si6 0.431996 0.792025 0.921690
Si Si7 0.075136 0.250033 0.680421
Si Si8 0.933919 0.659606 0.577384
O O1 0.250000 0.314658 0.167253
O O2 0.483799 0.384232 0.211597
O O3 0.514070 0.266784 0.130082
O O4 0.454223 0.276980 0.262585
O O5 0.250000 0.574974 0.280305
O O6 0.488201 0.500000 0.280799
O O7 0.475877 0.609480 0.357642
O O8 0.250000 0.078391 0.127381
O O9 0.470631 0.078080 0.222682
O O10 0.509946 0.136673 0.104296
O O11 0.479531 0.000000 0.113840
O O12 0.750000 0.076279 0.271370
O O13 0.517956 0.072770 0.363215
O O14 0.580240 0.174438 0.301766
O O15 0.750000 0.104612 0.581779
O O16 0.000000 0.108184 0.500000
O O17 0.892919 0.000000 0.546821
O O18 0.250000 0.793433 0.922756
O O19 0.500000 0.780599 0.000000
O O20 0.250000 0.274804 0.690513
O O21 0.012747 0.273216 0.603981
O O22 0.750000 0.664606 0.574450
O O23 0.000000 0.640819 0.500000
#
# Coordination Sequence:
#
# PCOD9402396 Si02
#       8
#     8   8   8   8   8   8   8   8
#     4  10  19  35  61  89 119 154 192 238 286 339
#     4   8  16  32  56  87 120 157 200 243 294 352
#     4  11  24  41  62  89 121 156 195 240 291 351
#     4  11  22  35  55  81 108 144 187 236 291 348
#     4  10  21  36  52  70  95 130 174 228 287 344
#     4  12  25  42  65  92 122 157 195 238 286 346
#     4  10  20  34  53  77 106 144 190 239 288 341
#     4  10  20  33  51  76 111 156 201 250 302 352
#
# _framework density 19.035748000000002
#
# number of rings (size 3 to 8) (size 9 to 14) (size 15 to 20)
#    0.000    1.750    1.250    4.500    0.000    5.750 
#    0.000    0.000    0.000   13.500    0.000    0.000 
#    0.000    0.000    0.000    0.000    0.000    0.000 
#
# Total GULP energy -356666.055103 kJ/mol
# GULP energy per Si atom -5572.907111 kJ/mol
# Density = 1.899242 g / cm^3
# Si number density = 19.035748 Si / 1000 Ang^3
#
#
#
# Elastic Constant Matrix: (Units=GPa)
#
#
# Indices 1 2 3 4 5 6 
#
# 1 62.1843 23.5131 15.3150 0.0000 0.0000 0.0000
# 2 23.5131 103.7487 38.2604 0.0000 0.0000 0.0000
# 3 15.3150 38.2604 99.9740 0.0000 0.0000 0.0000
# 4 0.0000 0.0000 0.0000 -9.7990 0.0000 0.0000
# 5 0.0000 0.0000 0.0000 0.0000 31.6637 0.0000
# 6 0.0000 0.0000 0.0000 0.0000 0.0000 -20.0527
#
#
#
# Elastic Compliance Matrix: (Units=1/GPa)
#
#
# Indices 1 2 3 4 5 6 
#
# 1 0.017749 -0.003516 -0.001373 0.000000 0.000000 0.000000
# 2 -0.003516 0.011919 -0.004023 0.000000 0.000000 0.000000
# 3 -0.001373 -0.004023 0.011753 0.000000 0.000000 0.000000
# 4 0.000000 0.000000 0.000000 -0.102051 0.000000 0.000000
# 5 0.000000 0.000000 0.000000 0.000000 0.031582 0.000000
# 6 0.000000 0.000000 0.000000 0.000000 0.000000 -0.049869
#
#
# Mechanical properties :
#
#
# Convention : Reuss Voigt Hill
#
# Bulk Modulus (GPa) = 42.38001 46.67603 44.52802
# Shear Modulus (GPa) = -93.93604 12.95030 -40.49287
#
# Velocity S-wave (km/s) = -7.03238 2.61111 -4.61716
# Velocity P-wave (km/s) = 6.60510 5.80207 2.23197
#
# Compressibility (1/GPa) = 0.02359603
#
# Stress axis : x y z
#
# Youngs Moduli (GPa) = 56.34135 83.89904 85.08792
#
# Poissons Ratio (x) = 0.29500 0.11686
# Poissons Ratio (y) = 0.19810 0.34230
# Poissons Ratio (z) = 0.07738 0.33751
#
# Static dielectric constant tensor:
#      x y z
#    x 1.700120 0.000000 0.000000 
#    y 0.000000 1.713770 0.000000 
#    z 0.000000 0.000000 1.641250 
# 
# From -- ./inp_files/28353.got.cif
#   From: 2010.05.17/outbox.cif.g08.bks.cpg/sg51_15_cif.got.tgz:28353.got - 2010.06.03 11:52:47.
