data_PCOD9402248
_publ_section_title
;
Structure prediction by ZEFSAII (Michael W. Deem and Ramdas Pophale) SiO2 
 PCOD9402248
Probable space group: P M M A
;
_chemical_formula_sum "Si O2"
_cell_formula_units_Z 64
_cell_length_a 33.536129
_cell_length_b 12.830596
_cell_length_c 8.290119
_cell_angle_alpha 90.000000
_cell_angle_beta 90.000000
_cell_angle_gamma 90.000000
_cell_volume 3567.143057
_symmetry_space_group_name_H-M "P M M A"
_symmetry_group_IT_number 51
_symmetry_cell_setting 'orthorhombic'
loop_
_space_group_symop_operation_xyz
x,y,z
1/2-x,-y,z
1/2+x,-y,-z
-x,y,-z
-x,-y,-z
1/2+x,y,-z
1/2-x,y,z
x,-y,z
loop_
_atom_site_type_symbol
_atom_site_label
_atom_site_fract_x
_atom_site_fract_y
_atom_site_fract_z
Si Si1 0.955411 0.879294 0.930689
Si Si2 0.862992 0.879292 0.499950
Si Si3 0.797124 0.714564 0.494140
Si Si4 0.334215 0.623352 0.175652
Si Si5 0.589159 0.776010 0.220815
Si Si6 0.336027 0.377571 0.820462
Si Si7 0.410682 0.270539 0.282278
Si Si8 0.955471 0.379131 0.430161
O O1 0.925098 0.843760 0.070892
O O2 0.948357 0.000000 0.879145
O O3 0.947389 0.789978 0.798248
O O4 0.000000 0.874547 0.000000
O O5 0.821298 0.821681 0.468656
O O6 0.893565 0.853548 0.355728
O O7 0.883140 0.822273 0.650780
O O8 0.857972 0.000000 0.524339
O O9 0.750000 0.726234 0.498291
O O10 0.812554 0.669877 0.666424
O O11 0.810120 0.645266 0.339408
O O12 0.333507 0.500000 0.196153
O O13 0.380268 0.662306 0.175428
O O14 0.317050 0.647179 0.996741
O O15 0.624986 0.694696 0.191959
O O16 0.553483 0.703858 0.289753
O O17 0.346449 0.500000 0.821818
O O18 0.425465 0.343716 0.427460
O O19 0.948432 0.500000 0.384013
O O20 0.000000 0.371272 0.500000
#
# Coordination Sequence:
#
# PCOD9402248 Si02
#       8
#     8   8   8   8   8   8   8   8
#     4  11  22  34  51  77 108 143 181 229 285 327
#     4   9  19  35  58  80  98 138 187 224 274 322
#     4  10  22  37  56  84 117 145 177 223 275 334
#     4  10  20  35  57  82 109 145 184 222 269 326
#     4  10  19  35  54  75 107 139 182 232 270 327
#     4  10  20  35  57  82 109 145 184 222 269 326
#     4  10  19  35  54  75 107 139 182 232 270 327
#     4  10  20  33  51  76 107 144 182 226 284 337
#
# _framework density 17.94153
#
# number of rings (size 3 to 8) (size 9 to 14) (size 15 to 20)
#    0.000    2.000    1.250    3.375    0.000    1.750 
#    0.000    1.250    0.000    9.000    0.000    3.500 
#    0.000    0.000    0.000    0.000    0.000    0.000 
#
# Total GULP energy -356637.560834 kJ/mol
# GULP energy per Si atom -5572.461888 kJ/mol
# Density = 1.790069 g / cm^3
# Si number density = 17.941530 Si / 1000 Ang^3
#
#
#
# Elastic Constant Matrix: (Units=GPa)
#
#
# Indices 1 2 3 4 5 6 
#
# 1 60.0621 20.0473 -1.9970 0.0000 0.0000 0.0000
# 2 20.0473 61.5702 1.1920 0.0000 0.0000 0.0000
# 3 -1.9970 1.1920 53.8619 0.0000 0.0000 0.0000
# 4 0.0000 0.0000 0.0000 17.0002 0.0000 0.0000
# 5 0.0000 0.0000 0.0000 0.0000 15.8772 0.0000
# 6 0.0000 0.0000 0.0000 0.0000 0.0000 11.1600
#
#
#
# Elastic Compliance Matrix: (Units=1/GPa)
#
#
# Indices 1 2 3 4 5 6 
#
# 1 0.018716 -0.006110 0.000829 0.000000 0.000000 0.000000
# 2 -0.006110 0.018243 -0.000630 0.000000 0.000000 0.000000
# 3 0.000829 -0.000630 0.018611 0.000000 0.000000 0.000000
# 4 0.000000 0.000000 0.000000 0.058823 0.000000 0.000000
# 5 0.000000 0.000000 0.000000 0.000000 0.062984 0.000000
# 6 0.000000 0.000000 0.000000 0.000000 0.000000 0.089606
#
#
# Mechanical properties :
#
#
# Convention : Reuss Voigt Hill
#
# Bulk Modulus (GPa) = 22.85824 23.77542 23.31683
# Shear Modulus (GPa) = 17.04230 19.22427 18.13328
#
# Velocity S-wave (km/s) = 3.08536 3.27692 3.18258
# Velocity P-wave (km/s) = 5.04585 5.25338 5.15066
#
# Compressibility (1/GPa) = 0.04374790
#
# Stress axis : x y z
#
# Youngs Moduli (GPa) = 53.42896 54.81464 53.73253
#
# Poissons Ratio (x) = 0.33493 -0.04455
# Poissons Ratio (y) = 0.32646 0.03387
# Poissons Ratio (z) = -0.04430 0.03455
#
# Static dielectric constant tensor:
#      x y z
#    x 1.604570 0.000000 0.000000 
#    y 0.000000 1.589270 0.000000 
#    z 0.000000 0.000000 1.665990 
# 
# From -- ./inp_files/13163.got.cif
#   From: 2010.05.17/outbox.cif.g08.bks.cpg/sg51_7_cif.got.tgz:13163.got - 2010.06.03 11:52:47.
