data_PCOD9402802
_publ_section_title
;
Structure prediction by ZEFSAII (Michael W. Deem and Ramdas Pophale) SiO2 
 PCOD9402802
Probable space group: P M M A
;
_chemical_formula_sum "Si O2"
_cell_formula_units_Z 48
_cell_length_a 9.480625
_cell_length_b 7.498928
_cell_length_c 31.680387
_cell_angle_alpha 90.000000
_cell_angle_beta 90.000000
_cell_angle_gamma 90.000000
_cell_volume 2252.302042
_symmetry_space_group_name_H-M "P M M A"
_symmetry_group_IT_number 51
_symmetry_cell_setting 'orthorhombic'
loop_
_space_group_symop_operation_xyz
x,y,z
1/2-x,-y,z
1/2+x,-y,-z
-x,y,-z
-x,-y,-z
1/2+x,y,-z
1/2-x,y,z
x,-y,z
loop_
_atom_site_type_symbol
_atom_site_label
_atom_site_fract_x
_atom_site_fract_y
_atom_site_fract_z
Si Si1 0.087821 0.218114 0.541226
Si Si2 0.908817 0.211467 0.620870
Si Si3 0.909737 0.285643 0.877032
Si Si4 0.589853 0.786662 0.039634
Si Si5 0.589658 0.285306 0.297520
Si Si6 0.587569 0.717523 0.202452
O O1 0.250000 0.276672 0.539769
O O2 0.000000 0.271746 0.500000
O O3 0.008264 0.280624 0.583401
O O4 0.090173 0.000000 0.541556
O O5 0.750000 0.284821 0.620043
O O6 0.982896 0.234569 0.665905
O O7 0.897988 0.000000 0.613449
O O8 0.750000 0.218675 0.882265
O O9 0.902436 0.500000 0.873748
O O10 0.006285 0.245879 0.917249
O O11 0.984301 0.219809 0.834268
O O12 0.750000 0.716892 0.040928
O O13 0.599525 0.000000 0.034469
O O14 0.500000 0.716592 0.000000
O O15 0.750000 0.223458 0.306724
O O16 0.593763 0.500000 0.296402
O O17 0.550966 0.225459 0.250124
O O18 0.750000 0.769472 0.193975
O O19 0.584999 0.500000 0.202210
#
# Coordination Sequence:
#
# PCOD9402802 Si02
#       6
#     8   8   8   8   8   8
#     4   9  16  27  45  68  94 125 161 201 245 292
#     4  10  20  32  47  71 102 132 164 203 245 290
#     4  10  20  33  52  79 106 131 163 204 248 292
#     4  10  21  37  56  76 100 133 170 205 245 294
#     4   9  18  33  53  75  98 128 167 206 246 296
#     4   8  15  30  51  73  98 129 165 205 247 291
#
# _framework density 21.311530999999999
#
# number of rings (size 3 to 8) (size 9 to 14) (size 15 to 20)
#    0.000    2.667    0.000    3.000    0.000    6.333 
#    0.000    2.500    0.000    1.500    0.000    0.000 
#    0.000    0.000    0.000    0.000    0.000    0.000 
#
# Total GULP energy -268093.384103 kJ/mol
# GULP energy per Si atom -5585.278835 kJ/mol
# Density = 2.126303 g / cm^3
# Si number density = 21.311531 Si / 1000 Ang^3
#
#
#
# Elastic Constant Matrix: (Units=GPa)
#
#
# Indices 1 2 3 4 5 6 
#
# 1 233.1930 7.6878 152.3210 0.0000 0.0000 0.0000
# 2 7.6878 56.9952 -0.9498 0.0000 0.0000 0.0000
# 3 152.3210 -0.9498 190.5459 0.0000 0.0000 0.0000
# 4 0.0000 0.0000 0.0000 18.9620 0.0000 0.0000
# 5 0.0000 0.0000 0.0000 0.0000 42.4072 0.0000
# 6 0.0000 0.0000 0.0000 0.0000 0.0000 10.3270
#
#
#
# Elastic Compliance Matrix: (Units=1/GPa)
#
#
# Indices 1 2 3 4 5 6 
#
# 1 0.009076 -0.001345 -0.007262 0.000000 0.000000 0.000000
# 2 -0.001345 0.017746 0.001164 0.000000 0.000000 0.000000
# 3 -0.007262 0.001164 0.011059 0.000000 0.000000 0.000000
# 4 0.000000 0.000000 0.000000 0.052737 0.000000 0.000000
# 5 0.000000 0.000000 0.000000 0.000000 0.023581 0.000000
# 6 0.000000 0.000000 0.000000 0.000000 0.000000 0.096834
#
#
# Mechanical properties :
#
#
# Convention : Reuss Voigt Hill
#
# Bulk Modulus (GPa) = 43.48872 88.76133 66.12502
# Shear Modulus (GPa) = 21.40543 35.78425 28.59484
#
# Velocity S-wave (km/s) = 3.17267 4.10213 3.66697
# Velocity P-wave (km/s) = 5.81994 8.01102 7.00172
#
# Compressibility (1/GPa) = 0.02299447
#
# Stress axis : x y z
#
# Youngs Moduli (GPa) = 110.17666 56.35008 90.42183
#
# Poissons Ratio (x) = 0.07581 0.65667
# Poissons Ratio (y) = 0.14822 -0.10524
# Poissons Ratio (z) = 0.80013 -0.06558
#
# Static dielectric constant tensor:
#      x y z
#    x 1.743640 0.000000 0.000000 
#    y 0.000000 1.835790 0.000000 
#    z 0.000000 0.000000 1.725870 
# 
# From -- ./inp_files/36916.got.cif
#   From: 2010.05.17/outbox.cif.g08.bks.cpg/sg51_19_cif.got.tgz:36916.got - 2010.06.03 11:52:47.
