data_PCOD9402738
_publ_section_title
;
Structure prediction by ZEFSAII (Michael W. Deem and Ramdas Pophale) SiO2 
 PCOD9402738
Probable space group: P M M A
;
_chemical_formula_sum "Si O2"
_cell_formula_units_Z 40
_cell_length_a 8.228700
_cell_length_b 14.660467
_cell_length_c 16.212229
_cell_angle_alpha 90.000000
_cell_angle_beta 90.000000
_cell_angle_gamma 90.000000
_cell_volume 1955.787939
_symmetry_space_group_name_H-M "P M M A"
_symmetry_group_IT_number 51
_symmetry_cell_setting 'orthorhombic'
loop_
_space_group_symop_operation_xyz
x,y,z
1/2-x,-y,z
1/2+x,-y,-z
-x,y,-z
-x,-y,-z
1/2+x,y,-z
1/2-x,y,z
x,-y,z
loop_
_atom_site_type_symbol
_atom_site_label
_atom_site_fract_x
_atom_site_fract_y
_atom_site_fract_z
Si Si1 0.438890 0.856190 0.733287
Si Si2 0.445784 0.500000 0.408044
Si Si3 0.052981 0.000000 0.596802
Si Si4 0.057359 0.806279 0.911658
Si Si5 0.061711 0.600596 0.112960
Si Si6 0.438894 0.660820 0.298330
O O1 0.250000 0.882562 0.741527
O O2 0.502357 0.915848 0.656299
O O3 0.509809 0.854504 0.827614
O O4 0.457395 0.751281 0.708605
O O5 0.250000 0.500000 0.398275
O O6 0.500000 0.500000 0.500000
O O7 0.504659 0.591445 0.364943
O O8 0.000000 0.000000 0.500000
O O9 0.250000 0.000000 0.592691
O O10 0.250000 0.814343 0.907843
O O11 0.017099 0.697349 0.910835
O O12 0.000000 0.843122 0.000000
O O13 0.250000 0.603422 0.084924
O O14 0.993317 0.500000 0.090491
O O15 0.061054 0.607509 0.211891
O O16 0.250000 0.686328 0.314710
#
# Coordination Sequence:
#
# PCOD9402738 Si02
#       6
#     8   4   4   8   8   8
#     4   9  20  38  59  82 110 144 179 222 278 331
#     4  10  20  32  46  70 103 140 179 220 269 324
#     4  10  22  42  65  88 114 140 175 226 281 338
#     4  10  20  34  52  77 109 145 184 224 269 322
#     4   9  16  29  50  72  98 138 185 229 269 310
#     4   9  17  32  52  73 102 140 181 222 267 319
#
# _framework density 20.452114999999999
#
# number of rings (size 3 to 8) (size 9 to 14) (size 15 to 20)
#    0.000    2.600    1.000    0.600    0.000    4.000 
#    0.000    4.500    0.000    0.000    0.000    0.000 
#    0.000    0.000    0.000    0.000    0.000    0.000 
#
# Total GULP energy -222683.209717 kJ/mol
# GULP energy per Si atom -5567.080243 kJ/mol
# Density = 2.040556 g / cm^3
# Si number density = 20.452115 Si / 1000 Ang^3
#
#
#
# Elastic Constant Matrix: (Units=GPa)
#
#
# Indices 1 2 3 4 5 6 
#
# 1 17.7960 6.7738 15.2477 0.0000 0.0000 0.0000
# 2 6.7738 75.0148 62.3509 0.0000 0.0000 0.0000
# 3 15.2477 62.3509 194.9897 0.0000 0.0000 0.0000
# 4 0.0000 0.0000 0.0000 21.6421 0.0000 0.0000
# 5 0.0000 0.0000 0.0000 0.0000 28.7403 0.0000
# 6 0.0000 0.0000 0.0000 0.0000 0.0000 13.5265
#
#
#
# Elastic Compliance Matrix: (Units=1/GPa)
#
#
# Indices 1 2 3 4 5 6 
#
# 1 0.060466 -0.002084 -0.004062 0.000000 0.000000 0.000000
# 2 -0.002084 0.018228 -0.005666 0.000000 0.000000 0.000000
# 3 -0.004062 -0.005666 0.007258 0.000000 0.000000 0.000000
# 4 0.000000 0.000000 0.000000 0.046206 0.000000 0.000000
# 5 0.000000 0.000000 0.000000 0.000000 0.034794 0.000000
# 6 0.000000 0.000000 0.000000 0.000000 0.000000 0.073929
#
#
# Mechanical properties :
#
#
# Convention : Reuss Voigt Hill
#
# Bulk Modulus (GPa) = 16.04397 50.72726 33.38562
# Shear Modulus (GPa) = 17.52658 26.34364 21.93511
#
# Velocity S-wave (km/s) = 2.93056 3.59285 3.27847
# Velocity P-wave (km/s) = 4.39461 6.48601 5.53989
#
# Compressibility (1/GPa) = 0.06232871
#
# Stress axis : x y z
#
# Youngs Moduli (GPa) = 16.53825 54.86011 137.78224
#
# Poissons Ratio (x) = 0.11432 0.55966
# Poissons Ratio (y) = 0.03446 0.78064
# Poissons Ratio (z) = 0.06718 0.31083
#
# Static dielectric constant tensor:
#      x y z
#    x 1.770110 0.000000 0.000000 
#    y 0.000000 1.741180 0.000000 
#    z 0.000000 0.000000 1.763690 
# 
# From -- ./inp_files/20526.got.cif
#   From: 2010.05.17/outbox.cif.g08.bks.cpg/sg51_11_cif.got.tgz:20526.got - 2010.06.03 11:52:47.
