data_PCOD9402095
_publ_section_title
;
Structure prediction by ZEFSAII (Michael W. Deem and Ramdas Pophale) SiO2 
 PCOD9402095
Probable space group: P M M A
;
_chemical_formula_sum "Si O2"
_cell_formula_units_Z 64
_cell_length_a 30.825797
_cell_length_b 9.190847
_cell_length_c 12.396475
_cell_angle_alpha 90.000000
_cell_angle_beta 90.000000
_cell_angle_gamma 90.000000
_cell_volume 3512.109594
_symmetry_space_group_name_H-M "P M M A"
_symmetry_group_IT_number 51
_symmetry_cell_setting 'orthorhombic'
loop_
_space_group_symop_operation_xyz
x,y,z
1/2-x,-y,z
1/2+x,-y,-z
-x,y,-z
-x,-y,-z
1/2+x,y,-z
1/2-x,y,z
x,-y,z
loop_
_atom_site_type_symbol
_atom_site_label
_atom_site_fract_x
_atom_site_fract_y
_atom_site_fract_z
Si Si1 0.550056 0.825207 0.021560
Si Si2 0.198571 0.326699 0.970458
Si Si3 0.130991 0.174988 0.126575
Si Si4 0.385498 0.829513 0.369807
Si Si5 0.488747 0.830764 0.376066
Si Si6 0.638013 0.673269 0.411181
Si Si7 0.801952 0.833083 0.252228
Si Si8 0.560030 0.672673 0.244827
O O1 0.566673 0.751665 0.131176
O O2 0.549887 0.000000 0.034838
O O3 0.500000 0.780545 0.000000
O O4 0.583886 0.790381 0.925871
O O5 0.250000 0.298667 0.989353
O O6 0.192340 0.500000 0.965079
O O7 0.186473 0.254364 0.856112
O O8 0.168219 0.255794 0.060335
O O9 0.132477 0.212664 0.252789
O O10 0.136330 0.000000 0.117069
O O11 0.437526 0.818129 0.361942
O O12 0.369912 0.734662 0.469891
O O13 0.375318 0.000000 0.390028
O O14 0.500000 0.795057 0.500000
O O15 0.515375 0.730506 0.295665
O O16 0.501245 0.000000 0.357252
O O17 0.643740 0.500000 0.413044
O O18 0.677826 0.753059 0.354163
O O19 0.596938 0.706815 0.333383
O O20 0.750000 0.833663 0.259423
O O21 0.817224 0.000000 0.244987
O O22 0.559309 0.500000 0.228822
#
# Coordination Sequence:
#
# PCOD9402095 Si02
#       8
#     8   8   8   8   8   8   8   8
#     4  10  21  38  58  80 111 149 191 235 280 335
#     4  10  21  38  61  88 117 148 184 230 287 349
#     4  10  21  37  59  85 113 150 194 241 286 335
#     4  10  21  38  58  82 112 149 196 240 281 332
#     4  10  19  34  57  80 105 146 195 236 277 326
#     4  11  23  37  55  83 116 148 183 224 278 338
#     4  10  21  38  62  89 114 142 180 228 280 333
#     4  11  23  35  52  81 115 146 183 230 280 333
#
# _framework density 18.222667000000001
#
# number of rings (size 3 to 8) (size 9 to 14) (size 15 to 20)
#    0.000    1.750    1.250    3.000    0.000    9.000 
#    0.000    1.875    0.000    0.750    0.000    0.000 
#    0.000    0.000    0.000    0.000    0.000    0.000 
#
# Total GULP energy -357576.448381 kJ/mol
# GULP energy per Si atom -5587.132006 kJ/mol
# Density = 1.818119 g / cm^3
# Si number density = 18.222667 Si / 1000 Ang^3
#
#
#
# Elastic Constant Matrix: (Units=GPa)
#
#
# Indices 1 2 3 4 5 6 
#
# 1 51.8639 40.9526 48.8802 0.0000 0.0000 0.0000
# 2 40.9526 61.9106 69.3919 0.0000 0.0000 0.0000
# 3 48.8802 69.3919 142.0764 0.0000 0.0000 0.0000
# 4 0.0000 0.0000 0.0000 -19.5825 0.0000 0.0000
# 5 0.0000 0.0000 0.0000 0.0000 33.1419 0.0000
# 6 0.0000 0.0000 0.0000 0.0000 0.0000 17.9871
#
#
#
# Elastic Compliance Matrix: (Units=1/GPa)
#
#
# Indices 1 2 3 4 5 6 
#
# 1 0.040590 -0.024742 -0.001881 0.000000 0.000000 0.000000
# 2 -0.024742 0.050772 -0.016285 0.000000 0.000000 0.000000
# 3 -0.001881 -0.016285 0.015639 0.000000 0.000000 0.000000
# 4 0.000000 0.000000 0.000000 -0.051066 0.000000 0.000000
# 5 0.000000 0.000000 0.000000 0.000000 0.030173 0.000000
# 6 0.000000 0.000000 0.000000 0.000000 0.000000 0.055595
#
#
# Mechanical properties :
#
#
# Convention : Reuss Voigt Hill
#
# Bulk Modulus (GPa) = 47.20098 63.81112 55.50605
# Shear Modulus (GPa) = 21.31465 12.75106 17.03286
#
# Velocity S-wave (km/s) = 3.42377 2.64812 3.06061
# Velocity P-wave (km/s) = 6.44889 6.66660 6.55865
#
# Compressibility (1/GPa) = 0.02118600
#
# Stress axis : x y z
#
# Youngs Moduli (GPa) = 24.63668 19.69606 63.94106
#
# Poissons Ratio (x) = 0.48731 0.12024
# Poissons Ratio (y) = 0.60955 1.04130
# Poissons Ratio (z) = 0.04633 0.32076
#
# Static dielectric constant tensor:
#      x y z
#    x 1.628260 0.000000 0.000000 
#    y 0.000000 1.608930 0.000000 
#    z 0.000000 0.000000 1.608780 
# 
# From -- ./inp_files/19551.got.cif
#   From: 2010.05.17/outbox.cif.g08.bks.cpg/sg51_10_cif.got.tgz:19551.got - 2010.06.03 11:52:47.
