data_PCOD9402207
_publ_section_title
;
Structure prediction by ZEFSAII (Michael W. Deem and Ramdas Pophale) SiO2 
 PCOD9402207
Probable space group: P M M A
;
_chemical_formula_sum "Si O2"
_cell_formula_units_Z 64
_cell_length_a 21.859628
_cell_length_b 15.969526
_cell_length_c 9.201106
_cell_angle_alpha 90.000000
_cell_angle_beta 90.000000
_cell_angle_gamma 90.000000
_cell_volume 3211.994750
_symmetry_space_group_name_H-M "P M M A"
_symmetry_group_IT_number 51
_symmetry_cell_setting 'orthorhombic'
loop_
_space_group_symop_operation_xyz
x,y,z
1/2-x,-y,z
1/2+x,-y,-z
-x,y,-z
-x,-y,-z
1/2+x,y,-z
1/2-x,y,z
x,-y,z
loop_
_atom_site_type_symbol
_atom_site_label
_atom_site_fract_x
_atom_site_fract_y
_atom_site_fract_z
Si Si1 0.504321 0.909842 0.325027
Si Si2 0.821550 0.276544 0.937856
Si Si3 0.993673 0.274504 0.324514
Si Si4 0.907584 0.401568 0.772511
Si Si5 0.350650 0.911587 0.729669
Si Si6 0.682952 0.406288 0.504702
Si Si7 0.822812 0.908995 0.926263
Si Si8 0.848420 0.731488 0.277677
O O1 0.500000 0.910080 0.500000
O O2 0.481092 0.818060 0.279215
O O3 0.575900 0.910943 0.283773
O O4 0.478494 0.000000 0.273270
O O5 0.750000 0.287642 0.899121
O O6 0.864279 0.350787 0.881998
O O7 0.843237 0.184371 0.879767
O O8 0.826832 0.274697 0.112357
O O9 0.030352 0.349316 0.249165
O O10 0.000000 0.281649 0.500000
O O11 0.922118 0.275949 0.284973
O O12 0.916031 0.500000 0.807259
O O13 0.870626 0.396021 0.620585
O O14 0.329703 0.823780 0.665017
O O15 0.328201 0.000000 0.666813
O O16 0.334137 0.910576 0.899895
O O17 0.750000 0.399281 0.576502
O O18 0.678158 0.500000 0.443590
O O19 0.677970 0.339383 0.379031
O O20 0.750000 0.908877 0.902763
O O21 0.846067 0.000000 0.870182
#
# Coordination Sequence:
#
# PCOD9402207 Si02
#       8
#     8   8   8   8   8   8   8   8
#     4   8  14  25  45  73 105 141 177 215 262 317
#     4  10  21  37  57  82 112 146 184 228 277 325
#     4  10  19  35  57  83 114 147 185 224 273 332
#     4  11  24  40  58  78 107 148 186 226 283 343
#     4   8  14  25  45  75 108 140 174 213 259 316
#     4  10  21  37  57  80 104 137 184 230 273 326
#     4   8  14  27  49  75 103 137 175 214 262 321
#     4  10  19  34  59  87 113 142 182 231 275 320
#
# _framework density 19.925312999999999
#
# number of rings (size 3 to 8) (size 9 to 14) (size 15 to 20)
#    0.000    2.625    1.250    0.750    0.000    3.000 
#    0.000    1.250    0.000    0.750    0.000    8.750 
#    0.000    0.000    0.000    0.000    0.000    0.000 
#
# Total GULP energy -356383.562087 kJ/mol
# GULP energy per Si atom -5568.493158 kJ/mol
# Density = 1.987996 g / cm^3
# Si number density = 19.925313 Si / 1000 Ang^3
#
#
#
# Elastic Constant Matrix: (Units=GPa)
#
#
# Indices 1 2 3 4 5 6 
#
# 1 66.1485 29.2471 3.9266 0.0000 0.0000 0.0000
# 2 29.2471 183.8645 30.0112 0.0000 0.0000 0.0000
# 3 3.9266 30.0112 16.8766 0.0000 0.0000 0.0000
# 4 0.0000 0.0000 0.0000 12.5592 0.0000 0.0000
# 5 0.0000 0.0000 0.0000 0.0000 23.7877 0.0000
# 6 0.0000 0.0000 0.0000 0.0000 0.0000 44.1603
#
#
#
# Elastic Compliance Matrix: (Units=1/GPa)
#
#
# Indices 1 2 3 4 5 6 
#
# 1 0.016277 -0.002777 0.001151 0.000000 0.000000 0.000000
# 2 -0.002777 0.008137 -0.013823 0.000000 0.000000 0.000000
# 3 0.001151 -0.013823 0.083567 0.000000 0.000000 0.000000
# 4 0.000000 0.000000 0.000000 0.079623 0.000000 0.000000
# 5 0.000000 0.000000 0.000000 0.000000 0.042038 0.000000
# 6 0.000000 0.000000 0.000000 0.000000 0.000000 0.022645
#
#
# Mechanical properties :
#
#
# Convention : Reuss Voigt Hill
#
# Bulk Modulus (GPa) = 12.97305 43.69551 28.33428
# Shear Modulus (GPa) = 16.18753 29.68176 22.93465
#
# Velocity S-wave (km/s) = 2.85337 3.86379 3.39636
# Velocity P-wave (km/s) = 4.16901 6.47166 5.44348
#
# Compressibility (1/GPa) = 0.07708290
#
# Stress axis : x y z
#
# Youngs Moduli (GPa) = 61.43629 122.89766 11.96639
#
# Poissons Ratio (x) = 0.34130 -0.01378
# Poissons Ratio (y) = 0.17061 0.16542
# Poissons Ratio (z) = -0.07073 1.69886
#
# Static dielectric constant tensor:
#      x y z
#    x 1.666840 0.000000 0.000000 
#    y 0.000000 1.772440 0.000000 
#    z 0.000000 0.000000 1.660250 
# 
# From -- ./inp_files/11856.got.cif
#   From: 2010.05.17/outbox.cif.g08.bks.cpg/sg51_6_cif.got.tgz:11856.got - 2010.06.03 11:52:47.
