data_PCOD9402209
_publ_section_title
;
Structure prediction by ZEFSAII (Michael W. Deem and Ramdas Pophale) SiO2 
 PCOD9402209
Probable space group: P M M A
;
_chemical_formula_sum "Si O2"
_cell_formula_units_Z 56
_cell_length_a 15.238879
_cell_length_b 8.630562
_cell_length_c 22.516465
_cell_angle_alpha 90.000000
_cell_angle_beta 90.000000
_cell_angle_gamma 90.000000
_cell_volume 2961.367504
_symmetry_space_group_name_H-M "P M M A"
_symmetry_group_IT_number 51
_symmetry_cell_setting 'orthorhombic'
loop_
_space_group_symop_operation_xyz
x,y,z
1/2-x,-y,z
1/2+x,-y,-z
-x,y,-z
-x,-y,-z
1/2+x,y,-z
1/2-x,y,z
x,-y,z
loop_
_atom_site_type_symbol
_atom_site_label
_atom_site_fract_x
_atom_site_fract_y
_atom_site_fract_z
Si Si1 0.250000 0.811984 0.884888
Si Si2 0.845068 0.685864 0.382927
Si Si3 0.750000 0.186407 0.976382
Si Si4 0.351754 0.815061 0.359873
Si Si5 0.440024 0.813856 0.838112
Si Si6 0.895313 0.179700 0.507485
Si Si7 0.939879 0.686074 0.943186
Si Si8 0.009785 0.314588 0.710091
O O1 0.340850 0.760586 0.854571
O O2 0.250000 0.000000 0.883223
O O3 0.250000 0.766151 0.954042
O O4 0.750000 0.740002 0.360987
O O5 0.847141 0.500000 0.380715
O O6 0.856239 0.734696 0.450969
O O7 0.922761 0.742964 0.340872
O O8 0.658845 0.248267 0.948930
O O9 0.750000 0.000000 0.973115
O O10 0.250000 0.791949 0.346394
O O11 0.370209 0.759815 0.427433
O O12 0.414537 0.732198 0.313530
O O13 0.370441 0.000000 0.358987
O O14 0.508680 0.746361 0.885568
O O15 0.465864 0.759913 0.772590
O O16 0.442027 0.000000 0.841823
O O17 0.000000 0.186080 0.500000
O O18 0.867115 0.000000 0.504937
O O19 0.935217 0.500000 0.942158
O O20 0.000000 0.732869 0.000000
O O21 0.016489 0.500000 0.715034
#
# Coordination Sequence:
#
# PCOD9402209 Si02
#       8
#     4   8   4   8   8   8   8   8
#     4   9  20  37  63  97 127 157 200 247 294 357
#     4  10  22  38  56  82 118 156 193 235 293 362
#     4  11  21  39  67  97 129 165 206 253 302 355
#     4  10  21  39  62  86 114 152 199 251 304 362
#     4  11  23  42  65  91 124 164 207 250 301 360
#     4  10  19  34  59  87 115 146 189 246 303 354
#     4  11  23  40  63  95 131 164 202 251 306 359
#     4  11  24  41  60  85 119 158 199 247 301 357
#
# _framework density 18.910183
#
# number of rings (size 3 to 8) (size 9 to 14) (size 15 to 20)
#    0.000    1.571    2.857    1.929    1.000    3.143 
#    1.286    1.071    0.000    0.000    0.000    0.000 
#    0.000    0.000    0.000    0.000    0.000    0.000 
#
# Total GULP energy -312835.969580 kJ/mol
# GULP energy per Si atom -5586.356600 kJ/mol
# Density = 1.886714 g / cm^3
# Si number density = 18.910183 Si / 1000 Ang^3
#
#
#
# Elastic Constant Matrix: (Units=GPa)
#
#
# Indices 1 2 3 4 5 6 
#
# 1 138.2967 42.3470 71.6885 0.0000 0.0000 0.0000
# 2 42.3470 38.8368 28.2467 0.0000 0.0000 0.0000
# 3 71.6885 28.2467 128.7879 0.0000 0.0000 0.0000
# 4 0.0000 0.0000 0.0000 28.4091 0.0000 0.0000
# 5 0.0000 0.0000 0.0000 0.0000 1.6127 0.0000
# 6 0.0000 0.0000 0.0000 0.0000 0.0000 21.7001
#
#
#
# Elastic Compliance Matrix: (Units=1/GPa)
#
#
# Indices 1 2 3 4 5 6 
#
# 1 0.013042 -0.010637 -0.004927 0.000000 0.000000 0.000000
# 2 -0.010637 0.039312 -0.002701 0.000000 0.000000 0.000000
# 3 -0.004927 -0.002701 0.011099 0.000000 0.000000 0.000000
# 4 0.000000 0.000000 0.000000 0.035200 0.000000 0.000000
# 5 0.000000 0.000000 0.000000 0.000000 0.620067 0.000000
# 6 0.000000 0.000000 0.000000 0.000000 0.000000 0.046083
#
#
# Mechanical properties :
#
#
# Convention : Reuss Voigt Hill
#
# Bulk Modulus (GPa) = 37.14229 65.60955 51.37592
# Shear Modulus (GPa) = 6.17049 21.25366 13.71208
#
# Velocity S-wave (km/s) = 1.80835 3.35614 2.69572
# Velocity P-wave (km/s) = 4.90349 7.05612 6.07590
#
# Compressibility (1/GPa) = 0.02692349
#
# Stress axis : x y z
#
# Youngs Moduli (GPa) = 76.67646 25.43738 90.09491
#
# Poissons Ratio (x) = 0.27059 0.44385
# Poissons Ratio (y) = 0.81564 0.24335
# Poissons Ratio (z) = 0.37775 0.06871
#
# Static dielectric constant tensor:
#      x y z
#    x 1.667930 0.000000 0.000000 
#    y 0.000000 1.648020 0.000000 
#    z 0.000000 0.000000 1.622270 
# 
# From -- ./inp_files/33505.got.cif
#   From: 2010.05.17/outbox.cif.g08.bks.cpg/sg51_17_cif.got.tgz:33505.got - 2010.06.03 11:52:47.
