data_PCOD9402407
_publ_section_title
;
Structure prediction by ZEFSAII (Michael W. Deem and Ramdas Pophale) SiO2 
 PCOD9402407
Probable space group: P M M A
;
_chemical_formula_sum "Si O2"
_cell_formula_units_Z 56
_cell_length_a 28.653996
_cell_length_b 14.111794
_cell_length_c 7.491184
_cell_angle_alpha 90.000000
_cell_angle_beta 90.000000
_cell_angle_gamma 90.000000
_cell_volume 3029.129835
_symmetry_space_group_name_H-M "P M M A"
_symmetry_group_IT_number 51
_symmetry_cell_setting 'orthorhombic'
loop_
_space_group_symop_operation_xyz
x,y,z
1/2-x,-y,z
1/2+x,-y,-z
-x,y,-z
-x,-y,-z
1/2+x,y,-z
1/2-x,y,z
x,-y,z
loop_
_atom_site_type_symbol
_atom_site_label
_atom_site_fract_x
_atom_site_fract_y
_atom_site_fract_z
Si Si1 0.551261 0.390757 0.586623
Si Si2 0.195484 0.609962 0.566721
Si Si3 0.370301 0.113316 0.075175
Si Si4 0.197560 0.886878 0.750052
Si Si5 0.946375 0.735363 0.938424
Si Si6 0.304278 0.790524 0.365161
Si Si7 0.108563 0.388512 0.772428
O O1 0.500000 0.383358 0.500000
O O2 0.557531 0.500000 0.647532
O O3 0.555952 0.319546 0.750283
O O4 0.586113 0.372416 0.423037
O O5 0.250000 0.622386 0.610101
O O6 0.186990 0.500000 0.520618
O O7 0.185519 0.679951 0.402222
O O8 0.162969 0.632000 0.736493
O O9 0.420173 0.164392 0.074761
O O10 0.339008 0.159470 0.230447
O O11 0.373156 0.000000 0.096096
O O12 0.342303 0.134777 0.892507
O O13 0.250000 0.862597 0.816423
O O14 0.190882 0.836840 0.560972
O O15 0.196694 0.000000 0.721167
O O16 0.917387 0.674027 0.082574
O O17 0.000000 0.742577 0.000000
O O18 0.250000 0.801801 0.310005
O O19 0.102515 0.500000 0.815378
#
# Coordination Sequence:
#
# PCOD9402407 Si02
#       7
#     8   8   8   8   8   8   8
#     4  10  20  36  61  91 117 141 179 237 291 334
#     4   9  18  33  55  86 123 159 188 216 265 341
#     4  11  24  39  56  81 113 148 192 242 289 340
#     4   9  18  34  58  87 114 140 179 234 288 336
#     4  12  24  38  58  81 111 151 194 240 290 348
#     4  10  19  35  62  88 114 150 189 232 284 338
#     4  10  20  36  60  88 119 153 188 232 284 336
#
# _framework density 18.487155999999999
#
# number of rings (size 3 to 8) (size 9 to 14) (size 15 to 20)
#    0.000    1.857    1.429    3.000    0.000    2.286 
#    0.000    1.429    0.000    2.143    0.000    8.000 
#    0.000    0.000    0.000    0.000    0.000    0.000 
#
# Total GULP energy -312706.576989 kJ/mol
# GULP energy per Si atom -5584.046018 kJ/mol
# Density = 1.844508 g / cm^3
# Si number density = 18.487156 Si / 1000 Ang^3
#
#
#
# Elastic Constant Matrix: (Units=GPa)
#
#
# Indices 1 2 3 4 5 6 
#
# 1 71.4134 44.4546 28.0277 0.0000 0.0000 0.0000
# 2 44.4546 91.2675 42.3257 0.0000 0.0000 0.0000
# 3 28.0277 42.3257 55.5200 0.0000 0.0000 0.0000
# 4 0.0000 0.0000 0.0000 23.9934 0.0000 0.0000
# 5 0.0000 0.0000 0.0000 0.0000 13.1143 0.0000
# 6 0.0000 0.0000 0.0000 0.0000 0.0000 29.6589
#
#
#
# Elastic Compliance Matrix: (Units=1/GPa)
#
#
# Indices 1 2 3 4 5 6 
#
# 1 0.020734 -0.008113 -0.004282 0.000000 0.000000 0.000000
# 2 -0.008113 0.020124 -0.011246 0.000000 0.000000 0.000000
# 3 -0.004282 -0.011246 0.028746 0.000000 0.000000 0.000000
# 4 0.000000 0.000000 0.000000 0.041678 0.000000 0.000000
# 5 0.000000 0.000000 0.000000 0.000000 0.076253 0.000000
# 6 0.000000 0.000000 0.000000 0.000000 0.000000 0.033717
#
#
# Mechanical properties :
#
#
# Convention : Reuss Voigt Hill
#
# Bulk Modulus (GPa) = 44.79782 49.75744 47.27763
# Shear Modulus (GPa) = 18.11765 20.24617 19.18191
#
# Velocity S-wave (km/s) = 3.13391 3.31289 3.22464
# Velocity P-wave (km/s) = 6.11389 6.45033 6.28436
#
# Compressibility (1/GPa) = 0.02232251
#
# Stress axis : x y z
#
# Youngs Moduli (GPa) = 48.22988 49.69206 34.78727
#
# Poissons Ratio (x) = 0.40318 0.14895
# Poissons Ratio (y) = 0.39131 0.39120
# Poissons Ratio (z) = 0.20650 0.55882
#
# Static dielectric constant tensor:
#      x y z
#    x 1.671470 0.000000 0.000000 
#    y 0.000000 1.662300 0.000000 
#    z 0.000000 0.000000 1.598320 
# 
# From -- ./inp_files/4018.got.cif
#   From: 2010.05.17/outbox.cif.g08.bks.cpg/sg51_3_cif.got.tgz:4018.got - 2010.06.03 11:52:47.
