data_PCOD9402239
_publ_section_title
;
Structure prediction by ZEFSAII (Michael W. Deem and Ramdas Pophale) SiO2 
 PCOD9402239
Probable space group: P M M A
;
_chemical_formula_sum "Si O2"
_cell_formula_units_Z 48
_cell_length_a 8.801779
_cell_length_b 16.913189
_cell_length_c 18.963273
_cell_angle_alpha 90.000000
_cell_angle_beta 90.000000
_cell_angle_gamma 90.000000
_cell_volume 2822.989476
_symmetry_space_group_name_H-M "P M M A"
_symmetry_group_IT_number 51
_symmetry_cell_setting 'orthorhombic'
loop_
_space_group_symop_operation_xyz
x,y,z
1/2-x,-y,z
1/2+x,-y,-z
-x,y,-z
-x,-y,-z
1/2+x,y,-z
1/2-x,y,z
x,-y,z
loop_
_atom_site_type_symbol
_atom_site_label
_atom_site_fract_x
_atom_site_fract_y
_atom_site_fract_z
Si Si1 0.432216 0.812377 0.925029
Si Si2 0.932252 0.766609 0.706354
Si Si3 0.431985 0.666073 0.153936
Si Si4 0.567052 0.090085 0.213600
Si Si5 0.566968 0.337853 0.577464
Si Si6 0.931242 0.500000 0.185867
Si Si7 0.566667 0.500000 0.657078
O O1 0.250000 0.808239 0.928510
O O2 0.499004 0.727540 0.901784
O O3 0.475315 0.873173 0.862561
O O4 0.500000 0.835941 0.000000
O O5 0.750000 0.774377 0.705058
O O6 0.967690 0.704231 0.769089
O O7 0.983137 0.729867 0.632320
O O8 0.003592 0.849633 0.728477
O O9 0.250000 0.662365 0.147047
O O10 0.502902 0.579417 0.150995
O O11 0.750000 0.090770 0.217187
O O12 0.514187 0.000000 0.221160
O O13 0.500000 0.329977 0.500000
O O14 0.750000 0.335474 0.573330
O O15 0.526555 0.421995 0.612786
O O16 0.750000 0.500000 0.183312
O O17 0.988089 0.500000 0.267044
O O18 0.750000 0.500000 0.668696
#
# Coordination Sequence:
#
# PCOD9402239 Si02
#       7
#     8   8   8   8   8   4   4
#     4  10  20  35  54  79 109 139 172 208 254 310
#     4   9  18  33  53  75 101 135 174 214 257 310
#     4  10  19  35  55  73 100 139 178 217 263 306
#     4   9  19  35  55  80 108 135 167 211 258 306
#     4  10  20  33  50  74 106 141 177 216 262 310
#     4  12  22  31  50  79 105 133 178 225 261 303
#     4  10  19  35  51  69 105 145 176 217 261 307
#
# _framework density 17.003250999999999
#
# number of rings (size 3 to 8) (size 9 to 14) (size 15 to 20)
#    0.000    2.167    1.667    2.000    0.000    3.333 
#    0.000    0.417    0.000    0.500    0.000    0.000 
#    0.000    0.000    0.000    0.000    0.000    0.000 
#
# Total GULP energy -267902.309837 kJ/mol
# GULP energy per Si atom -5581.298122 kJ/mol
# Density = 1.696455 g / cm^3
# Si number density = 17.003251 Si / 1000 Ang^3
#
#
#
# Elastic Constant Matrix: (Units=GPa)
#
#
# Indices 1 2 3 4 5 6 
#
# 1 34.3694 36.0210 20.3840 0.0000 0.0000 0.0000
# 2 36.0210 156.0172 48.5143 0.0000 0.0000 0.0000
# 3 20.3840 48.5143 78.7662 0.0000 0.0000 0.0000
# 4 0.0000 0.0000 0.0000 12.4262 0.0000 0.0000
# 5 0.0000 0.0000 0.0000 0.0000 30.7314 0.0000
# 6 0.0000 0.0000 0.0000 0.0000 0.0000 25.9675
#
#
#
# Elastic Compliance Matrix: (Units=1/GPa)
#
#
# Indices 1 2 3 4 5 6 
#
# 1 0.040439 -0.007523 -0.005832 0.000000 0.000000 0.000000
# 2 -0.007523 0.009328 -0.003798 0.000000 0.000000 0.000000
# 3 -0.005832 -0.003798 0.016544 0.000000 0.000000 0.000000
# 4 0.000000 0.000000 0.000000 0.080475 0.000000 0.000000
# 5 0.000000 0.000000 0.000000 0.000000 0.032540 0.000000
# 6 0.000000 0.000000 0.000000 0.000000 0.000000 0.038510
#
#
# Mechanical properties :
#
#
# Convention : Reuss Voigt Hill
#
# Bulk Modulus (GPa) = 31.24497 53.22126 42.23311
# Shear Modulus (GPa) = 19.02517 24.77392 21.89955
#
# Velocity S-wave (km/s) = 3.34865 3.82122 3.59271
# Velocity P-wave (km/s) = 5.77642 7.13005 6.48863
#
# Compressibility (1/GPa) = 0.03200515
#
# Stress axis : x y z
#
# Youngs Moduli (GPa) = 24.72864 107.20949 60.44361
#
# Poissons Ratio (x) = 0.80655 0.35248
# Poissons Ratio (y) = 0.18604 0.22957
# Poissons Ratio (z) = 0.14421 0.40720
#
# Static dielectric constant tensor:
#      x y z
#    x 1.570620 0.000000 0.000000 
#    y 0.000000 1.565420 0.000000 
#    z 0.000000 0.000000 1.558960 
# 
# From -- ./inp_files/27632.got.cif
#   From: 2010.05.17/outbox.cif.g08.bks.cpg/sg51_14_cif.got.tgz:27632.got - 2010.06.03 11:52:47.
