data_PCOD9402607
_publ_section_title
;
Structure prediction by ZEFSAII (Michael W. Deem and Ramdas Pophale) SiO2 
 PCOD9402607
Probable space group: P M M A
;
_chemical_formula_sum "Si O2"
_cell_formula_units_Z 48
_cell_length_a 17.521011
_cell_length_b 13.684624
_cell_length_c 11.446318
_cell_angle_alpha 90.000000
_cell_angle_beta 90.000000
_cell_angle_gamma 90.000000
_cell_volume 2744.465898
_symmetry_space_group_name_H-M "P M M A"
_symmetry_group_IT_number 51
_symmetry_cell_setting 'orthorhombic'
loop_
_space_group_symop_operation_xyz
x,y,z
1/2-x,-y,z
1/2+x,-y,-z
-x,y,-z
-x,-y,-z
1/2+x,y,-z
1/2-x,y,z
x,-y,z
loop_
_atom_site_type_symbol
_atom_site_label
_atom_site_fract_x
_atom_site_fract_y
_atom_site_fract_z
Si Si1 0.658430 0.613794 0.537609
Si Si2 0.080695 0.231659 0.638772
Si Si3 0.093619 0.248524 0.286952
Si Si4 0.334360 0.111723 0.466906
Si Si5 0.919350 0.111683 0.931837
Si Si6 0.660361 0.110869 0.170900
O O1 0.750000 0.627275 0.532445
O O2 0.641212 0.500000 0.519472
O O3 0.618903 0.680110 0.436014
O O4 0.627802 0.649312 0.665037
O O5 0.100586 0.139185 0.557904
O O6 0.119201 0.198195 0.760020
O O7 0.991787 0.246252 0.660319
O O8 0.149476 0.174585 0.353944
O O9 0.087733 0.200993 0.158841
O O10 0.250000 0.134620 0.516317
O O11 0.336423 0.000000 0.436945
O O12 0.915785 0.000000 0.880424
O O13 0.856586 0.119028 0.033476
O O14 0.000000 0.117762 0.000000
O O15 0.750000 0.115118 0.194435
O O16 0.633512 0.000000 0.204903
#
# Coordination Sequence:
#
# PCOD9402607 Si02
#       6
#     8   8   8   8   8   8
#     4  10  22  40  60  81 106 137 175 225 283 336
#     4  11  20  32  53  79 107 138 173 221 274 327
#     4  11  21  33  55  79 105 140 180 223 271 322
#     4  10  20  31  45  71 107 142 177 217 261 317
#     4  10  20  35  52  76 114 152 186 220 257 309
#     4  10  20  33  52  78 110 151 190 222 260 310
#
# _framework density 17.489740999999999
#
# number of rings (size 3 to 8) (size 9 to 14) (size 15 to 20)
#    0.000    1.667    1.667    6.000    0.000    6.667 
#    0.000    1.667    0.000    1.500    0.000    2.333 
#    0.000    0.000    0.000    0.000    0.000    0.000 
#
# Total GULP energy -267307.667353 kJ/mol
# GULP energy per Si atom -5568.909737 kJ/mol
# Density = 1.744993 g / cm^3
# Si number density = 17.489741 Si / 1000 Ang^3
#
#
#
# Elastic Constant Matrix: (Units=GPa)
#
#
# Indices 1 2 3 4 5 6 
#
# 1 71.9223 29.4849 17.5694 0.0000 0.0000 0.0000
# 2 29.4849 96.4830 28.4472 0.0000 0.0000 0.0000
# 3 17.5694 28.4472 65.9826 0.0000 0.0000 0.0000
# 4 0.0000 0.0000 0.0000 21.8247 0.0000 0.0000
# 5 0.0000 0.0000 0.0000 0.0000 23.3105 0.0000
# 6 0.0000 0.0000 0.0000 0.0000 0.0000 5.6377
#
#
#
# Elastic Compliance Matrix: (Units=1/GPa)
#
#
# Indices 1 2 3 4 5 6 
#
# 1 0.016249 -0.004227 -0.002504 0.000000 0.000000 0.000000
# 2 -0.004227 0.012974 -0.004468 0.000000 0.000000 0.000000
# 3 -0.002504 -0.004468 0.017748 0.000000 0.000000 0.000000
# 4 0.000000 0.000000 0.000000 0.045820 0.000000 0.000000
# 5 0.000000 0.000000 0.000000 0.000000 0.042899 0.000000
# 6 0.000000 0.000000 0.000000 0.000000 0.000000 0.177378
#
#
# Mechanical properties :
#
#
# Convention : Reuss Voigt Hill
#
# Bulk Modulus (GPa) = 40.69575 42.82123 41.75849
# Shear Modulus (GPa) = 14.54942 20.74700 17.64821
#
# Velocity S-wave (km/s) = 2.88737 3.44792 3.18002
# Velocity P-wave (km/s) = 5.86811 6.35513 6.11647
#
# Compressibility (1/GPa) = 0.02457259
#
# Stress axis : x y z
#
# Youngs Moduli (GPa) = 61.54389 77.07949 56.34285
#
# Poissons Ratio (x) = 0.32583 0.14109
# Poissons Ratio (y) = 0.26016 0.25173
# Poissons Ratio (z) = 0.15411 0.34437
#
# Static dielectric constant tensor:
#      x y z
#    x 1.635150 0.000000 0.000000 
#    y 0.000000 1.606170 0.000000 
#    z 0.000000 0.000000 1.652990 
# 
# From -- ./inp_files/16397.got.cif
#   From: 2010.05.17/outbox.cif.g08.bks.cpg/sg51_9_cif.got.tgz:16397.got - 2010.06.03 11:52:47.
