data_PCOD9402979
_publ_section_title
;
Structure prediction by ZEFSAII (Michael W. Deem and Ramdas Pophale) SiO2 
 PCOD9402979
Probable space group: P M M A
;
_chemical_formula_sum "Si O2"
_cell_formula_units_Z 64
_cell_length_a 29.012354
_cell_length_b 7.617924
_cell_length_c 13.144335
_cell_angle_alpha 90.000000
_cell_angle_beta 90.000000
_cell_angle_gamma 90.000000
_cell_volume 2905.080844
_symmetry_space_group_name_H-M "P M M A"
_symmetry_group_IT_number 51
_symmetry_cell_setting 'orthorhombic'
loop_
_space_group_symop_operation_xyz
x,y,z
1/2-x,-y,z
1/2+x,-y,-z
-x,y,-z
-x,-y,-z
1/2+x,y,-z
1/2-x,y,z
x,-y,z
loop_
_atom_site_type_symbol
_atom_site_label
_atom_site_fract_x
_atom_site_fract_y
_atom_site_fract_z
Si Si1 0.801669 0.290224 0.522331
Si Si2 0.553567 0.707271 0.218337
Si Si3 0.148287 0.212795 0.270530
Si Si4 0.803668 0.213765 0.934765
Si Si5 0.632950 0.297623 0.349172
Si Si6 0.055852 0.298458 0.002852
Si Si7 0.695588 0.787916 0.160239
Si Si8 0.551828 0.199317 0.773159
O O1 0.750000 0.219735 0.507406
O O2 0.799226 0.500000 0.505087
O O3 0.819269 0.260573 0.636143
O O4 0.838835 0.216767 0.442400
O O5 0.563702 0.500000 0.209927
O O6 0.585004 0.780944 0.308373
O O7 0.567584 0.781339 0.107122
O O8 0.498836 0.720232 0.234480
O O9 0.168851 0.276272 0.163338
O O10 0.095808 0.278372 0.283951
O O11 0.146108 0.000000 0.265675
O O12 0.750000 0.263119 0.925074
O O13 0.805142 0.000000 0.934853
O O14 0.819992 0.269228 0.047005
O O15 0.623263 0.500000 0.377623
O O16 0.666335 0.291513 0.251143
O O17 0.071931 0.500000 0.011858
O O18 0.066846 0.202538 0.107516
O O19 0.000000 0.304299 0.000000
O O20 0.750000 0.745375 0.170036
O O21 0.691702 0.000000 0.165976
O O22 0.545838 0.000000 0.739941
#
# Coordination Sequence:
#
# PCOD9402979 Si02
#       8
#     8   8   8   8   8   8   8   8
#     4  10  22  40  60  82 107 136 177 231 281 324
#     4   9  19  35  53  75 107 148 187 219 264 325
#     4  10  21  36  56  81 108 143 185 223 270 329
#     4   8  15  30  51  75 106 140 171 211 265 323
#     4  10  21  37  57  80 107 142 184 227 274 324
#     4   8  15  29  48  71 104 145 182 216 257 312
#     4   9  18  32  52  80 111 141 174 215 269 332
#     4  10  20  32  50  80 112 142 181 226 270 315
#
# _framework density 22.030367999999999
#
# number of rings (size 3 to 8) (size 9 to 14) (size 15 to 20)
#    0.000    2.750    0.000    2.625    1.750    5.750 
#    0.000    1.250    0.000    4.500    0.000    0.000 
#    0.000    0.000    0.000    0.000    0.000    0.000 
#
# Total GULP energy -357144.231531 kJ/mol
# GULP energy per Si atom -5580.378618 kJ/mol
# Density = 2.198023 g / cm^3
# Si number density = 22.030368 Si / 1000 Ang^3
#
#
#
# Elastic Constant Matrix: (Units=GPa)
#
#
# Indices 1 2 3 4 5 6 
#
# 1 73.3613 -5.9205 5.7888 0.0000 0.0000 0.0000
# 2 -5.9205 44.2781 -14.2376 0.0000 0.0000 0.0000
# 3 5.7888 -14.2376 34.3270 0.0000 0.0000 0.0000
# 4 0.0000 0.0000 0.0000 19.8832 0.0000 0.0000
# 5 0.0000 0.0000 0.0000 0.0000 39.2844 0.0000
# 6 0.0000 0.0000 0.0000 0.0000 0.0000 12.1575
#
#
#
# Elastic Compliance Matrix: (Units=1/GPa)
#
#
# Indices 1 2 3 4 5 6 
#
# 1 0.013877 0.001273 -0.001812 0.000000 0.000000 0.000000
# 2 0.001273 0.026177 0.010643 0.000000 0.000000 0.000000
# 3 -0.001812 0.010643 0.033851 0.000000 0.000000 0.000000
# 4 0.000000 0.000000 0.000000 0.050294 0.000000 0.000000
# 5 0.000000 0.000000 0.000000 0.000000 0.025455 0.000000
# 6 0.000000 0.000000 0.000000 0.000000 0.000000 0.082254
#
#
# Mechanical properties :
#
#
# Convention : Reuss Voigt Hill
#
# Bulk Modulus (GPa) = 10.62573 13.69198 12.15885
# Shear Modulus (GPa) = 20.56999 25.35405 22.96202
#
# Velocity S-wave (km/s) = 3.05898 3.39613 3.23195
# Velocity P-wave (km/s) = 4.16055 4.64831 4.41118
#
# Compressibility (1/GPa) = 0.09411119
#
# Stress axis : x y z
#
# Youngs Moduli (GPa) = 72.06224 38.20176 29.54089
#
# Poissons Ratio (x) = -0.04862 0.05354
# Poissons Ratio (y) = -0.09172 -0.31439
# Poissons Ratio (z) = 0.13060 -0.40656
#
# Static dielectric constant tensor:
#      x y z
#    x 1.839640 0.000000 0.000000 
#    y 0.000000 1.896580 0.000000 
#    z 0.000000 0.000000 1.796590 
# 
# From -- ./inp_files/19623.got.cif
#   From: 2010.05.17/outbox.cif.g08.bks.cpg/sg51_10_cif.got.tgz:19623.got - 2010.06.03 11:52:47.
