data_PCOD9402054
_publ_section_title
;
Structure prediction by ZEFSAII (Michael W. Deem and Ramdas Pophale) SiO2 
 PCOD9402054
Probable space group: P M M A
;
_chemical_formula_sum "Si O2"
_cell_formula_units_Z 40
_cell_length_a 8.280830
_cell_length_b 27.233057
_cell_length_c 9.328961
_cell_angle_alpha 90.000000
_cell_angle_beta 90.000000
_cell_angle_gamma 90.000000
_cell_volume 2103.795595
_symmetry_space_group_name_H-M "P M M A"
_symmetry_group_IT_number 51
_symmetry_cell_setting 'orthorhombic'
loop_
_space_group_symop_operation_xyz
x,y,z
1/2-x,-y,z
1/2+x,-y,-z
-x,y,-z
-x,-y,-z
1/2+x,y,-z
1/2-x,y,z
x,-y,z
loop_
_atom_site_type_symbol
_atom_site_label
_atom_site_fract_x
_atom_site_fract_y
_atom_site_fract_z
Si Si1 0.055262 0.000000 0.165452
Si Si2 0.942753 0.701780 0.836960
Si Si3 0.945463 0.202643 0.663460
Si Si4 0.556327 0.392953 0.334991
Si Si5 0.444730 0.500000 0.665324
Si Si6 0.945449 0.893024 0.834931
O O1 0.000174 0.053180 0.222214
O O2 0.250000 0.000000 0.171194
O O3 0.000000 0.000000 0.000000
O O4 0.750000 0.703582 0.835858
O O5 0.003318 0.749398 0.749776
O O6 0.995696 0.652042 0.758760
O O7 0.000000 0.703161 0.000000
O O8 0.750000 0.202596 0.666753
O O9 0.002437 0.152858 0.741352
O O10 0.000000 0.204603 0.500000
O O11 0.500000 0.387732 0.500000
O O12 0.750000 0.392472 0.334698
O O13 0.500344 0.446807 0.278096
O O14 0.250000 0.500000 0.671024
O O15 0.500000 0.500000 0.500000
O O16 0.750000 0.892660 0.834388
O O17 0.000000 0.887858 0.000000
#
# Coordination Sequence:
#
# PCOD9402054 Si02
#       6
#     4   8   8   8   4   8
#     4   8  14  26  47  72 100 130 164 204 247 294
#     4  11  23  38  55  77 103 135 173 215 262 312
#     4  10  22  37  53  74 102 134 170 209 255 306
#     4  10  19  34  56  82 110 140 174 213 254 302
#     4   8  16  30  51  78 107 138 172 208 250 298
#     4   9  17  31  51  76 102 132 168 208 251 298
#
# _framework density 19.013252999999999
#
# number of rings (size 3 to 8) (size 9 to 14) (size 15 to 20)
#    0.000    2.400    0.000    2.400    0.000    4.800 
#    0.000    1.000    0.000    0.000    0.000    0.000 
#    0.000    0.000    0.000    0.000    0.000    0.000 
#
# Total GULP energy -223033.926069 kJ/mol
# GULP energy per Si atom -5575.848152 kJ/mol
# Density = 1.896998 g / cm^3
# Si number density = 19.013253 Si / 1000 Ang^3
#
#
#
# Elastic Constant Matrix: (Units=GPa)
#
#
# Indices 1 2 3 4 5 6 
#
# 1 18.9477 27.4861 12.6884 0.0000 0.0000 0.0000
# 2 27.4861 253.9958 108.4212 0.0000 0.0000 0.0000
# 3 12.6884 108.4212 113.3112 0.0000 0.0000 0.0000
# 4 0.0000 0.0000 0.0000 33.0664 0.0000 0.0000
# 5 0.0000 0.0000 0.0000 0.0000 29.6392 0.0000
# 6 0.0000 0.0000 0.0000 0.0000 0.0000 27.1180
#
#
#
# Elastic Compliance Matrix: (Units=1/GPa)
#
#
# Indices 1 2 3 4 5 6 
#
# 1 0.062658 -0.006399 -0.000893 0.000000 0.000000 0.000000
# 2 -0.006399 0.007309 -0.006277 0.000000 0.000000 0.000000
# 3 -0.000893 -0.006277 0.014931 0.000000 0.000000 0.000000
# 4 0.000000 0.000000 0.000000 0.030242 0.000000 0.000000
# 5 0.000000 0.000000 0.000000 0.000000 0.033739 0.000000
# 6 0.000000 0.000000 0.000000 0.000000 0.000000 0.036876
#
#
# Mechanical properties :
#
#
# Convention : Reuss Voigt Hill
#
# Bulk Modulus (GPa) = 17.31324 75.93846 46.62585
# Shear Modulus (GPa) = 21.53805 33.80865 27.67335
#
# Velocity S-wave (km/s) = 3.36935 4.22140 3.81921
# Velocity P-wave (km/s) = 4.92568 7.98666 6.63510
#
# Compressibility (1/GPa) = 0.05775926
#
# Stress axis : x y z
#
# Youngs Moduli (GPa) = 15.95970 136.81832 66.97314
#
# Poissons Ratio (x) = 0.87553 0.05983
# Poissons Ratio (y) = 0.10213 0.42039
# Poissons Ratio (z) = 0.01426 0.85880
#
# Static dielectric constant tensor:
#      x y z
#    x 1.667410 0.000000 0.000000 
#    y 0.000000 1.724370 0.000000 
#    z 0.000000 0.000000 1.596240 
# 
# From -- ./inp_files/5520.got.cif
#   From: 2010.05.17/outbox.cif.g08.bks.cpg/sg51_3_cif.got.tgz:5520.got - 2010.06.03 11:52:47.
