data_PCOD9402947
_publ_section_title
;
Structure prediction by ZEFSAII (Michael W. Deem and Ramdas Pophale) SiO2 
 PCOD9402947
Probable space group: P M M A
;
_chemical_formula_sum "Si O2"
_cell_formula_units_Z 56
_cell_length_a 20.456925
_cell_length_b 9.100715
_cell_length_c 15.631019
_cell_angle_alpha 90.000000
_cell_angle_beta 90.000000
_cell_angle_gamma 90.000000
_cell_volume 2910.068139
_symmetry_space_group_name_H-M "P M M A"
_symmetry_group_IT_number 51
_symmetry_cell_setting 'orthorhombic'
loop_
_space_group_symop_operation_xyz
x,y,z
1/2-x,-y,z
1/2+x,-y,-z
-x,y,-z
-x,-y,-z
1/2+x,y,-z
1/2-x,y,z
x,-y,z
loop_
_atom_site_type_symbol
_atom_site_label
_atom_site_fract_x
_atom_site_fract_y
_atom_site_fract_z
Si Si1 0.445922 0.325060 0.428487
Si Si2 0.672348 0.173757 0.963233
Si Si3 0.959070 0.323693 0.913194
Si Si4 0.326797 0.339892 0.869886
Si Si5 0.493900 0.832177 0.261008
Si Si6 0.175872 0.172370 0.508429
Si Si7 0.853705 0.164237 0.295083
O O1 0.500000 0.278664 0.500000
O O2 0.451126 0.500000 0.419176
O O3 0.456316 0.249367 0.336991
O O4 0.376205 0.275584 0.464039
O O5 0.750000 0.210054 0.946883
O O6 0.654882 0.217330 0.061241
O O7 0.665343 0.000000 0.949766
O O8 0.615670 0.262694 0.914464
O O9 0.958199 0.500000 0.907372
O O10 0.991467 0.252809 0.828974
O O11 0.000000 0.284760 0.000000
O O12 0.250000 0.356745 0.883461
O O13 0.358728 0.500000 0.885371
O O14 0.335224 0.283822 0.774523
O O15 0.568150 0.838049 0.294247
O O16 0.470731 0.000000 0.249012
O O17 0.250000 0.197063 0.479771
O O18 0.171712 0.195504 0.610517
O O19 0.159205 0.000000 0.493886
O O20 0.830646 0.000000 0.269814
#
# Coordination Sequence:
#
# PCOD9402947 Si02
#       7
#     8   8   8   8   8   8   8
#     4  11  23  40  63  90 122 161 203 251 304 362
#     4  10  21  38  60  84 113 155 206 256 307 365
#     4  11  24  41  62  92 129 164 202 255 312 369
#     4  10  20  32  49  77 114 155 196 241 299 364
#     4  11  23  39  63  90 118 158 206 254 303 363
#     4  10  21  38  61  89 122 160 203 253 307 364
#     4  10  20  34  55  83 116 154 196 245 300 362
#
# _framework density 19.243535999999999
#
# number of rings (size 3 to 8) (size 9 to 14) (size 15 to 20)
#    0.000    1.571    1.429    3.429    0.000    8.286 
#    0.000    0.714    0.000    4.286    0.000    0.000 
#    0.000    0.000    0.000    0.000    0.000    0.000 
#
# Total GULP energy -312534.103570 kJ/mol
# GULP energy per Si atom -5580.966135 kJ/mol
# Density = 1.919974 g / cm^3
# Si number density = 19.243536 Si / 1000 Ang^3
#
#
#
# Elastic Constant Matrix: (Units=GPa)
#
#
# Indices 1 2 3 4 5 6 
#
# 1 77.8027 36.1077 20.1463 0.0000 0.0000 0.0000
# 2 36.1077 74.1219 35.0005 0.0000 0.0000 0.0000
# 3 20.1463 35.0005 75.0069 0.0000 0.0000 0.0000
# 4 0.0000 0.0000 0.0000 64.2289 0.0000 0.0000
# 5 0.0000 0.0000 0.0000 0.0000 28.4266 0.0000
# 6 0.0000 0.0000 0.0000 0.0000 0.0000 25.7115
#
#
#
# Elastic Compliance Matrix: (Units=1/GPa)
#
#
# Indices 1 2 3 4 5 6 
#
# 1 0.016653 -0.007696 -0.000882 0.000000 0.000000 0.000000
# 2 -0.007696 0.020861 -0.007667 0.000000 0.000000 0.000000
# 3 -0.000882 -0.007667 0.017147 0.000000 0.000000 0.000000
# 4 0.000000 0.000000 0.000000 0.015569 0.000000 0.000000
# 5 0.000000 0.000000 0.000000 0.000000 0.035178 0.000000
# 6 0.000000 0.000000 0.000000 0.000000 0.000000 0.038893
#
#
# Mechanical properties :
#
#
# Convention : Reuss Voigt Hill
#
# Bulk Modulus (GPa) = 45.10461 45.49341 45.29901
# Shear Modulus (GPa) = 27.14718 32.71854 29.93286
#
# Velocity S-wave (km/s) = 3.76003 4.12786 3.94823
# Velocity P-wave (km/s) = 6.50693 6.81258 6.66151
#
# Compressibility (1/GPa) = 0.02217068
#
# Stress axis : x y z
#
# Youngs Moduli (GPa) = 60.04928 47.93681 58.32036
#
# Poissons Ratio (x) = 0.36892 0.05142
# Poissons Ratio (y) = 0.46214 0.44715
# Poissons Ratio (z) = 0.05294 0.36754
#
# Static dielectric constant tensor:
#      x y z
#    x 1.706590 0.000000 0.000000 
#    y 0.000000 1.676880 0.000000 
#    z 0.000000 0.000000 1.650520 
# 
# From -- ./inp_files/25729.got.cif
#   From: 2010.05.17/outbox.cif.g08.bks.cpg/sg51_13_cif.got.tgz:25729.got - 2010.06.03 11:52:47.
