data_PCOD9402404
_publ_section_title
;
Structure prediction by ZEFSAII (Michael W. Deem and Ramdas Pophale) SiO2 
 PCOD9402404
Probable space group: P M M A
;
_chemical_formula_sum "Si O2"
_cell_formula_units_Z 32
_cell_length_a 15.401806
_cell_length_b 12.641938
_cell_length_c 8.432249
_cell_angle_alpha 90.000000
_cell_angle_beta 90.000000
_cell_angle_gamma 90.000000
_cell_volume 1641.832043
_symmetry_space_group_name_H-M "P M M A"
_symmetry_group_IT_number 51
_symmetry_cell_setting 'orthorhombic'
loop_
_space_group_symop_operation_xyz
x,y,z
1/2-x,-y,z
1/2+x,-y,-z
-x,y,-z
-x,-y,-z
1/2+x,y,-z
1/2-x,y,z
x,-y,z
loop_
_atom_site_type_symbol
_atom_site_label
_atom_site_fract_x
_atom_site_fract_y
_atom_site_fract_z
Si Si1 0.250000 0.620718 0.061811
Si Si2 0.099708 0.000000 0.945934
Si Si3 0.750000 0.622099 0.558320
Si Si4 0.099143 0.769287 0.941856
Si Si5 0.594927 0.231401 0.439774
Si Si6 0.645807 0.000000 0.423822
O O1 0.250000 0.500000 0.005152
O O2 0.250000 0.621386 0.251715
O O3 0.164651 0.681229 0.002240
O O4 0.133570 0.885341 0.998268
O O5 0.109476 0.000000 0.755813
O O6 0.000000 0.000000 0.000000
O O7 0.750000 0.500000 0.502770
O O8 0.833413 0.687081 0.499892
O O9 0.098388 0.769270 0.751033
O O10 0.000000 0.755456 0.000000
O O11 0.500000 0.261065 0.500000
O O12 0.615045 0.110940 0.497627
O O13 0.750000 0.000000 0.416278
#
# Coordination Sequence:
#
# PCOD9402404 Si02
#       6
#     4   4   4   8   8   4
#     4  11  25  42  61  84 116 159 206 255 300 355
#     4   8  18  33  57  90 123 154 190 234 290 355
#     4  11  25  44  61  86 122 159 210 259 304 361
#     4  10  21  39  62  91 122 157 198 242 300 358
#     4  11  22  39  65  92 125 161 200 249 304 366
#     4  10  19  35  61  93 127 162 198 244 302 363
#
# _framework density 19.490423
#
# number of rings (size 3 to 8) (size 9 to 14) (size 15 to 20)
#    0.000    1.750    1.250    2.625    5.250    3.000 
#    0.000    5.000    0.000    0.000    0.000    0.000 
#    0.000    0.000    0.000    0.000    0.000    0.000 
#
# Total GULP energy -178663.275949 kJ/mol
# GULP energy per Si atom -5583.227373 kJ/mol
# Density = 1.944606 g / cm^3
# Si number density = 19.490423 Si / 1000 Ang^3
#
#
#
# Elastic Constant Matrix: (Units=GPa)
#
#
# Indices 1 2 3 4 5 6 
#
# 1 157.7673 101.6082 36.2478 0.0000 0.0000 0.0000
# 2 101.6082 213.8909 38.4802 0.0000 0.0000 0.0000
# 3 36.2478 38.4802 46.3629 0.0000 0.0000 0.0000
# 4 0.0000 0.0000 0.0000 40.0153 0.0000 0.0000
# 5 0.0000 0.0000 0.0000 0.0000 30.2907 0.0000
# 6 0.0000 0.0000 0.0000 0.0000 0.0000 -9.7871
#
#
#
# Elastic Compliance Matrix: (Units=1/GPa)
#
#
# Indices 1 2 3 4 5 6 
#
# 1 0.009870 -0.003880 -0.004497 0.000000 0.000000 0.000000
# 2 -0.003880 0.007021 -0.002794 0.000000 0.000000 0.000000
# 3 -0.004497 -0.002794 0.027404 0.000000 0.000000 0.000000
# 4 0.000000 0.000000 0.000000 0.024990 0.000000 0.000000
# 5 0.000000 0.000000 0.000000 0.000000 0.033013 0.000000
# 6 0.000000 0.000000 0.000000 0.000000 0.000000 -0.102175
#
#
# Mechanical properties :
#
#
# Convention : Reuss Voigt Hill
#
# Bulk Modulus (GPa) = 45.54998 85.63263 65.59130
# Shear Modulus (GPa) = 167.88084 28.21610 98.04847
#
# Velocity S-wave (km/s) = 9.29097 3.80898 7.10037
# Velocity P-wave (km/s) = 11.76933 7.96088 10.04721
#
# Compressibility (1/GPa) = 0.02195391
#
# Stress axis : x y z
#
# Youngs Moduli (GPa) = 101.31292 142.42847 36.49169
#
# Poissons Ratio (x) = 0.55261 0.16409
# Poissons Ratio (y) = 0.39309 0.10195
# Poissons Ratio (z) = 0.45557 0.39793
#
# Static dielectric constant tensor:
#      x y z
#    x 1.639090 0.000000 0.000000 
#    y 0.000000 1.714350 0.000000 
#    z 0.000000 0.000000 1.663900 
# 
# From -- ./inp_files/7647.got.cif
#   From: 2010.05.17/outbox.cif.g08.bks.cpg/sg51_4_cif.got.tgz:7647.got - 2010.06.03 11:52:47.
