data_PCOD9402964
_publ_section_title
;
Structure prediction by ZEFSAII (Michael W. Deem and Ramdas Pophale) SiO2 
 PCOD9402964
Probable space group: P M M A
;
_chemical_formula_sum "Si O2"
_cell_formula_units_Z 48
_cell_length_a 8.058122
_cell_length_b 16.087962
_cell_length_c 19.415983
_cell_angle_alpha 90.000000
_cell_angle_beta 90.000000
_cell_angle_gamma 90.000000
_cell_volume 2517.063971
_symmetry_space_group_name_H-M "P M M A"
_symmetry_group_IT_number 51
_symmetry_cell_setting 'orthorhombic'
loop_
_space_group_symop_operation_xyz
x,y,z
1/2-x,-y,z
1/2+x,-y,-z
-x,y,-z
-x,-y,-z
1/2+x,y,-z
1/2-x,y,z
x,-y,z
loop_
_atom_site_type_symbol
_atom_site_label
_atom_site_fract_x
_atom_site_fract_y
_atom_site_fract_z
Si Si1 0.949686 0.840201 0.162531
Si Si2 0.049615 0.589858 0.580581
Si Si3 0.552751 0.095035 0.690370
Si Si4 0.048941 0.319167 0.919788
Si Si5 0.950291 0.000000 0.078944
Si Si6 0.948561 0.228014 0.420284
Si Si7 0.050179 0.500000 0.919882
O O1 0.750000 0.838454 0.156967
O O2 0.012179 0.755140 0.128454
O O3 0.012054 0.918109 0.117858
O O4 0.990851 0.858304 0.241356
O O5 0.250000 0.589649 0.585373
O O6 0.990962 0.500000 0.609390
O O7 0.991468 0.680522 0.606391
O O8 0.000000 0.589593 0.500000
O O9 0.750000 0.089376 0.694989
O O10 0.509603 0.151464 0.624976
O O11 0.485984 0.000000 0.687332
O O12 0.250000 0.319390 0.918354
O O13 0.990621 0.410236 0.894187
O O14 0.000000 0.307342 0.000000
O O15 0.750000 0.000000 0.083012
O O16 0.000000 0.000000 0.000000
O O17 0.750000 0.228758 0.417179
O O18 0.000000 0.219920 0.500000
O O19 0.250000 0.500000 0.914180
O O20 0.000000 0.500000 0.000000
#
# Coordination Sequence:
#
# PCOD9402964 Si02
#       7
#     8   8   8   8   4   8   4
#     4  10  20  35  53  74 101 137 176 214 262 316
#     4   8  14  26  47  77 109 137 166 200 244 297
#     4  11  24  40  57  76 100 136 180 224 271 321
#     4   9  17  29  49  76 105 136 172 212 255 304
#     4  10  20  32  50  76 105 132 167 214 260 312
#     4  10  20  35  58  85 112 141 174 216 260 307
#     4   8  14  26  44  70 102 134 169 208 251 300
#
# _framework density 19.069839000000002
#
# number of rings (size 3 to 8) (size 9 to 14) (size 15 to 20)
#    0.000    2.500    0.833    1.500    0.000    3.333 
#    0.000    0.000    1.833    0.000    0.000    0.000 
#    0.000    0.000    0.000    0.000    0.000    0.000 
#
# Total GULP energy -267433.181584 kJ/mol
# GULP energy per Si atom -5571.524616 kJ/mol
# Density = 1.902643 g / cm^3
# Si number density = 19.069839 Si / 1000 Ang^3
#
#
#
# Elastic Constant Matrix: (Units=GPa)
#
#
# Indices 1 2 3 4 5 6 
#
# 1 11.0686 14.9278 -3.4426 0.0000 0.0000 0.0000
# 2 14.9278 222.1937 76.8012 0.0000 0.0000 0.0000
# 3 -3.4426 76.8012 77.0912 0.0000 0.0000 0.0000
# 4 0.0000 0.0000 0.0000 -31.0535 0.0000 0.0000
# 5 0.0000 0.0000 0.0000 0.0000 26.7480 0.0000
# 6 0.0000 0.0000 0.0000 0.0000 0.0000 7.5376
#
#
#
# Elastic Compliance Matrix: (Units=1/GPa)
#
#
# Indices 1 2 3 4 5 6 
#
# 1 0.116258 -0.014650 0.019786 0.000000 0.000000 0.000000
# 2 -0.014650 0.008710 -0.009332 0.000000 0.000000 0.000000
# 3 0.019786 -0.009332 0.023152 0.000000 0.000000 0.000000
# 4 0.000000 0.000000 0.000000 -0.032202 0.000000 0.000000
# 5 0.000000 0.000000 0.000000 0.000000 0.037386 0.000000
# 6 0.000000 0.000000 0.000000 0.000000 0.000000 0.132668
#
#
# Mechanical properties :
#
#
# Convention : Reuss Voigt Hill
#
# Bulk Modulus (GPa) = 7.15669 54.10293 30.62981
# Shear Modulus (GPa) = 14.66541 15.45089 15.05815
#
# Velocity S-wave (km/s) = 2.77616 2.84954 2.81309
# Velocity P-wave (km/s) = 3.74661 6.26570 5.16218
#
# Compressibility (1/GPa) = 0.13972937
#
# Stress axis : x y z
#
# Youngs Moduli (GPa) = 8.60158 114.80628 43.19305
#
# Poissons Ratio (x) = 1.68188 -0.85463
# Poissons Ratio (y) = 0.12601 0.40307
# Poissons Ratio (z) = -0.17019 1.07134
#
# Static dielectric constant tensor:
#      x y z
#    x 1.670880 0.000000 0.000000 
#    y 0.000000 1.743570 0.000000 
#    z 0.000000 0.000000 1.610630 
# 
# From -- ./inp_files/27672.got.cif
#   From: 2010.05.17/outbox.cif.g08.bks.cpg/sg51_14_cif.got.tgz:27672.got - 2010.06.03 11:52:47.
