data_PCOD9402567
_publ_section_title
;
Structure prediction by ZEFSAII (Michael W. Deem and Ramdas Pophale) SiO2 
 PCOD9402567
Probable space group: P M M A
;
_chemical_formula_sum "Si O2"
_cell_formula_units_Z 48
_cell_length_a 14.355411
_cell_length_b 7.621542
_cell_length_c 24.719176
_cell_angle_alpha 90.000000
_cell_angle_beta 90.000000
_cell_angle_gamma 90.000000
_cell_volume 2704.534139
_symmetry_space_group_name_H-M "P M M A"
_symmetry_group_IT_number 51
_symmetry_cell_setting 'orthorhombic'
loop_
_space_group_symop_operation_xyz
x,y,z
1/2-x,-y,z
1/2+x,-y,-z
-x,y,-z
-x,-y,-z
1/2+x,y,-z
1/2-x,y,z
x,-y,z
loop_
_atom_site_type_symbol
_atom_site_label
_atom_site_fract_x
_atom_site_fract_y
_atom_site_fract_z
Si Si1 0.144065 0.791023 0.188566
Si Si2 0.536485 0.214190 0.915527
Si Si3 0.538809 0.790616 0.581874
Si Si4 0.354807 0.214762 0.524949
Si Si5 0.144722 0.708090 0.309705
Si Si6 0.355206 0.785939 0.976174
O O1 0.250000 0.720366 0.184076
O O2 0.076867 0.723059 0.141500
O O3 0.112105 0.763232 0.250078
O O4 0.150104 0.000000 0.180387
O O5 0.605510 0.263509 0.964668
O O6 0.534313 0.000000 0.914725
O O7 0.432959 0.271190 0.932867
O O8 0.608917 0.729199 0.534491
O O9 0.435031 0.727494 0.566779
O O10 0.577915 0.753482 0.640880
O O11 0.535605 0.000000 0.576194
O O12 0.250000 0.275148 0.535543
O O13 0.352719 0.000000 0.525399
O O14 0.250000 0.781208 0.318117
O O15 0.151940 0.500000 0.308731
O O16 0.250000 0.724908 0.967355
O O17 0.353775 0.000000 0.975319
#
# Coordination Sequence:
#
# PCOD9402567 Si02
#       6
#     8   8   8   8   8   8
#     4   9  16  26  41  59  78 103 136 170 201 238
#     4   8  13  20  32  53  79 104 129 158 195 239
#     4   9  16  27  46  68  87 111 140 167 199 242
#     4   8  14  25  43  68  93 112 133 165 203 241
#     4  10  20  31  42  59  84 111 138 172 213 249
#     4   8  12  18  30  51  80 107 126 153 198 243
#
# _framework density 17.747973000000002
#
# number of rings (size 3 to 8) (size 9 to 14) (size 15 to 20)
#    0.000    3.333    0.000    3.500    0.000    3.667 
#    0.000    1.667    0.000    2.500    0.000    7.000 
#    0.000    1.333    0.000    0.000    0.000    0.000 
#
# Total GULP energy -267417.557125 kJ/mol
# GULP energy per Si atom -5571.199107 kJ/mol
# Density = 1.770758 g / cm^3
# Si number density = 17.747973 Si / 1000 Ang^3
#
#
#
# Elastic Constant Matrix: (Units=GPa)
#
#
# Indices 1 2 3 4 5 6 
#
# 1 162.2414 6.8983 108.0427 0.0000 0.0000 0.0000
# 2 6.8983 32.0667 -0.2580 0.0000 0.0000 0.0000
# 3 108.0427 -0.2580 165.3209 0.0000 0.0000 0.0000
# 4 0.0000 0.0000 0.0000 -73.5784 0.0000 0.0000
# 5 0.0000 0.0000 0.0000 0.0000 49.0472 0.0000
# 6 0.0000 0.0000 0.0000 0.0000 0.0000 -0.2599
#
#
#
# Elastic Compliance Matrix: (Units=1/GPa)
#
#
# Indices 1 2 3 4 5 6 
#
# 1 0.011102 -0.002447 -0.007259 0.000000 0.000000 0.000000
# 2 -0.002447 0.031725 0.001649 0.000000 0.000000 0.000000
# 3 -0.007259 0.001649 0.010796 0.000000 0.000000 0.000000
# 4 0.000000 0.000000 0.000000 -0.013591 0.000000 0.000000
# 5 0.000000 0.000000 0.000000 0.000000 0.020389 0.000000
# 6 0.000000 0.000000 0.000000 0.000000 0.000000 -3.848195
#
#
# Mechanical properties :
#
#
# Convention : Reuss Voigt Hill
#
# Bulk Modulus (GPa) = 26.66157 65.44389 46.05273
# Shear Modulus (GPa) = -1.33009 11.37152 5.02072
#
# Velocity S-wave (km/s) = -0.86664 2.53399 1.68376
# Velocity P-wave (km/s) = 3.74880 6.74652 5.45752
#
# Compressibility (1/GPa) = 0.03750716
#
# Stress axis : x y z
#
# Youngs Moduli (GPa) = 90.07455 31.52128 92.63039
#
# Poissons Ratio (x) = 0.07712 0.67243
# Poissons Ratio (y) = 0.22038 -0.15270
# Poissons Ratio (z) = 0.65388 -0.05196
#
# Static dielectric constant tensor:
#      x y z
#    x 1.610770 0.000000 0.000000 
#    y 0.000000 1.651190 0.000000 
#    z 0.000000 0.000000 1.604080 
# 
# From -- ./inp_files/33204.got.cif
#   From: 2010.05.17/outbox.cif.g08.bks.cpg/sg51_17_cif.got.tgz:33204.got - 2010.06.03 11:52:47.
