data_PCOD9402565
_publ_section_title
;
Structure prediction by ZEFSAII (Michael W. Deem and Ramdas Pophale) SiO2 
 PCOD9402565
Probable space group: P M M A
;
_chemical_formula_sum "Si O2"
_cell_formula_units_Z 56
_cell_length_a 20.204093
_cell_length_b 7.401988
_cell_length_c 16.895451
_cell_angle_alpha 90.000000
_cell_angle_beta 90.000000
_cell_angle_gamma 90.000000
_cell_volume 2526.722367
_symmetry_space_group_name_H-M "P M M A"
_symmetry_group_IT_number 51
_symmetry_cell_setting 'orthorhombic'
loop_
_space_group_symop_operation_xyz
x,y,z
1/2-x,-y,z
1/2+x,-y,-z
-x,y,-z
-x,-y,-z
1/2+x,y,-z
1/2-x,y,z
x,-y,z
loop_
_atom_site_type_symbol
_atom_site_label
_atom_site_fract_x
_atom_site_fract_y
_atom_site_fract_z
Si Si1 0.963657 0.708333 0.213806
Si Si2 0.177927 0.706109 0.796157
Si Si3 0.573594 0.784178 0.513916
Si Si4 0.445994 0.707503 0.058995
Si Si5 0.826600 0.278809 0.841644
Si Si6 0.822464 0.217515 0.387580
Si Si7 0.583288 0.716314 0.694434
O O1 0.947913 0.500000 0.235365
O O2 0.893857 0.789757 0.185856
O O3 0.014106 0.703114 0.141173
O O4 0.009288 0.787805 0.283522
O O5 0.250000 0.786351 0.817934
O O6 0.178630 0.500000 0.826951
O O7 0.175638 0.705881 0.700538
O O8 0.500000 0.712572 0.500000
O O9 0.622167 0.714183 0.446478
O O10 0.597773 0.752619 0.603253
O O11 0.571475 0.000000 0.503786
O O12 0.434809 0.500000 0.030487
O O13 0.374265 0.780416 0.085482
O O14 0.500000 0.791821 0.000000
O O15 0.750000 0.223111 0.846230
O O16 0.827626 0.500000 0.842805
O O17 0.862573 0.221933 0.759276
O O18 0.750000 0.255238 0.421715
O O19 0.828440 0.000000 0.378320
O O20 0.579722 0.500000 0.704049
#
# Coordination Sequence:
#
# PCOD9402565 Si02
#       7
#     8   8   8   8   8   8   8
#     4   8  14  25  39  56  80 106 132 164 200 237
#     4   9  16  26  41  59  78 102 132 166 202 238
#     4  10  20  31  42  59  83 107 134 174 218 251
#     4   8  13  22  37  57  83 115 142 161 195 251
#     4   8  14  25  40  59  83 109 140 179 215 245
#     4   9  18  31  43  55  76 106 134 162 202 247
#     4   9  17  28  43  60  78 107 142 172 206 248
#
# _framework density 22.163098999999999
#
# number of rings (size 3 to 8) (size 9 to 14) (size 15 to 20)
#    0.000    3.286    0.000    2.571    0.000    1.429 
#    0.000    0.714    0.000    4.286    0.000    0.000 
#    0.000   14.286    0.000    1.429    0.000    1.143 
#
# Total GULP energy -311898.036359 kJ/mol
# GULP energy per Si atom -5569.607792 kJ/mol
# Density = 2.211265 g / cm^3
# Si number density = 22.163099 Si / 1000 Ang^3
#
#
#
# Elastic Constant Matrix: (Units=GPa)
#
#
# Indices 1 2 3 4 5 6 
#
# 1 168.2251 10.6942 4.4357 0.0000 0.0000 0.0000
# 2 10.6942 74.3005 -5.8328 0.0000 0.0000 0.0000
# 3 4.4357 -5.8328 27.4704 0.0000 0.0000 0.0000
# 4 0.0000 0.0000 0.0000 11.9169 0.0000 0.0000
# 5 0.0000 0.0000 0.0000 0.0000 30.0803 0.0000
# 6 0.0000 0.0000 0.0000 0.0000 0.0000 -7.0762
#
#
#
# Elastic Compliance Matrix: (Units=1/GPa)
#
#
# Indices 1 2 3 4 5 6 
#
# 1 0.006037 -0.000961 -0.001179 0.000000 0.000000 0.000000
# 2 -0.000961 0.013840 0.003094 0.000000 0.000000 0.000000
# 3 -0.001179 0.003094 0.037250 0.000000 0.000000 0.000000
# 4 0.000000 0.000000 0.000000 0.083914 0.000000 0.000000
# 5 0.000000 0.000000 0.000000 0.000000 0.033244 0.000000
# 6 0.000000 0.000000 0.000000 0.000000 0.000000 -0.141319
#
#
# Mechanical properties :
#
#
# Convention : Reuss Voigt Hill
#
# Bulk Modulus (GPa) = 16.93937 32.06558 24.50247
# Shear Modulus (GPa) = 98.54698 24.36413 61.45555
#
# Velocity S-wave (km/s) = 6.67540 3.31918 5.27152
# Velocity P-wave (km/s) = 8.18989 5.40266 6.93769
#
# Compressibility (1/GPa) = 0.05903409
#
# Stress axis : x y z
#
# Youngs Moduli (GPa) = 165.65573 72.25371 26.84556
#
# Poissons Ratio (x) = 0.06946 0.03165
# Poissons Ratio (y) = 0.15926 -0.08306
# Poissons Ratio (z) = 0.19529 -0.22355
#
# Static dielectric constant tensor:
#      x y z
#    x 1.929020 0.000000 0.000000 
#    y 0.000000 1.879640 0.000000 
#    z 0.000000 0.000000 1.788970 
# 
# From -- ./inp_files/30367.got.cif
#   From: 2010.05.17/outbox.cif.g08.bks.cpg/sg51_16_cif.got.tgz:30367.got - 2010.06.03 11:52:47.
