data_PCOD9402433
_publ_section_title
;
Structure prediction by ZEFSAII (Michael W. Deem and Ramdas Pophale) SiO2 
 PCOD9402433
Probable space group: P M M A
;
_chemical_formula_sum "Si O2"
_cell_formula_units_Z 40
_cell_length_a 19.423591
_cell_length_b 7.714576
_cell_length_c 12.283648
_cell_angle_alpha 90.000000
_cell_angle_beta 90.000000
_cell_angle_gamma 90.000000
_cell_volume 1840.640397
_symmetry_space_group_name_H-M "P M M A"
_symmetry_group_IT_number 51
_symmetry_cell_setting 'orthorhombic'
loop_
_space_group_symop_operation_xyz
x,y,z
1/2-x,-y,z
1/2+x,-y,-z
-x,y,-z
-x,-y,-z
1/2+x,y,-z
1/2-x,y,z
x,-y,z
loop_
_atom_site_type_symbol
_atom_site_label
_atom_site_fract_x
_atom_site_fract_y
_atom_site_fract_z
Si Si1 0.886118 0.298670 0.671212
Si Si2 0.064293 0.290430 0.922168
Si Si3 0.674023 0.201582 0.448181
Si Si4 0.171040 0.711695 0.098013
Si Si5 0.541685 0.200570 0.325122
O O1 0.866197 0.500000 0.667613
O O2 0.843977 0.208823 0.575665
O O3 0.867773 0.232177 0.791876
O O4 0.967752 0.284100 0.652207
O O5 0.065041 0.500000 0.908789
O O6 0.055857 0.212341 0.803457
O O7 0.131224 0.233861 0.989506
O O8 0.000000 0.249044 0.000000
O O9 0.750000 0.277534 0.427913
O O10 0.607886 0.278799 0.386451
O O11 0.676975 0.000000 0.414346
O O12 0.250000 0.766320 0.100782
O O13 0.168953 0.500000 0.097560
O O14 0.534524 0.000000 0.358873
#
# Coordination Sequence:
#
# PCOD9402433 Si02
#       5
#     8   8   8   8   8
#     4  11  21  37  61  88 116 148 193 246 292 342
#     4  10  19  36  58  82 113 148 186 235 291 341
#     4  10  23  42  59  80 117 158 192 235 291 346
#     4   9  18  33  55  83 114 147 183 231 293 347
#     4  11  23  38  59  85 115 154 197 236 286 350
#
# _framework density 21.731567999999999
#
# number of rings (size 3 to 8) (size 9 to 14) (size 15 to 20)
#    0.000    1.800    2.000    2.400    0.000    6.400 
#    0.000    0.000    0.000    2.400    0.000    0.000 
#    0.000    0.000    0.000    0.000    0.000    0.000 
#
# Total GULP energy -223536.178555 kJ/mol
# GULP energy per Si atom -5588.404464 kJ/mol
# Density = 2.168211 g / cm^3
# Si number density = 21.731568 Si / 1000 Ang^3
#
#
#
# Elastic Constant Matrix: (Units=GPa)
#
#
# Indices 1 2 3 4 5 6 
#
# 1 136.1018 -2.3666 14.3600 0.0000 0.0000 0.0000
# 2 -2.3666 34.9052 -8.1182 0.0000 0.0000 0.0000
# 3 14.3600 -8.1182 48.5247 0.0000 0.0000 0.0000
# 4 0.0000 0.0000 0.0000 24.7739 0.0000 0.0000
# 5 0.0000 0.0000 0.0000 0.0000 32.2472 0.0000
# 6 0.0000 0.0000 0.0000 0.0000 0.0000 94.6885
#
#
#
# Elastic Compliance Matrix: (Units=1/GPa)
#
#
# Indices 1 2 3 4 5 6 
#
# 1 0.007584 -0.000008 -0.002246 0.000000 0.000000 0.000000
# 2 -0.000008 0.029809 0.004989 0.000000 0.000000 0.000000
# 3 -0.002246 0.004989 0.022107 0.000000 0.000000 0.000000
# 4 0.000000 0.000000 0.000000 0.040365 0.000000 0.000000
# 5 0.000000 0.000000 0.000000 0.000000 0.031010 0.000000
# 6 0.000000 0.000000 0.000000 0.000000 0.000000 0.010561
#
#
# Mechanical properties :
#
#
# Convention : Reuss Voigt Hill
#
# Bulk Modulus (GPa) = 15.39132 25.25356 20.32244
# Shear Modulus (GPa) = 31.72125 44.71903 38.22014
#
# Velocity S-wave (km/s) = 3.82473 4.54121 4.19828
# Velocity P-wave (km/s) = 5.15777 6.25641 5.73347
#
# Compressibility (1/GPa) = 0.06497169
#
# Stress axis : x y z
#
# Youngs Moduli (GPa) = 131.85222 33.54703 45.23378
#
# Poissons Ratio (x) = 0.00027 0.10158
# Poissons Ratio (y) = 0.00107 -0.22569
# Poissons Ratio (z) = 0.29611 -0.16738
#
# Static dielectric constant tensor:
#      x y z
#    x 1.794940 0.000000 0.000000 
#    y 0.000000 1.817010 0.000000 
#    z 0.000000 0.000000 1.749870 
# 
# From -- ./inp_files/17077.got.cif
#   From: 2010.05.17/outbox.cif.g08.bks.cpg/sg51_9_cif.got.tgz:17077.got - 2010.06.03 11:52:47.
