data_PCOD9402498
_publ_section_title
;
Structure prediction by ZEFSAII (Michael W. Deem and Ramdas Pophale) SiO2 
 PCOD9402498
Probable space group: P M M A
;
_chemical_formula_sum "Si O2"
_cell_formula_units_Z 64
_cell_length_a 32.136850
_cell_length_b 17.864054
_cell_length_c 5.234011
_cell_angle_alpha 90.000000
_cell_angle_beta 90.000000
_cell_angle_gamma 90.000000
_cell_volume 3004.816529
_symmetry_space_group_name_H-M "P M M A"
_symmetry_group_IT_number 51
_symmetry_cell_setting 'orthorhombic'
loop_
_space_group_symop_operation_xyz
x,y,z
1/2-x,-y,z
1/2+x,-y,-z
-x,y,-z
-x,-y,-z
1/2+x,y,-z
1/2-x,y,z
x,-y,z
loop_
_atom_site_type_symbol
_atom_site_label
_atom_site_fract_x
_atom_site_fract_y
_atom_site_fract_z
Si Si1 0.454584 0.920168 0.870978
Si Si2 0.166663 0.588742 0.956365
Si Si3 0.472954 0.759535 0.740020
Si Si4 0.795841 0.088543 0.009697
Si Si5 0.666685 0.192437 0.376233
Si Si6 0.297840 0.661256 0.444072
Si Si7 0.108073 0.286587 0.976384
Si Si8 0.615473 0.862419 0.761844
O O1 0.457944 0.845596 0.702081
O O2 0.419807 0.908179 0.091704
O O3 0.446777 0.000000 0.738289
O O4 0.500000 0.924056 0.000000
O O5 0.163949 0.500000 0.965640
O O6 0.179715 0.614938 0.671209
O O7 0.124078 0.631357 0.037095
O O8 0.197640 0.619821 0.173938
O O9 0.500000 0.735679 0.500000
O O10 0.431860 0.712246 0.796206
O O11 0.500000 0.757764 0.000000
O O12 0.750000 0.101901 0.887934
O O13 0.798498 0.139186 0.262798
O O14 0.838780 0.112862 0.870417
O O15 0.798525 0.000000 0.060618
O O16 0.683763 0.254248 0.573771
O O17 0.646345 0.246075 0.166061
O O18 0.628859 0.139029 0.467309
O O19 0.250000 0.668094 0.518014
O O20 0.100544 0.224169 0.193263
#
# Coordination Sequence:
#
# PCOD9402498 Si02
#       8
#     8   8   8   8   8   8   8   8
#     4   9  19  34  54  84 119 151 191 246 311 374
#     4  11  23  40  62  91 125 164 200 246 311 371
#     4  10  22  36  61  88 117 156 200 252 301 358
#     4  10  22  37  52  78 114 154 207 265 315 360
#     4  10  21  37  60  82 111 157 207 255 304 368
#     4  11  23  39  61  91 125 161 205 253 304 367
#     4   9  21  38  59  84 118 150 199 244 296 371
#     4  10  19  37  59  80 111 154 203 252 303 370
#
# _framework density 21.299137000000002
#
# number of rings (size 3 to 8) (size 9 to 14) (size 15 to 20)
#    0.000    2.000    1.250    1.500    5.250    3.750 
#    0.000    1.250    0.000    0.750    0.000    0.000 
#    0.000    0.000    0.000    0.000    0.000    0.000 
#
# Total GULP energy -356710.682043 kJ/mol
# GULP energy per Si atom -5573.604407 kJ/mol
# Density = 2.125066 g / cm^3
# Si number density = 21.299137 Si / 1000 Ang^3
#
#
#
# Elastic Constant Matrix: (Units=GPa)
#
#
# Indices 1 2 3 4 5 6 
#
# 1 102.0971 39.4324 5.0634 0.0000 0.0000 0.0000
# 2 39.4324 86.1595 14.3766 0.0000 0.0000 0.0000
# 3 5.0634 14.3766 55.2047 0.0000 0.0000 0.0000
# 4 0.0000 0.0000 0.0000 15.1105 0.0000 0.0000
# 5 0.0000 0.0000 0.0000 0.0000 27.0496 0.0000
# 6 0.0000 0.0000 0.0000 0.0000 0.0000 17.9456
#
#
#
# Elastic Compliance Matrix: (Units=1/GPa)
#
#
# Indices 1 2 3 4 5 6 
#
# 1 0.011904 -0.005505 0.000342 0.000000 0.000000 0.000000
# 2 -0.005505 0.014679 -0.003318 0.000000 0.000000 0.000000
# 3 0.000342 -0.003318 0.018947 0.000000 0.000000 0.000000
# 4 0.000000 0.000000 0.000000 0.066179 0.000000 0.000000
# 5 0.000000 0.000000 0.000000 0.000000 0.036969 0.000000
# 6 0.000000 0.000000 0.000000 0.000000 0.000000 0.055724
#
#
# Mechanical properties :
#
#
# Convention : Reuss Voigt Hill
#
# Bulk Modulus (GPa) = 35.00407 40.13399 37.56903
# Shear Modulus (GPa) = 21.65555 24.32708 22.99131
#
# Velocity S-wave (km/s) = 3.19209 3.38326 3.28906
# Velocity P-wave (km/s) = 5.48234 5.84344 5.66577
#
# Compressibility (1/GPa) = 0.02856811
#
# Stress axis : x y z
#
# Youngs Moduli (GPa) = 84.00663 68.12233 52.77846
#
# Poissons Ratio (x) = 0.37501 -0.01804
# Poissons Ratio (y) = 0.46246 0.17512
# Poissons Ratio (z) = -0.02871 0.22603
#
# Static dielectric constant tensor:
#      x y z
#    x 1.845670 0.000000 0.000000 
#    y 0.000000 1.782180 0.000000 
#    z 0.000000 0.000000 1.906330 
# 
# From -- ./inp_files/4103.got.cif
#   From: 2010.05.17/outbox.cif.g08.bks.cpg/sg51_3_cif.got.tgz:4103.got - 2010.06.03 11:52:47.
