data_PCOD9402066
_publ_section_title
;
Structure prediction by ZEFSAII (Michael W. Deem and Ramdas Pophale) SiO2 
 PCOD9402066
Probable space group: P M M A
;
_chemical_formula_sum "Si O2"
_cell_formula_units_Z 64
_cell_length_a 18.255238
_cell_length_b 8.646885
_cell_length_c 22.202811
_cell_angle_alpha 90.000000
_cell_angle_beta 90.000000
_cell_angle_gamma 90.000000
_cell_volume 3504.734668
_symmetry_space_group_name_H-M "P M M A"
_symmetry_group_IT_number 51
_symmetry_cell_setting 'orthorhombic'
loop_
_space_group_symop_operation_xyz
x,y,z
1/2-x,-y,z
1/2+x,-y,-z
-x,y,-z
-x,-y,-z
1/2+x,y,-z
1/2-x,y,z
x,-y,z
loop_
_atom_site_type_symbol
_atom_site_label
_atom_site_fract_x
_atom_site_fract_y
_atom_site_fract_z
Si Si1 0.665211 0.314628 0.223808
Si Si2 0.668305 0.186432 0.631658
Si Si3 0.665331 0.685131 0.998645
Si Si4 0.978183 0.811954 0.565918
Si Si5 0.451135 0.814182 0.690029
Si Si6 0.401897 0.315767 0.250575
Si Si7 0.595100 0.185463 0.879000
Si Si8 0.423917 0.814954 0.889846
O O1 0.750000 0.265820 0.220911
O O2 0.662563 0.500000 0.225009
O O3 0.623360 0.248631 0.281906
O O4 0.621086 0.256383 0.165511
O O5 0.750000 0.224529 0.610884
O O6 0.603362 0.234441 0.586683
O O7 0.651525 0.261679 0.696100
O O8 0.663088 0.000000 0.638666
O O9 0.750000 0.727521 0.010510
O O10 0.659150 0.500000 0.002342
O O11 0.641227 0.741673 0.932928
O O12 0.612934 0.760313 0.048376
O O13 0.000000 0.754537 0.500000
O O14 0.031707 0.767936 0.621046
O O15 0.979082 0.000000 0.563814
O O16 0.518403 0.749280 0.729819
O O17 0.452814 0.000000 0.693880
O O18 0.404808 0.500000 0.247028
O O19 0.381121 0.245282 0.186344
O O20 0.509389 0.229859 0.887023
O O21 0.600244 0.000000 0.881500
O O22 0.420411 0.000000 0.885298
#
# Coordination Sequence:
#
# PCOD9402066 Si02
#       8
#     8   8   8   8   8   8   8   8
#     4  11  23  37  56  83 114 149 188 231 282 335
#     4   9  18  33  54  80 112 150 191 235 283 334
#     4  11  25  42  58  80 112 148 187 232 282 337
#     4   8  15  30  54  83 113 146 187 235 281 328
#     4  10  19  34  56  82 112 145 184 228 275 330
#     4  11  21  34  56  82 110 145 182 226 281 337
#     4  11  23  39  60  85 111 143 186 233 280 338
#     4  11  23  39  61  85 110 143 187 235 283 336
#
# _framework density 18.261012000000001
#
# number of rings (size 3 to 8) (size 9 to 14) (size 15 to 20)
#    0.000    1.750    1.250    4.500    0.000    7.250 
#    0.000    0.625    0.000   11.625    0.000    0.000 
#    0.000    0.000    0.000    0.000    0.000    0.000 
#
# Total GULP energy -357525.529084 kJ/mol
# GULP energy per Si atom -5586.336392 kJ/mol
# Density = 1.821945 g / cm^3
# Si number density = 18.261012 Si / 1000 Ang^3
#
#
#
# Elastic Constant Matrix: (Units=GPa)
#
#
# Indices 1 2 3 4 5 6 
#
# 1 40.7695 9.1411 7.6879 0.0000 0.0000 0.0000
# 2 9.1411 27.0271 -2.9762 0.0000 0.0000 0.0000
# 3 7.6879 -2.9762 97.7935 0.0000 0.0000 0.0000
# 4 0.0000 0.0000 0.0000 -78.3721 0.0000 0.0000
# 5 0.0000 0.0000 0.0000 0.0000 16.8800 0.0000
# 6 0.0000 0.0000 0.0000 0.0000 0.0000 23.8039
#
#
#
# Elastic Compliance Matrix: (Units=1/GPa)
#
#
# Indices 1 2 3 4 5 6 
#
# 1 0.027099 -0.009432 -0.002417 0.000000 0.000000 0.000000
# 2 -0.009432 0.040407 0.001971 0.000000 0.000000 0.000000
# 3 -0.002417 0.001971 0.010476 0.000000 0.000000 0.000000
# 4 0.000000 0.000000 0.000000 -0.012760 0.000000 0.000000
# 5 0.000000 0.000000 0.000000 0.000000 0.059242 0.000000
# 6 0.000000 0.000000 0.000000 0.000000 0.000000 0.042010
#
#
# Mechanical properties :
#
#
# Convention : Reuss Voigt Hill
#
# Bulk Modulus (GPa) = 17.17450 21.47730 19.32590
# Shear Modulus (GPa) = 24.31467 2.57819 13.44643
#
# Velocity S-wave (km/s) = 3.65294 1.18950 2.71651
# Velocity P-wave (km/s) = 5.21703 3.69775 4.52166
#
# Compressibility (1/GPa) = 0.05822586
#
# Stress axis : x y z
#
# Youngs Moduli (GPa) = 36.90215 24.74821 95.45943
#
# Poissons Ratio (x) = 0.23341 0.23076
# Poissons Ratio (y) = 0.34804 -0.18817
# Poissons Ratio (z) = 0.08921 -0.04878
#
# Static dielectric constant tensor:
#      x y z
#    x 1.625960 0.000000 0.000000 
#    y 0.000000 1.611110 0.000000 
#    z 0.000000 0.000000 1.611170 
# 
# From -- ./inp_files/33897.got.cif
#   From: 2010.05.17/outbox.cif.g08.bks.cpg/sg51_17_cif.got.tgz:33897.got - 2010.06.03 11:52:47.
