data_PCOD9402180
_publ_section_title
;
Structure prediction by ZEFSAII (Michael W. Deem and Ramdas Pophale) SiO2 
 PCOD9402180
Probable space group: P M M A
;
_chemical_formula_sum "Si O2"
_cell_formula_units_Z 64
_cell_length_a 8.909197
_cell_length_b 25.612610
_cell_length_c 14.931904
_cell_angle_alpha 90.000000
_cell_angle_beta 90.000000
_cell_angle_gamma 90.000000
_cell_volume 3407.278147
_symmetry_space_group_name_H-M "P M M A"
_symmetry_group_IT_number 51
_symmetry_cell_setting 'orthorhombic'
loop_
_space_group_symop_operation_xyz
x,y,z
1/2-x,-y,z
1/2+x,-y,-z
-x,y,-z
-x,-y,-z
1/2+x,y,-z
1/2-x,y,z
x,-y,z
loop_
_atom_site_type_symbol
_atom_site_label
_atom_site_fract_x
_atom_site_fract_y
_atom_site_fract_z
Si Si1 0.569828 0.150099 0.903088
Si Si2 0.932455 0.248948 0.785862
Si Si3 0.928150 0.406198 0.594423
Si Si4 0.923873 0.063567 0.409372
Si Si5 0.569295 0.350711 0.901201
Si Si6 0.068595 0.061469 0.788244
Si Si7 0.072084 0.719222 0.407005
Si Si8 0.571848 0.439906 0.220440
O O1 0.750000 0.149512 0.908911
O O2 0.522107 0.196443 0.836028
O O3 0.508933 0.096328 0.862489
O O4 0.500000 0.159607 0.000000
O O5 0.750000 0.249492 0.782115
O O6 0.975565 0.299307 0.844535
O O7 0.986946 0.254576 0.683907
O O8 0.750000 0.416360 0.595004
O O9 0.950489 0.343385 0.602135
O O10 0.000000 0.422860 0.500000
O O11 0.006267 0.431525 0.680084
O O12 0.750000 0.077964 0.412757
O O13 0.984023 0.078841 0.311582
O O14 0.000000 0.082843 0.500000
O O15 0.931577 0.000000 0.410038
O O16 0.750000 0.352127 0.906515
O O17 0.509893 0.400470 0.846601
O O18 0.500000 0.348894 0.000000
O O19 0.250000 0.066995 0.791478
O O20 0.035788 0.000000 0.798676
O O21 0.250000 0.727916 0.412659
O O22 0.000000 0.736643 0.500000
O O23 0.750000 0.429307 0.221145
O O24 0.548403 0.500000 0.193708
#
# Coordination Sequence:
#
# PCOD9402180 Si02
#       8
#     8   8   8   8   8   8   8   8
#     4  11  23  39  60  84 113 147 186 237 289 340
#     4   9  19  38  61  85 116 148 182 229 283 335
#     4  10  19  34  58  85 116 153 192 236 284 339
#     4   8  14  26  47  75 106 141 180 223 268 315
#     4  11  22  40  63  86 111 145 188 237 292 348
#     4   9  19  37  58  81 114 153 192 235 281 333
#     4   9  17  33  56  85 116 148 184 224 273 331
#     4  11  24  40  57  82 116 152 194 241 287 342
#
# _framework density 18.783321999999998
#
# number of rings (size 3 to 8) (size 9 to 14) (size 15 to 20)
#    0.000    2.250    1.250    2.625    0.000    3.000 
#    0.000    5.000    0.000    3.000    0.000    0.000 
#    0.000    0.000    0.000    0.000    0.000    0.000 
#
# Total GULP energy -357220.391442 kJ/mol
# GULP energy per Si atom -5581.568616 kJ/mol
# Density = 1.874057 g / cm^3
# Si number density = 18.783322 Si / 1000 Ang^3
#
#
#
# Elastic Constant Matrix: (Units=GPa)
#
#
# Indices 1 2 3 4 5 6 
#
# 1 43.7794 38.9852 39.1131 0.0000 0.0000 0.0000
# 2 38.9852 72.1824 61.7248 0.0000 0.0000 0.0000
# 3 39.1131 61.7248 145.4287 0.0000 0.0000 0.0000
# 4 0.0000 0.0000 0.0000 -16.8749 0.0000 0.0000
# 5 0.0000 0.0000 0.0000 0.0000 37.1438 0.0000
# 6 0.0000 0.0000 0.0000 0.0000 0.0000 14.9395
#
#
#
# Elastic Compliance Matrix: (Units=1/GPa)
#
#
# Indices 1 2 3 4 5 6 
#
# 1 0.044715 -0.021767 -0.002788 0.000000 0.000000 0.000000
# 2 -0.021767 0.032342 -0.007873 0.000000 0.000000 0.000000
# 3 -0.002788 -0.007873 0.010968 0.000000 0.000000 0.000000
# 4 0.000000 0.000000 0.000000 -0.059260 0.000000 0.000000
# 5 0.000000 0.000000 0.000000 0.000000 0.026922 0.000000
# 6 0.000000 0.000000 0.000000 0.000000 0.000000 0.066937
#
#
# Mechanical properties :
#
#
# Convention : Reuss Voigt Hill
#
# Bulk Modulus (GPa) = 43.15846 60.11520 51.63683
# Shear Modulus (GPa) = 25.61443 15.14618 20.38031
#
# Velocity S-wave (km/s) = 3.69681 2.84273 3.29754
# Velocity P-wave (km/s) = 6.42252 6.54591 6.48451
#
# Compressibility (1/GPa) = 0.02317043
#
# Stress axis : x y z
#
# Youngs Moduli (GPa) = 22.36367 30.91947 91.17841
#
# Poissons Ratio (x) = 0.67301 0.25418
# Poissons Ratio (y) = 0.48678 0.71784
# Poissons Ratio (z) = 0.06234 0.24343
#
# Static dielectric constant tensor:
#      x y z
#    x 1.630560 0.000000 0.000000 
#    y 0.000000 1.648800 0.000000 
#    z 0.000000 0.000000 1.646010 
# 
# From -- ./inp_files/22203.got.cif
#   From: 2010.05.17/outbox.cif.g08.bks.cpg/sg51_12_cif.got.tgz:22203.got - 2010.06.03 11:52:47.
