data_PCOD9402992
_publ_section_title
;
Structure prediction by ZEFSAII (Michael W. Deem and Ramdas Pophale) SiO2 
 PCOD9402992
Probable space group: P M M A
;
_chemical_formula_sum "Si O2"
_cell_formula_units_Z 64
_cell_length_a 14.955518
_cell_length_b 9.368393
_cell_length_c 24.827387
_cell_angle_alpha 90.000000
_cell_angle_beta 90.000000
_cell_angle_gamma 90.000000
_cell_volume 3478.544589
_symmetry_space_group_name_H-M "P M M A"
_symmetry_group_IT_number 51
_symmetry_cell_setting 'orthorhombic'
loop_
_space_group_symop_operation_xyz
x,y,z
1/2-x,-y,z
1/2+x,-y,-z
-x,y,-z
-x,-y,-z
1/2+x,y,-z
1/2-x,y,z
x,-y,z
loop_
_atom_site_type_symbol
_atom_site_label
_atom_site_fract_x
_atom_site_fract_y
_atom_site_fract_z
Si Si1 0.643394 0.169449 0.803004
Si Si2 0.987030 0.172175 0.705309
Si Si3 0.647266 0.173942 0.484846
Si Si4 0.476692 0.173304 0.416803
Si Si5 0.644815 0.659161 0.906977
Si Si6 0.642294 0.662057 0.116280
Si Si7 0.645138 0.671554 0.238472
Si Si8 0.104246 0.159170 0.988662
O O1 0.750000 0.194106 0.795138
O O2 0.587643 0.209038 0.749929
O O3 0.609239 0.253623 0.855710
O O4 0.632373 0.000000 0.812747
O O5 0.962129 0.216804 0.644681
O O6 0.079433 0.245542 0.722354
O O7 0.996881 0.000000 0.705890
O O8 0.750000 0.222755 0.478543
O O9 0.574376 0.217322 0.439630
O O10 0.600554 0.217770 0.541277
O O11 0.649693 0.000000 0.484255
O O12 0.476433 0.000000 0.418045
O O13 0.750000 0.646081 0.896092
O O14 0.606229 0.500000 0.911355
O O15 0.638570 0.742907 0.962893
O O16 0.750000 0.656481 0.116275
O O17 0.610402 0.500000 0.106160
O O18 0.617628 0.706658 0.176777
O O19 0.615426 0.766571 0.068812
O O20 0.750000 0.707457 0.245789
O O21 0.636980 0.500000 0.244136
O O22 0.143753 0.000000 0.989517
O O23 0.000000 0.147216 0.000000
#
# Coordination Sequence:
#
# PCOD9402992 Si02
#       8
#     8   8   8   8   8   8   8   8
#     4   9  19  35  52  72 103 140 173 210 261 316
#     4  10  20  32  51  78 108 139 174 219 264 307
#     4   8  13  23  41  64  97 140 176 209 253 301
#     4   8  15  26  39  66 103 134 170 213 255 300
#     4  10  21  37  56  75  95 125 168 213 255 305
#     4   9  19  37  57  74  94 124 165 210 254 305
#     4   9  20  38  56  75 102 137 175 214 261 316
#     4  11  24  36  49  75 106 130 157 199 254 316
#
# _framework density 18.398498
#
# number of rings (size 3 to 8) (size 9 to 14) (size 15 to 20)
#    0.000    2.750    0.000    2.625    1.750    5.750 
#    0.000    5.000    0.000    0.000    0.000    1.750 
#    0.000    1.000    0.000    0.000    0.000    0.000 
#
# Total GULP energy -356732.687392 kJ/mol
# GULP energy per Si atom -5573.948240 kJ/mol
# Density = 1.835662 g / cm^3
# Si number density = 18.398498 Si / 1000 Ang^3
#
#
#
# Elastic Constant Matrix: (Units=GPa)
#
#
# Indices 1 2 3 4 5 6 
#
# 1 40.9316 1.5103 -20.3586 0.0000 0.0000 0.0000
# 2 1.5103 34.7208 20.0961 0.0000 0.0000 0.0000
# 3 -20.3586 20.0961 50.6130 0.0000 0.0000 0.0000
# 4 0.0000 0.0000 0.0000 -149.6239 0.0000 0.0000
# 5 0.0000 0.0000 0.0000 0.0000 25.3731 0.0000
# 6 0.0000 0.0000 0.0000 0.0000 0.0000 2.1228
#
#
#
# Elastic Compliance Matrix: (Units=1/GPa)
#
#
# Indices 1 2 3 4 5 6 
#
# 1 0.034129 -0.012244 0.018590 0.000000 0.000000 0.000000
# 2 -0.012244 0.041788 -0.021517 0.000000 0.000000 0.000000
# 3 0.018590 -0.021517 0.035779 0.000000 0.000000 0.000000
# 4 0.000000 0.000000 0.000000 -0.006683 0.000000 0.000000
# 5 0.000000 0.000000 0.000000 0.000000 0.039412 0.000000
# 6 0.000000 0.000000 0.000000 0.000000 0.000000 0.471074
#
#
# Mechanical properties :
#
#
# Convention : Reuss Voigt Hill
#
# Bulk Modulus (GPa) = 12.29223 14.30678 13.29951
# Shear Modulus (GPa) = 7.42988 -16.09109 -4.33060
#
# Velocity S-wave (km/s) = 2.01173 -2.96055 -1.53587
# Velocity P-wave (km/s) = 3.47731 1.97320 2.02462
#
# Compressibility (1/GPa) = 0.08135221
#
# Stress axis : x y z
#
# Youngs Moduli (GPa) = 29.30070 23.93053 27.94963
#
# Poissons Ratio (x) = 0.29301 -0.51957
# Poissons Ratio (y) = 0.35876 0.60139
# Poissons Ratio (z) = -0.54469 0.51491
#
# Static dielectric constant tensor:
#      x y z
#    x 1.649520 0.000000 0.000000 
#    y 0.000000 1.649900 0.000000 
#    z 0.000000 0.000000 1.644590 
# 
# From -- ./inp_files/35643.got.cif
#   From: 2010.05.17/outbox.cif.g08.bks.cpg/sg51_18_cif.got.tgz:35643.got - 2010.06.03 11:52:47.
