data_PCOD9403159
_publ_section_title
;
Structure prediction by ZEFSAII (Michael W. Deem and Ramdas Pophale) SiO2 
 PCOD9403159
Probable space group: P M M A
;
_chemical_formula_sum "Si O2"
_cell_formula_units_Z 48
_cell_length_a 9.474822
_cell_length_b 9.179151
_cell_length_c 32.061054
_cell_angle_alpha 90.000000
_cell_angle_beta 90.000000
_cell_angle_gamma 90.000000
_cell_volume 2788.376215
_symmetry_space_group_name_H-M "P M M A"
_symmetry_group_IT_number 51
_symmetry_cell_setting 'orthorhombic'
loop_
_space_group_symop_operation_xyz
x,y,z
1/2-x,-y,z
1/2+x,-y,-z
-x,y,-z
-x,-y,-z
1/2+x,y,-z
1/2-x,y,z
x,-y,z
loop_
_atom_site_type_symbol
_atom_site_label
_atom_site_fract_x
_atom_site_fract_y
_atom_site_fract_z
Si Si1 0.080740 0.172505 0.214778
Si Si2 0.917578 0.673698 0.458404
Si Si3 0.581754 0.327347 0.289074
Si Si4 0.412247 0.822052 0.959354
Si Si5 0.078220 0.167646 0.626092
Si Si6 0.587452 0.822552 0.879183
O O1 0.250000 0.188988 0.218748
O O2 0.043080 0.220396 0.167560
O O3 0.999884 0.259691 0.250148
O O4 0.049138 0.000000 0.218776
O O5 0.750000 0.699696 0.463808
O O6 0.937040 0.500000 0.452653
O O7 0.966712 0.755646 0.416763
O O8 0.000000 0.718523 0.500000
O O9 0.750000 0.300787 0.284384
O O10 0.559936 0.500000 0.291585
O O11 0.534496 0.252521 0.332290
O O12 0.250000 0.775503 0.961549
O O13 0.488022 0.774166 0.916754
O O14 0.413001 0.000000 0.959173
O O15 0.500000 0.776301 0.000000
O O16 0.250000 0.170867 0.625749
O O17 0.033232 0.000000 0.627676
O O18 0.750000 0.777622 0.886251
O O19 0.587664 0.000000 0.879146
#
# Coordination Sequence:
#
# PCOD9403159 Si02
#       6
#     8   8   8   8   8   8
#     4   9  18  32  49  69  94 124 157 195 242 292
#     4   9  17  30  48  69  94 124 157 193 234 281
#     4  10  20  33  50  72  96 123 158 198 238 284
#     4   9  15  21  31  50  78 113 151 188 227 273
#     4   9  17  30  49  71  94 123 159 197 237 281
#     4   8  14  25  39  55  79 112 148 186 229 277
#
# _framework density 17.214320000000001
#
# number of rings (size 3 to 8) (size 9 to 14) (size 15 to 20)
#    0.000    3.000    0.000    2.500    0.000    6.333 
#    0.000    2.500    0.000    3.000    0.000    0.000 
#    0.000    0.667    0.000    2.167    0.000    4.833 
#
# Total GULP energy -267497.562134 kJ/mol
# GULP energy per Si atom -5572.865878 kJ/mol
# Density = 1.717514 g / cm^3
# Si number density = 17.214320 Si / 1000 Ang^3
#
#
#
# Elastic Constant Matrix: (Units=GPa)
#
#
# Indices 1 2 3 4 5 6 
#
# 1 60.3487 37.0999 87.1552 0.0000 0.0000 0.0000
# 2 37.0999 45.0794 69.4080 0.0000 0.0000 0.0000
# 3 87.1552 69.4080 215.9308 0.0000 0.0000 0.0000
# 4 0.0000 0.0000 0.0000 -18.5031 0.0000 0.0000
# 5 0.0000 0.0000 0.0000 0.0000 36.0475 0.0000
# 6 0.0000 0.0000 0.0000 0.0000 0.0000 14.6535
#
#
#
# Elastic Compliance Matrix: (Units=1/GPa)
#
#
# Indices 1 2 3 4 5 6 
#
# 1 0.046413 -0.018519 -0.012781 0.000000 0.000000 0.000000
# 2 -0.018519 0.051308 -0.009018 0.000000 0.000000 0.000000
# 3 -0.012781 -0.009018 0.012688 0.000000 0.000000 0.000000
# 4 0.000000 0.000000 0.000000 -0.054045 0.000000 0.000000
# 5 0.000000 0.000000 0.000000 0.000000 0.027741 0.000000
# 6 0.000000 0.000000 0.000000 0.000000 0.000000 0.068243
#
#
# Mechanical properties :
#
#
# Convention : Reuss Voigt Hill
#
# Bulk Modulus (GPa) = 33.58546 78.74278 56.16412
# Shear Modulus (GPa) = 20.58382 14.95263 17.76823
#
# Velocity S-wave (km/s) = 3.46170 2.95043 3.21624
# Velocity P-wave (km/s) = 5.96073 7.57949 6.81832
#
# Compressibility (1/GPa) = 0.02977479
#
# Stress axis : x y z
#
# Youngs Moduli (GPa) = 21.54567 19.48995 78.81259
#
# Poissons Ratio (x) = 0.36094 1.00728
# Poissons Ratio (y) = 0.39901 0.71070
# Poissons Ratio (z) = 0.27537 0.17575
#
# Static dielectric constant tensor:
#      x y z
#    x 1.573030 0.000000 0.000000 
#    y 0.000000 1.570660 0.000000 
#    z 0.000000 0.000000 1.573770 
# 
# From -- ./inp_files/36946.got.cif
#   From: 2010.05.17/outbox.cif.g08.bks.cpg/sg51_19_cif.got.tgz:36946.got - 2010.06.03 11:52:47.
