data_PCOD9403117
_publ_section_title
;
Structure prediction by ZEFSAII (Michael W. Deem and Ramdas Pophale) SiO2 
 PCOD9403117
Probable space group: P M M A
;
_chemical_formula_sum "Si O2"
_cell_formula_units_Z 64
_cell_length_a 8.906329
_cell_length_b 28.526488
_cell_length_c 15.166387
_cell_angle_alpha 90.000000
_cell_angle_beta 90.000000
_cell_angle_gamma 90.000000
_cell_volume 3853.267637
_symmetry_space_group_name_H-M "P M M A"
_symmetry_group_IT_number 51
_symmetry_cell_setting 'orthorhombic'
loop_
_space_group_symop_operation_xyz
x,y,z
1/2-x,-y,z
1/2+x,-y,-z
-x,y,-z
-x,-y,-z
1/2+x,y,-z
1/2-x,y,z
x,-y,z
loop_
_atom_site_type_symbol
_atom_site_label
_atom_site_fract_x
_atom_site_fract_y
_atom_site_fract_z
Si Si1 0.073841 0.189884 0.093259
Si Si2 0.569771 0.738874 0.225149
Si Si3 0.069002 0.653628 0.902397
Si Si4 0.571098 0.874521 0.593720
Si Si5 0.430997 0.449680 0.902064
Si Si6 0.428731 0.947851 0.725720
Si Si7 0.074109 0.923009 0.092449
Si Si8 0.429564 0.235924 0.405601
O O1 0.250000 0.201946 0.093470
O O2 0.060867 0.133676 0.100565
O O3 0.991634 0.215930 0.172720
O O4 0.000000 0.203998 0.000000
O O5 0.750000 0.740789 0.230895
O O6 0.525234 0.694421 0.164897
O O7 0.499712 0.737696 0.322295
O O8 0.250000 0.655230 0.911472
O O9 0.026167 0.601654 0.866560
O O10 0.000000 0.660003 0.000000
O O11 0.500000 0.887823 0.500000
O O12 0.750000 0.879315 0.590502
O O13 0.505229 0.907505 0.668734
O O14 0.536365 0.819562 0.608448
O O15 0.250000 0.449740 0.907854
O O16 0.475382 0.500000 0.860018
O O17 0.500000 0.450117 0.000000
O O18 0.250000 0.941603 0.725060
O O19 0.489366 0.944470 0.824846
O O20 0.463583 0.000000 0.690555
O O21 0.250000 0.934894 0.093779
O O22 0.000000 0.936718 0.000000
O O23 0.500000 0.249170 0.500000
O O24 0.250000 0.241325 0.408044
#
# Coordination Sequence:
#
# PCOD9403117 Si02
#       8
#     8   8   8   8   8   8   8   8
#     4  10  20  33  49  71  97 126 162 198 233 277
#     4  11  21  31  46  69  99 132 161 194 238 285
#     4   9  18  29  41  63  95 130 168 205 241 283
#     4  10  21  38  60  82 102 125 153 188 230 278
#     4   8  13  23  39  57  81 118 163 207 245 279
#     4  11  24  39  55  77 103 129 157 190 230 277
#     4  10  21  37  56  75  96 125 161 200 237 275
#     4  10  21  37  56  77  98 122 156 194 233 280
#
# _framework density 16.609279999999998
#
# number of rings (size 3 to 8) (size 9 to 14) (size 15 to 20)
#    0.000    2.125    0.000    3.375    0.000    9.500 
#    0.000    0.000    0.000    0.000    0.000    0.000 
#    0.000    0.500    0.000    0.875    0.000    1.500 
#
# Total GULP energy -357133.376769 kJ/mol
# GULP energy per Si atom -5580.209012 kJ/mol
# Density = 1.657148 g / cm^3
# Si number density = 16.609280 Si / 1000 Ang^3
#
#
#
# Elastic Constant Matrix: (Units=GPa)
#
#
# Indices 1 2 3 4 5 6 
#
# 1 41.3345 31.9676 30.9553 0.0000 0.0000 0.0000
# 2 31.9676 59.4706 44.5690 0.0000 0.0000 0.0000
# 3 30.9553 44.5690 103.1641 0.0000 0.0000 0.0000
# 4 0.0000 0.0000 0.0000 9.5843 0.0000 0.0000
# 5 0.0000 0.0000 0.0000 0.0000 31.7133 0.0000
# 6 0.0000 0.0000 0.0000 0.0000 0.0000 16.2668
#
#
#
# Elastic Compliance Matrix: (Units=1/GPa)
#
#
# Indices 1 2 3 4 5 6 
#
# 1 0.042646 -0.019718 -0.004278 0.000000 0.000000 0.000000
# 2 -0.019718 0.033983 -0.008765 0.000000 0.000000 0.000000
# 3 -0.004278 -0.008765 0.014763 0.000000 0.000000 0.000000
# 4 0.000000 0.000000 0.000000 0.104338 0.000000 0.000000
# 5 0.000000 0.000000 0.000000 0.000000 0.031532 0.000000
# 6 0.000000 0.000000 0.000000 0.000000 0.000000 0.061475
#
#
# Mechanical properties :
#
#
# Convention : Reuss Voigt Hill
#
# Bulk Modulus (GPa) = 38.65277 46.55034 42.60155
# Shear Modulus (GPa) = 13.77859 17.94470 15.86164
#
# Velocity S-wave (km/s) = 2.88335 3.29051 3.09364
# Velocity P-wave (km/s) = 5.86577 6.52106 6.20207
#
# Compressibility (1/GPa) = 0.02587137
#
# Stress axis : x y z
#
# Youngs Moduli (GPa) = 23.44878 29.42680 67.73514
#
# Poissons Ratio (x) = 0.58024 0.28976
# Poissons Ratio (y) = 0.46236 0.59367
# Poissons Ratio (z) = 0.10031 0.25792
#
# Static dielectric constant tensor:
#      x y z
#    x 1.551580 0.000000 0.000000 
#    y 0.000000 1.598080 0.000000 
#    z 0.000000 0.000000 1.536540 
# 
# From -- ./inp_files/22590.got.cif
#   From: 2010.05.17/outbox.cif.g08.bks.cpg/sg51_12_cif.got.tgz:22590.got - 2010.06.03 11:52:47.
