data_PCOD9403089
_publ_section_title
;
Structure prediction by ZEFSAII (Michael W. Deem and Ramdas Pophale) SiO2 
 PCOD9403089
Probable space group: P M M A
;
_chemical_formula_sum "Si O2"
_cell_formula_units_Z 56
_cell_length_a 8.863128
_cell_length_b 19.402942
_cell_length_c 19.129726
_cell_angle_alpha 90.000000
_cell_angle_beta 90.000000
_cell_angle_gamma 90.000000
_cell_volume 3289.753491
_symmetry_space_group_name_H-M "P M M A"
_symmetry_group_IT_number 51
_symmetry_cell_setting 'orthorhombic'
loop_
_space_group_symop_operation_xyz
x,y,z
1/2-x,-y,z
1/2+x,-y,-z
-x,y,-z
-x,-y,-z
1/2+x,y,-z
1/2-x,y,z
x,-y,z
loop_
_atom_site_type_symbol
_atom_site_label
_atom_site_fract_x
_atom_site_fract_y
_atom_site_fract_z
Si Si1 0.569419 0.716179 0.925132
Si Si2 0.928914 0.417674 0.574624
Si Si3 0.919102 0.081491 0.932296
Si Si4 0.069841 0.644952 0.713014
Si Si5 0.930599 0.219044 0.777147
Si Si6 0.570629 0.077691 0.216478
Si Si7 0.068208 0.422478 0.151914
O O1 0.750000 0.717743 0.931326
O O2 0.528242 0.764695 0.858870
O O3 0.524109 0.638712 0.900834
O O4 0.500000 0.732358 0.000000
O O5 0.750000 0.404472 0.574802
O O6 0.951607 0.500000 0.583461
O O7 0.000000 0.398283 0.500000
O O8 0.007511 0.379490 0.638727
O O9 0.750000 0.109845 0.919451
O O10 0.024020 0.083349 0.864834
O O11 0.899422 0.000000 0.946126
O O12 0.000000 0.111932 0.000000
O O13 0.250000 0.644879 0.713835
O O14 0.006293 0.720105 0.733148
O O15 0.006930 0.594858 0.773853
O O16 0.750000 0.223733 0.772288
O O17 0.987428 0.144238 0.752787
O O18 0.750000 0.083466 0.224608
O O19 0.524575 0.000000 0.239411
O O20 0.250000 0.418189 0.160707
O O21 0.030176 0.500000 0.129126
#
# Coordination Sequence:
#
# PCOD9403089 Si02
#       7
#     8   8   8   8   8   8   8
#     4   9  19  33  48  66  88 118 157 204 256 305
#     4  10  20  34  53  79 112 147 179 210 244 283
#     4   9  16  26  40  58  81 110 144 183 231 288
#     4  11  21  33  51  75 103 134 170 209 248 293
#     4  10  21  37  53  69  93 128 168 205 248 304
#     4  10  20  33  49  70  94 117 147 194 249 302
#     4   9  18  33  50  68  93 126 164 206 253 303
#
# _framework density 17.022552999999998
#
# number of rings (size 3 to 8) (size 9 to 14) (size 15 to 20)
#    0.000    2.286    0.000    4.286    0.000    9.143 
#    0.000    1.429    0.000    0.000    0.000    0.000 
#    0.000    0.571    0.000    2.143    0.000    3.286 
#
# Total GULP energy -312433.857379 kJ/mol
# GULP energy per Si atom -5579.176025 kJ/mol
# Density = 1.698381 g / cm^3
# Si number density = 17.022553 Si / 1000 Ang^3
#
#
#
# Elastic Constant Matrix: (Units=GPa)
#
#
# Indices 1 2 3 4 5 6 
#
# 1 57.1619 35.6224 27.8487 0.0000 0.0000 0.0000
# 2 35.6224 122.1837 28.3582 0.0000 0.0000 0.0000
# 3 27.8487 28.3582 72.5755 0.0000 0.0000 0.0000
# 4 0.0000 0.0000 0.0000 -4.1237 0.0000 0.0000
# 5 0.0000 0.0000 0.0000 0.0000 25.2229 0.0000
# 6 0.0000 0.0000 0.0000 0.0000 0.0000 19.3840
#
#
#
# Elastic Compliance Matrix: (Units=1/GPa)
#
#
# Indices 1 2 3 4 5 6 
#
# 1 0.024410 -0.005436 -0.007243 0.000000 0.000000 0.000000
# 2 -0.005436 0.010211 -0.001904 0.000000 0.000000 0.000000
# 3 -0.007243 -0.001904 0.017302 0.000000 0.000000 0.000000
# 4 0.000000 0.000000 0.000000 -0.242503 0.000000 0.000000
# 5 0.000000 0.000000 0.000000 0.000000 0.039647 0.000000
# 6 0.000000 0.000000 0.000000 0.000000 0.000000 0.051589
#
#
# Mechanical properties :
#
#
# Convention : Reuss Voigt Hill
#
# Bulk Modulus (GPa) = 43.94034 48.39777 46.16905
# Shear Modulus (GPa) = -79.88103 18.76943 -30.55580
#
# Velocity S-wave (km/s) = -6.85773 3.32418 -4.24136
# Velocity P-wave (km/s) = 6.06923 6.57471 1.78763
#
# Compressibility (1/GPa) = 0.02275813
#
# Stress axis : x y z
#
# Youngs Moduli (GPa) = 40.96642 97.93257 57.79694
#
# Poissons Ratio (x) = 0.53234 0.41861
# Poissons Ratio (y) = 0.22268 0.11005
# Poissons Ratio (z) = 0.29671 0.18647
#
# Static dielectric constant tensor:
#      x y z
#    x 1.581680 0.000000 0.000000 
#    y 0.000000 1.637680 0.000000 
#    z 0.000000 0.000000 1.545230 
# 
# From -- ./inp_files/28197.got.cif
#   From: 2010.05.17/outbox.cif.g08.bks.cpg/sg51_15_cif.got.tgz:28197.got - 2010.06.03 11:52:47.
