data_PCOD9403752
_publ_section_title
;
Structure prediction by ZEFSAII (Michael W. Deem and Ramdas Pophale) SiO2 
 PCOD9403752
Probable space group: P M M A
;
_chemical_formula_sum "Si O2"
_cell_formula_units_Z 40
_cell_length_a 9.275786
_cell_length_b 7.621890
_cell_length_c 26.540537
_cell_angle_alpha 90.000000
_cell_angle_beta 90.000000
_cell_angle_gamma 90.000000
_cell_volume 1876.389971
_symmetry_space_group_name_H-M "P M M A"
_symmetry_group_IT_number 51
_symmetry_cell_setting 'orthorhombic'
loop_
_space_group_symop_operation_xyz
x,y,z
1/2-x,-y,z
1/2+x,-y,-z
-x,y,-z
-x,-y,-z
1/2+x,y,-z
1/2-x,y,z
x,-y,z
loop_
_atom_site_type_symbol
_atom_site_label
_atom_site_fract_x
_atom_site_fract_y
_atom_site_fract_z
Si Si1 0.083699 0.214824 0.150833
Si Si2 0.413491 0.790212 0.750560
Si Si3 0.586558 0.709022 0.649248
Si Si4 0.413083 0.209521 0.548184
Si Si5 0.916278 0.214463 0.050209
O O1 0.250000 0.270700 0.150520
O O2 0.001015 0.275561 0.200920
O O3 0.999690 0.269573 0.100559
O O4 0.084055 0.000000 0.151144
O O5 0.250000 0.721078 0.747989
O O6 0.499960 0.759006 0.699304
O O7 0.403394 0.000000 0.756707
O O8 0.750000 0.780524 0.649596
O O9 0.595621 0.500000 0.648601
O O10 0.500441 0.762475 0.599413
O O11 0.500000 0.280344 0.500000
O O12 0.250000 0.279535 0.551338
O O13 0.401783 0.000000 0.541356
O O14 0.750000 0.270794 0.050219
O O15 0.915907 0.000000 0.050089
O O16 0.000000 0.270610 0.000000
#
# Coordination Sequence:
#
# PCOD9403752 Si02
#       5
#     8   8   8   8   8
#     4   9  16  26  41  62  89 123 163 206 253 305
#     4  10  20  34  53  76 101 132 172 216 261 310
#     4  11  24  39  55  78 108 141 176 214 258 307
#     4  10  21  38  61  87 112 140 175 213 254 302
#     4   9  15  22  33  52  82 120 160 202 250 305
#
# _framework density 21.317530999999999
#
# number of rings (size 3 to 8) (size 9 to 14) (size 15 to 20)
#    0.000    2.200    0.000    3.600    0.000   11.600 
#    0.000    0.000    0.000    0.000    0.000    0.000 
#    0.000    0.800    0.000    3.000    0.000    6.600 
#
# Total GULP energy -223576.829301 kJ/mol
# GULP energy per Si atom -5589.420733 kJ/mol
# Density = 2.126901 g / cm^3
# Si number density = 21.317531 Si / 1000 Ang^3
#
#
#
# Elastic Constant Matrix: (Units=GPa)
#
#
# Indices 1 2 3 4 5 6 
#
# 1 276.8173 7.4259 164.9832 0.0000 0.0000 0.0000
# 2 7.4259 43.3372 -3.4258 0.0000 0.0000 0.0000
# 3 164.9832 -3.4258 252.8513 0.0000 0.0000 0.0000
# 4 0.0000 0.0000 0.0000 -73.9777 0.0000 0.0000
# 5 0.0000 0.0000 0.0000 0.0000 48.7839 0.0000
# 6 0.0000 0.0000 0.0000 0.0000 0.0000 2.6350
#
#
#
# Elastic Compliance Matrix: (Units=1/GPa)
#
#
# Indices 1 2 3 4 5 6 
#
# 1 0.005988 -0.001336 -0.003925 0.000000 0.000000 0.000000
# 2 -0.001336 0.023398 0.001189 0.000000 0.000000 0.000000
# 3 -0.003925 0.001189 0.006532 0.000000 0.000000 0.000000
# 4 0.000000 0.000000 0.000000 -0.013518 0.000000 0.000000
# 5 0.000000 0.000000 0.000000 0.000000 0.020499 0.000000
# 6 0.000000 0.000000 0.000000 0.000000 0.000000 0.379508
#
#
# Mechanical properties :
#
#
# Convention : Reuss Voigt Hill
#
# Bulk Modulus (GPa) = 36.00646 101.21913 68.61280
# Shear Modulus (GPa) = 11.36859 22.42308 16.89584
#
# Velocity S-wave (km/s) = 2.31183 3.24676 2.81833
# Velocity P-wave (km/s) = 4.90441 7.85111 6.54573
#
# Compressibility (1/GPa) = 0.02777279
#
# Stress axis : x y z
#
# Youngs Moduli (GPa) = 167.01125 42.73906 153.09220
#
# Poissons Ratio (x) = 0.05711 0.60088
# Poissons Ratio (y) = 0.22317 -0.18201
# Poissons Ratio (z) = 0.65551 -0.05081
#
# Static dielectric constant tensor:
#      x y z
#    x 1.752040 0.000000 0.000000 
#    y 0.000000 1.795110 0.000000 
#    z 0.000000 0.000000 1.717530 
# 
# From -- ./inp_files/34302.got.cif
#   From: 2010.05.17/outbox.cif.g08.bks.cpg/sg51_18_cif.got.tgz:34302.got - 2010.06.03 11:52:47.
