data_PCOD9403556
_publ_section_title
;
Structure prediction by ZEFSAII (Michael W. Deem and Ramdas Pophale) SiO2 
 PCOD9403556
Probable space group: P M M A
;
_chemical_formula_sum "Si O2"
_cell_formula_units_Z 58
_cell_length_a 7.930213
_cell_length_b 28.496261
_cell_length_c 14.656930
_cell_angle_alpha 90.000000
_cell_angle_beta 90.000000
_cell_angle_gamma 90.000000
_cell_volume 3312.193846
_symmetry_space_group_name_H-M "P M M A"
_symmetry_group_IT_number 51
_symmetry_cell_setting 'orthorhombic'
loop_
_space_group_symop_operation_xyz
x,y,z
1/2-x,-y,z
1/2+x,-y,-z
-x,y,-z
-x,-y,-z
1/2+x,y,-z
1/2-x,y,z
x,-y,z
loop_
_atom_site_type_symbol
_atom_site_label
_atom_site_fract_x
_atom_site_fract_y
_atom_site_fract_z
Si Si1 0.957017 0.576567 0.892366
Si Si2 0.450724 0.674258 0.207017
Si Si3 0.551323 0.858354 0.786958
Si Si4 0.045867 0.767382 0.105810
Si Si5 0.550444 0.947486 0.102037
Si Si6 0.049846 0.292231 0.601284
Si Si7 0.049123 0.814586 0.601555
Si Si8 0.750000 0.500000 0.150890
O O1 0.750000 0.566234 0.882937
O O2 0.993430 0.626445 0.844626
O O3 0.096030 0.540271 0.853575
O O4 0.000000 0.578774 0.000000
O O5 0.250000 0.677715 0.201750
O O6 0.520050 0.720881 0.157248
O O7 0.496235 0.676433 0.313564
O O8 0.750000 0.857140 0.799692
O O9 0.479751 0.814517 0.845366
O O10 0.494514 0.908188 0.825007
O O11 0.513006 0.847667 0.681952
O O12 0.250000 0.767365 0.112453
O O13 0.000000 0.766472 0.000000
O O14 0.750000 0.951458 0.102363
O O15 0.477861 0.000000 0.117650
O O16 0.500000 0.932117 0.000000
O O17 0.250000 0.289117 0.602896
O O18 0.980582 0.238884 0.614078
O O19 0.000000 0.308464 0.500000
O O20 0.250000 0.812532 0.607123
O O21 0.000000 0.829792 0.500000
#
# Coordination Sequence:
#
# PCOD9403556 Si02
#       8
#     8   8   8   8   8   8   8   2
#     4  11  23  37  59  86 115 154 193 242 291 333
#     4  10  21  37  53  79 117 147 185 229 278 336
#     4  11  21  34  54  79 107 146 186 228 277 331
#     4  10  21  34  49  72 109 151 181 218 265 328
#     4  10  21  37  56  78 107 141 185 238 284 329
#     4  10  20  33  55  80 111 149 186 228 276 331
#     4  10  20  34  53  80 109 146 186 230 276 332
#     4  12  24  40  62  82 118 148 202 248 280 342
#
# _framework density 17.511053
#
# number of rings (size 3 to 8) (size 9 to 14) (size 15 to 20)
#    0.000    1.655    2.069    2.897    0.966    4.690 
#    0.000    0.000    0.000    0.414    0.000    0.483 
#    0.000    0.000    0.000    0.000    0.000    0.000 
#
# Total GULP energy -322957.142058 kJ/mol
# GULP energy per Si atom -5568.226587 kJ/mol
# Density = 1.747120 g / cm^3
# Si number density = 17.511053 Si / 1000 Ang^3
#
#
#
# Elastic Constant Matrix: (Units=GPa)
#
#
# Indices 1 2 3 4 5 6 
#
# 1 53.8865 35.8432 5.2081 0.0000 0.0000 0.0000
# 2 35.8432 76.6532 27.9064 0.0000 0.0000 0.0000
# 3 5.2081 27.9064 49.1689 0.0000 0.0000 0.0000
# 4 0.0000 0.0000 0.0000 -58.0766 0.0000 0.0000
# 5 0.0000 0.0000 0.0000 0.0000 29.2496 0.0000
# 6 0.0000 0.0000 0.0000 0.0000 0.0000 29.1293
#
#
#
# Elastic Compliance Matrix: (Units=1/GPa)
#
#
# Indices 1 2 3 4 5 6 
#
# 1 0.028129 -0.015212 0.005654 0.000000 0.000000 0.000000
# 2 -0.015212 0.024670 -0.012390 0.000000 0.000000 0.000000
# 3 0.005654 -0.012390 0.026771 0.000000 0.000000 0.000000
# 4 0.000000 0.000000 0.000000 -0.017219 0.000000 0.000000
# 5 0.000000 0.000000 0.000000 0.000000 0.034188 0.000000
# 6 0.000000 0.000000 0.000000 0.000000 0.000000 0.034330
#
#
# Mechanical properties :
#
#
# Convention : Reuss Voigt Hill
#
# Bulk Modulus (GPa) = 28.03125 35.29156 31.66140
# Shear Modulus (GPa) = 26.78704 7.44385 17.11544
#
# Velocity S-wave (km/s) = 3.91541 2.06402 3.12974
# Velocity P-wave (km/s) = 6.04012 5.08703 5.58395
#
# Compressibility (1/GPa) = 0.03567447
#
# Stress axis : x y z
#
# Youngs Moduli (GPa) = 35.55004 40.53566 37.35326
#
# Poissons Ratio (x) = 0.61662 -0.21120
# Poissons Ratio (y) = 0.54078 0.46282
# Poissons Ratio (z) = -0.20100 0.50225
#
# Static dielectric constant tensor:
#      x y z
#    x 1.627770 0.000000 0.000000 
#    y 0.000000 1.652310 0.000000 
#    z 0.000000 0.000000 1.549030 
# 
# From -- ./inp_files/14780.got.cif
#   From: 2010.05.17/outbox.cif.g08.bks.cpg/sg51_8_cif.got.tgz:14780.got - 2010.06.03 11:52:47.
