data_PCOD9403308
_publ_section_title
;
Structure prediction by ZEFSAII (Michael W. Deem and Ramdas Pophale) SiO2 
 PCOD9403308
Probable space group: P M M A
;
_chemical_formula_sum "Si O2"
_cell_formula_units_Z 48
_cell_length_a 9.383220
_cell_length_b 7.532889
_cell_length_c 32.041144
_cell_angle_alpha 90.000000
_cell_angle_beta 90.000000
_cell_angle_gamma 90.000000
_cell_volume 2264.756322
_symmetry_space_group_name_H-M "P M M A"
_symmetry_group_IT_number 51
_symmetry_cell_setting 'orthorhombic'
loop_
_space_group_symop_operation_xyz
x,y,z
1/2-x,-y,z
1/2+x,-y,-z
-x,y,-z
-x,-y,-z
1/2+x,y,-z
1/2-x,y,z
x,-y,z
loop_
_atom_site_type_symbol
_atom_site_label
_atom_site_fract_x
_atom_site_fract_y
_atom_site_fract_z
Si Si1 0.088839 0.289575 0.878534
Si Si2 0.911213 0.287287 0.287197
Si Si3 0.588529 0.789099 0.795927
Si Si4 0.914316 0.282771 0.958683
Si Si5 0.415651 0.283218 0.367193
Si Si6 0.915443 0.716280 0.540314
O O1 0.250000 0.217275 0.876365
O O2 0.101549 0.500000 0.885771
O O3 0.004462 0.268518 0.835460
O O4 0.996693 0.220114 0.917343
O O5 0.750000 0.219263 0.282064
O O6 0.902021 0.500000 0.291475
O O7 0.007472 0.253811 0.246824
O O8 0.988073 0.220047 0.329060
O O9 0.750000 0.715993 0.796690
O O10 0.598612 0.000000 0.798469
O O11 0.750000 0.225260 0.959334
O O12 0.912437 0.500000 0.958249
O O13 0.000000 0.229275 0.000000
O O14 0.250000 0.230867 0.361757
O O15 0.416817 0.500000 0.366775
O O16 0.465208 0.227849 0.413499
O O17 0.750000 0.765142 0.536790
O O18 0.922172 0.500000 0.539999
O O19 0.000000 0.780336 0.500000
#
# Coordination Sequence:
#
# PCOD9403308 Si02
#       6
#     8   8   8   8   8   8
#     4  10  20  34  54  80 107 135 169 207 247 293
#     4  10  20  33  51  75  99 125 161 204 249 296
#     4  11  24  39  54  73  98 130 167 205 248 299
#     4   9  16  27  46  74 107 139 170 206 246 286
#     4   8  14  25  40  59  86 121 158 195 237 285
#     4   8  13  20  31  50  79 116 154 189 229 278
#
# _framework density 21.194334000000001
#
# number of rings (size 3 to 8) (size 9 to 14) (size 15 to 20)
#    0.000    2.667    0.000    3.500    0.000    8.000 
#    0.000    3.333    0.000    0.500    0.000    0.000 
#    0.000    0.667    0.000    2.167    0.000    4.333 
#
# Total GULP energy -268022.510802 kJ/mol
# GULP energy per Si atom -5583.802308 kJ/mol
# Density = 2.114609 g / cm^3
# Si number density = 21.194334 Si / 1000 Ang^3
#
#
#
# Elastic Constant Matrix: (Units=GPa)
#
#
# Indices 1 2 3 4 5 6 
#
# 1 201.7166 5.5805 139.2167 0.0000 0.0000 0.0000
# 2 5.5805 52.5432 -3.8800 0.0000 0.0000 0.0000
# 3 139.2167 -3.8800 230.2373 0.0000 0.0000 0.0000
# 4 0.0000 0.0000 0.0000 -59.1123 0.0000 0.0000
# 5 0.0000 0.0000 0.0000 0.0000 46.2841 0.0000
# 6 0.0000 0.0000 0.0000 0.0000 0.0000 -5.3457
#
#
#
# Elastic Compliance Matrix: (Units=1/GPa)
#
#
# Indices 1 2 3 4 5 6 
#
# 1 0.008596 -0.001298 -0.005219 0.000000 0.000000 0.000000
# 2 -0.001298 0.019252 0.001109 0.000000 0.000000 0.000000
# 3 -0.005219 0.001109 0.007518 0.000000 0.000000 0.000000
# 4 0.000000 0.000000 0.000000 -0.016917 0.000000 0.000000
# 5 0.000000 0.000000 0.000000 0.000000 0.021606 0.000000
# 6 0.000000 0.000000 0.000000 0.000000 0.000000 -0.187068
#
#
# Mechanical properties :
#
#
# Convention : Reuss Voigt Hill
#
# Bulk Modulus (GPa) = 40.73486 85.14795 62.94141
# Shear Modulus (GPa) = -39.05812 19.27054 -9.89379
#
# Velocity S-wave (km/s) = -4.29751 3.01862 -2.16293
# Velocity P-wave (km/s) = 2.31589 7.23958 4.85016
#
# Compressibility (1/GPa) = 0.02454900
#
# Stress axis : x y z
#
# Youngs Moduli (GPa) = 116.33974 51.94324 133.01458
#
# Poissons Ratio (x) = 0.06744 0.69424
# Poissons Ratio (y) = 0.15105 -0.14758
# Poissons Ratio (z) = 0.60721 -0.05763
#
# Static dielectric constant tensor:
#      x y z
#    x 1.740670 0.000000 0.000000 
#    y 0.000000 1.802810 0.000000 
#    z 0.000000 0.000000 1.734920 
# 
# From -- ./inp_files/37060.got.cif
#   From: 2010.05.17/outbox.cif.g08.bks.cpg/sg51_19_cif.got.tgz:37060.got - 2010.06.03 11:52:47.
