data_PCOD9403280
_publ_section_title
;
Structure prediction by ZEFSAII (Michael W. Deem and Ramdas Pophale) SiO2 
 PCOD9403280
Probable space group: P M M A
;
_chemical_formula_sum "Si O2"
_cell_formula_units_Z 64
_cell_length_a 21.931218
_cell_length_b 7.527793
_cell_length_c 17.437684
_cell_angle_alpha 90.000000
_cell_angle_beta 90.000000
_cell_angle_gamma 90.000000
_cell_volume 2878.851236
_symmetry_space_group_name_H-M "P M M A"
_symmetry_group_IT_number 51
_symmetry_cell_setting 'orthorhombic'
loop_
_space_group_symop_operation_xyz
x,y,z
1/2-x,-y,z
1/2+x,-y,-z
-x,y,-z
-x,-y,-z
1/2+x,y,-z
1/2-x,y,z
x,-y,z
loop_
_atom_site_type_symbol
_atom_site_label
_atom_site_fract_x
_atom_site_fract_y
_atom_site_fract_z
Si Si1 0.390900 0.295010 0.790331
Si Si2 0.183750 0.215195 0.653738
Si Si3 0.820583 0.717472 0.065807
Si Si4 0.316153 0.711773 0.413135
Si Si5 0.493517 0.712430 0.672254
Si Si6 0.179755 0.283710 0.107545
Si Si7 0.122658 0.282582 0.263441
Si Si8 0.583045 0.789775 0.465091
O O1 0.408426 0.500000 0.803710
O O2 0.330750 0.284934 0.737732
O O3 0.369354 0.218324 0.871373
O O4 0.442338 0.217458 0.732748
O O5 0.250000 0.270699 0.627276
O O6 0.132029 0.282126 0.597107
O O7 0.181254 0.000000 0.654893
O O8 0.750000 0.770643 0.081222
O O9 0.820864 0.500000 0.068670
O O10 0.836348 0.771544 0.978884
O O11 0.250000 0.782257 0.442184
O O12 0.311497 0.500000 0.413747
O O13 0.326916 0.770488 0.325770
O O14 0.379678 0.745394 0.458005
O O15 0.492956 0.500000 0.678290
O O16 0.557976 0.777808 0.703089
O O17 0.479305 0.744479 0.581556
O O18 0.250000 0.232589 0.121735
O O19 0.178295 0.500000 0.107367
O O20 0.138184 0.223126 0.177811
O O21 0.121614 0.500000 0.262382
O O22 0.581505 0.000000 0.465196
#
# Coordination Sequence:
#
# PCOD9403280 Si02
#       8
#     8   8   8   8   8   8   8   8
#     4   9  16  26  41  63  91 122 155 187 221 267
#     4   9  17  28  42  61  86 117 150 183 222 267
#     4   8  13  21  36  62  94 122 149 187 233 276
#     4  10  20  33  51  74  95 116 149 194 240 284
#     4   9  18  32  48  67  94 127 160 193 229 271
#     4   8  13  23  41  65  93 123 153 188 235 286
#     4   9  17  30  47  66  91 123 157 194 235 277
#     4  10  20  34  50  68  94 125 155 189 230 279
#
# _framework density 22.231088
#
# number of rings (size 3 to 8) (size 9 to 14) (size 15 to 20)
#    0.000    3.000    0.000    2.250    0.000    4.000 
#    0.000    3.750    0.000    3.750    0.000    1.750 
#    0.000    6.000    0.000    0.000    0.000    0.000 
#
# Total GULP energy -356522.442986 kJ/mol
# GULP energy per Si atom -5570.663172 kJ/mol
# Density = 2.218049 g / cm^3
# Si number density = 22.231088 Si / 1000 Ang^3
#
#
#
# Elastic Constant Matrix: (Units=GPa)
#
#
# Indices 1 2 3 4 5 6 
#
# 1 58.1111 -2.5267 28.2465 0.0000 0.0000 0.0000
# 2 -2.5267 57.8557 -4.7095 0.0000 0.0000 0.0000
# 3 28.2465 -4.7095 150.6889 0.0000 0.0000 0.0000
# 4 0.0000 0.0000 0.0000 59.4378 0.0000 0.0000
# 5 0.0000 0.0000 0.0000 0.0000 -33.2018 0.0000
# 6 0.0000 0.0000 0.0000 0.0000 0.0000 -11.5290
#
#
#
# Elastic Compliance Matrix: (Units=1/GPa)
#
#
# Indices 1 2 3 4 5 6 
#
# 1 0.018950 0.000540 -0.003535 0.000000 0.000000 0.000000
# 2 0.000540 0.017344 0.000441 0.000000 0.000000 0.000000
# 3 -0.003535 0.000441 0.007313 0.000000 0.000000 0.000000
# 4 0.000000 0.000000 0.000000 0.016824 0.000000 0.000000
# 5 0.000000 0.000000 0.000000 0.000000 -0.030119 0.000000
# 6 0.000000 0.000000 0.000000 0.000000 0.000000 -0.086737
#
#
# Mechanical properties :
#
#
# Convention : Reuss Voigt Hill
#
# Bulk Modulus (GPa) = 25.97568 34.29735 30.13651
# Shear Modulus (GPa) = -129.92626 19.31776 -55.30425
#
# Velocity S-wave (km/s) = -7.65313 2.95100 -4.99309
# Velocity P-wave (km/s) = 8.14764 5.20311 4.43349
#
# Compressibility (1/GPa) = 0.03849755
#
# Stress axis : x y z
#
# Youngs Moduli (GPa) = 52.76951 57.65732 136.74903
#
# Poissons Ratio (x) = -0.03113 0.48346
# Poissons Ratio (y) = -0.02849 -0.06029
# Poissons Ratio (z) = 0.18656 -0.02542
#
# Static dielectric constant tensor:
#      x y z
#    x 1.898660 0.000000 0.000000 
#    y 0.000000 1.823550 0.000000 
#    z 0.000000 0.000000 1.847510 
# 
# From -- ./inp_files/30627.got.cif
#   From: 2010.05.17/outbox.cif.g08.bks.cpg/sg51_16_cif.got.tgz:30627.got - 2010.06.03 11:52:47.
