data_PCOD9403862
_publ_section_title
;
Structure prediction by ZEFSAII (Michael W. Deem and Ramdas Pophale) SiO2 
 PCOD9403862
Probable space group: P M M A
;
_chemical_formula_sum "Si O2"
_cell_formula_units_Z 48
_cell_length_a 19.209417
_cell_length_b 8.707851
_cell_length_c 15.171544
_cell_angle_alpha 90.000000
_cell_angle_beta 90.000000
_cell_angle_gamma 90.000000
_cell_volume 2537.785751
_symmetry_space_group_name_H-M "P M M A"
_symmetry_group_IT_number 51
_symmetry_cell_setting 'orthorhombic'
loop_
_space_group_symop_operation_xyz
x,y,z
1/2-x,-y,z
1/2+x,-y,-z
-x,y,-z
-x,-y,-z
1/2+x,y,-z
1/2-x,y,z
x,-y,z
loop_
_atom_site_type_symbol
_atom_site_label
_atom_site_fract_x
_atom_site_fract_y
_atom_site_fract_z
Si Si1 0.054995 0.314896 0.628877
Si Si2 0.329740 0.316183 0.968675
Si Si3 0.899822 0.684173 0.559679
Si Si4 0.826809 0.815495 0.720736
Si Si5 0.926212 0.185707 0.877651
Si Si6 0.420205 0.183957 0.821009
O O1 0.059028 0.500000 0.638470
O O2 0.099688 0.269258 0.542733
O O3 0.075478 0.236371 0.719778
O O4 0.975452 0.277130 0.601411
O O5 0.250000 0.265438 0.985369
O O6 0.331519 0.500000 0.971992
O O7 0.357264 0.258886 0.874352
O O8 0.383365 0.249941 0.040385
O O9 0.893810 0.500000 0.561946
O O10 0.843581 0.757522 0.623364
O O11 0.750000 0.764664 0.749442
O O12 0.885148 0.763127 0.789707
O O13 0.828345 0.000000 0.720670
O O14 0.006702 0.231440 0.867736
O O15 0.924657 0.000000 0.882542
O O16 0.415539 0.000000 0.825741
#
# Coordination Sequence:
#
# PCOD9403862 Si02
#       6
#     8   8   8   8   8   8
#     4   9  18  34  56  82 112 146 184 230 280 327
#     4  11  25  42  59  82 113 150 190 233 284 338
#     4   9  18  33  54  80 111 147 187 229 276 330
#     4  10  20  34  53  80 117 155 188 230 284 337
#     4  10  21  38  59  85 115 148 187 232 284 339
#     4  11  22  37  61  90 114 145 189 235 283 337
#
# _framework density 18.914127000000001
#
# number of rings (size 3 to 8) (size 9 to 14) (size 15 to 20)
#    0.000    2.000    1.667    3.000    0.000    7.000 
#    0.000    2.500    0.000    1.000    0.000    0.000 
#    0.000    0.000    0.000    0.000    0.000    0.000 
#
# Total GULP energy -267971.521110 kJ/mol
# GULP energy per Si atom -5582.740023 kJ/mol
# Density = 1.887108 g / cm^3
# Si number density = 18.914127 Si / 1000 Ang^3
#
#
#
# Elastic Constant Matrix: (Units=GPa)
#
#
# Indices 1 2 3 4 5 6 
#
# 1 47.0031 8.6939 19.4602 0.0000 0.0000 0.0000
# 2 8.6939 6.6421 10.1132 0.0000 0.0000 0.0000
# 3 19.4602 10.1132 104.1998 0.0000 0.0000 0.0000
# 4 0.0000 0.0000 0.0000 39.3146 0.0000 0.0000
# 5 0.0000 0.0000 0.0000 0.0000 16.1697 0.0000
# 6 0.0000 0.0000 0.0000 0.0000 0.0000 4.6882
#
#
#
# Elastic Compliance Matrix: (Units=1/GPa)
#
#
# Indices 1 2 3 4 5 6 
#
# 1 0.028419 -0.034165 -0.001992 0.000000 0.000000 0.000000
# 2 -0.034165 0.217733 -0.014752 0.000000 0.000000 0.000000
# 3 -0.001992 -0.014752 0.011401 0.000000 0.000000 0.000000
# 4 0.000000 0.000000 0.000000 0.025436 0.000000 0.000000
# 5 0.000000 0.000000 0.000000 0.000000 0.061844 0.000000
# 6 0.000000 0.000000 0.000000 0.000000 0.000000 0.213303
#
#
# Mechanical properties :
#
#
# Convention : Reuss Voigt Hill
#
# Bulk Modulus (GPa) = 6.42112 26.04220 16.23166
# Shear Modulus (GPa) = 7.02380 20.00635 13.51507
#
# Velocity S-wave (km/s) = 1.92914 3.25583 2.67601
# Velocity P-wave (km/s) = 2.89212 5.28512 4.26009
#
# Compressibility (1/GPa) = 0.15573597
#
# Stress axis : x y z
#
# Youngs Moduli (GPa) = 35.18762 4.59277 87.71454
#
# Poissons Ratio (x) = 0.15691 0.17469
# Poissons Ratio (y) = 1.20220 1.29393
# Poissons Ratio (z) = 0.07008 0.06775
#
# Static dielectric constant tensor:
#      x y z
#    x 1.654720 0.000000 0.000000 
#    y 0.000000 1.636010 0.000000 
#    z 0.000000 0.000000 1.656490 
# 
# From -- ./inp_files/24711.got.cif
#   From: 2010.05.17/outbox.cif.g08.bks.cpg/sg51_13_cif.got.tgz:24711.got - 2010.06.03 11:52:47.
