data_PCOD9403275
_publ_section_title
;
Structure prediction by ZEFSAII (Michael W. Deem and Ramdas Pophale) SiO2 
 PCOD9403275
Probable space group: P M M A
;
_chemical_formula_sum "Si O2"
_cell_formula_units_Z 44
_cell_length_a 8.775019
_cell_length_b 15.726467
_cell_length_c 18.014828
_cell_angle_alpha 90.000000
_cell_angle_beta 90.000000
_cell_angle_gamma 90.000000
_cell_volume 2486.047106
_symmetry_space_group_name_H-M "P M M A"
_symmetry_group_IT_number 51
_symmetry_cell_setting 'orthorhombic'
loop_
_space_group_symop_operation_xyz
x,y,z
1/2-x,-y,z
1/2+x,-y,-z
-x,y,-z
-x,-y,-z
1/2+x,y,-z
1/2-x,y,z
x,-y,z
loop_
_atom_site_type_symbol
_atom_site_label
_atom_site_fract_x
_atom_site_fract_y
_atom_site_fract_z
Si Si1 0.432222 0.269027 0.803403
Si Si2 0.066360 0.905360 0.736325
Si Si3 0.929730 0.849082 0.579178
Si Si4 0.932096 0.500000 0.418405
Si Si5 0.068953 0.330772 0.350689
Si Si6 0.932741 0.596262 0.917360
O O1 0.250000 0.271897 0.811584
O O2 0.480601 0.170030 0.792662
O O3 0.484712 0.307609 0.725125
O O4 0.505426 0.327682 0.866509
O O5 0.250000 0.900921 0.730594
O O6 0.001412 0.889811 0.653444
O O7 0.022669 0.000000 0.760964
O O8 0.750000 0.866890 0.578458
O O9 0.952156 0.747803 0.592607
O O10 0.000000 0.874493 0.500000
O O11 0.750000 0.500000 0.419140
O O12 0.000000 0.500000 0.500000
O O13 0.996674 0.416394 0.379929
O O14 0.250000 0.339705 0.337825
O O15 0.750000 0.600583 0.920093
O O16 0.973931 0.500000 0.889934
O O17 0.000000 0.603926 0.000000
#
# Coordination Sequence:
#
# PCOD9403275 Si02
#       6
#     8   8   8   4   8   8
#     4  10  20  35  57  83 111 143 179 220 267 321
#     4   9  19  36  56  78 105 139 180 225 273 324
#     4  10  20  33  51  73  99 134 175 224 278 329
#     4  12  24  36  50  70  97 134 179 226 274 322
#     4  10  21  36  52  72 100 136 179 224 269 320
#     4  10  21  37  58  85 117 150 181 217 261 313
#
# _framework density 17.698778999999998
#
# number of rings (size 3 to 8) (size 9 to 14) (size 15 to 20)
#    0.000    2.000    0.000    3.545    1.273    6.182 
#    0.000    0.000    0.000    0.545    0.000    0.000 
#    0.000    0.000    0.000    0.000    0.000    0.000 
#
# Total GULP energy -245520.675250 kJ/mol
# GULP energy per Si atom -5580.015347 kJ/mol
# Density = 1.765850 g / cm^3
# Si number density = 17.698779 Si / 1000 Ang^3
#
#
#
# Elastic Constant Matrix: (Units=GPa)
#
#
# Indices 1 2 3 4 5 6 
#
# 1 45.8864 44.9976 24.7991 0.0000 0.0000 0.0000
# 2 44.9976 157.0969 60.1341 0.0000 0.0000 0.0000
# 3 24.7991 60.1341 76.4904 0.0000 0.0000 0.0000
# 4 0.0000 0.0000 0.0000 9.2901 0.0000 0.0000
# 5 0.0000 0.0000 0.0000 0.0000 32.7187 0.0000
# 6 0.0000 0.0000 0.0000 0.0000 0.0000 18.4156
#
#
#
# Elastic Compliance Matrix: (Units=1/GPa)
#
#
# Indices 1 2 3 4 5 6 
#
# 1 0.031324 -0.007274 -0.004437 0.000000 0.000000 0.000000
# 2 -0.007274 0.010795 -0.006128 0.000000 0.000000 0.000000
# 3 -0.004437 -0.006128 0.019330 0.000000 0.000000 0.000000
# 4 0.000000 0.000000 0.000000 0.107642 0.000000 0.000000
# 5 0.000000 0.000000 0.000000 0.000000 0.030564 0.000000
# 6 0.000000 0.000000 0.000000 0.000000 0.000000 0.054302
#
#
# Mechanical properties :
#
#
# Convention : Reuss Voigt Hill
#
# Bulk Modulus (GPa) = 38.80450 59.92614 49.36532
# Shear Modulus (GPa) = 16.76591 22.05439 19.41015
#
# Velocity S-wave (km/s) = 3.08115 3.53384 3.31523
# Velocity P-wave (km/s) = 5.88477 7.11218 6.52739
#
# Compressibility (1/GPa) = 0.02577020
#
# Stress axis : x y z
#
# Youngs Moduli (GPa) = 31.92459 92.63830 51.73321
#
# Poissons Ratio (x) = 0.67382 0.22956
# Poissons Ratio (y) = 0.23221 0.31703
# Poissons Ratio (z) = 0.14166 0.56771
#
# Static dielectric constant tensor:
#      x y z
#    x 1.588400 0.000000 0.000000 
#    y 0.000000 1.618210 0.000000 
#    z 0.000000 0.000000 1.557720 
# 
# From -- ./inp_files/27421.got.cif
#   From: 2010.05.17/outbox.cif.g08.bks.cpg/sg51_14_cif.got.tgz:27421.got - 2010.06.03 11:52:47.
