data_PCOD9403254
_publ_section_title
;
Structure prediction by ZEFSAII (Michael W. Deem and Ramdas Pophale) SiO2 
 PCOD9403254
Probable space group: P M M A
;
_chemical_formula_sum "Si O2"
_cell_formula_units_Z 64
_cell_length_a 8.781573
_cell_length_b 29.086871
_cell_length_c 14.179755
_cell_angle_alpha 90.000000
_cell_angle_beta 90.000000
_cell_angle_gamma 90.000000
_cell_volume 3621.913281
_symmetry_space_group_name_H-M "P M M A"
_symmetry_group_IT_number 51
_symmetry_cell_setting 'orthorhombic'
loop_
_space_group_symop_operation_xyz
x,y,z
1/2-x,-y,z
1/2+x,-y,-z
-x,y,-z
-x,-y,-z
1/2+x,y,-z
1/2-x,y,z
x,-y,z
loop_
_atom_site_type_symbol
_atom_site_label
_atom_site_fract_x
_atom_site_fract_y
_atom_site_fract_z
Si Si1 0.931506 0.554163 0.602828
Si Si2 0.423442 0.055903 0.596576
Si Si3 0.432066 0.276901 0.602698
Si Si4 0.567058 0.366361 0.276443
Si Si5 0.933528 0.225651 0.211099
Si Si6 0.567279 0.686317 0.896250
Si Si7 0.433025 0.947956 0.203993
Si Si8 0.567073 0.142373 0.898570
O O1 0.750000 0.561611 0.601356
O O2 0.960210 0.500000 0.619522
O O3 0.000000 0.565618 0.500000
O O4 0.008441 0.586135 0.680808
O O5 0.500000 0.072428 0.500000
O O6 0.250000 0.071862 0.602776
O O7 0.512167 0.066795 0.692121
O O8 0.421960 0.000000 0.591769
O O9 0.500000 0.270157 0.500000
O O10 0.250000 0.276354 0.594849
O O11 0.474836 0.326120 0.648527
O O12 0.475334 0.239431 0.681851
O O13 0.750000 0.366023 0.265965
O O14 0.490214 0.351848 0.178206
O O15 0.750000 0.226021 0.203145
O O16 0.001172 0.265686 0.144478
O O17 0.001203 0.177692 0.177493
O O18 0.750000 0.688042 0.898855
O O19 0.500000 0.678518 0.000000
O O20 0.250000 0.949439 0.204675
O O21 0.480397 0.909370 0.129815
O O22 0.489319 0.000000 0.185218
O O23 0.750000 0.145098 0.900372
O O24 0.500000 0.154695 0.000000
#
# Coordination Sequence:
#
# PCOD9403254 Si02
#       8
#     8   8   8   8   8   8   8   8
#     4  10  20  33  50  75 108 147 190 234 280 329
#     4   9  16  27  47  74 101 129 161 198 241 287
#     4   9  19  33  52  78 108 140 172 210 255 308
#     4  10  20  34  52  78 110 144 184 227 274 325
#     4  10  21  38  56  78 108 140 175 214 257 307
#     4  11  21  35  56  81 108 138 175 221 271 321
#     4   9  19  36  55  76 104 135 169 210 254 303
#     4  11  23  38  57  79 102 133 170 210 259 311
#
# _framework density 17.670218999999999
#
# number of rings (size 3 to 8) (size 9 to 14) (size 15 to 20)
#    0.000    2.125    0.000    4.500    0.000    7.500 
#    0.000    0.625    0.000    1.875    0.000    0.000 
#    0.000    0.000    0.000    0.000    0.000    0.000 
#
# Total GULP energy -357221.164503 kJ/mol
# GULP energy per Si atom -5581.580695 kJ/mol
# Density = 1.763000 g / cm^3
# Si number density = 17.670219 Si / 1000 Ang^3
#
#
#
# Elastic Constant Matrix: (Units=GPa)
#
#
# Indices 1 2 3 4 5 6 
#
# 1 68.1344 37.4093 44.0738 0.0000 0.0000 0.0000
# 2 37.4093 73.2649 52.9482 0.0000 0.0000 0.0000
# 3 44.0738 52.9482 131.8838 0.0000 0.0000 0.0000
# 4 0.0000 0.0000 0.0000 22.4133 0.0000 0.0000
# 5 0.0000 0.0000 0.0000 0.0000 32.4093 0.0000
# 6 0.0000 0.0000 0.0000 0.0000 0.0000 22.6429
#
#
#
# Elastic Compliance Matrix: (Units=1/GPa)
#
#
# Indices 1 2 3 4 5 6 
#
# 1 0.021771 -0.008253 -0.003962 0.000000 0.000000 0.000000
# 2 -0.008253 0.022356 -0.006218 0.000000 0.000000 0.000000
# 3 -0.003962 -0.006218 0.011403 0.000000 0.000000 0.000000
# 4 0.000000 0.000000 0.000000 0.044616 0.000000 0.000000
# 5 0.000000 0.000000 0.000000 0.000000 0.030855 0.000000
# 6 0.000000 0.000000 0.000000 0.000000 0.000000 0.044164
#
#
# Mechanical properties :
#
#
# Convention : Reuss Voigt Hill
#
# Bulk Modulus (GPa) = 53.57650 60.23842 56.90746
# Shear Modulus (GPa) = 22.90917 24.74990 23.82953
#
# Velocity S-wave (km/s) = 3.60458 3.74659 3.67627
# Velocity P-wave (km/s) = 6.90725 7.27189 7.09191
#
# Compressibility (1/GPa) = 0.01866490
#
# Stress axis : x y z
#
# Youngs Moduli (GPa) = 45.93218 44.72982 87.69784
#
# Poissons Ratio (x) = 0.36915 0.34749
# Poissons Ratio (y) = 0.37907 0.54527
# Poissons Ratio (z) = 0.18200 0.27811
#
# Static dielectric constant tensor:
#      x y z
#    x 1.592740 0.000000 0.000000 
#    y 0.000000 1.607880 0.000000 
#    z 0.000000 0.000000 1.585030 
# 
# From -- ./inp_files/14850.got.cif
#   From: 2010.05.17/outbox.cif.g08.bks.cpg/sg51_8_cif.got.tgz:14850.got - 2010.06.03 11:52:47.
