data_PCOD9403221
_publ_section_title
;
Structure prediction by ZEFSAII (Michael W. Deem and Ramdas Pophale) SiO2 
 PCOD9403221
Probable space group: P M M A
;
_chemical_formula_sum "Si O2"
_cell_formula_units_Z 64
_cell_length_a 33.997858
_cell_length_b 9.258133
_cell_length_c 10.875859
_cell_angle_alpha 90.000000
_cell_angle_beta 90.000000
_cell_angle_gamma 90.000000
_cell_volume 3423.249391
_symmetry_space_group_name_H-M "P M M A"
_symmetry_group_IT_number 51
_symmetry_cell_setting 'orthorhombic'
loop_
_space_group_symop_operation_xyz
x,y,z
1/2-x,-y,z
1/2+x,-y,-z
-x,y,-z
-x,-y,-z
1/2+x,y,-z
1/2-x,y,z
x,-y,z
loop_
_atom_site_type_symbol
_atom_site_label
_atom_site_fract_x
_atom_site_fract_y
_atom_site_fract_z
Si Si1 0.626322 0.832245 0.325088
Si Si2 0.083790 0.170288 0.934839
Si Si3 0.632258 0.171621 0.823539
Si Si4 0.705676 0.170166 0.448959
Si Si5 0.204576 0.327555 0.292338
Si Si6 0.986667 0.667975 0.184654
Si Si7 0.441549 0.333343 0.554004
Si Si8 0.446908 0.170114 0.309586
O O1 0.610972 0.814862 0.186614
O O2 0.672116 0.804994 0.348387
O O3 0.601175 0.726452 0.409925
O O4 0.617949 0.000000 0.360017
O O5 0.044198 0.259646 0.908470
O O6 0.073779 0.000000 0.949145
O O7 0.109838 0.214337 0.051305
O O8 0.671734 0.257174 0.794192
O O9 0.599137 0.193692 0.718805
O O10 0.640663 0.000000 0.829895
O O11 0.750000 0.199899 0.405079
O O12 0.698429 0.262451 0.571275
O O13 0.703655 0.000000 0.483052
O O14 0.250000 0.293077 0.257702
O O15 0.200428 0.500000 0.294661
O O16 0.993159 0.500000 0.156358
O O17 0.966014 0.677395 0.319716
O O18 0.026846 0.754412 0.205004
O O19 0.441302 0.500000 0.515236
O O20 0.456463 0.238228 0.441293
O O21 0.454815 0.000000 0.308254
#
# Coordination Sequence:
#
# PCOD9403221 Si02
#       8
#     8   8   8   8   8   8   8   8
#     4   9  17  31  52  75  99 131 169 207 252 305
#     4   9  19  37  56  73  99 136 176 215 254 300
#     4  10  22  38  55  77 104 137 177 216 255 300
#     4   9  17  30  50  77 107 133 159 199 251 305
#     4  10  21  36  55  80 108 137 169 206 251 303
#     4  10  21  36  53  75 103 135 171 212 261 311
#     4  10  20  33  50  74 103 132 166 211 260 311
#     4  11  22  34  51  76 105 136 172 214 258 306
#
# _framework density 18.695687
#
# number of rings (size 3 to 8) (size 9 to 14) (size 15 to 20)
#    0.000    2.250    0.000    2.625    0.000    9.250 
#    0.000    3.125    0.000    2.250    0.000    1.750 
#    0.000    0.000    0.000    0.000    0.000    0.000 
#
# Total GULP energy -357331.722106 kJ/mol
# GULP energy per Si atom -5583.308158 kJ/mol
# Density = 1.865314 g / cm^3
# Si number density = 18.695687 Si / 1000 Ang^3
#
#
#
# Elastic Constant Matrix: (Units=GPa)
#
#
# Indices 1 2 3 4 5 6 
#
# 1 87.0881 48.7845 13.4957 0.0000 0.0000 0.0000
# 2 48.7845 74.0549 28.8507 0.0000 0.0000 0.0000
# 3 13.4957 28.8507 49.8397 0.0000 0.0000 0.0000
# 4 0.0000 0.0000 0.0000 8.9414 0.0000 0.0000
# 5 0.0000 0.0000 0.0000 0.0000 25.6889 0.0000
# 6 0.0000 0.0000 0.0000 0.0000 0.0000 18.0558
#
#
#
# Elastic Compliance Matrix: (Units=1/GPa)
#
#
# Indices 1 2 3 4 5 6 
#
# 1 0.018462 -0.013189 0.002635 0.000000 0.000000 0.000000
# 2 -0.013189 0.026857 -0.011976 0.000000 0.000000 0.000000
# 3 0.002635 -0.011976 0.026283 0.000000 0.000000 0.000000
# 4 0.000000 0.000000 0.000000 0.111839 0.000000 0.000000
# 5 0.000000 0.000000 0.000000 0.000000 0.038927 0.000000
# 6 0.000000 0.000000 0.000000 0.000000 0.000000 0.055384
#
#
# Mechanical properties :
#
#
# Convention : Reuss Voigt Hill
#
# Bulk Modulus (GPa) = 37.67266 43.69383 40.68325
# Shear Modulus (GPa) = 15.07569 18.52734 16.80151
#
# Velocity S-wave (km/s) = 2.84275 3.15142 3.00106
# Velocity P-wave (km/s) = 5.56500 6.05506 5.81519
#
# Compressibility (1/GPa) = 0.02654445
#
# Stress axis : x y z
#
# Youngs Moduli (GPa) = 54.16413 37.23360 38.04743
#
# Poissons Ratio (x) = 0.49108 -0.10027
# Poissons Ratio (y) = 0.71437 0.45564
# Poissons Ratio (z) = -0.14275 0.44589
#
# Static dielectric constant tensor:
#      x y z
#    x 1.650500 0.000000 0.000000 
#    y 0.000000 1.627800 0.000000 
#    z 0.000000 0.000000 1.644980 
# 
# From -- ./inp_files/19617.got.cif
#   From: 2010.05.17/outbox.cif.g08.bks.cpg/sg51_10_cif.got.tgz:19617.got - 2010.06.03 11:52:47.
