data_PCOD9403177
_publ_section_title
;
Structure prediction by ZEFSAII (Michael W. Deem and Ramdas Pophale) SiO2 
 PCOD9403177
Probable space group: P M M A
;
_chemical_formula_sum "Si O2"
_cell_formula_units_Z 64
_cell_length_a 30.397161
_cell_length_b 8.832337
_cell_length_c 15.238820
_cell_angle_alpha 90.000000
_cell_angle_beta 90.000000
_cell_angle_gamma 90.000000
_cell_volume 4091.287456
_symmetry_space_group_name_H-M "P M M A"
_symmetry_group_IT_number 51
_symmetry_cell_setting 'orthorhombic'
loop_
_space_group_symop_operation_xyz
x,y,z
1/2-x,-y,z
1/2+x,-y,-z
-x,y,-z
-x,-y,-z
1/2+x,y,-z
1/2-x,y,z
x,-y,z
loop_
_atom_site_type_symbol
_atom_site_label
_atom_site_fract_x
_atom_site_fract_y
_atom_site_fract_z
Si Si1 0.883394 0.179021 0.293641
Si Si2 0.531040 0.681065 0.631544
Si Si3 0.105753 0.182371 0.034196
Si Si4 0.199264 0.321546 0.790728
Si Si5 0.465333 0.180974 0.178412
Si Si6 0.940809 0.319126 0.137056
Si Si7 0.933710 0.680952 0.446119
Si Si8 0.799007 0.817671 0.015091
O O1 0.834699 0.233556 0.269742
O O2 0.915417 0.258938 0.222931
O O3 0.897976 0.231604 0.389800
O O4 0.887610 0.000000 0.283671
O O5 0.534512 0.500000 0.645110
O O6 0.540311 0.765235 0.721701
O O7 0.481041 0.710558 0.599650
O O8 0.561279 0.722701 0.548270
O O9 0.076281 0.222721 0.118044
O O10 0.157453 0.223126 0.039649
O O11 0.103095 0.000000 0.023053
O O12 0.084488 0.257948 0.948336
O O13 0.250000 0.302603 0.763732
O O14 0.188687 0.500000 0.791248
O O15 0.195502 0.257259 0.889412
O O16 0.509550 0.256962 0.140699
O O17 0.470872 0.000000 0.175665
O O18 0.941118 0.500000 0.137741
O O19 0.926390 0.500000 0.441043
O O20 0.750000 0.775578 0.981685
O O21 0.799358 0.000000 0.025739
#
# Coordination Sequence:
#
# PCOD9403177 Si02
#       8
#     8   8   8   8   8   8   8   8
#     4  12  22  32  50  75 102 133 166 201 248 300
#     4   9  18  33  52  72  96 127 163 205 247 289
#     4  10  21  35  49  70 100 132 165 206 251 293
#     4  10  20  33  50  73 100 130 164 203 246 292
#     4  11  22  34  49  70 100 134 168 209 251 292
#     4  12  23  34  48  68  97 135 175 208 239 288
#     4   9  18  33  52  73  97 126 161 203 248 292
#     4   9  17  31  51  71  93 126 165 203 245 292
#
# _framework density 15.642996999999999
#
# number of rings (size 3 to 8) (size 9 to 14) (size 15 to 20)
#    0.000    1.750    2.500    4.125    0.000    3.750 
#    0.000    1.250    0.000    0.000    0.000    0.875 
#    0.000    3.000    0.000    0.000    0.000    0.000 
#
# Total GULP energy -357194.972249 kJ/mol
# GULP energy per Si atom -5581.171441 kJ/mol
# Density = 1.560739 g / cm^3
# Si number density = 15.642997 Si / 1000 Ang^3
#
#
#
# Elastic Constant Matrix: (Units=GPa)
#
#
# Indices 1 2 3 4 5 6 
#
# 1 110.9020 43.1926 53.7259 0.0000 0.0000 0.0000
# 2 43.1926 44.7017 30.5934 0.0000 0.0000 0.0000
# 3 53.7259 30.5934 72.4237 0.0000 0.0000 0.0000
# 4 0.0000 0.0000 0.0000 24.2535 0.0000 0.0000
# 5 0.0000 0.0000 0.0000 0.0000 22.1217 0.0000
# 6 0.0000 0.0000 0.0000 0.0000 0.0000 18.4881
#
#
#
# Elastic Compliance Matrix: (Units=1/GPa)
#
#
# Indices 1 2 3 4 5 6 
#
# 1 0.017293 -0.011155 -0.008117 0.000000 0.000000 0.000000
# 2 -0.011155 0.038663 -0.008057 0.000000 0.000000 0.000000
# 3 -0.008117 -0.008057 0.023232 0.000000 0.000000 0.000000
# 4 0.000000 0.000000 0.000000 0.041231 0.000000 0.000000
# 5 0.000000 0.000000 0.000000 0.000000 0.045204 0.000000
# 6 0.000000 0.000000 0.000000 0.000000 0.000000 0.054089
#
#
# Mechanical properties :
#
#
# Convention : Reuss Voigt Hill
#
# Bulk Modulus (GPa) = 40.76400 53.67233 47.21817
# Shear Modulus (GPa) = 17.69614 19.67371 18.68493
#
# Velocity S-wave (km/s) = 3.36705 3.55021 3.45984
# Velocity P-wave (km/s) = 6.42118 7.15476 6.79787
#
# Compressibility (1/GPa) = 0.02453145
#
# Stress axis : x y z
#
# Youngs Moduli (GPa) = 57.82541 25.86466 43.04315
#
# Poissons Ratio (x) = 0.28851 0.34937
# Poissons Ratio (y) = 0.64502 0.34681
# Poissons Ratio (z) = 0.46936 0.20840
#
# Static dielectric constant tensor:
#      x y z
#    x 1.535300 0.000000 0.000000 
#    y 0.000000 1.522600 0.000000 
#    z 0.000000 0.000000 1.499990 
# 
# From -- ./inp_files/26671.got.cif
#   From: 2010.05.17/outbox.cif.g08.bks.cpg/sg51_14_cif.got.tgz:26671.got - 2010.06.03 11:52:47.
