data_PCOD9403674
_publ_section_title
;
Structure prediction by ZEFSAII (Michael W. Deem and Ramdas Pophale) SiO2 
 PCOD9403674
Probable space group: P M M A
;
_chemical_formula_sum "Si O2"
_cell_formula_units_Z 48
_cell_length_a 14.625368
_cell_length_b 8.708102
_cell_length_c 18.285310
_cell_angle_alpha 90.000000
_cell_angle_beta 90.000000
_cell_angle_gamma 90.000000
_cell_volume 2328.802386
_symmetry_space_group_name_H-M "P M M A"
_symmetry_group_IT_number 51
_symmetry_cell_setting 'orthorhombic'
loop_
_space_group_symop_operation_xyz
x,y,z
1/2-x,-y,z
1/2+x,-y,-z
-x,y,-z
-x,-y,-z
1/2+x,y,-z
1/2-x,y,z
x,-y,z
loop_
_atom_site_type_symbol
_atom_site_label
_atom_site_fract_x
_atom_site_fract_y
_atom_site_fract_z
Si Si1 0.355184 0.317906 0.375554
Si Si2 0.449005 0.316187 0.830692
Si Si3 0.893011 0.825175 0.022295
Si Si4 0.963760 0.182738 0.320477
Si Si5 0.857989 0.179475 0.466686
Si Si6 0.847527 0.316506 0.872291
O O1 0.250000 0.271903 0.360859
O O2 0.362866 0.500000 0.363678
O O3 0.430886 0.232560 0.328357
O O4 0.374436 0.276387 0.460331
O O5 0.447328 0.500000 0.836541
O O6 0.390794 0.245563 0.896942
O O7 0.421064 0.261800 0.750541
O O8 0.555215 0.261257 0.841083
O O9 0.859367 0.000000 0.021230
O O10 0.849200 0.725418 0.958135
O O11 0.000000 0.828040 0.000000
O O12 0.914337 0.229171 0.395948
O O13 0.956027 0.000000 0.313610
O O14 0.750000 0.187603 0.450265
O O15 0.880311 0.000000 0.482620
O O16 0.750000 0.258707 0.841416
O O17 0.848251 0.500000 0.863205
#
# Coordination Sequence:
#
# PCOD9403674 Si02
#       6
#     8   8   8   8   8   8
#     4  10  21  36  55  80 109 141 178 220 266 320
#     4  10  20  34  52  74 104 141 175 212 260 312
#     4   9  17  31  51  73  97 127 165 206 247 297
#     4  11  22  35  54  80 109 143 181 222 271 324
#     4   9  19  37  58  78 103 137 178 224 272 321
#     4   9  18  33  53  76 101 131 169 212 259 312
#
# _framework density 20.611453999999998
#
# number of rings (size 3 to 8) (size 9 to 14) (size 15 to 20)
#    0.000    2.333    0.000    2.500    0.000    8.000 
#    0.000    2.500    0.000    3.000    0.000    0.000 
#    0.000    0.000    0.000    0.000    0.000    0.000 
#
# Total GULP energy -267967.119167 kJ/mol
# GULP energy per Si atom -5582.648316 kJ/mol
# Density = 2.056454 g / cm^3
# Si number density = 20.611454 Si / 1000 Ang^3
#
#
#
# Elastic Constant Matrix: (Units=GPa)
#
#
# Indices 1 2 3 4 5 6 
#
# 1 30.8066 -4.8883 -1.2065 0.0000 0.0000 0.0000
# 2 -4.8883 8.5887 -0.3808 0.0000 0.0000 0.0000
# 3 -1.2065 -0.3808 69.1080 0.0000 0.0000 0.0000
# 4 0.0000 0.0000 0.0000 31.7536 0.0000 0.0000
# 5 0.0000 0.0000 0.0000 0.0000 1.0155 0.0000
# 6 0.0000 0.0000 0.0000 0.0000 0.0000 9.0742
#
#
#
# Elastic Compliance Matrix: (Units=1/GPa)
#
#
# Indices 1 2 3 4 5 6 
#
# 1 0.035720 0.020363 0.000736 0.000000 0.000000 0.000000
# 2 0.020363 0.128068 0.001061 0.000000 0.000000 0.000000
# 3 0.000736 0.001061 0.014489 0.000000 0.000000 0.000000
# 4 0.000000 0.000000 0.000000 0.031493 0.000000 0.000000
# 5 0.000000 0.000000 0.000000 0.000000 0.984759 0.000000
# 6 0.000000 0.000000 0.000000 0.000000 0.000000 0.110202
#
#
# Mechanical properties :
#
#
# Convention : Reuss Voigt Hill
#
# Bulk Modulus (GPa) = 4.49242 10.61693 7.55468
# Shear Modulus (GPa) = 3.74641 16.03392 9.89016
#
# Velocity S-wave (km/s) = 1.34966 2.79213 2.19290
# Velocity P-wave (km/s) = 2.14781 3.94422 3.17568
#
# Compressibility (1/GPa) = 0.22259713
#
# Stress axis : x y z
#
# Youngs Moduli (GPa) = 27.99516 7.80833 69.01887
#
# Poissons Ratio (x) = -0.15900 -0.05078
# Poissons Ratio (y) = -0.57006 -0.07324
# Poissons Ratio (z) = -0.02060 -0.00829
#
# Static dielectric constant tensor:
#      x y z
#    x 1.790220 0.000000 0.000000 
#    y 0.000000 1.697190 0.000000 
#    z 0.000000 0.000000 1.725050 
# 
# From -- ./inp_files/29456.got.cif
#   From: 2010.05.17/outbox.cif.g08.bks.cpg/sg51_15_cif.got.tgz:29456.got - 2010.06.03 11:52:47.
