data_PCOD9404911
_publ_section_title
;
Structure prediction by ZEFSAII (Michael W. Deem and Ramdas Pophale) SiO2 
 PCOD9404911
Probable space group: P M M A
;
_chemical_formula_sum "Si O2"
_cell_formula_units_Z 48
_cell_length_a 15.835040
_cell_length_b 8.640291
_cell_length_c 18.253307
_cell_angle_alpha 90.000000
_cell_angle_beta 90.000000
_cell_angle_gamma 90.000000
_cell_volume 2497.405665
_symmetry_space_group_name_H-M "P M M A"
_symmetry_group_IT_number 51
_symmetry_cell_setting 'orthorhombic'
loop_
_space_group_symop_operation_xyz
x,y,z
1/2-x,-y,z
1/2+x,-y,-z
-x,y,-z
-x,-y,-z
1/2+x,y,-z
1/2-x,y,z
x,-y,z
loop_
_atom_site_type_symbol
_atom_site_label
_atom_site_fract_x
_atom_site_fract_y
_atom_site_fract_z
Si Si1 0.750000 0.685667 0.214675
Si Si2 0.918394 0.686796 0.451014
Si Si3 0.250000 0.311405 0.293928
Si Si4 0.919559 0.184239 0.287617
Si Si5 0.250000 0.311533 0.462436
Si Si6 0.250000 0.314457 0.957241
Si Si7 0.086880 0.185788 0.040606
Si Si8 0.583104 0.313809 0.795057
O O1 0.750000 0.500000 0.221477
O O2 0.666603 0.751708 0.252741
O O3 0.750000 0.726171 0.128658
O O4 0.915723 0.500000 0.441233
O O5 0.923724 0.763613 0.371933
O O6 0.833926 0.735207 0.494074
O O7 0.000000 0.722893 0.500000
O O8 0.250000 0.500000 0.295192
O O9 0.250000 0.258367 0.378210
O O10 0.334189 0.263774 0.250789
O O11 0.999228 0.253397 0.244384
O O12 0.920921 0.000000 0.282012
O O13 0.250000 0.500000 0.460509
O O14 0.250000 0.500000 0.963806
O O15 0.166917 0.248573 0.996168
O O16 0.087864 0.251447 0.122590
O O17 0.090521 0.000000 0.043274
O O18 0.000000 0.231149 0.000000
O O19 0.581506 0.500000 0.796500
#
# Coordination Sequence:
#
# PCOD9404911 Si02
#       8
#     4   8   4   8   4   4   8   8
#     4  11  24  43  66  90 118 157 208 259 304 359
#     4  10  20  36  60  86 114 155 204 249 295 353
#     4   9  19  36  60  90 118 149 194 247 298 346
#     4  12  25  40  60  89 126 163 200 249 312 372
#     4   9  17  32  56  84 112 143 188 243 292 342
#     4  11  24  41  64  92 120 157 204 253 304 363
#     4  11  24  41  62  89 123 161 200 249 310 368
#     4  11  22  39  64  91 121 158 204 253 299 358
#
# _framework density 19.219944999999999
#
# number of rings (size 3 to 8) (size 9 to 14) (size 15 to 20)
#    0.000    1.333    0.000    6.000    0.000    9.667 
#    0.000    1.250    0.000    2.000    0.000    0.000 
#    0.000    0.000    0.000    0.000    0.000    0.000 
#
# Total GULP energy -268541.170105 kJ/mol
# GULP energy per Si atom -5594.607711 kJ/mol
# Density = 1.917620 g / cm^3
# Si number density = 19.219945 Si / 1000 Ang^3
#
#
#
# Elastic Constant Matrix: (Units=GPa)
#
#
# Indices 1 2 3 4 5 6 
#
# 1 191.9979 58.2142 91.1229 0.0000 0.0000 0.0000
# 2 58.2142 60.3352 64.7238 0.0000 0.0000 0.0000
# 3 91.1229 64.7238 173.4460 0.0000 0.0000 0.0000
# 4 0.0000 0.0000 0.0000 -7.0957 0.0000 0.0000
# 5 0.0000 0.0000 0.0000 0.0000 44.0221 0.0000
# 6 0.0000 0.0000 0.0000 0.0000 0.0000 13.4650
#
#
#
# Elastic Compliance Matrix: (Units=1/GPa)
#
#
# Indices 1 2 3 4 5 6 
#
# 1 0.007817 -0.005231 -0.002155 0.000000 0.000000 0.000000
# 2 -0.005231 0.031137 -0.008871 0.000000 0.000000 0.000000
# 3 -0.002155 -0.008871 0.010208 0.000000 0.000000 0.000000
# 4 0.000000 0.000000 0.000000 -0.140931 0.000000 0.000000
# 5 0.000000 0.000000 0.000000 0.000000 0.022716 0.000000
# 6 0.000000 0.000000 0.000000 0.000000 0.000000 0.074267
#
#
# Mechanical properties :
#
#
# Convention : Reuss Voigt Hill
#
# Bulk Modulus (GPa) = 60.06448 94.87787 77.47117
# Shear Modulus (GPa) = 115.53227 24.19283 69.86255
#
# Velocity S-wave (km/s) = 7.76151 3.55172 6.03555
# Velocity P-wave (km/s) = 10.56600 8.14193 9.43216
#
# Compressibility (1/GPa) = 0.01664878
#
# Stress axis : x y z
#
# Youngs Moduli (GPa) = 127.92526 32.11564 97.96105
#
# Poissons Ratio (x) = 0.16798 0.21110
# Poissons Ratio (y) = 0.66912 0.86905
# Poissons Ratio (z) = 0.27568 0.28491
#
# Static dielectric constant tensor:
#      x y z
#    x 1.635560 0.000000 0.000000 
#    y 0.000000 1.648830 0.000000 
#    z 0.000000 0.000000 1.629080 
# 
# From -- ./inp_files/29688.got.cif
#   From: 2010.05.17/outbox.cif.g08.bks.cpg/sg51_15_cif.got.tgz:29688.got - 2010.06.03 11:52:47.
