data_PCOD9404389
_publ_section_title
;
Structure prediction by ZEFSAII (Michael W. Deem and Ramdas Pophale) SiO2 
 PCOD9404389
Probable space group: P M M A
;
_chemical_formula_sum "Si O2"
_cell_formula_units_Z 40
_cell_length_a 8.547269
_cell_length_b 26.061502
_cell_length_c 9.832782
_cell_angle_alpha 90.000000
_cell_angle_beta 90.000000
_cell_angle_gamma 90.000000
_cell_volume 2190.298091
_symmetry_space_group_name_H-M "P M M A"
_symmetry_group_IT_number 51
_symmetry_cell_setting 'orthorhombic'
loop_
_space_group_symop_operation_xyz
x,y,z
1/2-x,-y,z
1/2+x,-y,-z
-x,y,-z
-x,-y,-z
1/2+x,y,-z
1/2-x,y,z
x,-y,z
loop_
_atom_site_type_symbol
_atom_site_label
_atom_site_fract_x
_atom_site_fract_y
_atom_site_fract_z
Si Si1 0.438687 0.441168 0.648459
Si Si2 0.438521 0.148997 0.651333
Si Si3 0.061910 0.350665 0.846698
Si Si4 0.061233 0.057410 0.847736
Si Si5 0.436914 0.261557 0.347347
O O1 0.500000 0.425000 0.500000
O O2 0.250000 0.440843 0.643797
O O3 0.490526 0.500000 0.672218
O O4 0.488675 0.402004 0.765464
O O5 0.500000 0.138638 0.500000
O O6 0.250000 0.151665 0.649842
O O7 0.490189 0.103281 0.750230
O O8 0.504566 0.204632 0.691452
O O9 0.250000 0.349200 0.848889
O O10 0.000099 0.302965 0.758750
O O11 0.000000 0.349846 0.000000
O O12 0.250000 0.058059 0.850364
O O13 0.011856 0.000000 0.802854
O O14 0.000000 0.065084 0.000000
O O15 0.500000 0.272157 0.500000
O O16 0.250000 0.262502 0.351123
#
# Coordination Sequence:
#
# PCOD9404389 Si02
#       5
#     8   8   8   8   8
#     4   9  19  36  58  83 110 142 181 223 267 319
#     4  10  20  35  55  80 109 139 177 222 268 318
#     4  11  23  38  56  81 113 146 183 225 272 323
#     4   9  19  35  54  77 106 140 177 217 262 316
#     4  11  22  38  59  81 108 142 182 225 272 324
#
# _framework density 18.262353999999998
#
# number of rings (size 3 to 8) (size 9 to 14) (size 15 to 20)
#    0.000    2.000    0.000    4.800    0.000    6.400 
#    0.000    2.000    0.000    0.000    0.000    0.000 
#    0.000    0.000    0.000    0.000    0.000    0.000 
#
# Total GULP energy -223374.061059 kJ/mol
# GULP energy per Si atom -5584.351526 kJ/mol
# Density = 1.822079 g / cm^3
# Si number density = 18.262354 Si / 1000 Ang^3
#
#
#
# Elastic Constant Matrix: (Units=GPa)
#
#
# Indices 1 2 3 4 5 6 
#
# 1 65.3889 45.1814 40.6931 0.0000 0.0000 0.0000
# 2 45.1814 162.3665 129.1974 0.0000 0.0000 0.0000
# 3 40.6931 129.1974 140.8021 0.0000 0.0000 0.0000
# 4 0.0000 0.0000 0.0000 92.3052 0.0000 0.0000
# 5 0.0000 0.0000 0.0000 0.0000 33.2157 0.0000
# 6 0.0000 0.0000 0.0000 0.0000 0.0000 -11.2125
#
#
#
# Elastic Compliance Matrix: (Units=1/GPa)
#
#
# Indices 1 2 3 4 5 6 
#
# 1 0.019148 -0.003427 -0.002389 0.000000 0.000000 0.000000
# 2 -0.003427 0.023435 -0.020513 0.000000 0.000000 0.000000
# 3 -0.002389 -0.020513 0.026616 0.000000 0.000000 0.000000
# 4 0.000000 0.000000 0.000000 0.010834 0.000000 0.000000
# 5 0.000000 0.000000 0.000000 0.000000 0.030106 0.000000
# 6 0.000000 0.000000 0.000000 0.000000 0.000000 -0.089186
#
#
# Mechanical properties :
#
#
# Convention : Reuss Voigt Hill
#
# Bulk Modulus (GPa) = 60.46242 88.74461 74.60352
# Shear Modulus (GPa) = 63.19104 33.09405 48.14254
#
# Velocity S-wave (km/s) = 5.88871 4.26155 5.13993
# Velocity P-wave (km/s) = 8.91153 8.53898 8.72725
#
# Compressibility (1/GPa) = 0.01653920
#
# Stress axis : x y z
#
# Youngs Moduli (GPa) = 52.22471 42.67047 37.57208
#
# Poissons Ratio (x) = 0.14623 0.08977
# Poissons Ratio (y) = 0.17897 0.77073
# Poissons Ratio (z) = 0.12479 0.87532
#
# Static dielectric constant tensor:
#      x y z
#    x 1.616170 0.000000 0.000000 
#    y 0.000000 1.637710 0.000000 
#    z 0.000000 0.000000 1.586400 
# 
# From -- ./inp_files/5278.got.cif
#   From: 2010.05.17/outbox.cif.g08.bks.cpg/sg51_3_cif.got.tgz:5278.got - 2010.06.03 11:52:47.
