data_PCOD9404395
_publ_section_title
;
Structure prediction by ZEFSAII (Michael W. Deem and Ramdas Pophale) SiO2 
 PCOD9404395
Probable space group: P M M A
;
_chemical_formula_sum "Si O2"
_cell_formula_units_Z 56
_cell_length_a 7.512078
_cell_length_b 22.623828
_cell_length_c 13.712470
_cell_angle_alpha 90.000000
_cell_angle_beta 90.000000
_cell_angle_gamma 90.000000
_cell_volume 2330.461161
_symmetry_space_group_name_H-M "P M M A"
_symmetry_group_IT_number 51
_symmetry_cell_setting 'orthorhombic'
loop_
_space_group_symop_operation_xyz
x,y,z
1/2-x,-y,z
1/2+x,-y,-z
-x,y,-z
-x,-y,-z
1/2+x,y,-z
1/2-x,y,z
x,-y,z
loop_
_atom_site_type_symbol
_atom_site_label
_atom_site_fract_x
_atom_site_fract_y
_atom_site_fract_z
Si Si1 0.462093 0.620603 0.114205
Si Si2 0.963346 0.313838 0.384691
Si Si3 0.963346 0.186162 0.384691
Si Si4 0.462093 0.879397 0.114205
Si Si5 0.543811 0.436341 0.303236
Si Si6 0.456189 0.936341 0.696764
Si Si7 0.962586 0.750000 0.883822
O O1 0.250000 0.620596 0.125203
O O2 0.538062 0.572222 0.186721
O O3 0.532269 0.685756 0.147449
O O4 0.500000 0.612290 0.000000
O O5 0.750000 0.313612 0.369685
O O6 0.031868 0.250000 0.346209
O O7 0.037179 0.375471 0.343723
O O8 0.000000 0.314099 0.500000
O O9 0.750000 0.186388 0.369685
O O10 0.037178 0.124529 0.343723
O O11 0.000000 0.185901 0.500000
O O12 0.250000 0.879404 0.125203
O O13 0.538062 0.927778 0.186721
O O14 0.532269 0.814244 0.147449
O O15 0.500000 0.887710 0.000000
O O16 0.750000 0.437235 0.334772
O O17 0.464799 0.500000 0.330405
O O18 0.250000 0.937235 0.665228
O O19 0.535201 0.000000 0.669595
O O20 0.750000 0.750000 0.870194
O O21 0.000000 0.750000 0.000000
#
# Coordination Sequence:
#
# PCOD9404395 Si02
#       7
#     8   8   8   8   8   8   8
#     4  10  20  35  55  80 111 148 189 232 278 328
#     4   9  19  37  60  85 111 142 180 225 277 331
#     4   9  19  37  60  85 111 142 180 225 277 331
#     4  10  20  35  55  80 111 148 189 232 278 328
#     4  10  22  38  55  80 114 150 187 228 275 327
#     4  10  22  38  55  80 114 150 187 228 275 327
#     4   8  16  30  48  74 103 132 173 224 273 318
#
# _framework density 24.029579999999999
#
# number of rings (size 3 to 8) (size 9 to 14) (size 15 to 20)
#    0.000    2.571    0.000    0.857    2.000    4.000 
#    0.000    0.000    0.000    0.000    0.000    0.000 
#    0.000    0.000    0.000    0.000    0.000    0.000 
#
# Total GULP energy -312655.993365 kJ/mol
# GULP energy per Si atom -5583.142739 kJ/mol
# Density = 2.397489 g / cm^3
# Si number density = 24.029580 Si / 1000 Ang^3
#
#
#
# Elastic Constant Matrix: (Units=GPa)
#
#
# Indices 1 2 3 4 5 6 
#
# 1 89.5724 11.9997 -7.3182 0.0000 0.0000 0.0000
# 2 11.9997 250.0805 57.8601 0.0000 0.0000 0.0000
# 3 -7.3182 57.8601 62.8301 0.0000 0.0000 0.0000
# 4 0.0000 0.0000 0.0000 6.4529 0.0000 0.0000
# 5 0.0000 0.0000 0.0000 0.0000 23.9589 0.0000
# 6 0.0000 0.0000 0.0000 0.0000 0.0000 -1.3109
#
#
#
# Elastic Compliance Matrix: (Units=1/GPa)
#
#
# Indices 1 2 3 4 5 6 
#
# 1 0.011503 -0.001095 0.002348 0.000000 0.000000 0.000000
# 2 -0.001095 0.005186 -0.004903 0.000000 0.000000 0.000000
# 3 0.002348 -0.004903 0.020705 0.000000 0.000000 0.000000
# 4 0.000000 0.000000 0.000000 0.154969 0.000000 0.000000
# 5 0.000000 0.000000 0.000000 0.000000 0.041738 0.000000
# 6 0.000000 0.000000 0.000000 0.000000 0.000000 -0.762850
#
#
# Mechanical properties :
#
#
# Convention : Reuss Voigt Hill
#
# Bulk Modulus (GPa) = 33.22997 58.61848 45.92422
# Shear Modulus (GPa) = -9.77672 28.48295 9.35312
#
# Velocity S-wave (km/s) = -2.01927 3.44660 1.97504
# Velocity P-wave (km/s) = 2.90210 6.34712 4.93498
#
# Compressibility (1/GPa) = 0.03009332
#
# Stress axis : x y z
#
# Youngs Moduli (GPa) = 86.93573 192.83928 48.29824
#
# Poissons Ratio (x) = 0.21121 -0.11343
# Poissons Ratio (y) = 0.09522 0.23681
# Poissons Ratio (z) = -0.20416 0.94550
#
# Static dielectric constant tensor:
#      x y z
#    x 1.872980 0.000000 0.000000 
#    y 0.000000 1.986290 0.000000 
#    z 0.000000 0.000000 1.880050 
# 
# From -- ./inp_files/21735.got.cif
#   From: 2010.05.17/outbox.cif.g08.bks.cpg/sg51_11_cif.got.tgz:21735.got - 2010.06.03 11:52:47.
