data_PCOD9404521
_publ_section_title
;
Structure prediction by ZEFSAII (Michael W. Deem and Ramdas Pophale) SiO2 
 PCOD9404521
Probable space group: P M M A
;
_chemical_formula_sum "Si O2"
_cell_formula_units_Z 56
_cell_length_a 19.819352
_cell_length_b 7.752761
_cell_length_c 16.847003
_cell_angle_alpha 90.000000
_cell_angle_beta 90.000000
_cell_angle_gamma 90.000000
_cell_volume 2588.621179
_symmetry_space_group_name_H-M "P M M A"
_symmetry_group_IT_number 51
_symmetry_cell_setting 'orthorhombic'
loop_
_space_group_symop_operation_xyz
x,y,z
1/2-x,-y,z
1/2+x,-y,-z
-x,y,-z
-x,-y,-z
1/2+x,y,-z
1/2-x,y,z
x,-y,z
loop_
_atom_site_type_symbol
_atom_site_label
_atom_site_fract_x
_atom_site_fract_y
_atom_site_fract_z
Si Si1 0.045996 0.208255 0.926820
Si Si2 0.826560 0.704333 0.348968
Si Si3 0.417477 0.709465 0.333355
Si Si4 0.923404 0.798872 0.492922
Si Si5 0.174615 0.794610 0.010282
Si Si6 0.172496 0.291891 0.185839
Si Si7 0.051384 0.706374 0.747520
O O1 0.029295 0.257874 0.837353
O O2 0.044799 0.000000 0.929712
O O3 0.121337 0.272088 0.947153
O O4 0.000000 0.270081 0.000000
O O5 0.750000 0.775346 0.354163
O O6 0.819560 0.500000 0.335649
O O7 0.871959 0.724226 0.428324
O O8 0.875375 0.774886 0.278949
O O9 0.416465 0.500000 0.335892
O O10 0.394972 0.776325 0.418416
O O11 0.371091 0.766505 0.260176
O O12 0.493301 0.768835 0.312301
O O13 0.000000 0.723388 0.500000
O O14 0.930258 0.000000 0.473420
O O15 0.250000 0.720501 0.005461
O O16 0.147562 0.765857 0.099469
O O17 0.179356 0.000000 0.999377
O O18 0.250000 0.232980 0.192783
O O19 0.171951 0.500000 0.185812
O O20 0.053245 0.500000 0.739105
#
# Coordination Sequence:
#
# PCOD9404521 Si02
#       7
#     8   8   8   8   8   8   8
#     4  10  21  35  52  77 109 143 183 230 279 333
#     4  10  22  41  63  86 115 153 195 238 287 343
#     4  10  20  35  57  81 110 147 184 224 278 339
#     4  11  23  38  59  87 116 148 188 233 282 339
#     4   9  18  33  51  71 100 140 180 217 268 332
#     4   9  18  32  51  78 108 137 176 225 274 326
#     4  10  21  36  56  82 109 143 187 234 281 334
#
# _framework density 21.633137999999999
#
# number of rings (size 3 to 8) (size 9 to 14) (size 15 to 20)
#    0.000    2.143    1.429    1.286    0.000    4.571 
#    0.000    1.429    0.000    0.000    0.000    0.000 
#    0.000    0.000    0.000    0.000    0.000    0.000 
#
# Total GULP energy -312589.621724 kJ/mol
# GULP energy per Si atom -5581.957531 kJ/mol
# Density = 2.158390 g / cm^3
# Si number density = 21.633138 Si / 1000 Ang^3
#
#
#
# Elastic Constant Matrix: (Units=GPa)
#
#
# Indices 1 2 3 4 5 6 
#
# 1 83.1559 6.9780 27.0680 0.0000 0.0000 0.0000
# 2 6.9780 31.1443 -9.5775 0.0000 0.0000 0.0000
# 3 27.0680 -9.5775 94.0185 0.0000 0.0000 0.0000
# 4 0.0000 0.0000 0.0000 16.3553 0.0000 0.0000
# 5 0.0000 0.0000 0.0000 0.0000 30.5475 0.0000
# 6 0.0000 0.0000 0.0000 0.0000 0.0000 -9.6342
#
#
#
# Elastic Compliance Matrix: (Units=1/GPa)
#
#
# Indices 1 2 3 4 5 6 
#
# 1 0.013846 -0.004468 -0.004442 0.000000 0.000000 0.000000
# 2 -0.004468 0.034589 0.004810 0.000000 0.000000 0.000000
# 3 -0.004442 0.004810 0.012405 0.000000 0.000000 0.000000
# 4 0.000000 0.000000 0.000000 0.061142 0.000000 0.000000
# 5 0.000000 0.000000 0.000000 0.000000 0.032736 0.000000
# 6 0.000000 0.000000 0.000000 0.000000 0.000000 -0.103797
#
#
# Mechanical properties :
#
#
# Convention : Reuss Voigt Hill
#
# Bulk Modulus (GPa) = 18.99680 28.58397 23.79038
# Shear Modulus (GPa) = 65.21628 19.71039 42.46333
#
# Velocity S-wave (km/s) = 5.49654 3.02175 4.43525
# Velocity P-wave (km/s) = 7.00592 5.04147 6.10325
#
# Compressibility (1/GPa) = 0.05264045
#
# Stress axis : x y z
#
# Youngs Moduli (GPa) = 72.22146 28.91105 80.61333
#
# Poissons Ratio (x) = 0.12918 0.35805
# Poissons Ratio (y) = 0.32270 -0.38774
# Poissons Ratio (z) = 0.32077 -0.13906
#
# Static dielectric constant tensor:
#      x y z
#    x 1.838980 0.000000 0.000000 
#    y 0.000000 1.785350 0.000000 
#    z 0.000000 0.000000 1.753430 
# 
# From -- ./inp_files/25650.got.cif
#   From: 2010.05.17/outbox.cif.g08.bks.cpg/sg51_13_cif.got.tgz:25650.got - 2010.06.03 11:52:47.
