data_PCOD9404429
_publ_section_title
;
Structure prediction by ZEFSAII (Michael W. Deem and Ramdas Pophale) SiO2 
 PCOD9404429
Probable space group: P M M A
;
_chemical_formula_sum "Si O2"
_cell_formula_units_Z 56
_cell_length_a 15.561949
_cell_length_b 7.732387
_cell_length_c 22.386515
_cell_angle_alpha 90.000000
_cell_angle_beta 90.000000
_cell_angle_gamma 90.000000
_cell_volume 2693.792008
_symmetry_space_group_name_H-M "P M M A"
_symmetry_group_IT_number 51
_symmetry_cell_setting 'orthorhombic'
loop_
_space_group_symop_operation_xyz
x,y,z
1/2-x,-y,z
1/2+x,-y,-z
-x,y,-z
-x,-y,-z
1/2+x,y,-z
1/2-x,y,z
x,-y,z
loop_
_atom_site_type_symbol
_atom_site_label
_atom_site_fract_x
_atom_site_fract_y
_atom_site_fract_z
Si Si1 0.149755 0.711556 0.998242
Si Si2 0.101191 0.708048 0.565397
Si Si3 0.156232 0.709426 0.306026
Si Si4 0.997104 0.203206 0.223891
Si Si5 0.001999 0.703263 0.086913
Si Si6 0.601608 0.710033 0.564328
Si Si7 0.342436 0.205755 0.696626
O O1 0.250000 0.770658 0.997684
O O2 0.154848 0.500000 0.998203
O O3 0.089539 0.767768 0.054544
O O4 0.087454 0.767635 0.943022
O O5 0.108072 0.500000 0.565684
O O6 0.134161 0.770087 0.500606
O O7 0.143177 0.770844 0.626023
O O8 0.999771 0.751021 0.567942
O O9 0.250000 0.762112 0.284567
O O10 0.152345 0.500000 0.307478
O O11 0.082118 0.770872 0.262751
O O12 0.143422 0.770742 0.374354
O O13 0.003608 0.275061 0.157552
O O14 0.919675 0.278677 0.263897
O O15 0.982814 0.000000 0.216540
O O16 0.001732 0.500000 0.073672
O O17 0.608961 0.500000 0.563670
O O18 0.250000 0.279218 0.713436
O O19 0.341076 0.000000 0.706549
#
# Coordination Sequence:
#
# PCOD9404429 Si02
#       7
#     8   8   8   8   8   8   8
#     4   8  15  31  56  85 113 137 166 209 257 302
#     4   9  16  30  54  79 101 128 167 220 276 328
#     4  10  20  35  56  78 102 137 179 221 267 322
#     4  11  23  38  54  74 108 148 181 221 264 306
#     4   9  18  33  56  83 108 138 175 212 251 303
#     4   8  15  29  51  79 105 127 160 216 278 327
#     4  10  22  38  52  70 101 142 184 223 268 319
#
# _framework density 20.788537999999999
#
# number of rings (size 3 to 8) (size 9 to 14) (size 15 to 20)
#    0.000    2.714    1.429    2.143    0.000    2.857 
#    0.000    6.429    0.000    0.857    0.000    0.000 
#    0.000    0.000    0.000    0.000    0.000    0.000 
#
# Total GULP energy -312220.042610 kJ/mol
# GULP energy per Si atom -5575.357904 kJ/mol
# Density = 2.074122 g / cm^3
# Si number density = 20.788538 Si / 1000 Ang^3
#
#
#
# Elastic Constant Matrix: (Units=GPa)
#
#
# Indices 1 2 3 4 5 6 
#
# 1 161.0949 4.0149 81.5319 0.0000 0.0000 0.0000
# 2 4.0149 25.9524 -3.8876 0.0000 0.0000 0.0000
# 3 81.5319 -3.8876 156.5636 0.0000 0.0000 0.0000
# 4 0.0000 0.0000 0.0000 40.8568 0.0000 0.0000
# 5 0.0000 0.0000 0.0000 0.0000 -66.4679 0.0000
# 6 0.0000 0.0000 0.0000 0.0000 0.0000 7.0789
#
#
#
# Elastic Compliance Matrix: (Units=1/GPa)
#
#
# Indices 1 2 3 4 5 6 
#
# 1 0.008531 -0.001993 -0.004492 0.000000 0.000000 0.000000
# 2 -0.001993 0.039141 0.002010 0.000000 0.000000 0.000000
# 3 -0.004492 0.002010 0.008776 0.000000 0.000000 0.000000
# 4 0.000000 0.000000 0.000000 0.024476 0.000000 0.000000
# 5 0.000000 0.000000 0.000000 0.000000 -0.015045 0.000000
# 6 0.000000 0.000000 0.000000 0.000000 0.000000 0.141264
#
#
# Mechanical properties :
#
#
# Convention : Reuss Voigt Hill
#
# Bulk Modulus (GPa) = 21.05329 56.32546 38.68938
# Shear Modulus (GPa) = 21.55861 13.75700 17.65781
#
# Velocity S-wave (km/s) = 3.22381 2.57526 2.91761
# Velocity P-wave (km/s) = 4.89965 5.99966 5.47734
#
# Compressibility (1/GPa) = 0.04749850
#
# Stress axis : x y z
#
# Youngs Moduli (GPa) = 117.22581 25.54841 113.94403
#
# Poissons Ratio (x) = 0.05091 0.51182
# Poissons Ratio (y) = 0.23358 -0.22898
# Poissons Ratio (z) = 0.52656 -0.05134
#
# Static dielectric constant tensor:
#      x y z
#    x 1.767240 0.000000 0.000000 
#    y 0.000000 1.776560 0.000000 
#    z 0.000000 0.000000 1.726580 
# 
# From -- ./inp_files/33400.got.cif
#   From: 2010.05.17/outbox.cif.g08.bks.cpg/sg51_17_cif.got.tgz:33400.got - 2010.06.03 11:52:47.
