data_PCOD9404553
_publ_section_title
;
Structure prediction by ZEFSAII (Michael W. Deem and Ramdas Pophale) SiO2 
 PCOD9404553
Probable space group: P M M A
;
_chemical_formula_sum "Si O2"
_cell_formula_units_Z 40
_cell_length_a 8.140842
_cell_length_b 10.048365
_cell_length_c 24.805878
_cell_angle_alpha 90.000000
_cell_angle_beta 90.000000
_cell_angle_gamma 90.000000
_cell_volume 2029.174198
_symmetry_space_group_name_H-M "P M M A"
_symmetry_group_IT_number 51
_symmetry_cell_setting 'orthorhombic'
loop_
_space_group_symop_operation_xyz
x,y,z
1/2-x,-y,z
1/2+x,-y,-z
-x,y,-z
-x,-y,-z
1/2+x,y,-z
1/2-x,y,z
x,-y,z
loop_
_atom_site_type_symbol
_atom_site_label
_atom_site_fract_x
_atom_site_fract_y
_atom_site_fract_z
Si Si1 0.053333 0.653970 0.747034
Si Si2 0.052181 0.500000 0.438855
Si Si3 0.054849 0.000000 0.562678
Si Si4 0.446377 0.253756 0.369412
Si Si5 0.951197 0.845383 0.155780
Si Si6 0.448036 0.349571 0.938469
O O1 0.250000 0.644934 0.753110
O O2 0.990493 0.500000 0.748484
O O3 0.994098 0.751983 0.794463
O O4 0.015966 0.723251 0.690054
O O5 0.250000 0.500000 0.437306
O O6 0.991368 0.626793 0.406642
O O7 0.000000 0.500000 0.500000
O O8 0.000000 0.000000 0.500000
O O9 0.992425 0.875881 0.597310
O O10 0.250000 0.000000 0.562156
O O11 0.250000 0.260719 0.364636
O O12 0.750000 0.848012 0.156440
O O13 0.003710 0.765901 0.102019
O O14 0.004666 0.000000 0.158466
O O15 0.250000 0.351207 0.936275
O O16 0.503897 0.500000 0.922922
O O17 0.500000 0.326283 0.000000
#
# Coordination Sequence:
#
# PCOD9404553 Si02
#       6
#     8   4   4   8   8   8
#     4  10  20  35  57  84 112 147 192 240 288 344
#     4  10  22  38  60  86 116 148 187 232 283 340
#     4  12  26  44  64  90 120 156 195 236 287 348
#     4  11  23  41  61  87 119 156 193 237 292 348
#     4   9  18  32  52  79 110 145 189 237 285 337
#     4   9  17  31  52  77 107 144 185 231 281 337
#
# _framework density 19.712454000000001
#
# number of rings (size 3 to 8) (size 9 to 14) (size 15 to 20)
#    0.000    2.000    1.000    2.700    1.400    6.000 
#    0.000    1.000    0.000    3.600    0.000    0.000 
#    0.000    0.000    0.000    0.000    0.000    0.000 
#
# Total GULP energy -223229.536932 kJ/mol
# GULP energy per Si atom -5580.738423 kJ/mol
# Density = 1.966759 g / cm^3
# Si number density = 19.712454 Si / 1000 Ang^3
#
#
#
# Elastic Constant Matrix: (Units=GPa)
#
#
# Indices 1 2 3 4 5 6 
#
# 1 8.0503 5.3600 1.3468 0.0000 0.0000 0.0000
# 2 5.3600 208.1880 118.0286 0.0000 0.0000 0.0000
# 3 1.3468 118.0286 168.5698 0.0000 0.0000 0.0000
# 4 0.0000 0.0000 0.0000 36.3715 0.0000 0.0000
# 5 0.0000 0.0000 0.0000 0.0000 27.1839 0.0000
# 6 0.0000 0.0000 0.0000 0.0000 0.0000 20.7573
#
#
#
# Elastic Compliance Matrix: (Units=1/GPa)
#
#
# Indices 1 2 3 4 5 6 
#
# 1 0.126836 -0.004462 0.002111 0.000000 0.000000 0.000000
# 2 -0.004462 0.008122 -0.005651 0.000000 0.000000 0.000000
# 3 0.002111 -0.005651 0.009872 0.000000 0.000000 0.000000
# 4 0.000000 0.000000 0.000000 0.027494 0.000000 0.000000
# 5 0.000000 0.000000 0.000000 0.000000 0.036787 0.000000
# 6 0.000000 0.000000 0.000000 0.000000 0.000000 0.048176
#
#
# Mechanical properties :
#
#
# Convention : Reuss Voigt Hill
#
# Bulk Modulus (GPa) = 7.76242 70.47543 39.11893
# Shear Modulus (GPa) = 15.81106 34.20071 25.00588
#
# Velocity S-wave (km/s) = 2.83518 4.16983 3.56551
# Velocity P-wave (km/s) = 3.82937 7.68197 6.06946
#
# Compressibility (1/GPa) = 0.12882574
#
# Stress axis : x y z
#
# Youngs Moduli (GPa) = 7.88417 123.12048 101.29373
#
# Poissons Ratio (x) = 0.54940 -0.21383
# Poissons Ratio (y) = 0.03518 0.57244
# Poissons Ratio (z) = -0.01664 0.69579
#
# Static dielectric constant tensor:
#      x y z
#    x 1.710140 0.000000 0.000000 
#    y 0.000000 1.714930 0.000000 
#    z 0.000000 0.000000 1.684000 
# 
# From -- ./inp_files/35999.got.cif
#   From: 2010.05.17/outbox.cif.g08.bks.cpg/sg51_18_cif.got.tgz:35999.got - 2010.06.03 11:52:47.
