data_PCOD9404303
_publ_section_title
;
Structure prediction by ZEFSAII (Michael W. Deem and Ramdas Pophale) SiO2 
 PCOD9404303
Probable space group: P M M A
;
_chemical_formula_sum "Si O2"
_cell_formula_units_Z 64
_cell_length_a 8.186489
_cell_length_b 15.722297
_cell_length_c 24.582323
_cell_angle_alpha 90.000000
_cell_angle_beta 90.000000
_cell_angle_gamma 90.000000
_cell_volume 3164.000908
_symmetry_space_group_name_H-M "P M M A"
_symmetry_group_IT_number 51
_symmetry_cell_setting 'orthorhombic'
loop_
_space_group_symop_operation_xyz
x,y,z
1/2-x,-y,z
1/2+x,-y,-z
-x,y,-z
-x,-y,-z
1/2+x,y,-z
1/2-x,y,z
x,-y,z
loop_
_atom_site_type_symbol
_atom_site_label
_atom_site_fract_x
_atom_site_fract_y
_atom_site_fract_z
Si Si1 0.554323 0.595606 0.062546
Si Si2 0.934130 0.897742 0.441447
Si Si3 0.947260 0.409406 0.769055
Si Si4 0.445043 0.732288 0.149615
Si Si5 0.055621 0.599765 0.560066
Si Si6 0.562292 0.862902 0.322200
Si Si7 0.938647 0.683862 0.665506
Si Si8 0.553089 0.094297 0.201664
O O1 0.750000 0.595537 0.065565
O O2 0.496449 0.500000 0.080888
O O3 0.491974 0.676426 0.096846
O O4 0.500000 0.603788 0.000000
O O5 0.750000 0.863080 0.437343
O O6 0.014481 0.881676 0.382016
O O7 0.000000 0.866822 0.500000
O O8 0.928614 0.000000 0.445690
O O9 0.750000 0.411214 0.776742
O O10 0.014871 0.500000 0.787003
O O11 0.008882 0.328774 0.802001
O O12 0.975761 0.393812 0.705637
O O13 0.250000 0.736384 0.151471
O O14 0.504122 0.827487 0.162845
O O15 0.250000 0.608949 0.565731
O O16 0.013865 0.500000 0.567807
O O17 0.000000 0.623777 0.500000
O O18 0.966450 0.655990 0.604404
O O19 0.750000 0.894513 0.324799
O O20 0.552755 0.761669 0.319028
O O21 0.492174 0.894663 0.264503
O O22 0.750000 0.709203 0.674964
O O23 0.750000 0.096324 0.204805
O O24 0.502819 0.000000 0.182546
#
# Coordination Sequence:
#
# PCOD9404303 Si02
#       8
#     8   8   8   8   8   8   8   8
#     4  10  21  38  62  95 134 175 215 252 292 342
#     4   9  18  33  52  73  96 126 167 218 281 351
#     4   9  18  32  51  77 111 150 187 226 280 341
#     4  11  21  36  59  89 125 162 203 251 299 350
#     4  10  21  37  55  74  96 128 174 226 280 340
#     4  10  20  35  54  75 105 141 184 236 291 353
#     4  11  21  34  52  75 106 140 178 225 279 340
#     4  10  21  38  60  84 114 156 204 256 312 365
#
# _framework density 20.227551999999999
#
# number of rings (size 3 to 8) (size 9 to 14) (size 15 to 20)
#    0.000    2.000    1.250    2.625    0.000    5.250 
#    0.000    1.250    0.000    5.625    0.000    0.000 
#    0.000    0.000    0.000    0.000    0.000    0.000 
#
# Total GULP energy -356837.897083 kJ/mol
# GULP energy per Si atom -5575.592142 kJ/mol
# Density = 2.018151 g / cm^3
# Si number density = 20.227552 Si / 1000 Ang^3
#
#
#
# Elastic Constant Matrix: (Units=GPa)
#
#
# Indices 1 2 3 4 5 6 
#
# 1 27.7963 20.9183 10.5728 0.0000 0.0000 0.0000
# 2 20.9183 142.8153 59.5997 0.0000 0.0000 0.0000
# 3 10.5728 59.5997 101.5084 0.0000 0.0000 0.0000
# 4 0.0000 0.0000 0.0000 19.3871 0.0000 0.0000
# 5 0.0000 0.0000 0.0000 0.0000 16.6163 0.0000
# 6 0.0000 0.0000 0.0000 0.0000 0.0000 14.3848
#
#
#
# Elastic Compliance Matrix: (Units=1/GPa)
#
#
# Indices 1 2 3 4 5 6 
#
# 1 0.040505 -0.005526 -0.000974 0.000000 0.000000 0.000000
# 2 -0.005526 0.010029 -0.005313 0.000000 0.000000 0.000000
# 3 -0.000974 -0.005313 0.013072 0.000000 0.000000 0.000000
# 4 0.000000 0.000000 0.000000 0.051581 0.000000 0.000000
# 5 0.000000 0.000000 0.000000 0.000000 0.060182 0.000000
# 6 0.000000 0.000000 0.000000 0.000000 0.000000 0.069518
#
#
# Mechanical properties :
#
#
# Convention : Reuss Voigt Hill
#
# Bulk Modulus (GPa) = 25.01259 50.47795 37.74527
# Shear Modulus (GPa) = 17.74060 22.14624 19.94342
#
# Velocity S-wave (km/s) = 2.96472 3.31245 3.14340
# Velocity P-wave (km/s) = 4.91038 6.29595 5.64583
#
# Compressibility (1/GPa) = 0.03997987
#
# Stress axis : x y z
#
# Youngs Moduli (GPa) = 24.68808 99.71540 76.49885
#
# Poissons Ratio (x) = 0.55106 0.07452
# Poissons Ratio (y) = 0.13643 0.40640
# Poissons Ratio (z) = 0.02405 0.52974
#
# Static dielectric constant tensor:
#      x y z
#    x 1.756180 0.000000 0.000000 
#    y 0.000000 1.733070 0.000000 
#    z 0.000000 0.000000 1.762140 
# 
# From -- ./inp_files/34901.got.cif
#   From: 2010.05.17/outbox.cif.g08.bks.cpg/sg51_18_cif.got.tgz:34901.got - 2010.06.03 11:52:47.
