data_PCOD9404323
_publ_section_title
;
Structure prediction by ZEFSAII (Michael W. Deem and Ramdas Pophale) SiO2 
 PCOD9404323
Probable space group: P M M A
;
_chemical_formula_sum "Si O2"
_cell_formula_units_Z 48
_cell_length_a 8.714914
_cell_length_b 29.736880
_cell_length_c 10.467553
_cell_angle_alpha 90.000000
_cell_angle_beta 90.000000
_cell_angle_gamma 90.000000
_cell_volume 2712.711913
_symmetry_space_group_name_H-M "P M M A"
_symmetry_group_IT_number 51
_symmetry_cell_setting 'orthorhombic'
loop_
_space_group_symop_operation_xyz
x,y,z
1/2-x,-y,z
1/2+x,-y,-z
-x,y,-z
-x,-y,-z
1/2+x,y,-z
1/2-x,y,z
x,-y,z
loop_
_atom_site_type_symbol
_atom_site_label
_atom_site_fract_x
_atom_site_fract_y
_atom_site_fract_z
Si Si1 0.934840 0.948257 0.137576
Si Si2 0.935097 0.119315 0.362550
Si Si3 0.433915 0.718999 0.861075
Si Si4 0.066406 0.552400 0.362047
Si Si5 0.066922 0.386737 0.861974
Si Si6 0.066252 0.219144 0.361718
O O1 0.750000 0.947682 0.130944
O O2 0.980866 0.915033 0.251062
O O3 0.983470 0.000000 0.161465
O O4 0.000000 0.934457 0.000000
O O5 0.750000 0.121899 0.368455
O O6 0.000000 0.104638 0.500000
O O7 0.002158 0.168915 0.337813
O O8 0.250000 0.724434 0.860581
O O9 0.469717 0.666084 0.841703
O O10 0.508118 0.748294 0.749513
O O11 0.500000 0.731812 0.000000
O O12 0.250000 0.555346 0.365436
O O13 0.023475 0.500000 0.340713
O O14 0.000000 0.565795 0.500000
O O15 0.001896 0.583257 0.250093
O O16 0.250000 0.391376 0.864296
O O17 0.000000 0.399777 0.000000
O O18 0.250000 0.218171 0.367147
O O19 0.000000 0.233255 0.500000
#
# Coordination Sequence:
#
# PCOD9404323 Si02
#       6
#     8   8   8   8   8   8
#     4   9  19  35  54  77 105 137 174 216 261 311
#     4  10  20  35  54  77 107 139 175 219 264 314
#     4  10  21  38  58  82 110 141 179 221 268 319
#     4  10  21  37  57  81 110 144 182 224 269 318
#     4  10  21  37  58  82 110 143 179 222 268 318
#     4  11  22  37  57  80 108 142 180 222 268 318
#
# _framework density 17.694469999999999
#
# number of rings (size 3 to 8) (size 9 to 14) (size 15 to 20)
#    0.000    2.000    0.000    4.500    0.000    6.333 
#    0.000    1.667    0.000    0.000    0.000    0.000 
#    0.000    0.000    0.000    0.000    0.000    0.000 
#
# Total GULP energy -268076.169842 kJ/mol
# GULP energy per Si atom -5584.920205 kJ/mol
# Density = 1.765420 g / cm^3
# Si number density = 17.694470 Si / 1000 Ang^3
#
#
#
# Elastic Constant Matrix: (Units=GPa)
#
#
# Indices 1 2 3 4 5 6 
#
# 1 77.7882 51.0991 74.3612 0.0000 0.0000 0.0000
# 2 51.0991 84.1754 120.4121 0.0000 0.0000 0.0000
# 3 74.3612 120.4121 211.7148 0.0000 0.0000 0.0000
# 4 0.0000 0.0000 0.0000 37.7612 0.0000 0.0000
# 5 0.0000 0.0000 0.0000 0.0000 39.3352 0.0000
# 6 0.0000 0.0000 0.0000 0.0000 0.0000 34.5718
#
#
#
# Elastic Compliance Matrix: (Units=1/GPa)
#
#
# Indices 1 2 3 4 5 6 
#
# 1 0.021401 -0.012010 -0.000686 0.000000 0.000000 0.000000
# 2 -0.012010 0.070469 -0.035861 0.000000 0.000000 0.000000
# 3 -0.000686 -0.035861 0.025360 0.000000 0.000000 0.000000
# 4 0.000000 0.000000 0.000000 0.026482 0.000000 0.000000
# 5 0.000000 0.000000 0.000000 0.000000 0.025422 0.000000
# 6 0.000000 0.000000 0.000000 0.000000 0.000000 0.028925
#
#
# Mechanical properties :
#
#
# Convention : Reuss Voigt Hill
#
# Bulk Modulus (GPa) = 49.71164 96.15813 72.93489
# Shear Modulus (GPa) = 16.56293 30.85407 23.70850
#
# Velocity S-wave (km/s) = 3.06281 4.18031 3.66441
# Velocity P-wave (km/s) = 6.37677 8.81825 7.69496
#
# Compressibility (1/GPa) = 0.02011601
#
# Stress axis : x y z
#
# Youngs Moduli (GPa) = 46.72773 14.19056 39.43242
#
# Poissons Ratio (x) = 0.17044 0.02704
# Poissons Ratio (y) = 0.56122 1.41408
# Poissons Ratio (z) = 0.03204 0.50888
#
# Static dielectric constant tensor:
#      x y z
#    x 1.592090 0.000000 0.000000 
#    y 0.000000 1.590940 0.000000 
#    z 0.000000 0.000000 1.570310 
# 
# From -- ./inp_files/5955.got.cif
#   From: 2010.05.17/outbox.cif.g08.bks.cpg/sg51_3_cif.got.tgz:5955.got - 2010.06.03 11:52:47.
