data_PCOD9404388
_publ_section_title
;
Structure prediction by ZEFSAII (Michael W. Deem and Ramdas Pophale) SiO2 
 PCOD9404388
Probable space group: P M M A
;
_chemical_formula_sum "Si O2"
_cell_formula_units_Z 56
_cell_length_a 8.517560
_cell_length_b 20.906312
_cell_length_c 16.079274
_cell_angle_alpha 90.000000
_cell_angle_beta 90.000000
_cell_angle_gamma 90.000000
_cell_volume 2863.248651
_symmetry_space_group_name_H-M "P M M A"
_symmetry_group_IT_number 51
_symmetry_cell_setting 'orthorhombic'
loop_
_space_group_symop_operation_xyz
x,y,z
1/2-x,-y,z
1/2+x,-y,-z
-x,y,-z
-x,-y,-z
1/2+x,y,-z
1/2-x,y,z
x,-y,z
loop_
_atom_site_type_symbol
_atom_site_label
_atom_site_fract_x
_atom_site_fract_y
_atom_site_fract_z
Si Si1 0.060042 0.074201 0.250060
Si Si2 0.563493 0.295386 0.407425
Si Si3 0.066259 0.568860 0.824586
Si Si4 0.061773 0.695847 0.093266
Si Si5 0.939230 0.838908 0.904948
Si Si6 0.061035 0.844948 0.595515
Si Si7 0.567428 0.568616 0.645570
O O1 0.250000 0.077686 0.251709
O O2 0.007493 0.111836 0.166424
O O3 0.998722 0.105622 0.335470
O O4 0.013720 0.000000 0.245392
O O5 0.500000 0.291947 0.500000
O O6 0.750000 0.296061 0.404594
O O7 0.511660 0.226410 0.371913
O O8 0.507251 0.363873 0.376352
O O9 0.250000 0.572168 0.799812
O O10 0.046874 0.500000 0.870397
O O11 0.020254 0.634103 0.868494
O O12 0.957692 0.565483 0.744017
O O13 0.250000 0.688119 0.097628
O O14 0.020549 0.766757 0.126043
O O15 0.000000 0.698098 0.000000
O O16 0.750000 0.841973 0.910516
O O17 0.000000 0.848782 0.000000
O O18 0.250000 0.847148 0.591445
O O19 0.000000 0.854331 0.500000
O O20 0.750000 0.571153 0.623004
O O21 0.502442 0.500000 0.612378
#
# Coordination Sequence:
#
# PCOD9404388 Si02
#       7
#     8   8   8   8   8   8   8
#     4  10  22  40  62  90 123 159 197 237 290 355
#     4  10  21  37  57  83 111 145 188 235 287 341
#     4  10  21  36  53  76 108 145 186 235 287 339
#     4  10  20  35  55  80 108 144 188 235 287 342
#     4   9  20  38  59  87 120 156 196 242 293 345
#     4  10  22  40  62  90 121 156 198 245 296 350
#     4  10  21  36  54  78 109 147 189 233 283 339
#
# _framework density 19.558204
#
# number of rings (size 3 to 8) (size 9 to 14) (size 15 to 20)
#    0.000    2.143    0.000    2.143    2.000    6.000 
#    0.000    0.000    0.000    0.000    0.000    0.000 
#    0.000    0.000    0.000    0.000    0.000    0.000 
#
# Total GULP energy -311914.362603 kJ/mol
# GULP energy per Si atom -5569.899332 kJ/mol
# Density = 1.951369 g / cm^3
# Si number density = 19.558204 Si / 1000 Ang^3
#
#
#
# Elastic Constant Matrix: (Units=GPa)
#
#
# Indices 1 2 3 4 5 6 
#
# 1 30.4427 36.8939 10.1434 0.0000 0.0000 0.0000
# 2 36.8939 203.2975 78.9494 0.0000 0.0000 0.0000
# 3 10.1434 78.9494 73.3176 0.0000 0.0000 0.0000
# 4 0.0000 0.0000 0.0000 79.5695 0.0000 0.0000
# 5 0.0000 0.0000 0.0000 0.0000 29.4683 0.0000
# 6 0.0000 0.0000 0.0000 0.0000 0.0000 20.7926
#
#
#
# Elastic Compliance Matrix: (Units=1/GPa)
#
#
# Indices 1 2 3 4 5 6 
#
# 1 0.042851 -0.009409 0.004203 0.000000 0.000000 0.000000
# 2 -0.009409 0.010520 -0.010026 0.000000 0.000000 0.000000
# 3 0.004203 -0.010026 0.023854 0.000000 0.000000 0.000000
# 4 0.000000 0.000000 0.000000 0.012568 0.000000 0.000000
# 5 0.000000 0.000000 0.000000 0.000000 0.033935 0.000000
# 6 0.000000 0.000000 0.000000 0.000000 0.000000 0.048094
#
#
# Mechanical properties :
#
#
# Convention : Reuss Voigt Hill
#
# Bulk Modulus (GPa) = 21.38540 62.11461 41.75001
# Shear Modulus (GPa) = 22.94918 38.03749 30.49333
#
# Velocity S-wave (km/s) = 3.42918 4.41481 3.95284
# Velocity P-wave (km/s) = 5.16110 7.60363 6.49816
#
# Compressibility (1/GPa) = 0.04676087
#
# Stress axis : x y z
#
# Youngs Moduli (GPa) = 23.33692 95.05623 41.92085
#
# Poissons Ratio (x) = 0.89435 -0.17619
# Poissons Ratio (y) = 0.21957 0.42032
# Poissons Ratio (z) = -0.09809 0.95308
#
# Static dielectric constant tensor:
#      x y z
#    x 1.675380 0.000000 0.000000 
#    y 0.000000 1.790530 0.000000 
#    z 0.000000 0.000000 1.666190 
# 
# From -- ./inp_files/21785.got.cif
#   From: 2010.05.17/outbox.cif.g08.bks.cpg/sg51_11_cif.got.tgz:21785.got - 2010.06.03 11:52:47.
