data_PCOD9404839
_publ_section_title
;
Structure prediction by ZEFSAII (Michael W. Deem and Ramdas Pophale) SiO2 
 PCOD9404839
Probable space group: P M M A
;
_chemical_formula_sum "Si O2"
_cell_formula_units_Z 48
_cell_length_a 13.964522
_cell_length_b 18.544470
_cell_length_c 8.430053
_cell_angle_alpha 90.000000
_cell_angle_beta 90.000000
_cell_angle_gamma 90.000000
_cell_volume 2183.085803
_symmetry_space_group_name_H-M "P M M A"
_symmetry_group_IT_number 51
_symmetry_cell_setting 'orthorhombic'
loop_
_space_group_symop_operation_xyz
x,y,z
1/2-x,-y,z
1/2+x,-y,-z
-x,y,-z
-x,-y,-z
1/2+x,y,-z
1/2-x,y,z
x,-y,z
loop_
_atom_site_type_symbol
_atom_site_label
_atom_site_fract_x
_atom_site_fract_y
_atom_site_fract_z
Si Si1 0.358703 0.288089 0.875165
Si Si2 0.361488 0.417701 0.098945
Si Si3 0.634451 0.166474 0.594002
Si Si4 0.363799 0.145830 0.059503
Si Si5 0.532544 0.685587 0.661043
Si Si6 0.367245 0.917167 0.723101
O O1 0.250000 0.274304 0.817197
O O2 0.440636 0.279941 0.747546
O O3 0.366236 0.368893 0.941425
O O4 0.375058 0.231052 0.017871
O O5 0.250000 0.417825 0.146554
O O6 0.392391 0.500000 0.077842
O O7 0.419871 0.372688 0.226341
O O8 0.750000 0.164466 0.594060
O O9 0.602048 0.130137 0.761817
O O10 0.600677 0.248641 0.610603
O O11 0.602643 0.129774 0.429587
O O12 0.250000 0.130851 0.063271
O O13 0.400233 0.108060 0.898701
O O14 0.500000 0.648229 0.500000
O O15 0.250000 0.913085 0.726663
O O16 0.394067 0.000000 0.697965
#
# Coordination Sequence:
#
# PCOD9404839 Si02
#       6
#     8   8   8   8   8   8
#     4  10  21  39  61  88 119 158 211 262 310 368
#     4  10  22  42  66  91 124 163 204 255 310 368
#     4  10  20  36  58  87 126 169 213 262 313 375
#     4   9  17  32  56  81 112 158 210 258 306 364
#     4  12  24  36  60  93 125 165 207 254 311 376
#     4   9  18  32  53  87 128 166 207 259 316 374
#
# _framework density 21.987226
#
# number of rings (size 3 to 8) (size 9 to 14) (size 15 to 20)
#    0.000    2.000    1.667    2.000    0.000    5.000 
#    0.000    3.333    0.000    6.500    0.000    5.833 
#    0.000    0.000    0.000    0.000    0.000    0.000 
#
# Total GULP energy -268252.088930 kJ/mol
# GULP energy per Si atom -5588.585186 kJ/mol
# Density = 2.193718 g / cm^3
# Si number density = 21.987226 Si / 1000 Ang^3
#
#
#
# Elastic Constant Matrix: (Units=GPa)
#
#
# Indices 1 2 3 4 5 6 
#
# 1 68.4477 20.7002 55.4727 0.0000 0.0000 0.0000
# 2 20.7002 118.8952 39.9666 0.0000 0.0000 0.0000
# 3 55.4727 39.9666 131.4042 0.0000 0.0000 0.0000
# 4 0.0000 0.0000 0.0000 25.1574 0.0000 0.0000
# 5 0.0000 0.0000 0.0000 0.0000 24.0361 0.0000
# 6 0.0000 0.0000 0.0000 0.0000 0.0000 2.0844
#
#
#
# Elastic Compliance Matrix: (Units=1/GPa)
#
#
# Indices 1 2 3 4 5 6 
#
# 1 0.022275 -0.000799 -0.009161 0.000000 0.000000 0.000000
# 2 -0.000799 0.009397 -0.002521 0.000000 0.000000 0.000000
# 3 -0.009161 -0.002521 0.012244 0.000000 0.000000 0.000000
# 4 0.000000 0.000000 0.000000 0.039750 0.000000 0.000000
# 5 0.000000 0.000000 0.000000 0.000000 0.041604 0.000000
# 6 0.000000 0.000000 0.000000 0.000000 0.000000 0.479748
#
#
# Mechanical properties :
#
#
# Convention : Reuss Voigt Hill
#
# Bulk Modulus (GPa) = 52.75430 61.22512 56.98971
# Shear Modulus (GPa) = 7.85794 23.76275 15.81035
#
# Velocity S-wave (km/s) = 1.89252 3.29105 2.68446
# Velocity P-wave (km/s) = 5.36850 6.50750 5.96524
#
# Compressibility (1/GPa) = 0.01895580
#
# Stress axis : x y z
#
# Youngs Moduli (GPa) = 44.89243 106.41388 81.67234
#
# Poissons Ratio (x) = 0.08501 0.74817
# Poissons Ratio (y) = 0.03586 0.20589
# Poissons Ratio (z) = 0.41124 0.26826
#
# Static dielectric constant tensor:
#      x y z
#    x 1.846520 0.000000 0.000000 
#    y 0.000000 1.771450 0.000000 
#    z 0.000000 0.000000 1.824050 
# 
# From -- ./inp_files/8273.got.cif
#   From: 2010.05.17/outbox.cif.g08.bks.cpg/sg51_5_cif.got.tgz:8273.got - 2010.06.03 11:52:47.
