data_PCOD9404422
_publ_section_title
;
Structure prediction by ZEFSAII (Michael W. Deem and Ramdas Pophale) SiO2 
 PCOD9404422
Probable space group: P M M A
;
_chemical_formula_sum "Si O2"
_cell_formula_units_Z 48
_cell_length_a 14.827067
_cell_length_b 16.207846
_cell_length_c 11.452046
_cell_angle_alpha 90.000000
_cell_angle_beta 90.000000
_cell_angle_gamma 90.000000
_cell_volume 2752.096357
_symmetry_space_group_name_H-M "P M M A"
_symmetry_group_IT_number 51
_symmetry_cell_setting 'orthorhombic'
loop_
_space_group_symop_operation_xyz
x,y,z
1/2-x,-y,z
1/2+x,-y,-z
-x,y,-z
-x,-y,-z
1/2+x,y,-z
1/2-x,y,z
x,-y,z
loop_
_atom_site_type_symbol
_atom_site_label
_atom_site_fract_x
_atom_site_fract_y
_atom_site_fract_z
Si Si1 0.106647 0.828807 0.509154
Si Si2 0.354287 0.281702 0.725518
Si Si3 0.356072 0.000000 0.640308
Si Si4 0.502834 0.594825 0.640520
Si Si5 0.490451 0.815624 0.137566
Si Si6 0.009697 0.000000 0.855662
Si Si7 0.147778 0.728479 0.286662
O O1 0.147856 0.766759 0.603211
O O2 0.120021 0.919835 0.561995
O O3 0.144050 0.801230 0.384121
O O4 0.000000 0.813693 0.500000
O O5 0.250000 0.293927 0.764567
O O6 0.413981 0.363093 0.698005
O O7 0.418639 0.223357 0.805916
O O8 0.250000 0.000000 0.659497
O O9 0.401868 0.000000 0.769475
O O10 0.500000 0.596450 0.500000
O O11 0.511633 0.500000 0.678190
O O12 0.588262 0.651466 0.671387
O O13 0.472309 0.910007 0.177047
O O14 0.405582 0.762535 0.176125
O O15 0.500000 0.815197 0.000000
O O16 0.000000 0.000000 0.000000
O O17 0.250000 0.705773 0.264400
#
# Coordination Sequence:
#
# PCOD9404422 Si02
#       7
#     8   8   4   8   8   4   8
#     4  12  20  36  54  80 116 152 186 228 285 341
#     4  11  20  35  59  83 112 147 186 230 278 338
#     4  12  23  33  54  87 115 150 199 245 282 336
#     4  10  20  35  55  85 120 149 178 221 284 351
#     4  10  22  39  57  81 112 152 197 240 282 325
#     4  10  20  37  56  75 114 156 194 236 285 324
#     4  11  21  37  58  82 115 151 187 232 286 343
#
# _framework density 17.441248999999999
#
# number of rings (size 3 to 8) (size 9 to 14) (size 15 to 20)
#    0.000    1.167    6.667    1.750    0.000    2.000 
#    0.000    5.417    0.000    8.000    0.000    9.333 
#    0.000    0.000    0.000    0.000    0.000    0.000 
#
# Total GULP energy -267312.419289 kJ/mol
# GULP energy per Si atom -5569.008735 kJ/mol
# Density = 1.740155 g / cm^3
# Si number density = 17.441249 Si / 1000 Ang^3
#
#
#
# Elastic Constant Matrix: (Units=GPa)
#
#
# Indices 1 2 3 4 5 6 
#
# 1 146.3361 50.5792 20.8965 0.0000 0.0000 0.0000
# 2 50.5792 127.6755 26.7237 0.0000 0.0000 0.0000
# 3 20.8965 26.7237 55.1623 0.0000 0.0000 0.0000
# 4 0.0000 0.0000 0.0000 21.8083 0.0000 0.0000
# 5 0.0000 0.0000 0.0000 0.0000 10.6793 0.0000
# 6 0.0000 0.0000 0.0000 0.0000 0.0000 -19.5305
#
#
#
# Elastic Compliance Matrix: (Units=1/GPa)
#
#
# Indices 1 2 3 4 5 6 
#
# 1 0.008054 -0.002840 -0.001675 0.000000 0.000000 0.000000
# 2 -0.002840 0.009718 -0.003632 0.000000 0.000000 0.000000
# 3 -0.001675 -0.003632 0.020522 0.000000 0.000000 0.000000
# 4 0.000000 0.000000 0.000000 0.045854 0.000000 0.000000
# 5 0.000000 0.000000 0.000000 0.000000 0.093639 0.000000
# 6 0.000000 0.000000 0.000000 0.000000 0.000000 -0.051202
#
#
# Mechanical properties :
#
#
# Convention : Reuss Voigt Hill
#
# Bulk Modulus (GPa) = 45.45457 58.39697 51.92577
# Shear Modulus (GPa) = 33.28596 17.98972 25.63784
#
# Velocity S-wave (km/s) = 4.37333 3.21510 3.83816
# Velocity P-wave (km/s) = 7.18467 6.88021 7.03409
#
# Compressibility (1/GPa) = 0.02199999
#
# Stress axis : x y z
#
# Youngs Moduli (GPa) = 124.15458 102.90515 48.72720
#
# Poissons Ratio (x) = 0.29227 0.08163
# Poissons Ratio (y) = 0.35262 0.17697
# Poissons Ratio (z) = 0.20799 0.37374
#
# Static dielectric constant tensor:
#      x y z
#    x 1.594640 0.000000 0.000000 
#    y 0.000000 1.622650 0.000000 
#    z 0.000000 0.000000 1.596540 
# 
# From -- ./inp_files/16490.got.cif
#   From: 2010.05.17/outbox.cif.g08.bks.cpg/sg51_9_cif.got.tgz:16490.got - 2010.06.03 11:52:47.
