data_PCOD9404714
_publ_section_title
;
Structure prediction by ZEFSAII (Michael W. Deem and Ramdas Pophale) SiO2 
 PCOD9404714
Probable space group: P M M A
;
_chemical_formula_sum "Si O2"
_cell_formula_units_Z 40
_cell_length_a 8.329645
_cell_length_b 26.905774
_cell_length_c 9.520221
_cell_angle_alpha 90.000000
_cell_angle_beta 90.000000
_cell_angle_gamma 90.000000
_cell_volume 2133.629526
_symmetry_space_group_name_H-M "P M M A"
_symmetry_group_IT_number 51
_symmetry_cell_setting 'orthorhombic'
loop_
_space_group_symop_operation_xyz
x,y,z
1/2-x,-y,z
1/2+x,-y,-z
-x,y,-z
-x,-y,-z
1/2+x,y,-z
1/2-x,y,z
x,-y,z
loop_
_atom_site_type_symbol
_atom_site_label
_atom_site_fract_x
_atom_site_fract_y
_atom_site_fract_z
Si Si1 0.058172 0.904837 0.840137
Si Si2 0.555680 0.000000 0.339214
Si Si3 0.055644 0.392098 0.160669
Si Si4 0.556319 0.500000 0.837981
Si Si5 0.443945 0.700838 0.341362
Si Si6 0.442445 0.187312 0.340390
O O1 0.250000 0.906506 0.841393
O O2 0.004585 0.854131 0.765498
O O3 0.000020 0.951183 0.745421
O O4 0.000000 0.908417 0.000000
O O5 0.500000 0.000000 0.500000
O O6 0.750000 0.000000 0.339608
O O7 0.250000 0.391471 0.162927
O O8 0.002694 0.446296 0.219859
O O9 0.996758 0.344263 0.245444
O O10 0.000000 0.388899 0.000000
O O11 0.750000 0.500000 0.834713
O O12 0.500000 0.500000 0.000000
O O13 0.500000 0.692766 0.500000
O O14 0.250000 0.700594 0.337767
O O15 0.496506 0.756673 0.300470
O O16 0.500000 0.177555 0.500000
O O17 0.250000 0.186262 0.340396
#
# Coordination Sequence:
#
# PCOD9404714 Si02
#       6
#     8   4   8   4   8   8
#     4  11  23  39  58  83 112 142 175 216 262 306
#     4  10  23  40  60  84 110 142 179 214 255 306
#     4   9  17  30  48  71  96 126 164 207 252 301
#     4   8  14  26  45  66  92 124 160 202 249 298
#     4   9  19  34  51  72 101 134 169 207 252 302
#     4  10  20  36  56  78 104 138 177 216 257 309
#
# _framework density 18.747398
#
# number of rings (size 3 to 8) (size 9 to 14) (size 15 to 20)
#    0.000    2.400    0.000    2.100    0.000    5.600 
#    0.000    2.500    0.000    0.000    0.000    0.000 
#    0.000    0.000    0.000    0.000    0.000    0.000 
#
# Total GULP energy -223083.456553 kJ/mol
# GULP energy per Si atom -5577.086414 kJ/mol
# Density = 1.870473 g / cm^3
# Si number density = 18.747398 Si / 1000 Ang^3
#
#
#
# Elastic Constant Matrix: (Units=GPa)
#
#
# Indices 1 2 3 4 5 6 
#
# 1 18.6324 25.9938 16.7658 0.0000 0.0000 0.0000
# 2 25.9938 210.6909 120.2254 0.0000 0.0000 0.0000
# 3 16.7658 120.2254 118.4242 0.0000 0.0000 0.0000
# 4 0.0000 0.0000 0.0000 42.5014 0.0000 0.0000
# 5 0.0000 0.0000 0.0000 0.0000 30.9154 0.0000
# 6 0.0000 0.0000 0.0000 0.0000 0.0000 29.3496
#
#
#
# Elastic Compliance Matrix: (Units=1/GPa)
#
#
# Indices 1 2 3 4 5 6 
#
# 1 0.065145 -0.006595 -0.002528 0.000000 0.000000 0.000000
# 2 -0.006595 0.011950 -0.011198 0.000000 0.000000 0.000000
# 3 -0.002528 -0.011198 0.020170 0.000000 0.000000 0.000000
# 4 0.000000 0.000000 0.000000 0.023529 0.000000 0.000000
# 5 0.000000 0.000000 0.000000 0.000000 0.032346 0.000000
# 6 0.000000 0.000000 0.000000 0.000000 0.000000 0.034072
#
#
# Mechanical properties :
#
#
# Convention : Reuss Voigt Hill
#
# Bulk Modulus (GPa) = 17.66038 74.85750 46.25894
# Shear Modulus (GPa) = 20.26538 32.87077 26.56808
#
# Velocity S-wave (km/s) = 3.29138 4.19185 3.76860
# Velocity P-wave (km/s) = 4.88721 7.96524 6.60794
#
# Compressibility (1/GPa) = 0.05662392
#
# Stress axis : x y z
#
# Youngs Moduli (GPa) = 15.35048 83.68486 49.57838
#
# Poissons Ratio (x) = 0.55188 0.12532
# Poissons Ratio (y) = 0.10123 0.55516
# Poissons Ratio (z) = 0.03880 0.93708
#
# Static dielectric constant tensor:
#      x y z
#    x 1.647070 0.000000 0.000000 
#    y 0.000000 1.699590 0.000000 
#    z 0.000000 0.000000 1.578500 
# 
# From -- ./inp_files/5630.got.cif
#   From: 2010.05.17/outbox.cif.g08.bks.cpg/sg51_3_cif.got.tgz:5630.got - 2010.06.03 11:52:47.
