data_PCOD9404126
_publ_section_title
;
Structure prediction by ZEFSAII (Michael W. Deem and Ramdas Pophale) SiO2 
 PCOD9404126
Probable space group: P M M A
;
_chemical_formula_sum "Si O2"
_cell_formula_units_Z 44
_cell_length_a 9.380139
_cell_length_b 7.948368
_cell_length_c 30.709435
_cell_angle_alpha 90.000000
_cell_angle_beta 90.000000
_cell_angle_gamma 90.000000
_cell_volume 2289.597101
_symmetry_space_group_name_H-M "P M M A"
_symmetry_group_IT_number 51
_symmetry_cell_setting 'orthorhombic'
loop_
_space_group_symop_operation_xyz
x,y,z
1/2-x,-y,z
1/2+x,-y,-z
-x,y,-z
-x,-y,-z
1/2+x,y,-z
1/2-x,y,z
x,-y,z
loop_
_atom_site_type_symbol
_atom_site_label
_atom_site_fract_x
_atom_site_fract_y
_atom_site_fract_z
Si Si1 0.085571 0.296667 0.712013
Si Si2 0.087460 0.296777 0.372150
Si Si3 0.087144 0.202910 0.542093
Si Si4 0.077826 0.000000 0.046032
Si Si5 0.579628 0.687402 0.892917
Si Si6 0.084133 0.200122 0.808610
O O1 0.250000 0.239498 0.706432
O O2 0.086355 0.500000 0.711567
O O3 0.034827 0.240464 0.759637
O O4 0.988909 0.237202 0.672092
O O5 0.250000 0.235435 0.375786
O O6 0.091407 0.500000 0.370276
O O7 0.995202 0.248368 0.413975
O O8 0.250000 0.265506 0.542400
O O9 0.000000 0.264822 0.500000
O O10 0.092398 0.000000 0.539391
O O11 0.037566 0.164821 0.074056
O O12 0.250000 0.000000 0.040431
O O13 0.000000 0.000000 0.000000
O O14 0.750000 0.700105 0.886951
O O15 0.546490 0.500000 0.909529
O O16 0.505000 0.714175 0.846557
O O17 0.250000 0.253727 0.811175
O O18 0.077443 0.000000 0.815179
#
# Coordination Sequence:
#
# PCOD9404126 Si02
#       6
#     8   8   8   4   8   8
#     4   9  18  33  51  73 106 146 184 224 271 323
#     4  10  21  36  54  78 108 141 179 223 271 327
#     4  10  21  37  57  79 103 134 173 219 272 330
#     4  10  22  40  60  86 120 154 194 244 291 344
#     4  10  21  38  60  85 116 155 195 238 291 346
#     4  10  20  34  55  84 116 149 189 235 282 336
#
# _framework density 19.217355000000001
#
# number of rings (size 3 to 8) (size 9 to 14) (size 15 to 20)
#    0.000    2.182    0.909    1.636    0.000    6.182 
#    0.000    3.636    0.000    0.000    0.000    0.000 
#    0.000    0.000    0.000    0.000    0.000    0.000 
#
# Total GULP energy -245718.362753 kJ/mol
# GULP energy per Si atom -5584.508244 kJ/mol
# Density = 1.917362 g / cm^3
# Si number density = 19.217355 Si / 1000 Ang^3
#
#
#
# Elastic Constant Matrix: (Units=GPa)
#
#
# Indices 1 2 3 4 5 6 
#
# 1 98.5172 35.6541 83.3771 0.0000 0.0000 0.0000
# 2 35.6541 66.5543 52.9319 0.0000 0.0000 0.0000
# 3 83.3771 52.9319 176.5793 0.0000 0.0000 0.0000
# 4 0.0000 0.0000 0.0000 40.8031 0.0000 0.0000
# 5 0.0000 0.0000 0.0000 0.0000 41.6979 0.0000
# 6 0.0000 0.0000 0.0000 0.0000 0.0000 8.8471
#
#
#
# Elastic Compliance Matrix: (Units=1/GPa)
#
#
# Indices 1 2 3 4 5 6 
#
# 1 0.017573 -0.003696 -0.007190 0.000000 0.000000 0.000000
# 2 -0.003696 0.020506 -0.004402 0.000000 0.000000 0.000000
# 3 -0.007190 -0.004402 0.010377 0.000000 0.000000 0.000000
# 4 0.000000 0.000000 0.000000 0.024508 0.000000 0.000000
# 5 0.000000 0.000000 0.000000 0.000000 0.023982 0.000000
# 6 0.000000 0.000000 0.000000 0.000000 0.000000 0.113032
#
#
# Mechanical properties :
#
#
# Convention : Reuss Voigt Hill
#
# Bulk Modulus (GPa) = 55.92327 76.17523 66.04925
# Shear Modulus (GPa) = 20.28285 29.58213 24.93249
#
# Velocity S-wave (km/s) = 3.25228 3.92770 3.60584
# Velocity P-wave (km/s) = 6.57774 7.76492 7.19586
#
# Compressibility (1/GPa) = 0.01788164
#
# Stress axis : x y z
#
# Youngs Moduli (GPa) = 56.90608 48.76576 96.36268
#
# Poissons Ratio (x) = 0.18024 0.69281
# Poissons Ratio (y) = 0.21032 0.42417
# Poissons Ratio (z) = 0.40913 0.21466
#
# Static dielectric constant tensor:
#      x y z
#    x 1.658240 0.000000 0.000000 
#    y 0.000000 1.696470 0.000000 
#    z 0.000000 0.000000 1.623290 
# 
# From -- ./inp_files/36780.got.cif
#   From: 2010.05.17/outbox.cif.g08.bks.cpg/sg51_19_cif.got.tgz:36780.got - 2010.06.03 11:52:47.
