data_PCOD9404914
_publ_section_title
;
Structure prediction by ZEFSAII (Michael W. Deem and Ramdas Pophale) SiO2 
 PCOD9404914
Probable space group: P M M A
;
_chemical_formula_sum "Si O2"
_cell_formula_units_Z 64
_cell_length_a 7.708167
_cell_length_b 15.389079
_cell_length_c 24.865430
_cell_angle_alpha 90.000000
_cell_angle_beta 90.000000
_cell_angle_gamma 90.000000
_cell_volume 2949.576865
_symmetry_space_group_name_H-M "P M M A"
_symmetry_group_IT_number 51
_symmetry_cell_setting 'orthorhombic'
loop_
_space_group_symop_operation_xyz
x,y,z
1/2-x,-y,z
1/2+x,-y,-z
-x,y,-z
-x,-y,-z
1/2+x,y,-z
1/2-x,y,z
x,-y,z
loop_
_atom_site_type_symbol
_atom_site_label
_atom_site_fract_x
_atom_site_fract_y
_atom_site_fract_z
Si Si1 0.456459 0.726345 0.937754
Si Si2 0.453101 0.093946 0.242605
Si Si3 0.044354 0.401339 0.155552
Si Si4 0.957278 0.281797 0.562890
Si Si5 0.451196 0.719021 0.250359
Si Si6 0.958661 0.907089 0.563898
Si Si7 0.460537 0.095632 0.882972
Si Si8 0.048574 0.402304 0.655395
O O1 0.250000 0.726865 0.931887
O O2 0.523294 0.648074 0.900757
O O3 0.520941 0.820024 0.915697
O O4 0.500000 0.715786 0.000000
O O5 0.250000 0.090879 0.258569
O O6 0.529375 0.185859 0.261322
O O7 0.468413 0.099418 0.177723
O O8 0.529559 0.000000 0.258527
O O9 0.250000 0.408629 0.166472
O O10 0.974130 0.500000 0.156329
O O11 0.970227 0.337020 0.201445
O O12 0.750000 0.283807 0.569024
O O13 0.021471 0.186842 0.583535
O O14 0.000000 0.288428 0.500000
O O15 0.033790 0.359611 0.597076
O O16 0.250000 0.735809 0.235435
O O17 0.455932 0.660151 0.302734
O O18 0.750000 0.907030 0.569896
O O19 0.000000 0.907341 0.500000
O O20 0.023671 0.000000 0.585816
O O21 0.250000 0.098420 0.879804
O O22 0.508235 0.000000 0.905411
O O23 0.250000 0.404502 0.671085
O O24 0.979314 0.500000 0.656654
#
# Coordination Sequence:
#
# PCOD9404914 Si02
#       8
#     8   8   8   8   8   8   8   8
#     4  11  23  37  55  79 111 148 188 233 281 334
#     4   9  17  31  56  88 117 146 180 219 268 330
#     4  10  21  38  60  84 109 140 182 232 286 342
#     4  10  20  36  60  87 117 154 192 232 281 335
#     4  10  20  37  62  88 115 145 181 226 278 335
#     4   8  14  26  47  77 110 143 180 220 263 314
#     4   9  18  33  53  79 111 146 183 224 273 329
#     4  11  25  42  59  82 112 147 191 241 287 332
#
# _framework density 21.698028000000001
#
# number of rings (size 3 to 8) (size 9 to 14) (size 15 to 20)
#    0.000    2.250    1.250    1.500    0.000    4.500 
#    0.000    0.625    0.000    3.750    0.000    0.000 
#    0.000    0.000    0.000    0.000    0.000    0.000 
#
# Total GULP energy -357107.590407 kJ/mol
# GULP energy per Si atom -5579.806100 kJ/mol
# Density = 2.164864 g / cm^3
# Si number density = 21.698028 Si / 1000 Ang^3
#
#
#
# Elastic Constant Matrix: (Units=GPa)
#
#
# Indices 1 2 3 4 5 6 
#
# 1 42.3469 8.2339 -13.2662 0.0000 0.0000 0.0000
# 2 8.2339 231.2729 52.5738 0.0000 0.0000 0.0000
# 3 -13.2662 52.5738 46.4950 0.0000 0.0000 0.0000
# 4 0.0000 0.0000 0.0000 34.1457 0.0000 0.0000
# 5 0.0000 0.0000 0.0000 0.0000 18.6050 0.0000
# 6 0.0000 0.0000 0.0000 0.0000 0.0000 -8.8814
#
#
#
# Elastic Compliance Matrix: (Units=1/GPa)
#
#
# Indices 1 2 3 4 5 6 
#
# 1 0.028233 -0.003818 0.012372 0.000000 0.000000 0.000000
# 2 -0.003818 0.006336 -0.008254 0.000000 0.000000 0.000000
# 3 0.012372 -0.008254 0.034371 0.000000 0.000000 0.000000
# 4 0.000000 0.000000 0.000000 0.029286 0.000000 0.000000
# 5 0.000000 0.000000 0.000000 0.000000 0.053749 0.000000
# 6 0.000000 0.000000 0.000000 0.000000 0.000000 -0.112595
#
#
# Mechanical properties :
#
#
# Convention : Reuss Voigt Hill
#
# Bulk Modulus (GPa) = 14.37997 46.13311 30.25654
# Shear Modulus (GPa) = 80.69890 26.94542 53.82216
#
# Velocity S-wave (km/s) = 6.10513 3.52779 4.98587
# Velocity P-wave (km/s) = 7.50589 6.15641 6.86439
#
# Compressibility (1/GPa) = 0.06954115
#
# Stress axis : x y z
#
# Youngs Moduli (GPa) = 35.41996 157.82608 29.09458
#
# Poissons Ratio (x) = 0.60253 -0.35997
# Poissons Ratio (y) = 0.13522 0.24014
# Poissons Ratio (z) = -0.43823 1.30266
#
# Static dielectric constant tensor:
#      x y z
#    x 1.834520 0.000000 0.000000 
#    y 0.000000 1.846940 0.000000 
#    z 0.000000 0.000000 1.784200 
# 
# From -- ./inp_files/34937.got.cif
#   From: 2010.05.17/outbox.cif.g08.bks.cpg/sg51_18_cif.got.tgz:34937.got - 2010.06.03 11:52:47.
