data_PCOD9404286
_publ_section_title
;
Structure prediction by ZEFSAII (Michael W. Deem and Ramdas Pophale) SiO2 
 PCOD9404286
Probable space group: P M M A
;
_chemical_formula_sum "Si O2"
_cell_formula_units_Z 56
_cell_length_a 8.862129
_cell_length_b 15.565414
_cell_length_c 20.785203
_cell_angle_alpha 90.000000
_cell_angle_beta 90.000000
_cell_angle_gamma 90.000000
_cell_volume 2867.167163
_symmetry_space_group_name_H-M "P M M A"
_symmetry_group_IT_number 51
_symmetry_cell_setting 'orthorhombic'
loop_
_space_group_symop_operation_xyz
x,y,z
1/2-x,-y,z
1/2+x,-y,-z
-x,y,-z
-x,-y,-z
1/2+x,y,-z
1/2-x,y,z
x,-y,z
loop_
_atom_site_type_symbol
_atom_site_label
_atom_site_fract_x
_atom_site_fract_y
_atom_site_fract_z
Si Si1 0.929889 0.281415 0.680770
Si Si2 0.071179 0.624322 0.933599
Si Si3 0.929714 0.601312 0.429998
Si Si4 0.414080 0.901479 0.838141
Si Si5 0.424121 0.809132 0.059812
Si Si6 0.574099 0.902875 0.315979
Si Si7 0.567846 0.595815 0.213583
O O1 0.750000 0.282777 0.684503
O O2 0.991224 0.341125 0.623504
O O3 0.985255 0.183845 0.667125
O O4 0.996201 0.326473 0.745706
O O5 0.250000 0.612197 0.937555
O O6 0.023603 0.595176 0.862024
O O7 0.021999 0.723320 0.934156
O O8 0.000000 0.589682 0.000000
O O9 0.750000 0.617026 0.430227
O O10 0.953234 0.500000 0.416359
O O11 0.000000 0.618873 0.500000
O O12 0.250000 0.861671 0.855039
O O13 0.550314 0.857102 0.873803
O O14 0.427437 0.901217 0.761719
O O15 0.410943 0.000000 0.858910
O O16 0.250000 0.790556 0.047626
O O17 0.500000 0.858750 0.000000
O O18 0.750000 0.895038 0.336036
O O19 0.521958 0.000000 0.335349
O O20 0.750000 0.605431 0.216447
O O21 0.530538 0.500000 0.239907
#
# Coordination Sequence:
#
# PCOD9404286 Si02
#       7
#     8   8   8   8   8   8   8
#     4  12  24  36  57  90 125 159 195 240 292 343
#     4  10  20  35  54  73  97 133 179 230 284 342
#     4  10  21  39  64  93 127 166 205 244 286 338
#     4   9  18  33  51  70  94 125 164 214 274 337
#     4  11  21  32  47  66  90 122 163 212 268 332
#     4   9  19  37  60  83 109 147 192 235 283 340
#     4  10  22  39  57  79 110 150 194 239 290 348
#
# _framework density 19.531473999999999
#
# number of rings (size 3 to 8) (size 9 to 14) (size 15 to 20)
#    0.000    1.857    0.000    6.429    0.000    9.143 
#    0.000    1.429    0.000    0.429    0.000    0.000 
#    0.000    0.000    0.000    0.000    0.000    0.000 
#
# Total GULP energy -312327.480031 kJ/mol
# GULP energy per Si atom -5577.276429 kJ/mol
# Density = 1.948702 g / cm^3
# Si number density = 19.531474 Si / 1000 Ang^3
#
#
#
# Elastic Constant Matrix: (Units=GPa)
#
#
# Indices 1 2 3 4 5 6 
#
# 1 80.6047 50.1989 40.6697 0.0000 0.0000 0.0000
# 2 50.1989 101.4440 47.1101 0.0000 0.0000 0.0000
# 3 40.6697 47.1101 82.9412 0.0000 0.0000 0.0000
# 4 0.0000 0.0000 0.0000 1.3371 0.0000 0.0000
# 5 0.0000 0.0000 0.0000 0.0000 30.1117 0.0000
# 6 0.0000 0.0000 0.0000 0.0000 0.0000 11.7928
#
#
#
# Elastic Compliance Matrix: (Units=1/GPa)
#
#
# Indices 1 2 3 4 5 6 
#
# 1 0.019673 -0.007138 -0.005592 0.000000 0.000000 0.000000
# 2 -0.007138 0.015979 -0.005576 0.000000 0.000000 0.000000
# 3 -0.005592 -0.005576 0.017966 0.000000 0.000000 0.000000
# 4 0.000000 0.000000 0.000000 0.747873 0.000000 0.000000
# 5 0.000000 0.000000 0.000000 0.000000 0.033210 0.000000
# 6 0.000000 0.000000 0.000000 0.000000 0.000000 0.084797
#
#
# Mechanical properties :
#
#
# Convention : Reuss Voigt Hill
#
# Bulk Modulus (GPa) = 58.80344 60.10524 59.45434
# Shear Modulus (GPa) = 5.19869 17.11573 11.15721
#
# Velocity S-wave (km/s) = 1.63324 2.96347 2.39266
# Velocity P-wave (km/s) = 5.80767 6.52303 6.17572
#
# Compressibility (1/GPa) = 0.01700581
#
# Stress axis : x y z
#
# Youngs Moduli (GPa) = 50.83008 62.58030 55.66063
#
# Poissons Ratio (x) = 0.44671 0.31127
# Poissons Ratio (y) = 0.36284 0.31037
# Poissons Ratio (z) = 0.28425 0.34895
#
# Static dielectric constant tensor:
#      x y z
#    x 1.664590 0.000000 0.000000 
#    y 0.000000 1.721550 0.000000 
#    z 0.000000 0.000000 1.709450 
# 
# From -- ./inp_files/32000.got.cif
#   From: 2010.05.17/outbox.cif.g08.bks.cpg/sg51_16_cif.got.tgz:32000.got - 2010.06.03 11:52:47.
