data_PCOD9404512
_publ_section_title
;
Structure prediction by ZEFSAII (Michael W. Deem and Ramdas Pophale) SiO2 
 PCOD9404512
Probable space group: P M M A
;
_chemical_formula_sum "Si O2"
_cell_formula_units_Z 48
_cell_length_a 15.050161
_cell_length_b 11.204143
_cell_length_c 11.643095
_cell_angle_alpha 90.000000
_cell_angle_beta 90.000000
_cell_angle_gamma 90.000000
_cell_volume 1963.307068
_symmetry_space_group_name_H-M "P M M A"
_symmetry_group_IT_number 51
_symmetry_cell_setting 'orthorhombic'
loop_
_space_group_symop_operation_xyz
x,y,z
1/2-x,-y,z
1/2+x,-y,-z
-x,y,-z
-x,-y,-z
1/2+x,y,-z
1/2-x,y,z
x,-y,z
loop_
_atom_site_type_symbol
_atom_site_label
_atom_site_fract_x
_atom_site_fract_y
_atom_site_fract_z
Si Si1 0.391302 0.128741 0.789753
Si Si2 0.856289 0.632137 0.552975
Si Si3 0.444004 0.129155 0.381257
Si Si4 0.608698 0.628741 0.289753
Si Si5 0.555996 0.629155 0.881257
Si Si6 0.356289 0.132137 0.052975
O O1 0.483316 0.128930 0.719710
O O2 0.345179 0.250000 0.750000
O O3 0.400719 0.135483 0.926646
O O4 0.349192 0.000000 0.764326
O O5 0.750000 0.635724 0.536221
O O6 0.877537 0.500000 0.602632
O O7 0.885516 0.751658 0.617499
O O8 0.099281 0.635483 0.573354
O O9 0.500000 0.130927 0.500000
O O10 0.395903 0.000000 0.378915
O O11 0.650808 0.500000 0.264326
O O12 0.516684 0.628930 0.219710
O O13 0.604097 0.500000 0.878915
O O14 0.614484 0.748342 0.882501
O O15 0.500000 0.630927 0.000000
O O16 0.250000 0.135724 0.036221
O O17 0.377537 0.000000 0.102632
#
# Coordination Sequence:
#
# PCOD9404512 Si02
#       6
#     8   8   8   8   8   8
#     4  10  20  35  56  85 120 158 199 243 293 356
#     4  10  22  39  60  90 124 157 196 246 304 358
#     4  10  20  36  56  85 122 160 200 242 295 359
#     4  10  20  35  56  85 120 158 199 243 293 356
#     4  10  20  36  56  85 122 160 200 242 295 359
#     4  10  22  39  60  90 124 157 196 246 304 358
#
# _framework density 24.448546
#
# number of rings (size 3 to 8) (size 9 to 14) (size 15 to 20)
#    0.000    2.000    3.333    0.000    0.000    3.333 
#    0.000    0.000    0.000    1.000    0.000    0.000 
#    0.000    0.000    0.000    0.000    0.000    0.000 
#
# Total GULP energy -268248.207940 kJ/mol
# GULP energy per Si atom -5588.504332 kJ/mol
# Density = 2.439290 g / cm^3
# Si number density = 24.448546 Si / 1000 Ang^3
#
#
#
# Elastic Constant Matrix: (Units=GPa)
#
#
# Indices 1 2 3 4 5 6 
#
# 1 82.7640 67.0455 52.5861 0.0000 0.0000 0.0000
# 2 67.0455 341.8996 48.8752 0.0000 0.0000 0.0000
# 3 52.5861 48.8752 113.9060 0.0000 0.0000 0.0000
# 4 0.0000 0.0000 0.0000 10.1985 0.0000 0.0000
# 5 0.0000 0.0000 0.0000 0.0000 -30.7765 0.0000
# 6 0.0000 0.0000 0.0000 0.0000 0.0000 -16.1930
#
#
#
# Elastic Compliance Matrix: (Units=1/GPa)
#
#
# Indices 1 2 3 4 5 6 
#
# 1 0.019113 -0.002649 -0.007687 0.000000 0.000000 0.000000
# 2 -0.002649 0.003483 -0.000272 0.000000 0.000000 0.000000
# 3 -0.007687 -0.000272 0.012444 0.000000 0.000000 0.000000
# 4 0.000000 0.000000 0.000000 0.098053 0.000000 0.000000
# 5 0.000000 0.000000 0.000000 0.000000 -0.032492 0.000000
# 6 0.000000 0.000000 0.000000 0.000000 0.000000 -0.061755
#
#
# Mechanical properties :
#
#
# Convention : Reuss Voigt Hill
#
# Bulk Modulus (GPa) = 72.33228 97.28702 84.80965
# Shear Modulus (GPa) = 77.31652 17.31666 47.31659
#
# Velocity S-wave (km/s) = 5.62964 2.66426 4.40404
# Velocity P-wave (km/s) = 8.47979 7.02448 7.78621
#
# Compressibility (1/GPa) = 0.01382509
#
# Stress axis : x y z
#
# Youngs Moduli (GPa) = 52.32169 287.09786 80.35726
#
# Poissons Ratio (x) = 0.76054 0.61769
# Poissons Ratio (y) = 0.13860 0.02182
# Poissons Ratio (z) = 0.40219 0.07797
#
# Static dielectric constant tensor:
#      x y z
#    x 1.900180 0.000000 0.000000 
#    y 0.000000 2.038170 0.000000 
#    z 0.000000 0.000000 1.919950 
# 
# From -- ./inp_files/23246.got.cif
#   From: 2010.05.17/outbox.cif.g08.bks.cpg/sg51_12_cif.got.tgz:23246.got - 2010.06.03 11:52:47.
