data_PCOD9404885
_publ_section_title
;
Structure prediction by ZEFSAII (Michael W. Deem and Ramdas Pophale) SiO2 
 PCOD9404885
Probable space group: P M M A
;
_chemical_formula_sum "Si O2"
_cell_formula_units_Z 48
_cell_length_a 9.683815
_cell_length_b 29.713998
_cell_length_c 9.149130
_cell_angle_alpha 90.000000
_cell_angle_beta 90.000000
_cell_angle_gamma 90.000000
_cell_volume 2632.615127
_symmetry_space_group_name_H-M "P M M A"
_symmetry_group_IT_number 51
_symmetry_cell_setting 'orthorhombic'
loop_
_space_group_symop_operation_xyz
x,y,z
1/2-x,-y,z
1/2+x,-y,-z
-x,y,-z
-x,-y,-z
1/2+x,y,-z
1/2-x,y,z
x,-y,z
loop_
_atom_site_type_symbol
_atom_site_label
_atom_site_fract_x
_atom_site_fract_y
_atom_site_fract_z
Si Si1 0.504328 0.396598 0.324892
Si Si2 0.584071 0.879535 0.348637
Si Si3 0.583587 0.691907 0.150986
Si Si4 0.250000 0.554696 0.173695
Si Si5 0.250000 0.446698 0.829182
Si Si6 0.414594 0.051302 0.150742
Si Si7 0.411154 0.776263 0.646565
O O1 0.500000 0.395274 0.500000
O O2 0.529879 0.347155 0.258720
O O3 0.375132 0.421476 0.254602
O O4 0.624404 0.426943 0.259682
O O5 0.500000 0.881255 0.500000
O O6 0.750000 0.889420 0.361418
O O7 0.500362 0.913882 0.247911
O O8 0.571569 0.827503 0.298192
O O9 0.750000 0.686850 0.129523
O O10 0.557097 0.739481 0.230604
O O11 0.500000 0.688724 0.000000
O O12 0.250000 0.500000 0.186795
O O13 0.250000 0.566253 0.000657
O O14 0.250000 0.500000 0.826945
O O15 0.250000 0.062432 0.133769
O O16 0.419716 0.000000 0.210327
O O17 0.500000 0.050792 0.000000
O O18 0.500000 0.769894 0.500000
O O19 0.250000 0.770836 0.606672
#
# Coordination Sequence:
#
# PCOD9404885 Si02
#       7
#     8   8   8   4   4   8   8
#     4  12  25  41  64  92 124 160 201 250 300 356
#     4  10  20  36  59  86 119 158 199 249 303 362
#     4  11  24  42  63  89 121 157 199 246 297 358
#     4  11  25  43  67  93 123 163 201 245 302 359
#     4  11  23  43  65  91 125 161 201 245 298 359
#     4  10  21  37  57  82 115 156 202 253 308 367
#     4   9  20  39  61  88 121 155 197 245 299 358
#
# _framework density 18.23282
#
# number of rings (size 3 to 8) (size 9 to 14) (size 15 to 20)
#    0.000    1.500    0.833    4.000    1.167    6.667 
#    0.000    1.667    0.000    0.000    0.000    0.000 
#    0.000    0.000    0.000    0.000    0.000    0.000 
#
# Total GULP energy -267755.865225 kJ/mol
# GULP energy per Si atom -5578.247192 kJ/mol
# Density = 1.819132 g / cm^3
# Si number density = 18.232820 Si / 1000 Ang^3
#
#
#
# Elastic Constant Matrix: (Units=GPa)
#
#
# Indices 1 2 3 4 5 6 
#
# 1 171.7455 81.5365 83.8351 0.0000 0.0000 0.0000
# 2 81.5365 130.7883 98.8609 0.0000 0.0000 0.0000
# 3 83.8351 98.8609 160.6277 0.0000 0.0000 0.0000
# 4 0.0000 0.0000 0.0000 39.4872 0.0000 0.0000
# 5 0.0000 0.0000 0.0000 0.0000 32.7963 0.0000
# 6 0.0000 0.0000 0.0000 0.0000 0.0000 31.8251
#
#
#
# Elastic Compliance Matrix: (Units=1/GPa)
#
#
# Indices 1 2 3 4 5 6 
#
# 1 0.008682 -0.003717 -0.002244 0.000000 0.000000 0.000000
# 2 -0.003717 0.015888 -0.007839 0.000000 0.000000 0.000000
# 3 -0.002244 -0.007839 0.012221 0.000000 0.000000 0.000000
# 4 0.000000 0.000000 0.000000 0.025325 0.000000 0.000000
# 5 0.000000 0.000000 0.000000 0.000000 0.030491 0.000000
# 6 0.000000 0.000000 0.000000 0.000000 0.000000 0.031422
#
#
# Mechanical properties :
#
#
# Convention : Reuss Voigt Hill
#
# Bulk Modulus (GPa) = 108.77961 110.18072 109.48017
# Shear Modulus (GPa) = 32.32202 34.08367 33.20285
#
# Velocity S-wave (km/s) = 4.21496 4.32830 4.27200
# Velocity P-wave (km/s) = 9.13667 9.24878 9.19290
#
# Compressibility (1/GPa) = 0.00919290
#
# Stress axis : x y z
#
# Youngs Moduli (GPa) = 115.17485 62.93963 81.82328
#
# Poissons Ratio (x) = 0.23392 0.18363
# Poissons Ratio (y) = 0.42805 0.64141
# Poissons Ratio (z) = 0.25847 0.49338
#
# Static dielectric constant tensor:
#      x y z
#    x 1.580590 0.000000 0.000000 
#    y 0.000000 1.645060 0.000000 
#    z 0.000000 0.000000 1.604550 
# 
# From -- ./inp_files/6097.got.cif
#   From: 2010.05.17/outbox.cif.g08.bks.cpg/sg51_4_cif.got.tgz:6097.got - 2010.06.03 11:52:47.
