data_PCOD9404548
_publ_section_title
;
Structure prediction by ZEFSAII (Michael W. Deem and Ramdas Pophale) SiO2 
 PCOD9404548
Probable space group: P M M A
;
_chemical_formula_sum "Si O2"
_cell_formula_units_Z 56
_cell_length_a 22.334855
_cell_length_b 7.709815
_cell_length_c 15.402885
_cell_angle_alpha 90.000000
_cell_angle_beta 90.000000
_cell_angle_gamma 90.000000
_cell_volume 2652.339832
_symmetry_space_group_name_H-M "P M M A"
_symmetry_group_IT_number 51
_symmetry_cell_setting 'orthorhombic'
loop_
_space_group_symop_operation_xyz
x,y,z
1/2-x,-y,z
1/2+x,-y,-z
-x,y,-z
-x,-y,-z
1/2+x,y,-z
1/2-x,y,z
x,-y,z
loop_
_atom_site_type_symbol
_atom_site_label
_atom_site_fract_x
_atom_site_fract_y
_atom_site_fract_z
Si Si1 0.453356 0.208710 0.794829
Si Si2 0.879042 0.791724 0.375115
Si Si3 0.750000 0.206841 0.304338
Si Si4 0.750000 0.304329 0.113399
Si Si5 0.123927 0.198143 0.955619
Si Si6 0.941690 0.297933 0.544966
Si Si7 0.681657 0.704514 0.867319
Si Si8 0.585079 0.290651 0.736445
O O1 0.419931 0.270179 0.706361
O O2 0.421533 0.274325 0.883463
O O3 0.523253 0.249873 0.786328
O O4 0.445526 0.000000 0.796203
O O5 0.810565 0.755272 0.353946
O O6 0.894572 0.713269 0.467838
O O7 0.887106 0.000000 0.380758
O O8 0.750000 0.310393 0.215933
O O9 0.750000 0.000000 0.283054
O O10 0.750000 0.500000 0.075124
O O11 0.810375 0.208445 0.087270
O O12 0.105624 0.000000 0.971019
O O13 0.138237 0.277368 0.049232
O O14 0.956071 0.500000 0.562772
O O15 0.922556 0.224264 0.637730
O O16 0.000000 0.215271 0.500000
O O17 0.750000 0.774136 0.880436
O O18 0.688600 0.500000 0.853080
O O19 0.643478 0.777649 0.786774
O O20 0.590667 0.500000 0.733672
#
# Coordination Sequence:
#
# PCOD9404548 Si02
#       8
#     8   8   4   4   8   8   8   8
#     4  10  21  36  58  88 118 151 189 233 290 352
#     4  10  20  35  57  83 115 155 193 238 290 345
#     4  10  20  38  56  79 120 159 194 235 292 350
#     4  12  22  32  54  87 118 153 196 235 278 342
#     4  11  22  38  60  86 118 153 190 235 288 341
#     4  10  20  36  58  84 113 148 192 238 289 348
#     4  10  22  41  62  84 111 152 203 241 281 342
#     4  10  22  40  60  83 117 154 189 244 299 341
#
# _framework density 21.113434999999999
#
# number of rings (size 3 to 8) (size 9 to 14) (size 15 to 20)
#    0.000    1.714    3.571    1.071    0.000    3.714 
#    1.286    2.857    0.000    0.000    0.000    0.000 
#    0.000    0.000    0.000    0.000    0.000    0.000 
#
# Total GULP energy -312466.504758 kJ/mol
# GULP energy per Si atom -5579.759014 kJ/mol
# Density = 2.106538 g / cm^3
# Si number density = 21.113435 Si / 1000 Ang^3
#
#
#
# Elastic Constant Matrix: (Units=GPa)
#
#
# Indices 1 2 3 4 5 6 
#
# 1 88.5650 6.3253 65.7333 0.0000 0.0000 0.0000
# 2 6.3253 29.2547 8.3152 0.0000 0.0000 0.0000
# 3 65.7333 8.3152 157.6365 0.0000 0.0000 0.0000
# 4 0.0000 0.0000 0.0000 20.6041 0.0000 0.0000
# 5 0.0000 0.0000 0.0000 0.0000 31.5220 0.0000
# 6 0.0000 0.0000 0.0000 0.0000 0.0000 37.4816
#
#
#
# Elastic Compliance Matrix: (Units=1/GPa)
#
#
# Indices 1 2 3 4 5 6 
#
# 1 0.016428 -0.001629 -0.006764 0.000000 0.000000 0.000000
# 2 -0.001629 0.034864 -0.001160 0.000000 0.000000 0.000000
# 3 -0.006764 -0.001160 0.009226 0.000000 0.000000 0.000000
# 4 0.000000 0.000000 0.000000 0.048534 0.000000 0.000000
# 5 0.000000 0.000000 0.000000 0.000000 0.031724 0.000000
# 6 0.000000 0.000000 0.000000 0.000000 0.000000 0.026680
#
#
# Mechanical properties :
#
#
# Convention : Reuss Voigt Hill
#
# Bulk Modulus (GPa) = 24.14800 48.46709 36.30755
# Shear Modulus (GPa) = 24.95428 30.92703 27.94066
#
# Velocity S-wave (km/s) = 3.44163 3.83143 3.64175
# Velocity P-wave (km/s) = 5.22065 6.52522 5.90905
#
# Compressibility (1/GPa) = 0.04141129
#
# Stress axis : x y z
#
# Youngs Moduli (GPa) = 60.87121 28.68254 108.39383
#
# Poissons Ratio (x) = 0.04673 0.73323
# Poissons Ratio (y) = 0.09918 0.12570
# Poissons Ratio (z) = 0.41176 0.03326
#
# Static dielectric constant tensor:
#      x y z
#    x 1.742330 0.000000 0.000000 
#    y 0.000000 1.802710 0.000000 
#    z 0.000000 0.000000 1.794510 
# 
# From -- ./inp_files/25839.got.cif
#   From: 2010.05.17/outbox.cif.g08.bks.cpg/sg51_13_cif.got.tgz:25839.got - 2010.06.03 11:52:47.
