data_PCOD9404558
_publ_section_title
;
Structure prediction by ZEFSAII (Michael W. Deem and Ramdas Pophale) SiO2 
 PCOD9404558
Probable space group: P M M A
;
_chemical_formula_sum "Si O2"
_cell_formula_units_Z 48
_cell_length_a 30.775760
_cell_length_b 9.054258
_cell_length_c 9.580799
_cell_angle_alpha 90.000000
_cell_angle_beta 90.000000
_cell_angle_gamma 90.000000
_cell_volume 2669.705653
_symmetry_space_group_name_H-M "P M M A"
_symmetry_group_IT_number 51
_symmetry_cell_setting 'orthorhombic'
loop_
_space_group_symop_operation_xyz
x,y,z
1/2-x,-y,z
1/2+x,-y,-z
-x,y,-z
-x,-y,-z
1/2+x,y,-z
1/2-x,y,z
x,-y,z
loop_
_atom_site_type_symbol
_atom_site_label
_atom_site_fract_x
_atom_site_fract_y
_atom_site_fract_z
Si Si1 0.322061 0.840570 0.517789
Si Si2 0.396158 0.168280 0.751574
Si Si3 0.850302 0.321803 0.983968
Si Si4 0.250000 0.329986 0.656253
Si Si5 0.448507 0.326294 0.520467
Si Si6 0.889493 0.826546 0.715381
Si Si7 0.750000 0.320049 0.029485
O O1 0.360187 0.843745 0.630715
O O2 0.290784 0.713765 0.565307
O O3 0.344346 0.821080 0.370026
O O4 0.299718 0.000000 0.522684
O O5 0.434150 0.253469 0.668030
O O6 0.408457 0.000000 0.792605
O O7 0.372914 0.254442 0.877585
O O8 0.851638 0.500000 0.989491
O O9 0.879138 0.260199 0.856506
O O10 0.798520 0.277898 0.972984
O O11 0.250000 0.500000 0.685150
O O12 0.250000 0.260481 0.810466
O O13 0.500000 0.313250 0.500000
O O14 0.436419 0.500000 0.521537
O O15 0.424255 0.247028 0.390191
O O16 0.900120 0.000000 0.738585
O O17 0.750000 0.500000 0.022845
#
# Coordination Sequence:
#
# PCOD9404558 Si02
#       7
#     8   8   8   4   8   8   4
#     4   9  19  34  51  74 106 143 183 229 278 330
#     4  10  20  35  57  84 113 149 189 229 280 338
#     4  11  21  37  58  83 118 156 196 239 285 336
#     4  11  19  30  51  78 106 140 189 239 278 327
#     4  10  21  39  64  91 115 144 185 233 288 347
#     4  10  22  39  57  82 115 149 187 231 287 344
#     4   9  20  34  51  80 114 152 195 237 282 331
#
# _framework density 17.979507999999999
#
# number of rings (size 3 to 8) (size 9 to 14) (size 15 to 20)
#    0.000    2.000    1.667    3.250    0.000    5.333 
#    0.000    4.167    0.000    5.000    0.000    0.000 
#    0.000    0.000    0.000    0.000    0.000    0.000 
#
# Total GULP energy -267284.380373 kJ/mol
# GULP energy per Si atom -5568.424591 kJ/mol
# Density = 1.793859 g / cm^3
# Si number density = 17.979508 Si / 1000 Ang^3
#
#
#
# Elastic Constant Matrix: (Units=GPa)
#
#
# Indices 1 2 3 4 5 6 
#
# 1 72.3313 39.1331 25.1082 0.0000 0.0000 0.0000
# 2 39.1331 101.5839 40.2141 0.0000 0.0000 0.0000
# 3 25.1082 40.2141 97.8434 0.0000 0.0000 0.0000
# 4 0.0000 0.0000 0.0000 24.5996 0.0000 0.0000
# 5 0.0000 0.0000 0.0000 0.0000 11.1396 0.0000
# 6 0.0000 0.0000 0.0000 0.0000 0.0000 22.1559
#
#
#
# Elastic Compliance Matrix: (Units=1/GPa)
#
#
# Indices 1 2 3 4 5 6 
#
# 1 0.017817 -0.006036 -0.002091 0.000000 0.000000 0.000000
# 2 -0.006036 0.013802 -0.004124 0.000000 0.000000 0.000000
# 3 -0.002091 -0.004124 0.012452 0.000000 0.000000 0.000000
# 4 0.000000 0.000000 0.000000 0.040651 0.000000 0.000000
# 5 0.000000 0.000000 0.000000 0.000000 0.089770 0.000000
# 6 0.000000 0.000000 0.000000 0.000000 0.000000 0.045135
#
#
# Mechanical properties :
#
#
# Convention : Reuss Voigt Hill
#
# Bulk Modulus (GPa) = 51.10152 53.40771 52.25462
# Shear Modulus (GPa) = 19.94812 22.73257 21.34034
#
# Velocity S-wave (km/s) = 3.33452 3.55964 3.44892
# Velocity P-wave (km/s) = 6.58097 6.83110 6.70720
#
# Compressibility (1/GPa) = 0.01956889
#
# Stress axis : x y z
#
# Youngs Moduli (GPa) = 56.12722 72.45527 80.30865
#
# Poissons Ratio (x) = 0.43731 0.16796
# Poissons Ratio (y) = 0.33876 0.33117
# Poissons Ratio (z) = 0.11738 0.29878
#
# Static dielectric constant tensor:
#      x y z
#    x 1.586740 0.000000 0.000000 
#    y 0.000000 1.647170 0.000000 
#    z 0.000000 0.000000 1.598530 
# 
# From -- ./inp_files/12901.got.cif
#   From: 2010.05.17/outbox.cif.g08.bks.cpg/sg51_7_cif.got.tgz:12901.got - 2010.06.03 11:52:47.
