data_PCOD9404467
_publ_section_title
;
Structure prediction by ZEFSAII (Michael W. Deem and Ramdas Pophale) SiO2 
 PCOD9404467
Probable space group: P M M A
;
_chemical_formula_sum "Si O2"
_cell_formula_units_Z 48
_cell_length_a 14.731864
_cell_length_b 9.686933
_cell_length_c 17.578722
_cell_angle_alpha 90.000000
_cell_angle_beta 90.000000
_cell_angle_gamma 90.000000
_cell_volume 2508.599289
_symmetry_space_group_name_H-M "P M M A"
_symmetry_group_IT_number 51
_symmetry_cell_setting 'orthorhombic'
loop_
_space_group_symop_operation_xyz
x,y,z
1/2-x,-y,z
1/2+x,-y,-z
-x,y,-z
-x,-y,-z
1/2+x,y,-z
1/2-x,y,z
x,-y,z
loop_
_atom_site_type_symbol
_atom_site_label
_atom_site_fract_x
_atom_site_fract_y
_atom_site_fract_z
Si Si1 0.609074 0.157494 0.000820
Si Si2 0.750000 0.837716 0.867519
Si Si3 0.643184 0.345982 0.142783
Si Si4 0.750000 0.331819 0.711958
Si Si5 0.107318 0.336299 0.583815
Si Si6 0.144441 0.846096 0.727269
Si Si7 0.389744 0.337097 0.415108
O O1 0.661886 0.185401 0.921958
O O2 0.635331 0.000000 0.023394
O O3 0.500000 0.161525 0.000000
O O4 0.637619 0.268660 0.062978
O O5 0.750000 0.742670 0.793124
O O6 0.750000 0.000000 0.846104
O O7 0.750000 0.360834 0.160813
O O8 0.603378 0.500000 0.141543
O O9 0.600529 0.247563 0.206998
O O10 0.750000 0.500000 0.721859
O O11 0.664445 0.288203 0.658651
O O12 0.129964 0.500000 0.593297
O O13 0.143322 0.240294 0.649987
O O14 0.136435 0.286831 0.499640
O O15 0.997988 0.324331 0.589733
O O16 0.250000 0.863108 0.748334
O O17 0.104777 0.000000 0.720267
O O18 0.369701 0.500000 0.418571
#
# Coordination Sequence:
#
# PCOD9404467 Si02
#       7
#     8   4   8   4   8   8   8
#     4  10  21  38  61  85 111 148 187 227 286 350
#     4  10  22  40  58  81 116 149 184 235 286 337
#     4  10  20  35  56  81 109 141 180 225 275 328
#     4  10  20  36  58  81 110 151 192 227 278 337
#     4   9  17  33  55  79 109 142 184 233 278 325
#     4  10  21  34  50  77 111 144 178 218 272 330
#     4   8  17  33  54  80 108 142 183 231 281 327
#
# _framework density 19.134183
#
# number of rings (size 3 to 8) (size 9 to 14) (size 15 to 20)
#    0.000    2.500    0.833    2.000    1.167    4.000 
#    0.000    6.667    0.000    0.000    0.000    0.000 
#    0.000    0.000    0.000    0.000    0.000    0.000 
#
# Total GULP energy -267385.288715 kJ/mol
# GULP energy per Si atom -5570.526848 kJ/mol
# Density = 1.909063 g / cm^3
# Si number density = 19.134183 Si / 1000 Ang^3
#
#
#
# Elastic Constant Matrix: (Units=GPa)
#
#
# Indices 1 2 3 4 5 6 
#
# 1 62.4713 20.0579 29.7410 0.0000 0.0000 0.0000
# 2 20.0579 128.7224 89.8738 0.0000 0.0000 0.0000
# 3 29.7410 89.8738 152.7353 0.0000 0.0000 0.0000
# 4 0.0000 0.0000 0.0000 34.0282 0.0000 0.0000
# 5 0.0000 0.0000 0.0000 0.0000 34.9346 0.0000
# 6 0.0000 0.0000 0.0000 0.0000 0.0000 15.3131
#
#
#
# Elastic Compliance Matrix: (Units=1/GPa)
#
#
# Indices 1 2 3 4 5 6 
#
# 1 0.017670 -0.000596 -0.003090 0.000000 0.000000 0.000000
# 2 -0.000596 0.013206 -0.007655 0.000000 0.000000 0.000000
# 3 -0.003090 -0.007655 0.011653 0.000000 0.000000 0.000000
# 4 0.000000 0.000000 0.000000 0.029387 0.000000 0.000000
# 5 0.000000 0.000000 0.000000 0.000000 0.028625 0.000000
# 6 0.000000 0.000000 0.000000 0.000000 0.000000 0.065304
#
#
# Mechanical properties :
#
#
# Convention : Reuss Voigt Hill
#
# Bulk Modulus (GPa) = 50.38379 69.25271 59.81825
# Shear Modulus (GPa) = 25.62232 30.47227 28.04730
#
# Velocity S-wave (km/s) = 3.66332 3.99501 3.83276
# Velocity P-wave (km/s) = 6.65449 7.58630 7.13562
#
# Compressibility (1/GPa) = 0.01984765
#
# Stress axis : x y z
#
# Youngs Moduli (GPa) = 56.59377 75.72278 85.81276
#
# Poissons Ratio (x) = 0.04512 0.26517
# Poissons Ratio (y) = 0.03372 0.65688
# Poissons Ratio (z) = 0.17488 0.57964
#
# Static dielectric constant tensor:
#      x y z
#    x 1.663160 0.000000 0.000000 
#    y 0.000000 1.682580 0.000000 
#    z 0.000000 0.000000 1.664610 
# 
# From -- ./inp_files/29514.got.cif
#   From: 2010.05.17/outbox.cif.g08.bks.cpg/sg51_15_cif.got.tgz:29514.got - 2010.06.03 11:52:47.
