data_PCOD9404255
_publ_section_title
;
Structure prediction by ZEFSAII (Michael W. Deem and Ramdas Pophale) SiO2 
 PCOD9404255
Probable space group: P M M A
;
_chemical_formula_sum "Si O2"
_cell_formula_units_Z 64
_cell_length_a 8.457334
_cell_length_b 24.739382
_cell_length_c 15.555467
_cell_angle_alpha 90.000000
_cell_angle_beta 90.000000
_cell_angle_gamma 90.000000
_cell_volume 3254.658173
_symmetry_space_group_name_H-M "P M M A"
_symmetry_group_IT_number 51
_symmetry_cell_setting 'orthorhombic'
loop_
_space_group_symop_operation_xyz
x,y,z
1/2-x,-y,z
1/2+x,-y,-z
-x,y,-z
-x,-y,-z
1/2+x,y,-z
1/2-x,y,z
x,-y,z
loop_
_atom_site_type_symbol
_atom_site_label
_atom_site_fract_x
_atom_site_fract_y
_atom_site_fract_z
Si Si1 0.567160 0.179373 0.858485
Si Si2 0.058041 0.941036 0.097915
Si Si3 0.559838 0.702464 0.907253
Si Si4 0.561386 0.650455 0.266743
Si Si5 0.936595 0.940643 0.406198
Si Si6 0.440785 0.562697 0.594907
Si Si7 0.569388 0.838589 0.661792
Si Si8 0.059429 0.730614 0.409596
O O1 0.750000 0.176840 0.889285
O O2 0.500298 0.118725 0.872718
O O3 0.497645 0.235120 0.895625
O O4 0.568992 0.186410 0.756203
O O5 0.250000 0.940208 0.104145
O O6 0.008173 0.000000 0.137422
O O7 0.000000 0.943489 0.000000
O O8 0.750000 0.704715 0.906146
O O9 0.507540 0.665424 0.826703
O O10 0.500000 0.682887 0.000000
O O11 0.750000 0.646744 0.257640
O O12 0.505972 0.598406 0.323195
O O13 0.514413 0.698618 0.330898
O O14 0.750000 0.944024 0.411924
O O15 0.000000 0.924840 0.500000
O O16 0.981182 0.894750 0.340107
O O17 0.002680 0.000000 0.385327
O O18 0.500000 0.580367 0.500000
O O19 0.250000 0.565549 0.592660
O O20 0.488469 0.500000 0.605388
O O21 0.750000 0.850591 0.637533
O O22 0.505055 0.792800 0.599256
O O23 0.250000 0.729027 0.404225
O O24 0.000000 0.708507 0.500000
#
# Coordination Sequence:
#
# PCOD9404255 Si02
#       8
#     8   8   8   8   8   8   8   8
#     4   9  18  34  53  75 103 136 177 226 280 339
#     4   9  17  30  49  71  95 124 162 210 267 333
#     4  11  22  39  60  84 116 153 197 249 300 354
#     4  11  22  37  59  88 119 156 200 241 289 343
#     4  10  21  36  52  71  95 127 171 223 277 335
#     4   9  19  36  59  90 128 166 203 242 284 336
#     4  10  20  35  53  74 101 135 175 222 277 335
#     4  11  22  36  54  80 115 152 188 233 285 339
#
# _framework density 19.664124000000001
#
# number of rings (size 3 to 8) (size 9 to 14) (size 15 to 20)
#    0.000    2.000    1.250    2.625    0.000    5.250 
#    0.000    2.500    0.000    1.875    0.000    0.000 
#    0.000    0.000    0.000    0.000    0.000    0.000 
#
# Total GULP energy -356692.891036 kJ/mol
# GULP energy per Si atom -5573.326422 kJ/mol
# Density = 1.961937 g / cm^3
# Si number density = 19.664124 Si / 1000 Ang^3
#
#
#
# Elastic Constant Matrix: (Units=GPa)
#
#
# Indices 1 2 3 4 5 6 
#
# 1 22.9494 18.1178 16.1094 0.0000 0.0000 0.0000
# 2 18.1178 108.7714 56.7271 0.0000 0.0000 0.0000
# 3 16.1094 56.7271 121.9468 0.0000 0.0000 0.0000
# 4 0.0000 0.0000 0.0000 27.1536 0.0000 0.0000
# 5 0.0000 0.0000 0.0000 0.0000 27.5495 0.0000
# 6 0.0000 0.0000 0.0000 0.0000 0.0000 17.2901
#
#
#
# Elastic Compliance Matrix: (Units=1/GPa)
#
#
# Indices 1 2 3 4 5 6 
#
# 1 0.051411 -0.006630 -0.003707 0.000000 0.000000 0.000000
# 2 -0.006630 0.012993 -0.005168 0.000000 0.000000 0.000000
# 3 -0.003707 -0.005168 0.011094 0.000000 0.000000 0.000000
# 4 0.000000 0.000000 0.000000 0.036828 0.000000 0.000000
# 5 0.000000 0.000000 0.000000 0.000000 0.036298 0.000000
# 6 0.000000 0.000000 0.000000 0.000000 0.000000 0.057837
#
#
# Mechanical properties :
#
#
# Convention : Reuss Voigt Hill
#
# Bulk Modulus (GPa) = 22.47847 48.39735 35.43791
# Shear Modulus (GPa) = 19.81759 25.24618 22.53188
#
# Velocity S-wave (km/s) = 3.17804 3.58700 3.38869
# Velocity P-wave (km/s) = 4.99225 6.46691 5.77683
#
# Compressibility (1/GPa) = 0.04448701
#
# Stress axis : x y z
#
# Youngs Moduli (GPa) = 19.45122 76.96223 90.13644
#
# Poissons Ratio (x) = 0.51025 0.33417
# Poissons Ratio (y) = 0.12896 0.46586
# Poissons Ratio (z) = 0.07211 0.39777
#
# Static dielectric constant tensor:
#      x y z
#    x 1.680420 0.000000 0.000000 
#    y 0.000000 1.758780 0.000000 
#    z 0.000000 0.000000 1.757210 
# 
# From -- ./inp_files/22196.got.cif
#   From: 2010.05.17/outbox.cif.g08.bks.cpg/sg51_12_cif.got.tgz:22196.got - 2010.06.03 11:52:47.
