data_PCOD9404770
_publ_section_title
;
Structure prediction by ZEFSAII (Michael W. Deem and Ramdas Pophale) SiO2 
 PCOD9404770
Probable space group: P M M A
;
_chemical_formula_sum "Si O2"
_cell_formula_units_Z 48
_cell_length_a 16.155225
_cell_length_b 7.613746
_cell_length_c 17.562957
_cell_angle_alpha 90.000000
_cell_angle_beta 90.000000
_cell_angle_gamma 90.000000
_cell_volume 2160.274968
_symmetry_space_group_name_H-M "P M M A"
_symmetry_group_IT_number 51
_symmetry_cell_setting 'orthorhombic'
loop_
_space_group_symop_operation_xyz
x,y,z
1/2-x,-y,z
1/2+x,-y,-z
-x,y,-z
-x,-y,-z
1/2+x,y,-z
1/2-x,y,z
x,-y,z
loop_
_atom_site_type_symbol
_atom_site_label
_atom_site_fract_x
_atom_site_fract_y
_atom_site_fract_z
Si Si1 0.915855 0.298395 0.149318
Si Si2 0.918571 0.708921 0.458421
Si Si3 0.250000 0.784663 0.276301
Si Si4 0.250000 0.210156 0.451648
Si Si5 0.400278 0.201348 0.172307
Si Si6 0.846813 0.292581 0.993977
Si Si7 0.655853 0.284837 0.305071
O O1 0.886307 0.500000 0.142470
O O2 0.898558 0.221950 0.065794
O O3 0.868655 0.220175 0.221507
O O4 0.012183 0.296328 0.169443
O O5 0.931182 0.500000 0.450616
O O6 0.833876 0.733235 0.505728
O O7 0.902706 0.777744 0.373200
O O8 0.000000 0.781657 0.500000
O O9 0.250000 0.728598 0.363867
O O10 0.168491 0.726959 0.230152
O O11 0.250000 0.000000 0.273638
O O12 0.250000 0.000000 0.450714
O O13 0.417268 0.000000 0.193756
O O14 0.364346 0.206309 0.086922
O O15 0.750000 0.275920 0.013002
O O16 0.866251 0.500000 0.982648
O O17 0.750000 0.237607 0.323492
O O18 0.651625 0.500000 0.303423
#
# Coordination Sequence:
#
# PCOD9404770 Si02
#       7
#     8   8   4   4   8   8   8
#     4  10  21  35  56  86 114 144 186 231 278 334
#     4  10  21  38  62  92 122 153 193 244 296 349
#     4   9  22  41  57  76 109 150 188 231 283 335
#     4  11  23  41  63  86 117 158 198 241 295 353
#     4  11  22  39  58  78 109 150 189 230 283 334
#     4  10  20  36  57  82 112 146 186 230 276 329
#     4   9  17  34  59  84 115 151 185 229 284 335
#
# _framework density 22.219391999999999
#
# number of rings (size 3 to 8) (size 9 to 14) (size 15 to 20)
#    0.000    2.000    1.667    1.750    2.333    5.000 
#    0.000    3.333    0.000    1.000    0.000    0.000 
#    0.000    0.000    0.000    0.000    0.000    0.000 
#
# Total GULP energy -268190.153485 kJ/mol
# GULP energy per Si atom -5587.294864 kJ/mol
# Density = 2.216882 g / cm^3
# Si number density = 22.219392 Si / 1000 Ang^3
#
#
#
# Elastic Constant Matrix: (Units=GPa)
#
#
# Indices 1 2 3 4 5 6 
#
# 1 61.5529 -12.2527 2.7015 0.0000 0.0000 0.0000
# 2 -12.2527 45.4657 -10.3099 0.0000 0.0000 0.0000
# 3 2.7015 -10.3099 100.1997 0.0000 0.0000 0.0000
# 4 0.0000 0.0000 0.0000 -2.3354 0.0000 0.0000
# 5 0.0000 0.0000 0.0000 0.0000 -5.4536 0.0000
# 6 0.0000 0.0000 0.0000 0.0000 0.0000**********
#
#
#
# Elastic Compliance Matrix: (Units=1/GPa)
#
#
# Indices 1 2 3 4 5 6 
#
# 1 0.017167 0.004629 0.000014 0.000000 0.000000 0.000000
# 2 0.004629 0.023768 0.002321 0.000000 0.000000 0.000000
# 3 0.000014 0.002321 0.010219 0.000000 0.000000 0.000000
# 4 0.000000 0.000000 0.000000 -0.428199 0.000000 0.000000
# 5 0.000000 0.000000 0.000000 0.000000 -0.183366 0.000000
# 6 0.000000 0.000000 0.000000 0.000000 0.000000 -0.000054
#
#
# Mechanical properties :
#
#
# Convention : Reuss Voigt Hill
#
# Bulk Modulus (GPa) = 15.36529 18.61067 16.98798
# Shear Modulus (GPa) = -9.04653 -3716.72243 -1862.88448
#
# Velocity S-wave (km/s) = -2.01997 -40.94349 -28.98663
# Velocity P-wave (km/s) = 1.22061 47.18861 33.35622
#
# Compressibility (1/GPa) = 0.06508175
#
# Stress axis : x y z
#
# Youngs Moduli (GPa) = 58.25078 42.07250 97.86167
#
# Poissons Ratio (x) = -0.19477 -0.00132
# Poissons Ratio (y) = -0.26967 -0.22712
# Poissons Ratio (z) = -0.00079 -0.09764
#
# Static dielectric constant tensor:
#      x y z
#    x 1.785610 0.000000 0.000000 
#    y 0.000000 1.992470 0.000000 
#    z 0.000000 0.000000 1.814370 
# 
# From -- ./inp_files/29554.got.cif
#   From: 2010.05.17/outbox.cif.g08.bks.cpg/sg51_15_cif.got.tgz:29554.got - 2010.06.03 11:52:47.
