data_PCOD9404427
_publ_section_title
;
Structure prediction by ZEFSAII (Michael W. Deem and Ramdas Pophale) SiO2 
 PCOD9404427
Probable space group: P M M A
;
_chemical_formula_sum "Si O2"
_cell_formula_units_Z 56
_cell_length_a 17.674402
_cell_length_b 24.489317
_cell_length_c 7.329219
_cell_angle_alpha 90.000000
_cell_angle_beta 90.000000
_cell_angle_gamma 90.000000
_cell_volume 3172.335421
_symmetry_space_group_name_H-M "P M M A"
_symmetry_group_IT_number 51
_symmetry_cell_setting 'orthorhombic'
loop_
_space_group_symop_operation_xyz
x,y,z
1/2-x,-y,z
1/2+x,-y,-z
-x,y,-z
-x,-y,-z
1/2+x,y,-z
1/2-x,y,z
x,-y,z
loop_
_atom_site_type_symbol
_atom_site_label
_atom_site_fract_x
_atom_site_fract_y
_atom_site_fract_z
Si Si1 0.341166 0.357372 0.268311
Si Si2 0.090081 0.438802 0.983028
Si Si3 0.841063 0.063512 0.724599
Si Si4 0.090202 0.853233 0.993663
Si Si5 0.340368 0.438531 0.586026
Si Si6 0.840838 0.852217 0.409129
Si Si7 0.158649 0.768604 0.274774
O O1 0.250000 0.358064 0.260018
O O2 0.363906 0.392030 0.445709
O O3 0.365029 0.294414 0.275770
O O4 0.372931 0.390988 0.099005
O O5 0.114557 0.500000 0.044497
O O6 0.115936 0.433544 0.774814
O O7 0.000000 0.436051 0.000000
O O8 0.750000 0.067987 0.745674
O O9 0.860258 0.096101 0.538618
O O10 0.861380 0.000000 0.715305
O O11 0.878875 0.094488 0.894239
O O12 0.119062 0.852802 0.785723
O O13 0.122721 0.801863 0.107644
O O14 0.000000 0.852585 0.000000
O O15 0.250000 0.433748 0.619370
O O16 0.353695 0.500000 0.512501
O O17 0.750000 0.852328 0.380046
O O18 0.860069 0.800035 0.536612
O O19 0.250000 0.771522 0.256320
#
# Coordination Sequence:
#
# PCOD9404427 Si02
#       7
#     8   8   8   8   8   8   8
#     4  10  20  35  56  78 100 131 174 224 271 309
#     4  10  21  35  51  75 108 142 172 206 257 322
#     4   9  19  36  57  82 109 138 181 227 257 299
#     4  11  22  35  54  81 113 146 176 212 263 316
#     4   9  18  33  53  76 100 129 170 217 263 314
#     4   9  18  36  58  75 100 141 180 216 263 311
#     4   9  20  37  55  77 102 133 180 227 261 307
#
# _framework density 17.652609999999999
#
# number of rings (size 3 to 8) (size 9 to 14) (size 15 to 20)
#    0.000    2.429    0.000    3.000    0.000    6.857 
#    0.000    8.571    0.000    0.000    0.000    0.000 
#    0.000    0.000    0.000    0.000    0.000    0.000 
#
# Total GULP energy -312438.261726 kJ/mol
# GULP energy per Si atom -5579.254674 kJ/mol
# Density = 1.761243 g / cm^3
# Si number density = 17.652610 Si / 1000 Ang^3
#
#
#
# Elastic Constant Matrix: (Units=GPa)
#
#
# Indices 1 2 3 4 5 6 
#
# 1 26.9969 47.4961 43.3671 0.0000 0.0000 0.0000
# 2 47.4961 188.9677 92.9544 0.0000 0.0000 0.0000
# 3 43.3671 92.9544 140.9693 0.0000 0.0000 0.0000
# 4 0.0000 0.0000 0.0000 21.5420 0.0000 0.0000
# 5 0.0000 0.0000 0.0000 0.0000 -145.7017 0.0000
# 6 0.0000 0.0000 0.0000 0.0000 0.0000 33.2255
#
#
#
# Elastic Compliance Matrix: (Units=1/GPa)
#
#
# Indices 1 2 3 4 5 6 
#
# 1 0.092100 -0.013634 -0.019343 0.000000 0.000000 0.000000
# 2 -0.013634 0.009851 -0.002301 0.000000 0.000000 0.000000
# 3 -0.019343 -0.002301 0.014562 0.000000 0.000000 0.000000
# 4 0.000000 0.000000 0.000000 0.046421 0.000000 0.000000
# 5 0.000000 0.000000 0.000000 0.000000 -0.006863 0.000000
# 6 0.000000 0.000000 0.000000 0.000000 0.000000 0.030097
#
#
# Mechanical properties :
#
#
# Convention : Reuss Voigt Hill
#
# Bulk Modulus (GPa) = 21.76001 80.50767 51.13384
# Shear Modulus (GPa) = 18.37953 -6.64576 5.86688
#
# Velocity S-wave (km/s) = 3.23023 -1.94240 1.82503
# Velocity P-wave (km/s) = 5.12504 6.37770 5.78538
#
# Compressibility (1/GPa) = 0.04595587
#
# Stress axis : x y z
#
# Youngs Moduli (GPa) = 10.85782 101.51561 68.67302
#
# Poissons Ratio (x) = 1.38405 1.32834
# Poissons Ratio (y) = 0.14803 0.15803
# Poissons Ratio (z) = 0.21002 0.23361
#
# Static dielectric constant tensor:
#      x y z
#    x 1.583450 0.000000 0.000000 
#    y 0.000000 1.603000 0.000000 
#    z 0.000000 0.000000 1.573990 
# 
# From -- ./inp_files/2621.got.cif
#   From: 2010.05.17/outbox.cif.g08.bks.cpg/sg51_2_cif.got.tgz:2621.got - 2010.06.03 11:52:47.
