data_PCOD9404541
_publ_section_title
;
Structure prediction by ZEFSAII (Michael W. Deem and Ramdas Pophale) SiO2 
 PCOD9404541
Probable space group: P M M A
;
_chemical_formula_sum "Si O2"
_cell_formula_units_Z 48
_cell_length_a 16.475095
_cell_length_b 8.532201
_cell_length_c 18.612194
_cell_angle_alpha 90.000000
_cell_angle_beta 90.000000
_cell_angle_gamma 90.000000
_cell_volume 2616.294186
_symmetry_space_group_name_H-M "P M M A"
_symmetry_group_IT_number 51
_symmetry_cell_setting 'orthorhombic'
loop_
_space_group_symop_operation_xyz
x,y,z
1/2-x,-y,z
1/2+x,-y,-z
-x,y,-z
-x,-y,-z
1/2+x,y,-z
1/2-x,y,z
x,-y,z
loop_
_atom_site_type_symbol
_atom_site_label
_atom_site_fract_x
_atom_site_fract_y
_atom_site_fract_z
Si Si1 0.750000 0.188266 0.950662
Si Si2 0.841324 0.310931 0.337130
Si Si3 0.072580 0.689941 0.805912
Si Si4 0.250000 0.187333 0.215711
Si Si5 0.085142 0.687598 0.282095
Si Si6 0.504536 0.813459 0.418002
Si Si7 0.911072 0.309903 0.031025
O O1 0.750000 0.241468 0.867390
O O2 0.750000 0.000000 0.952446
O O3 0.832665 0.247444 0.988635
O O4 0.750000 0.268811 0.355967
O O5 0.850792 0.500000 0.342903
O O6 0.861516 0.268988 0.254489
O O7 0.907757 0.230317 0.386454
O O8 0.069823 0.500000 0.809578
O O9 0.090703 0.744561 0.885984
O O10 0.986211 0.741415 0.772778
O O11 0.329864 0.246888 0.255874
O O12 0.250000 0.000000 0.215528
O O13 0.086706 0.500000 0.280255
O O14 0.058983 0.740137 0.361757
O O15 0.500000 0.756580 0.500000
O O16 0.493086 0.000000 0.417592
O O17 0.907002 0.500000 0.028781
O O18 0.000000 0.265517 0.000000
#
# Coordination Sequence:
#
# PCOD9404541 Si02
#       7
#     4   8   8   4   8   8   8
#     4  11  25  39  53  81 120 157 190 235 295 348
#     4   9  18  33  55  82 109 143 187 234 276 320
#     4   8  16  31  54  80 108 140 181 234 282 323
#     4  11  23  39  57  79 114 151 188 233 283 340
#     4  10  20  37  62  87 109 143 191 238 280 328
#     4  10  21  38  58  82 116 153 182 217 274 339
#     4  10  20  35  57  83 110 147 195 241 285 336
#
# _framework density 18.346561000000001
#
# number of rings (size 3 to 8) (size 9 to 14) (size 15 to 20)
#    0.000    2.333    0.000    3.500    1.167    4.667 
#    1.500    4.167    0.000    0.000    0.000    0.000 
#    0.000    0.000    0.000    0.000    0.000    0.000 
#
# Total GULP energy -267831.672392 kJ/mol
# GULP energy per Si atom -5579.826508 kJ/mol
# Density = 1.830480 g / cm^3
# Si number density = 18.346561 Si / 1000 Ang^3
#
#
#
# Elastic Constant Matrix: (Units=GPa)
#
#
# Indices 1 2 3 4 5 6 
#
# 1 131.4442 28.0891 79.3572 0.0000 0.0000 0.0000
# 2 28.0891 29.1979 30.7424 0.0000 0.0000 0.0000
# 3 79.3572 30.7424 168.7332 0.0000 0.0000 0.0000
# 4 0.0000 0.0000 0.0000 21.2302 0.0000 0.0000
# 5 0.0000 0.0000 0.0000 0.0000 11.0277 0.0000
# 6 0.0000 0.0000 0.0000 0.0000 0.0000 8.6007
#
#
#
# Elastic Compliance Matrix: (Units=1/GPa)
#
#
# Indices 1 2 3 4 5 6 
#
# 1 0.011594 -0.006698 -0.004233 0.000000 0.000000 0.000000
# 2 -0.006698 0.046248 -0.005276 0.000000 0.000000 0.000000
# 3 -0.004233 -0.005276 0.008879 0.000000 0.000000 0.000000
# 4 0.000000 0.000000 0.000000 0.047103 0.000000 0.000000
# 5 0.000000 0.000000 0.000000 0.000000 0.090681 0.000000
# 6 0.000000 0.000000 0.000000 0.000000 0.000000 0.116269
#
#
# Mechanical properties :
#
#
# Convention : Reuss Voigt Hill
#
# Bulk Modulus (GPa) = 29.14803 67.30587 48.22695
# Shear Modulus (GPa) = 13.71282 20.91750 17.31516
#
# Velocity S-wave (km/s) = 2.73689 3.38025 3.07544
# Velocity P-wave (km/s) = 5.09012 7.21112 6.24138
#
# Compressibility (1/GPa) = 0.03430764
#
# Stress axis : x y z
#
# Youngs Moduli (GPa) = 86.24791 21.62279 112.63134
#
# Poissons Ratio (x) = 0.14482 0.47674
# Poissons Ratio (y) = 0.57765 0.59426
# Poissons Ratio (z) = 0.36507 0.11409
#
# Static dielectric constant tensor:
#      x y z
#    x 1.605990 0.000000 0.000000 
#    y 0.000000 1.633320 0.000000 
#    z 0.000000 0.000000 1.629120 
# 
# From -- ./inp_files/29600.got.cif
#   From: 2010.05.17/outbox.cif.g08.bks.cpg/sg51_15_cif.got.tgz:29600.got - 2010.06.03 11:52:47.
