data_PCOD9404582
_publ_section_title
;
Structure prediction by ZEFSAII (Michael W. Deem and Ramdas Pophale) SiO2 
 PCOD9404582
Probable space group: P M M A
;
_chemical_formula_sum "Si O2"
_cell_formula_units_Z 40
_cell_length_a 25.577794
_cell_length_b 8.463265
_cell_length_c 8.321173
_cell_angle_alpha 90.000000
_cell_angle_beta 90.000000
_cell_angle_gamma 90.000000
_cell_volume 1801.298039
_symmetry_space_group_name_H-M "P M M A"
_symmetry_group_IT_number 51
_symmetry_cell_setting 'orthorhombic'
loop_
_space_group_symop_operation_xyz
x,y,z
1/2-x,-y,z
1/2+x,-y,-z
-x,y,-z
-x,-y,-z
1/2+x,y,-z
1/2-x,y,z
x,-y,z
loop_
_atom_site_type_symbol
_atom_site_label
_atom_site_fract_x
_atom_site_fract_y
_atom_site_fract_z
Si Si1 0.944293 0.678003 0.914455
Si Si2 0.988213 0.176629 0.316187
Si Si3 0.839156 0.180826 0.988303
Si Si4 0.809276 0.311725 0.639758
Si Si5 0.631131 0.808773 0.328532
O O1 0.924369 0.500000 0.938604
O O2 0.901487 0.803490 0.962859
O O3 0.964459 0.711440 0.737468
O O4 0.000000 0.696855 0.000000
O O5 0.929251 0.243222 0.301115
O O6 0.000000 0.153956 0.500000
O O7 0.990917 0.000000 0.238375
O O8 0.818240 0.262906 0.826376
O O9 0.821332 0.000000 0.985516
O O10 0.834046 0.242979 0.172620
O O11 0.750000 0.264153 0.597969
O O12 0.814109 0.500000 0.632725
O O13 0.846810 0.241988 0.501624
O O14 0.629845 0.000000 0.325240
#
# Coordination Sequence:
#
# PCOD9404582 Si02
#       5
#     8   8   8   8   8
#     4  11  22  35  56  89 127 166 204 247 302 366
#     4  10  20  35  57  86 122 164 208 254 305 363
#     4  11  23  41  67  95 128 170 215 264 315 372
#     4  11  26  46  67  93 126 163 206 264 329 387
#     4  10  22  40  64  95 126 163 212 262 312 372
#
# _framework density 22.206209000000001
#
# number of rings (size 3 to 8) (size 9 to 14) (size 15 to 20)
#    0.000    1.400    2.000    3.000    0.000    7.600 
#    0.000    4.000    0.000    0.000    0.000    0.000 
#    0.000    0.000    0.000    0.000    0.000    0.000 
#
# Total GULP energy -222973.398626 kJ/mol
# GULP energy per Si atom -5574.334966 kJ/mol
# Density = 2.215567 g / cm^3
# Si number density = 22.206209 Si / 1000 Ang^3
#
#
#
# Elastic Constant Matrix: (Units=GPa)
#
#
# Indices 1 2 3 4 5 6 
#
# 1 54.2167 -2.3349 14.0642 0.0000 0.0000 0.0000
# 2 -2.3349 20.3534 -1.2834 0.0000 0.0000 0.0000
# 3 14.0642 -1.2834 104.7799 0.0000 0.0000 0.0000
# 4 0.0000 0.0000 0.0000 28.1096 0.0000 0.0000
# 5 0.0000 0.0000 0.0000 0.0000 24.8127 0.0000
# 6 0.0000 0.0000 0.0000 0.0000 0.0000 23.7497
#
#
#
# Elastic Compliance Matrix: (Units=1/GPa)
#
#
# Indices 1 2 3 4 5 6 
#
# 1 0.019194 0.002041 -0.002551 0.000000 0.000000 0.000000
# 2 0.002041 0.049387 0.000331 0.000000 0.000000 0.000000
# 3 -0.002551 0.000331 0.009890 0.000000 0.000000 0.000000
# 4 0.000000 0.000000 0.000000 0.035575 0.000000 0.000000
# 5 0.000000 0.000000 0.000000 0.000000 0.040302 0.000000
# 6 0.000000 0.000000 0.000000 0.000000 0.000000 0.042106
#
#
# Mechanical properties :
#
#
# Convention : Reuss Voigt Hill
#
# Bulk Modulus (GPa) = 12.80203 22.24910 17.52557
# Shear Modulus (GPa) = 22.43658 26.59467 24.51563
#
# Velocity S-wave (km/s) = 3.18209 3.46442 3.32625
# Velocity P-wave (km/s) = 4.39073 5.10334 4.76038
#
# Compressibility (1/GPa) = 0.07811260
#
# Stress axis : x y z
#
# Youngs Moduli (GPa) = 52.09892 20.24834 101.10888
#
# Poissons Ratio (x) = -0.04133 0.25797
# Poissons Ratio (y) = -0.10634 -0.03346
# Poissons Ratio (z) = 0.13292 -0.00670
#
# Static dielectric constant tensor:
#      x y z
#    x 1.805390 0.000000 0.000000 
#    y 0.000000 1.793490 0.000000 
#    z 0.000000 0.000000 1.748420 
# 
# From -- ./inp_files/11451.got.cif
#   From: 2010.05.17/outbox.cif.g08.bks.cpg/sg51_6_cif.got.tgz:11451.got - 2010.06.03 11:52:47.
