data_PCOD9404904
_publ_section_title
;
Structure prediction by ZEFSAII (Michael W. Deem and Ramdas Pophale) SiO2 
 PCOD9404904
Probable space group: P M M A
;
_chemical_formula_sum "Si O2"
_cell_formula_units_Z 48
_cell_length_a 7.642532
_cell_length_b 9.364630
_cell_length_c 35.422332
_cell_angle_alpha 90.000000
_cell_angle_beta 90.000000
_cell_angle_gamma 90.000000
_cell_volume 2535.158039
_symmetry_space_group_name_H-M "P M M A"
_symmetry_group_IT_number 51
_symmetry_cell_setting 'orthorhombic'
loop_
_space_group_symop_operation_xyz
x,y,z
1/2-x,-y,z
1/2+x,-y,-z
-x,y,-z
-x,-y,-z
1/2+x,y,-z
1/2-x,y,z
x,-y,z
loop_
_atom_site_type_symbol
_atom_site_label
_atom_site_fract_x
_atom_site_fract_y
_atom_site_fract_z
Si Si1 0.959791 0.160471 0.613191
Si Si2 0.049731 0.673526 0.770463
Si Si3 0.460453 0.662266 0.687614
Si Si4 0.250000 0.171233 0.090646
Si Si5 0.460128 0.337111 0.458317
Si Si6 0.250000 0.672867 0.170699
Si Si7 0.456290 0.667192 0.955672
O O1 0.750000 0.152747 0.608952
O O2 0.027768 0.245988 0.576773
O O3 0.993662 0.242814 0.651973
O O4 0.029358 0.000000 0.614619
O O5 0.250000 0.721729 0.776509
O O6 0.053352 0.500000 0.768466
O O7 0.983593 0.718466 0.728841
O O8 0.919054 0.710422 0.803947
O O9 0.250000 0.655093 0.690061
O O10 0.526358 0.500000 0.682133
O O11 0.250000 0.242460 0.131861
O O12 0.419165 0.231512 0.068417
O O13 0.250000 0.000000 0.092073
O O14 0.500000 0.278673 0.500000
O O15 0.250000 0.343796 0.455133
O O16 0.527778 0.500000 0.456552
O O17 0.250000 0.500000 0.164461
O O18 0.250000 0.693425 0.949785
O O19 0.492009 0.500000 0.946273
O O20 0.500000 0.684647 0.000000
#
# Coordination Sequence:
#
# PCOD9404904 Si02
#       7
#     8   8   8   4   8   4   8
#     4  10  21  34  48  72 105 137 170 208 252 314
#     4   8  16  32  55  84 111 136 182 245 293 334
#     4   9  18  33  54  80 106 132 169 221 276 323
#     4  12  26  40  56  88 134 170 202 246 302 372
#     4   9  18  33  51  70  93 125 166 211 257 306
#     4  10  20  36  60  84 110 154 206 246 292 346
#     4  10  20  39  67  93 119 156 207 262 308 355
#
# _framework density 18.933731000000002
#
# number of rings (size 3 to 8) (size 9 to 14) (size 15 to 20)
#    0.000    2.500    0.833    2.250    1.167    3.667 
#    0.000    4.167    0.000    1.000    0.000    0.000 
#    0.000    0.000    0.000    0.000    0.000    0.000 
#
# Total GULP energy -267823.768921 kJ/mol
# GULP energy per Si atom -5579.661853 kJ/mol
# Density = 1.889064 g / cm^3
# Si number density = 18.933731 Si / 1000 Ang^3
#
#
#
# Elastic Constant Matrix: (Units=GPa)
#
#
# Indices 1 2 3 4 5 6 
#
# 1 82.9195 43.8664 56.4115 0.0000 0.0000 0.0000
# 2 43.8664 100.2142 94.9899 0.0000 0.0000 0.0000
# 3 56.4115 94.9899 175.1584 0.0000 0.0000 0.0000
# 4 0.0000 0.0000 0.0000 -16.1308 0.0000 0.0000
# 5 0.0000 0.0000 0.0000 0.0000 25.7241 0.0000
# 6 0.0000 0.0000 0.0000 0.0000 0.0000 14.3133
#
#
#
# Elastic Compliance Matrix: (Units=1/GPa)
#
#
# Indices 1 2 3 4 5 6 
#
# 1 0.016358 -0.004458 -0.002850 0.000000 0.000000 0.000000
# 2 -0.004458 0.021749 -0.010359 0.000000 0.000000 0.000000
# 3 -0.002850 -0.010359 0.012245 0.000000 0.000000 0.000000
# 4 0.000000 0.000000 0.000000 -0.061993 0.000000 0.000000
# 5 0.000000 0.000000 0.000000 0.000000 0.038874 0.000000
# 6 0.000000 0.000000 0.000000 0.000000 0.000000 0.069865
#
#
# Mechanical properties :
#
#
# Convention : Reuss Voigt Hill
#
# Bulk Modulus (GPa) = 66.59432 83.20308 74.89870
# Shear Modulus (GPa) = 36.38022 15.64963 26.01492
#
# Velocity S-wave (km/s) = 4.38819 2.87809 3.71077
# Velocity P-wave (km/s) = 7.80536 7.42188 7.61603
#
# Compressibility (1/GPa) = 0.01501630
#
# Stress axis : x y z
#
# Youngs Moduli (GPa) = 61.13363 45.97925 81.66800
#
# Poissons Ratio (x) = 0.20500 0.23277
# Poissons Ratio (y) = 0.27256 0.84598
# Poissons Ratio (z) = 0.17425 0.47629
#
# Static dielectric constant tensor:
#      x y z
#    x 1.684030 0.000000 0.000000 
#    y 0.000000 1.641430 0.000000 
#    z 0.000000 0.000000 1.646380 
# 
# From -- ./inp_files/37112.got.cif
#   From: 2010.05.17/outbox.cif.g08.bks.cpg/sg51_19_cif.got.tgz:37112.got - 2010.06.03 11:52:47.
