data_PCOD9405740
_publ_section_title
;
Structure prediction by ZEFSAII (Michael W. Deem and Ramdas Pophale) SiO2 
 PCOD9405740
Probable space group: P M M A
;
_chemical_formula_sum "Si O2"
_cell_formula_units_Z 56
_cell_length_a 15.912347
_cell_length_b 9.513929
_cell_length_c 19.919521
_cell_angle_alpha 90.000000
_cell_angle_beta 90.000000
_cell_angle_gamma 90.000000
_cell_volume 3015.595161
_symmetry_space_group_name_H-M "P M M A"
_symmetry_group_IT_number 51
_symmetry_cell_setting 'orthorhombic'
loop_
_space_group_symop_operation_xyz
x,y,z
1/2-x,-y,z
1/2+x,-y,-z
-x,y,-z
-x,-y,-z
1/2+x,y,-z
1/2-x,y,z
x,-y,z
loop_
_atom_site_type_symbol
_atom_site_label
_atom_site_fract_x
_atom_site_fract_y
_atom_site_fract_z
Si Si1 0.648276 0.337853 0.076259
Si Si2 0.654652 0.169092 0.654382
Si Si3 0.850758 0.334064 0.926238
Si Si4 0.396427 0.837994 0.793853
Si Si5 0.656617 0.666961 0.334450
Si Si6 0.094375 0.838651 0.201091
Si Si7 0.992567 0.668150 0.578845
O O1 0.750000 0.338964 0.076170
O O2 0.620872 0.500000 0.087252
O O3 0.618919 0.237796 0.135412
O O4 0.621119 0.292377 0.001410
O O5 0.750000 0.199694 0.632549
O O6 0.643814 0.209800 0.732788
O O7 0.584275 0.248601 0.611972
O O8 0.641604 0.000000 0.651013
O O9 0.750000 0.314473 0.922858
O O10 0.867571 0.500000 0.919827
O O11 0.890666 0.251463 0.865030
O O12 0.352915 0.752523 0.734288
O O13 0.496164 0.835554 0.780603
O O14 0.368501 0.000000 0.795794
O O15 0.750000 0.692367 0.363155
O O16 0.650187 0.500000 0.319924
O O17 0.579956 0.703837 0.383616
O O18 0.118840 0.000000 0.187070
O O19 0.979221 0.500000 0.586486
O O20 0.000000 0.699040 0.500000
#
# Coordination Sequence:
#
# PCOD9405740 Si02
#       7
#     8   8   8   8   8   8   8
#     4   9  19  36  54  74 106 146 186 233 290 346
#     4  10  21  39  62  87 119 160 200 237 286 346
#     4   9  19  35  54  77 105 141 189 239 285 340
#     4  11  22  35  54  81 111 145 190 241 286 336
#     4  10  21  38  60  85 116 155 194 233 284 344
#     4  10  21  36  54  78 112 150 188 236 290 340
#     4  10  22  40  63  92 123 154 190 236 288 342
#
# _framework density 18.570132999999998
#
# number of rings (size 3 to 8) (size 9 to 14) (size 15 to 20)
#    0.000    2.143    1.429    2.143    0.000    7.143 
#    0.000    5.714    0.000    0.000    0.000    0.000 
#    0.000    0.000    0.000    0.000    0.000    0.000 
#
# Total GULP energy -312618.532818 kJ/mol
# GULP energy per Si atom -5582.473800 kJ/mol
# Density = 1.852787 g / cm^3
# Si number density = 18.570133 Si / 1000 Ang^3
#
#
#
# Elastic Constant Matrix: (Units=GPa)
#
#
# Indices 1 2 3 4 5 6 
#
# 1 106.7401 50.2750 65.6514 0.0000 0.0000 0.0000
# 2 50.2750 36.9093 48.5003 0.0000 0.0000 0.0000
# 3 65.6514 48.5003 121.3006 0.0000 0.0000 0.0000
# 4 0.0000 0.0000 0.0000 7.6714 0.0000 0.0000
# 5 0.0000 0.0000 0.0000 0.0000 -1.1056 0.0000
# 6 0.0000 0.0000 0.0000 0.0000 0.0000 -4.3892
#
#
#
# Elastic Compliance Matrix: (Units=1/GPa)
#
#
# Indices 1 2 3 4 5 6 
#
# 1 0.026139 -0.035851 0.000187 0.000000 0.000000 0.000000
# 2 -0.035851 0.106257 -0.023082 0.000000 0.000000 0.000000
# 3 0.000187 -0.023082 0.017372 0.000000 0.000000 0.000000
# 4 0.000000 0.000000 0.000000 0.130355 0.000000 0.000000
# 5 0.000000 0.000000 0.000000 0.000000 -0.904457 0.000000
# 6 0.000000 0.000000 0.000000 0.000000 0.000000 -0.227834
#
#
# Mechanical properties :
#
#
# Convention : Reuss Voigt Hill
#
# Bulk Modulus (GPa) = 30.98187 65.97815 48.48001
# Shear Modulus (GPa) = -6.90687 7.13687 0.11500
#
# Velocity S-wave (km/s) = -1.93065 1.96253 0.24912
# Velocity P-wave (km/s) = 3.42783 6.38292 5.12307
#
# Compressibility (1/GPa) = 0.03227694
#
# Stress axis : x y z
#
# Youngs Moduli (GPa) = 38.25641 9.41112 57.56491
#
# Poissons Ratio (x) = 0.33740 -0.01077
# Poissons Ratio (y) = 1.37153 1.32871
# Poissons Ratio (z) = -0.00716 0.21723
#
# Static dielectric constant tensor:
#      x y z
#    x 1.662270 0.000000 0.000000 
#    y 0.000000 1.622320 0.000000 
#    z 0.000000 0.000000 1.614420 
# 
# From -- ./inp_files/33466.got.cif
#   From: 2010.05.17/outbox.cif.g08.bks.cpg/sg51_17_cif.got.tgz:33466.got - 2010.06.03 11:52:47.
