data_PCOD9405722
_publ_section_title
;
Structure prediction by ZEFSAII (Michael W. Deem and Ramdas Pophale) SiO2 
 PCOD9405722
Probable space group: P M M A
;
_chemical_formula_sum "Si O2"
_cell_formula_units_Z 48
_cell_length_a 9.610422
_cell_length_b 7.756279
_cell_length_c 31.935236
_cell_angle_alpha 90.000000
_cell_angle_beta 90.000000
_cell_angle_gamma 90.000000
_cell_volume 2380.488078
_symmetry_space_group_name_H-M "P M M A"
_symmetry_group_IT_number 51
_symmetry_cell_setting 'orthorhombic'
loop_
_space_group_symop_operation_xyz
x,y,z
1/2-x,-y,z
1/2+x,-y,-z
-x,y,-z
-x,-y,-z
1/2+x,y,-z
1/2-x,y,z
x,-y,z
loop_
_atom_site_type_symbol
_atom_site_label
_atom_site_fract_x
_atom_site_fract_y
_atom_site_fract_z
Si Si1 0.089586 0.211068 0.540362
Si Si2 0.090400 0.793057 0.380948
Si Si3 0.407218 0.294857 0.038075
Si Si4 0.091490 0.707705 0.287778
Si Si5 0.408435 0.707809 0.789418
Si Si6 0.590840 0.204966 0.117131
O O1 0.250000 0.267230 0.538350
O O2 0.000000 0.263735 0.500000
O O3 0.010403 0.269236 0.582348
O O4 0.091201 0.000000 0.540554
O O5 0.250000 0.727549 0.385141
O O6 0.039181 0.751937 0.334197
O O7 0.097038 0.000000 0.384707
O O8 0.250000 0.224352 0.039074
O O9 0.395574 0.500000 0.031206
O O10 0.489091 0.270442 0.081307
O O11 0.500000 0.222828 0.000000
O O12 0.250000 0.772494 0.284875
O O13 0.095339 0.500000 0.285061
O O14 0.000426 0.772312 0.249088
O O15 0.250000 0.772243 0.786049
O O16 0.405089 0.500000 0.786835
O O17 0.459020 0.752647 0.835949
O O18 0.750000 0.273612 0.112554
O O19 0.597497 0.000000 0.113150
#
# Coordination Sequence:
#
# PCOD9405722 Si02
#       6
#     8   8   8   8   8   8
#     4   9  16  26  42  65  92 121 153 190 232 278
#     4   9  17  29  45  66  92 121 153 191 236 283
#     4  10  21  37  58  82 106 136 175 215 254 299
#     4   9  18  32  49  69  94 125 160 198 241 289
#     4   9  18  33  52  72  96 129 167 205 245 291
#     4  10  21  36  54  78 108 140 172 209 256 305
#
# _framework density 20.163933
#
# number of rings (size 3 to 8) (size 9 to 14) (size 15 to 20)
#    0.000    2.667    0.000    1.500    0.000    6.333 
#    0.000    1.667    0.000    0.500    0.000    0.000 
#    0.000    0.000    0.000    0.000    0.000    0.000 
#
# Total GULP energy -267866.059559 kJ/mol
# GULP energy per Si atom -5580.542907 kJ/mol
# Density = 2.011804 g / cm^3
# Si number density = 20.163933 Si / 1000 Ang^3
#
#
#
# Elastic Constant Matrix: (Units=GPa)
#
#
# Indices 1 2 3 4 5 6 
#
# 1 135.6019 6.0549 130.1738 0.0000 0.0000 0.0000
# 2 6.0549 27.3630 -3.0539 0.0000 0.0000 0.0000
# 3 130.1738 -3.0539 217.1727 0.0000 0.0000 0.0000
# 4 0.0000 0.0000 0.0000 21.2055 0.0000 0.0000
# 5 0.0000 0.0000 0.0000 0.0000 36.5326 0.0000
# 6 0.0000 0.0000 0.0000 0.0000 0.0000 -8.0210
#
#
#
# Elastic Compliance Matrix: (Units=1/GPa)
#
#
# Indices 1 2 3 4 5 6 
#
# 1 0.018083 -0.005219 -0.010913 0.000000 0.000000 0.000000
# 2 -0.005219 0.038110 0.003664 0.000000 0.000000 0.000000
# 3 -0.010913 0.003664 0.011197 0.000000 0.000000 0.000000
# 4 0.000000 0.000000 0.000000 0.047158 0.000000 0.000000
# 5 0.000000 0.000000 0.000000 0.000000 0.027373 0.000000
# 6 0.000000 0.000000 0.000000 0.000000 0.000000 -0.124672
#
#
# Mechanical properties :
#
#
# Convention : Reuss Voigt Hill
#
# Bulk Modulus (GPa) = 23.55439 71.83193 47.69316
# Shear Modulus (GPa) = 88.75498 26.40760 57.58129
#
# Velocity S-wave (km/s) = 6.64171 3.62283 5.34963
# Velocity P-wave (km/s) = 8.39781 7.29391 7.86525
#
# Compressibility (1/GPa) = 0.04245494
#
# Stress axis : x y z
#
# Youngs Moduli (GPa) = 55.29943 26.24013 89.30804
#
# Poissons Ratio (x) = 0.13696 0.97458
# Poissons Ratio (y) = 0.28863 -0.32726
# Poissons Ratio (z) = 0.60346 -0.09616
#
# Static dielectric constant tensor:
#      x y z
#    x 1.710720 0.000000 0.000000 
#    y 0.000000 1.743220 0.000000 
#    z 0.000000 0.000000 1.685280 
# 
# From -- ./inp_files/36960.got.cif
#   From: 2010.05.17/outbox.cif.g08.bks.cpg/sg51_19_cif.got.tgz:36960.got - 2010.06.03 11:52:47.
