data_PCOD9405906
_publ_section_title
;
Structure prediction by ZEFSAII (Michael W. Deem and Ramdas Pophale) SiO2 
 PCOD9405906
Probable space group: P M M A
;
_chemical_formula_sum "Si O2"
_cell_formula_units_Z 64
_cell_length_a 14.641132
_cell_length_b 8.966442
_cell_length_c 27.191898
_cell_angle_alpha 90.000000
_cell_angle_beta 90.000000
_cell_angle_gamma 90.000000
_cell_volume 3569.721395
_symmetry_space_group_name_H-M "P M M A"
_symmetry_group_IT_number 51
_symmetry_cell_setting 'orthorhombic'
loop_
_space_group_symop_operation_xyz
x,y,z
1/2-x,-y,z
1/2+x,-y,-z
-x,y,-z
-x,-y,-z
1/2+x,y,-z
1/2-x,y,z
x,-y,z
loop_
_atom_site_type_symbol
_atom_site_label
_atom_site_fract_x
_atom_site_fract_y
_atom_site_fract_z
Si Si1 0.994559 0.178675 0.788362
Si Si2 0.355285 0.179514 0.868791
Si Si3 0.858922 0.177739 0.608626
Si Si4 0.139035 0.172365 0.500587
Si Si5 0.506597 0.320498 0.056503
Si Si6 0.856174 0.679594 0.863506
Si Si7 0.355121 0.679014 0.601213
Si Si8 0.997652 0.678631 0.681249
O O1 0.908102 0.243274 0.818231
O O2 0.000491 0.247660 0.734503
O O3 0.083886 0.218402 0.820992
O O4 0.988159 0.000000 0.785672
O O5 0.250000 0.227421 0.865103
O O6 0.408099 0.249855 0.914914
O O7 0.357083 0.000000 0.873302
O O8 0.750000 0.196739 0.612355
O O9 0.888706 0.226797 0.553589
O O10 0.910162 0.266546 0.650721
O O11 0.877621 0.000000 0.612498
O O12 0.250000 0.176176 0.499886
O O13 0.110205 0.260236 0.548889
O O14 0.111657 0.000000 0.505492
O O15 0.516064 0.500000 0.057274
O O16 0.415818 0.282824 0.088025
O O17 0.500000 0.271988 0.000000
O O18 0.750000 0.722156 0.867414
O O19 0.860513 0.500000 0.857306
O O20 0.250000 0.728306 0.607613
O O21 0.356108 0.500000 0.599102
O O22 0.417224 0.725753 0.646830
O O23 0.997905 0.500000 0.685963
#
# Coordination Sequence:
#
# PCOD9405906 Si02
#       8
#     8   8   8   8   8   8   8   8
#     4  10  21  37  55  74  99 131 170 218 265 307
#     4   9  19  36  56  78 105 139 179 219 260 307
#     4   9  19  36  55  75 101 132 166 205 250 302
#     4   8  15  30  52  75  98 127 164 204 246 296
#     4   9  18  32  52  82 117 147 177 214 253 297
#     4   9  18  34  55  77 104 140 178 214 254 300
#     4   9  19  35  52  72 101 134 165 200 246 302
#     4  11  23  36  52  76 103 131 167 210 257 309
#
# _framework density 17.928570000000001
#
# number of rings (size 3 to 8) (size 9 to 14) (size 15 to 20)
#    0.000    2.750    0.000    1.500    0.000    5.000 
#    0.000    5.000    0.000    0.000    0.000    0.000 
#    0.000    0.000    0.000    0.000    0.000    0.000 
#
# Total GULP energy -356977.458152 kJ/mol
# GULP energy per Si atom -5577.772784 kJ/mol
# Density = 1.788776 g / cm^3
# Si number density = 17.928570 Si / 1000 Ang^3
#
#
#
# Elastic Constant Matrix: (Units=GPa)
#
#
# Indices 1 2 3 4 5 6 
#
# 1 127.6470 37.5107 76.0862 0.0000 0.0000 0.0000
# 2 37.5107 24.8486 50.9688 0.0000 0.0000 0.0000
# 3 76.0862 50.9688 188.6571 0.0000 0.0000 0.0000
# 4 0.0000 0.0000 0.0000 24.6226 0.0000 0.0000
# 5 0.0000 0.0000 0.0000 0.0000 12.1343 0.0000
# 6 0.0000 0.0000 0.0000 0.0000 0.0000 20.8908
#
#
#
# Elastic Compliance Matrix: (Units=1/GPa)
#
#
# Indices 1 2 3 4 5 6 
#
# 1 0.014082 -0.021551 0.000143 0.000000 0.000000 0.000000
# 2 -0.021551 0.123247 -0.024605 0.000000 0.000000 0.000000
# 3 0.000143 -0.024605 0.011890 0.000000 0.000000 0.000000
# 4 0.000000 0.000000 0.000000 0.040613 0.000000 0.000000
# 5 0.000000 0.000000 0.000000 0.000000 0.082411 0.000000
# 6 0.000000 0.000000 0.000000 0.000000 0.000000 0.047868
#
#
# Mechanical properties :
#
#
# Convention : Reuss Voigt Hill
#
# Bulk Modulus (GPa) = 17.48491 74.47601 45.98046
# Shear Modulus (GPa) = 11.59548 23.30199 17.44873
#
# Velocity S-wave (km/s) = 2.54591 3.60906 3.12306
# Velocity P-wave (km/s) = 4.29137 7.68100 6.22148
#
# Compressibility (1/GPa) = 0.05719216
#
# Stress axis : x y z
#
# Youngs Moduli (GPa) = 71.01320 8.11380 84.10094
#
# Poissons Ratio (x) = 0.17486 -0.01204
# Poissons Ratio (y) = 1.53042 2.06934
# Poissons Ratio (z) = -0.01016 0.19964
#
# Static dielectric constant tensor:
#      x y z
#    x 1.629280 0.000000 0.000000 
#    y 0.000000 1.605690 0.000000 
#    z 0.000000 0.000000 1.589020 
# 
# From -- ./inp_files/35634.got.cif
#   From: 2010.05.17/outbox.cif.g08.bks.cpg/sg51_18_cif.got.tgz:35634.got - 2010.06.03 11:52:47.
