data_PCOD9405850
_publ_section_title
;
Structure prediction by ZEFSAII (Michael W. Deem and Ramdas Pophale) SiO2 
 PCOD9405850
Probable space group: P M M A
;
_chemical_formula_sum "Si O2"
_cell_formula_units_Z 56
_cell_length_a 9.632919
_cell_length_b 14.146107
_cell_length_c 22.900663
_cell_angle_alpha 90.000000
_cell_angle_beta 90.000000
_cell_angle_gamma 90.000000
_cell_volume 3120.634482
_symmetry_space_group_name_H-M "P M M A"
_symmetry_group_IT_number 51
_symmetry_cell_setting 'orthorhombic'
loop_
_space_group_symop_operation_xyz
x,y,z
1/2-x,-y,z
1/2+x,-y,-z
-x,y,-z
-x,-y,-z
1/2+x,y,-z
1/2-x,y,z
x,-y,z
loop_
_atom_site_type_symbol
_atom_site_label
_atom_site_fract_x
_atom_site_fract_y
_atom_site_fract_z
Si Si1 0.587154 0.388129 0.875226
Si Si2 0.750000 0.614220 0.434522
Si Si3 0.750000 0.387999 0.572291
Si Si4 0.084955 0.111571 0.440764
Si Si5 0.497211 0.715713 0.631129
Si Si6 0.911660 0.724939 0.757448
Si Si7 0.918795 0.770727 0.060537
Si Si8 0.912607 0.888797 0.847118
O O1 0.750000 0.366732 0.890580
O O2 0.567219 0.500000 0.880251
O O3 0.568624 0.352071 0.808648
O O4 0.480093 0.328086 0.913968
O O5 0.750000 0.500000 0.428117
O O6 0.750000 0.635615 0.503561
O O7 0.625215 0.664949 0.402306
O O8 0.750000 0.500000 0.576266
O O9 0.623231 0.343974 0.605933
O O10 0.250000 0.130691 0.447893
O O11 0.000000 0.132673 0.500000
O O12 0.023049 0.177361 0.390380
O O13 0.069416 0.000000 0.428529
O O14 0.494685 0.711488 0.700919
O O15 0.750000 0.720602 0.738662
O O16 0.932975 0.825492 0.789376
O O17 0.750000 0.771548 0.056114
O O18 0.979732 0.848823 0.105405
O O19 0.000000 0.786559 0.000000
O O20 0.750000 0.872354 0.865365
O O21 0.929758 0.000000 0.837595
#
# Coordination Sequence:
#
# PCOD9405850 Si02
#       8
#     8   4   4   8   8   8   8   8
#     4   9  19  37  60  84 115 154 197 247 296 342
#     4  11  26  42  55  81 119 155 195 246 304 364
#     4  11  22  38  61  83 109 149 201 248 300 364
#     4  10  21  36  57  85 113 144 184 231 289 358
#     4  12  22  38  60  85 115 154 194 247 303 358
#     4   9  18  36  58  87 114 144 195 243 289 349
#     4  11  22  37  59  88 125 161 199 242 284 341
#     4   9  19  38  64  88 117 155 194 242 294 341
#
# _framework density 17.945067999999999
#
# number of rings (size 3 to 8) (size 9 to 14) (size 15 to 20)
#    0.000    1.857    1.429    3.857    1.000    4.000 
#    5.143    1.429    0.000    0.000    0.000    0.000 
#    0.000    0.000    0.000    0.000    0.000    0.000 
#
# Total GULP energy -312319.910872 kJ/mol
# GULP energy per Si atom -5577.141266 kJ/mol
# Density = 1.790422 g / cm^3
# Si number density = 17.945068 Si / 1000 Ang^3
#
#
#
# Elastic Constant Matrix: (Units=GPa)
#
#
# Indices 1 2 3 4 5 6 
#
# 1 110.6002 33.2604 39.0100 0.0000 0.0000 0.0000
# 2 33.2604 80.8795 22.1936 0.0000 0.0000 0.0000
# 3 39.0100 22.1936 85.7805 0.0000 0.0000 0.0000
# 4 0.0000 0.0000 0.0000 0.9712 0.0000 0.0000
# 5 0.0000 0.0000 0.0000 0.0000 -23.0456 0.0000
# 6 0.0000 0.0000 0.0000 0.0000 0.0000 29.0308
#
#
#
# Elastic Compliance Matrix: (Units=1/GPa)
#
#
# Indices 1 2 3 4 5 6 
#
# 1 0.011666 -0.003597 -0.004375 0.000000 0.000000 0.000000
# 2 -0.003597 0.014418 -0.002094 0.000000 0.000000 0.000000
# 3 -0.004375 -0.002094 0.014189 0.000000 0.000000 0.000000
# 4 0.000000 0.000000 0.000000 1.029706 0.000000 0.000000
# 5 0.000000 0.000000 0.000000 0.000000 -0.043392 0.000000
# 6 0.000000 0.000000 0.000000 0.000000 0.000000 0.034446
#
#
# Mechanical properties :
#
#
# Convention : Reuss Voigt Hill
#
# Bulk Modulus (GPa) = 49.65073 51.79870 50.72472
# Shear Modulus (GPa) = 4.59609 13.57768 9.08689
#
# Velocity S-wave (km/s) = 1.60211 2.75367 2.25271
# Velocity P-wave (km/s) = 5.58127 6.24804 5.92405
#
# Compressibility (1/GPa) = 0.02014069
#
# Stress axis : x y z
#
# Youngs Moduli (GPa) = 85.71642 69.35740 70.47683
#
# Poissons Ratio (x) = 0.24949 0.30832
# Poissons Ratio (y) = 0.30834 0.14761
# Poissons Ratio (z) = 0.37499 0.14527
#
# Static dielectric constant tensor:
#      x y z
#    x 1.579570 0.000000 0.000000 
#    y 0.000000 1.621290 0.000000 
#    z 0.000000 0.000000 1.596840 
# 
# From -- ./inp_files/32103.got.cif
#   From: 2010.05.17/outbox.cif.g08.bks.cpg/sg51_17_cif.got.tgz:32103.got - 2010.06.03 11:52:47.
