data_PCOD9405936
_publ_section_title
;
Structure prediction by ZEFSAII (Michael W. Deem and Ramdas Pophale) SiO2 
 PCOD9405936
Probable space group: P M M A
;
_chemical_formula_sum "Si O2"
_cell_formula_units_Z 64
_cell_length_a 14.484462
_cell_length_b 19.889337
_cell_length_c 11.948783
_cell_angle_alpha 90.000000
_cell_angle_beta 90.000000
_cell_angle_gamma 90.000000
_cell_volume 3442.281233
_symmetry_space_group_name_H-M "P M M A"
_symmetry_group_IT_number 51
_symmetry_cell_setting 'orthorhombic'
loop_
_space_group_symop_operation_xyz
x,y,z
1/2-x,-y,z
1/2+x,-y,-z
-x,y,-z
-x,-y,-z
1/2+x,y,-z
1/2-x,y,z
x,-y,z
loop_
_atom_site_type_symbol
_atom_site_label
_atom_site_fract_x
_atom_site_fract_y
_atom_site_fract_z
Si Si1 0.138841 0.700715 0.026139
Si Si2 0.860631 0.921647 0.713852
Si Si3 0.355401 0.666944 0.766062
Si Si4 0.003190 0.420548 0.627780
Si Si5 0.471055 0.832525 0.113254
Si Si6 0.356684 0.816079 0.727736
Si Si7 0.862125 0.075823 0.459997
Si Si8 0.639850 0.575946 0.814453
O O1 0.250000 0.713516 0.034837
O O2 0.082211 0.764427 0.074000
O O3 0.115045 0.634815 0.099144
O O4 0.120335 0.683832 0.895589
O O5 0.750000 0.913110 0.716765
O O6 0.907025 0.873984 0.803659
O O7 0.892871 0.908094 0.586242
O O8 0.880523 0.000000 0.736649
O O9 0.250000 0.642129 0.767299
O O10 0.422221 0.616017 0.704897
O O11 0.358098 0.737326 0.698540
O O12 0.023772 0.500000 0.623334
O O13 0.000000 0.395528 0.500000
O O14 0.907689 0.411724 0.694989
O O15 0.567443 0.822044 0.176618
O O16 0.500000 0.870085 0.000000
O O17 0.250000 0.830810 0.762723
O O18 0.383522 0.867002 0.629309
O O19 0.750000 0.073127 0.464345
O O20 0.893515 0.000000 0.429691
O O21 0.750000 0.576946 0.803618
O O22 0.612533 0.500000 0.851281
#
# Coordination Sequence:
#
# PCOD9405936 Si02
#       8
#     8   8   8   8   8   8   8   8
#     4  10  21  39  62  85 114 148 191 244 293 339
#     4   9  20  40  63  87 115 147 191 246 296 347
#     4  10  21  39  60  82 115 154 193 241 292 344
#     4  10  22  39  58  84 118 154 193 238 286 346
#     4  12  23  35  58  84 116 157 195 228 284 354
#     4  10  21  37  55  82 118 152 189 238 291 344
#     4   8  16  36  63  85 110 145 188 242 297 342
#     4   9  19  36  59  86 114 147 189 239 292 342
#
# _framework density 18.592320999999998
#
# number of rings (size 3 to 8) (size 9 to 14) (size 15 to 20)
#    0.000    2.250    1.250    1.875    0.000    3.000 
#    4.500    5.000    0.000    1.500    0.000    0.000 
#    0.000    0.000    0.000    0.000    0.000    0.000 
#
# Total GULP energy -356929.843885 kJ/mol
# GULP energy per Si atom -5577.028811 kJ/mol
# Density = 1.855000 g / cm^3
# Si number density = 18.592321 Si / 1000 Ang^3
#
#
#
# Elastic Constant Matrix: (Units=GPa)
#
#
# Indices 1 2 3 4 5 6 
#
# 1 72.1754 42.8561 47.8855 0.0000 0.0000 0.0000
# 2 42.8561 80.4382 83.1368 0.0000 0.0000 0.0000
# 3 47.8855 83.1368 134.4013 0.0000 0.0000 0.0000
# 4 0.0000 0.0000 0.0000 34.8190 0.0000 0.0000
# 5 0.0000 0.0000 0.0000 0.0000 29.6014 0.0000
# 6 0.0000 0.0000 0.0000 0.0000 0.0000 25.2031
#
#
#
# Elastic Compliance Matrix: (Units=1/GPa)
#
#
# Indices 1 2 3 4 5 6 
#
# 1 0.020376 -0.009296 -0.001510 0.000000 0.000000 0.000000
# 2 -0.009296 0.038709 -0.020632 0.000000 0.000000 0.000000
# 3 -0.001510 -0.020632 0.020741 0.000000 0.000000 0.000000
# 4 0.000000 0.000000 0.000000 0.028720 0.000000 0.000000
# 5 0.000000 0.000000 0.000000 0.000000 0.033782 0.000000
# 6 0.000000 0.000000 0.000000 0.000000 0.000000 0.039678
#
#
# Mechanical properties :
#
#
# Convention : Reuss Voigt Hill
#
# Bulk Modulus (GPa) = 58.99502 70.53019 64.76261
# Shear Modulus (GPa) = 19.95752 25.46714 22.71233
#
# Velocity S-wave (km/s) = 3.27988 3.70505 3.49893
# Velocity P-wave (km/s) = 6.79288 7.50471 7.15765
#
# Compressibility (1/GPa) = 0.01695058
#
# Stress axis : x y z
#
# Youngs Moduli (GPa) = 49.07629 25.83376 48.21399
#
# Poissons Ratio (x) = 0.24015 0.07279
# Poissons Ratio (y) = 0.45620 0.99477
# Poissons Ratio (z) = 0.07409 0.53301
#
# Static dielectric constant tensor:
#      x y z
#    x 1.680220 0.000000 0.000000 
#    y 0.000000 1.638790 0.000000 
#    z 0.000000 0.000000 1.628070 
# 
# From -- ./inp_files/16814.got.cif
#   From: 2010.05.17/outbox.cif.g08.bks.cpg/sg51_9_cif.got.tgz:16814.got - 2010.06.03 11:52:47.
