data_PCOD9405241
_publ_section_title
;
Structure prediction by ZEFSAII (Michael W. Deem and Ramdas Pophale) SiO2 
 PCOD9405241
Probable space group: P M M A
;
_chemical_formula_sum "Si O2"
_cell_formula_units_Z 48
_cell_length_a 35.303119
_cell_length_b 7.791531
_cell_length_c 9.124497
_cell_angle_alpha 90.000000
_cell_angle_beta 90.000000
_cell_angle_gamma 90.000000
_cell_volume 2509.832925
_symmetry_space_group_name_H-M "P M M A"
_symmetry_group_IT_number 51
_symmetry_cell_setting 'orthorhombic'
loop_
_space_group_symop_operation_xyz
x,y,z
1/2-x,-y,z
1/2+x,-y,-z
-x,y,-z
-x,-y,-z
1/2+x,y,-z
1/2-x,y,z
x,-y,z
loop_
_atom_site_type_symbol
_atom_site_label
_atom_site_fract_x
_atom_site_fract_y
_atom_site_fract_z
Si Si1 0.540831 0.500000 0.573367
Si Si2 0.750000 0.208017 0.915038
Si Si3 0.824116 0.792598 0.093167
Si Si4 0.750000 0.296420 0.575275
Si Si5 0.826968 0.701066 0.430404
Si Si6 0.096208 0.808051 0.422425
Si Si7 0.540690 0.500000 0.925804
Si Si8 0.598589 0.201162 0.926024
O O1 0.500000 0.500000 0.500000
O O2 0.565835 0.334173 0.532412
O O3 0.536398 0.500000 0.749554
O O4 0.750000 0.269372 0.748490
O O5 0.750000 0.000000 0.912097
O O6 0.712377 0.264699 0.000771
O O7 0.823751 0.720237 0.256368
O O8 0.822450 0.000000 0.103714
O O9 0.862962 0.750109 0.009633
O O10 0.750000 0.500000 0.542887
O O11 0.711288 0.227349 0.504536
O O12 0.830465 0.500000 0.469319
O O13 0.864792 0.788852 0.489957
O O14 0.104719 0.783030 0.249252
O O15 0.081002 0.000000 0.441762
O O16 0.565121 0.331381 0.966296
O O17 0.500000 0.500000 0.000000
O O18 0.590108 0.000000 0.956527
#
# Coordination Sequence:
#
# PCOD9405241 Si02
#       8
#     4   4   8   4   8   8   4   8
#     4  10  22  40  60  89 122 149 192 238 281 356
#     4  10  21  38  58  80 112 152 201 245 285 344
#     4  10  21  36  55  84 115 149 192 241 292 342
#     4  10  23  38  54  80 116 154 199 243 289 344
#     4  11  22  36  55  84 119 154 195 245 292 345
#     4  10  20  39  63  86 116 156 195 240 291 343
#     4  10  22  38  60  87 114 151 188 228 289 342
#     4   9  20  38  60  85 115 150 193 236 282 344
#
# _framework density 19.124777999999999
#
# number of rings (size 3 to 8) (size 9 to 14) (size 15 to 20)
#    0.000    2.000    0.833    2.000    1.167    5.333 
#    0.000    0.000    0.000    0.000    0.000    0.000 
#    0.000    0.000    0.000    0.000    0.000    0.000 
#
# Total GULP energy -268171.738072 kJ/mol
# GULP energy per Si atom -5586.911210 kJ/mol
# Density = 1.908125 g / cm^3
# Si number density = 19.124778 Si / 1000 Ang^3
#
#
#
# Elastic Constant Matrix: (Units=GPa)
#
#
# Indices 1 2 3 4 5 6 
#
# 1 180.6707 65.3348 68.8190 0.0000 0.0000 0.0000
# 2 65.3348 76.2716 34.0270 0.0000 0.0000 0.0000
# 3 68.8190 34.0270 68.3567 0.0000 0.0000 0.0000
# 4 0.0000 0.0000 0.0000 25.2939 0.0000 0.0000
# 5 0.0000 0.0000 0.0000 0.0000 42.8488 0.0000
# 6 0.0000 0.0000 0.0000 0.0000 0.0000 13.6920
#
#
#
# Elastic Compliance Matrix: (Units=1/GPa)
#
#
# Indices 1 2 3 4 5 6 
#
# 1 0.010514 -0.005507 -0.007844 0.000000 0.000000 0.000000
# 2 -0.005507 0.019738 -0.004281 0.000000 0.000000 0.000000
# 3 -0.007844 -0.004281 0.024657 0.000000 0.000000 0.000000
# 4 0.000000 0.000000 0.000000 0.039535 0.000000 0.000000
# 5 0.000000 0.000000 0.000000 0.000000 0.023338 0.000000
# 6 0.000000 0.000000 0.000000 0.000000 0.000000 0.073035
#
#
# Mechanical properties :
#
#
# Convention : Reuss Voigt Hill
#
# Bulk Modulus (GPa) = 50.90239 73.51785 62.21012
# Shear Modulus (GPa) = 21.49321 26.84147 24.16734
#
# Velocity S-wave (km/s) = 3.35601 3.75039 3.55867
# Velocity P-wave (km/s) = 6.45684 7.56825 7.03453
#
# Compressibility (1/GPa) = 0.01964544
#
# Stress axis : x y z
#
# Youngs Moduli (GPa) = 95.10836 50.66251 40.55590
#
# Poissons Ratio (x) = 0.27901 0.31812
# Poissons Ratio (y) = 0.52378 0.17362
# Poissons Ratio (z) = 0.74603 0.21689
#
# Static dielectric constant tensor:
#      x y z
#    x 1.623190 0.000000 0.000000 
#    y 0.000000 1.692800 0.000000 
#    z 0.000000 0.000000 1.629300 
# 
# From -- ./inp_files/13008.got.cif
#   From: 2010.05.17/outbox.cif.g08.bks.cpg/sg51_7_cif.got.tgz:13008.got - 2010.06.03 11:52:47.
