data_PCOD9405037
_publ_section_title
;
Structure prediction by ZEFSAII (Michael W. Deem and Ramdas Pophale) SiO2 
 PCOD9405037
Probable space group: P M M A
;
_chemical_formula_sum "Si O2"
_cell_formula_units_Z 44
_cell_length_a 8.369590
_cell_length_b 29.431728
_cell_length_c 9.679253
_cell_angle_alpha 90.000000
_cell_angle_beta 90.000000
_cell_angle_gamma 90.000000
_cell_volume 2384.304875
_symmetry_space_group_name_H-M "P M M A"
_symmetry_group_IT_number 51
_symmetry_cell_setting 'orthorhombic'
loop_
_space_group_symop_operation_xyz
x,y,z
1/2-x,-y,z
1/2+x,-y,-z
-x,y,-z
-x,-y,-z
1/2+x,y,-z
1/2-x,y,z
x,-y,z
loop_
_atom_site_type_symbol
_atom_site_label
_atom_site_fract_x
_atom_site_fract_y
_atom_site_fract_z
Si Si1 0.943007 0.048747 0.659111
Si Si2 0.441284 0.580801 0.346211
Si Si3 0.943319 0.767035 0.843246
Si Si4 0.943375 0.148259 0.658293
Si Si5 0.557073 0.315704 0.653911
Si Si6 0.560758 0.500000 0.155888
O O1 0.750000 0.048648 0.661848
O O2 0.995746 0.098210 0.712344
O O3 0.000000 0.048516 0.500000
O O4 0.997224 0.000000 0.720445
O O5 0.500000 0.568776 0.500000
O O6 0.250000 0.580428 0.346257
O O7 0.496453 0.632571 0.316905
O O8 0.501367 0.544400 0.237139
O O9 0.750000 0.767163 0.842263
O O10 0.998386 0.810738 0.755138
O O11 0.997791 0.721376 0.764493
O O12 0.000000 0.768620 0.000000
O O13 0.750000 0.148858 0.656133
O O14 0.000000 0.153855 0.500000
O O15 0.500000 0.303458 0.500000
O O16 0.750000 0.315654 0.653360
O O17 0.250000 0.500000 0.843841
O O18 0.500000 0.500000 0.000000
#
# Coordination Sequence:
#
# PCOD9405037 Si02
#       6
#     8   8   8   8   8   4
#     4   8  13  22  38  62  90 118 149 190 240 288
#     4  10  20  37  59  83 109 138 172 210 252 300
#     4  10  21  35  49  70  99 131 166 203 245 294
#     4   9  17  29  47  70  95 123 159 201 243 291
#     4   9  19  35  56  80 104 130 165 207 249 296
#     4  12  25  40  57  80 110 144 178 214 255 298
#
# _framework density 18.454014999999998
#
# number of rings (size 3 to 8) (size 9 to 14) (size 15 to 20)
#    0.000    2.545    0.000    2.182    0.000    2.909 
#    0.000    1.818    0.000    0.545    0.000    0.000 
#    0.000    0.000    0.000    0.000    0.000    0.000 
#
# Total GULP energy -245294.079068 kJ/mol
# GULP energy per Si atom -5574.865433 kJ/mol
# Density = 1.841201 g / cm^3
# Si number density = 18.454015 Si / 1000 Ang^3
#
#
#
# Elastic Constant Matrix: (Units=GPa)
#
#
# Indices 1 2 3 4 5 6 
#
# 1 22.3042 26.4191 17.9261 0.0000 0.0000 0.0000
# 2 26.4191 172.2978 118.8453 0.0000 0.0000 0.0000
# 3 17.9261 118.8453 126.8008 0.0000 0.0000 0.0000
# 4 0.0000 0.0000 0.0000 -3.6831 0.0000 0.0000
# 5 0.0000 0.0000 0.0000 0.0000 29.4122 0.0000
# 6 0.0000 0.0000 0.0000 0.0000 0.0000 7.0221
#
#
#
# Elastic Compliance Matrix: (Units=1/GPa)
#
#
# Indices 1 2 3 4 5 6 
#
# 1 0.054791 -0.008652 0.000363 0.000000 0.000000 0.000000
# 2 -0.008652 0.017784 -0.015445 0.000000 0.000000 0.000000
# 3 0.000363 -0.015445 0.022311 0.000000 0.000000 0.000000
# 4 0.000000 0.000000 0.000000 -0.271511 0.000000 0.000000
# 5 0.000000 0.000000 0.000000 0.000000 0.034000 0.000000
# 6 0.000000 0.000000 0.000000 0.000000 0.000000 0.142407
#
#
# Mechanical properties :
#
#
# Convention : Reuss Voigt Hill
#
# Bulk Modulus (GPa) = 21.08890 71.97597 46.53244
# Shear Modulus (GPa) = 79.29454 17.09772 48.19613
#
# Velocity S-wave (km/s) = 6.56216 3.04715 5.11601
# Velocity P-wave (km/s) = 8.29871 7.17410 7.75682
#
# Compressibility (1/GPa) = 0.04741830
#
# Stress axis : x y z
#
# Youngs Moduli (GPa) = 18.25126 56.22993 44.82034
#
# Poissons Ratio (x) = 0.48648 -0.01627
# Poissons Ratio (y) = 0.15790 0.69226
# Poissons Ratio (z) = -0.00662 0.86849
#
# Static dielectric constant tensor:
#      x y z
#    x 1.630010 0.000000 0.000000 
#    y 0.000000 1.698650 0.000000 
#    z 0.000000 0.000000 1.577950 
# 
# From -- ./inp_files/5821.got.cif
#   From: 2010.05.17/outbox.cif.g08.bks.cpg/sg51_3_cif.got.tgz:5821.got - 2010.06.03 11:52:47.
