data_PCOD9405568
_publ_section_title
;
Structure prediction by ZEFSAII (Michael W. Deem and Ramdas Pophale) SiO2 
 PCOD9405568
Probable space group: P M M A
;
_chemical_formula_sum "Si O2"
_cell_formula_units_Z 32
_cell_length_a 14.366150
_cell_length_b 12.483039
_cell_length_c 9.313950
_cell_angle_alpha 90.000000
_cell_angle_beta 90.000000
_cell_angle_gamma 90.000000
_cell_volume 1670.300558
_symmetry_space_group_name_H-M "P M M A"
_symmetry_group_IT_number 51
_symmetry_cell_setting 'orthorhombic'
loop_
_space_group_symop_operation_xyz
x,y,z
1/2-x,-y,z
1/2+x,-y,-z
-x,y,-z
-x,-y,-z
1/2+x,y,-z
1/2-x,y,z
x,-y,z
loop_
_atom_site_type_symbol
_atom_site_label
_atom_site_fract_x
_atom_site_fract_y
_atom_site_fract_z
Si Si1 0.109583 0.000000 0.673033
Si Si2 0.402117 0.500000 0.420560
Si Si3 0.750000 0.817313 0.285169
Si Si4 0.250000 0.326300 0.450779
Si Si5 0.750000 0.170073 0.791777
Si Si6 0.101250 0.500000 0.072227
Si Si7 0.750000 0.674016 0.027291
Si Si8 0.609267 0.000000 0.673454
O O1 0.161146 0.894783 0.733226
O O2 0.123348 0.000000 0.499173
O O3 0.000252 0.000000 0.701609
O O4 0.500000 0.500000 0.500000
O O5 0.341126 0.398144 0.468683
O O6 0.406894 0.500000 0.246164
O O7 0.750000 0.775736 0.447947
O O8 0.750000 0.708766 0.192942
O O9 0.250000 0.282298 0.290378
O O10 0.750000 0.208459 0.954207
O O11 0.661157 0.101519 0.743116
O O12 0.161161 0.397161 0.018867
O O13 0.000000 0.500000 0.000000
#
# Coordination Sequence:
#
# PCOD9405568 Si02
#       8
#     4   4   4   4   4   4   4   4
#     4  10  21  39  57  96 125 149 201 269 300 345
#     4  11  25  40  65  97 121 154 212 262 294 364
#     4  11  23  39  63  90 124 162 204 253 304 361
#     4  11  21  41  65  87 128 160 207 251 299 362
#     4  11  19  41  61  87 112 172 201 235 303 376
#     4  11  25  44  61  89 129 162 202 254 314 368
#     4  11  25  43  63  84 130 170 198 245 316 377
#     4  10  21  35  65  90 123 155 200 256 312 355
#
# _framework density 19.158228999999999
#
# number of rings (size 3 to 8) (size 9 to 14) (size 15 to 20)
#    0.000    1.250    5.000    1.500    3.500    7.000 
#    0.000    1.250    0.000    0.000    0.000    0.000 
#    0.000    0.000    0.000    0.000    0.000    0.000 
#
# Total GULP energy -178620.169885 kJ/mol
# GULP energy per Si atom -5581.880309 kJ/mol
# Density = 1.911462 g / cm^3
# Si number density = 19.158229 Si / 1000 Ang^3
#
#
#
# Elastic Constant Matrix: (Units=GPa)
#
#
# Indices 1 2 3 4 5 6 
#
# 1 186.5065 62.0714 33.0870 0.0000 0.0000 0.0000
# 2 62.0714 91.0090 8.2206 0.0000 0.0000 0.0000
# 3 33.0870 8.2206 47.1782 0.0000 0.0000 0.0000
# 4 0.0000 0.0000 0.0000 33.8957 0.0000 0.0000
# 5 0.0000 0.0000 0.0000 0.0000 21.9049 0.0000
# 6 0.0000 0.0000 0.0000 0.0000 0.0000 -0.9155
#
#
#
# Elastic Compliance Matrix: (Units=1/GPa)
#
#
# Indices 1 2 3 4 5 6 
#
# 1 0.007818 -0.004914 -0.004627 0.000000 0.000000 0.000000
# 2 -0.004914 0.014253 0.000963 0.000000 0.000000 0.000000
# 3 -0.004627 0.000963 0.024273 0.000000 0.000000 0.000000
# 4 0.000000 0.000000 0.000000 0.029502 0.000000 0.000000
# 5 0.000000 0.000000 0.000000 0.000000 0.045652 0.000000
# 6 0.000000 0.000000 0.000000 0.000000 0.000000 -1.092300
#
#
# Mechanical properties :
#
#
# Convention : Reuss Voigt Hill
#
# Bulk Modulus (GPa) = 34.26058 59.05018 46.65538
# Shear Modulus (GPa) = -5.29708 25.73133 10.21713
#
# Velocity S-wave (km/s) = -1.66461 3.66880 2.31184
# Velocity P-wave (km/s) = 3.77190 6.98828 5.61531
#
# Compressibility (1/GPa) = 0.02918807
#
# Stress axis : x y z
#
# Youngs Moduli (GPa) = 127.90899 70.16242 41.19769
#
# Poissons Ratio (x) = 0.34480 0.19061
# Poissons Ratio (y) = 0.62858 -0.03967
# Poissons Ratio (z) = 0.59179 -0.06757
#
# Static dielectric constant tensor:
#      x y z
#    x 1.624580 0.000000 0.000000 
#    y 0.000000 1.649950 0.000000 
#    z 0.000000 0.000000 1.647570 
# 
# From -- ./inp_files/7696.got.cif
#   From: 2010.05.17/outbox.cif.g08.bks.cpg/sg51_4_cif.got.tgz:7696.got - 2010.06.03 11:52:47.
