data_PCOD9405020
_publ_section_title
;
Structure prediction by ZEFSAII (Michael W. Deem and Ramdas Pophale) SiO2 
 PCOD9405020
Probable space group: P M M A
;
_chemical_formula_sum "Si O2"
_cell_formula_units_Z 64
_cell_length_a 19.398171
_cell_length_b 19.118239
_cell_length_c 9.155798
_cell_angle_alpha 90.000000
_cell_angle_beta 90.000000
_cell_angle_gamma 90.000000
_cell_volume 3395.508894
_symmetry_space_group_name_H-M "P M M A"
_symmetry_group_IT_number 51
_symmetry_cell_setting 'orthorhombic'
loop_
_space_group_symop_operation_xyz
x,y,z
1/2-x,-y,z
1/2+x,-y,-z
-x,y,-z
-x,-y,-z
1/2+x,y,-z
1/2-x,y,z
x,-y,z
loop_
_atom_site_type_symbol
_atom_site_label
_atom_site_fract_x
_atom_site_fract_y
_atom_site_fract_z
Si Si1 0.426815 0.418822 0.423364
Si Si2 0.829559 0.707854 0.599822
Si Si3 0.557035 0.080688 0.876943
Si Si4 0.572398 0.159015 0.577799
Si Si5 0.829689 0.918714 0.372547
Si Si6 0.831850 0.145786 0.062613
Si Si7 0.074214 0.422233 0.072889
Si Si8 0.828587 0.297611 0.953534
O O1 0.500000 0.402481 0.500000
O O2 0.409385 0.500000 0.459627
O O3 0.367477 0.362238 0.457509
O O4 0.434701 0.414721 0.247580
O O5 0.750000 0.714375 0.549100
O O6 0.877903 0.773881 0.566134
O O7 0.827336 0.706088 0.776983
O O8 0.556325 0.132964 0.740977
O O9 0.547183 0.000000 0.830770
O O10 0.500000 0.097079 0.000000
O O11 0.629275 0.091888 0.958729
O O12 0.500000 0.172346 0.500000
O O13 0.615931 0.098627 0.497183
O O14 0.750000 0.904972 0.417528
O O15 0.846036 0.872606 0.230397
O O16 0.833945 0.000000 0.330275
O O17 0.750000 0.141234 0.040020
O O18 0.853745 0.224088 0.018593
O O19 0.103061 0.500000 0.046341
O O20 0.122963 0.362316 0.011047
O O21 0.000000 0.417611 0.000000
O O22 0.750000 0.308537 0.003489
#
# Coordination Sequence:
#
# PCOD9405020 Si02
#       8
#     8   8   8   8   8   8   8   8
#     4   9  18  35  58  85 117 153 192 233 281 335
#     4  10  20  37  58  84 116 147 191 243 286 342
#     4  11  24  40  59  85 113 146 191 239 292 350
#     4  12  24  39  58  83 117 154 191 238 297 350
#     4  10  22  40  61  85 115 152 193 239 294 356
#     4  10  20  38  60  83 112 146 189 239 289 341
#     4   9  18  33  54  82 114 149 186 227 276 332
#     4   9  18  34  56  82 111 144 188 238 282 331
#
# _framework density 18.848426
#
# number of rings (size 3 to 8) (size 9 to 14) (size 15 to 20)
#    0.000    2.000    1.250    2.250    0.000    4.250 
#    6.750    2.500    0.000    0.000    0.000    3.500 
#    0.000    0.000    0.000    0.000    0.000    0.000 
#
# Total GULP energy -357159.136358 kJ/mol
# GULP energy per Si atom -5580.611506 kJ/mol
# Density = 1.880553 g / cm^3
# Si number density = 18.848426 Si / 1000 Ang^3
#
#
#
# Elastic Constant Matrix: (Units=GPa)
#
#
# Indices 1 2 3 4 5 6 
#
# 1 95.7263 63.7343 41.8015 0.0000 0.0000 0.0000
# 2 63.7343 105.2454 31.7246 0.0000 0.0000 0.0000
# 3 41.8015 31.7246 44.4403 0.0000 0.0000 0.0000
# 4 0.0000 0.0000 0.0000 24.1362 0.0000 0.0000
# 5 0.0000 0.0000 0.0000 0.0000 25.9838 0.0000
# 6 0.0000 0.0000 0.0000 0.0000 0.0000 35.1897
#
#
#
# Elastic Compliance Matrix: (Units=1/GPa)
#
#
# Indices 1 2 3 4 5 6 
#
# 1 0.023530 -0.009655 -0.015240 0.000000 0.000000 0.000000
# 2 -0.009655 0.016069 -0.002389 0.000000 0.000000 0.000000
# 3 -0.015240 -0.002389 0.038543 0.000000 0.000000 0.000000
# 4 0.000000 0.000000 0.000000 0.041432 0.000000 0.000000
# 5 0.000000 0.000000 0.000000 0.000000 0.038486 0.000000
# 6 0.000000 0.000000 0.000000 0.000000 0.000000 0.028417
#
#
# Mechanical properties :
#
#
# Convention : Reuss Voigt Hill
#
# Bulk Modulus (GPa) = 42.42226 57.77032 50.09629
# Shear Modulus (GPa) = 20.08819 24.27204 22.18011
#
# Velocity S-wave (km/s) = 3.26816 3.59241 3.43412
# Velocity P-wave (km/s) = 6.06606 6.92270 6.50849
#
# Compressibility (1/GPa) = 0.02357253
#
# Stress axis : x y z
#
# Youngs Moduli (GPa) = 42.49904 62.23238 25.94522
#
# Poissons Ratio (x) = 0.60087 0.39541
# Poissons Ratio (y) = 0.41034 0.06198
# Poissons Ratio (z) = 0.64769 0.14868
#
# Static dielectric constant tensor:
#      x y z
#    x 1.642450 0.000000 0.000000 
#    y 0.000000 1.676340 0.000000 
#    z 0.000000 0.000000 1.642350 
# 
# From -- ./inp_files/11175.got.cif
#   From: 2010.05.17/outbox.cif.g08.bks.cpg/sg51_6_cif.got.tgz:11175.got - 2010.06.03 11:52:47.
