data_PCOD9405472
_publ_section_title
;
Structure prediction by ZEFSAII (Michael W. Deem and Ramdas Pophale) SiO2 
 PCOD9405472
Probable space group: P M M A
;
_chemical_formula_sum "Si O2"
_cell_formula_units_Z 52
_cell_length_a 8.898273
_cell_length_b 13.526332
_cell_length_c 23.033965
_cell_angle_alpha 90.000000
_cell_angle_beta 90.000000
_cell_angle_gamma 90.000000
_cell_volume 2772.390942
_symmetry_space_group_name_H-M "P M M A"
_symmetry_group_IT_number 51
_symmetry_cell_setting 'orthorhombic'
loop_
_space_group_symop_operation_xyz
x,y,z
1/2-x,-y,z
1/2+x,-y,-z
-x,y,-z
-x,-y,-z
1/2+x,y,-z
1/2-x,y,z
x,-y,z
loop_
_atom_site_type_symbol
_atom_site_label
_atom_site_fract_x
_atom_site_fract_y
_atom_site_fract_z
Si Si1 0.431682 0.113062 0.435830
Si Si2 0.928822 0.109208 0.173569
Si Si3 0.069468 0.611583 0.884917
Si Si4 0.070677 0.694388 0.760396
Si Si5 0.930880 0.693409 0.635548
Si Si6 0.071750 0.804022 0.060881
Si Si7 0.568602 0.500000 0.563363
O O1 0.500000 0.129108 0.500000
O O2 0.250000 0.117027 0.440017
O O3 0.480259 0.201763 0.392874
O O4 0.472141 0.000000 0.417685
O O5 0.750000 0.118530 0.161799
O O6 0.967617 0.194700 0.218639
O O7 0.014487 0.128808 0.113772
O O8 0.959700 0.000000 0.195963
O O9 0.250000 0.626778 0.890041
O O10 0.033511 0.500000 0.902252
O O11 0.031684 0.628300 0.816729
O O12 0.986600 0.694385 0.922167
O O13 0.250000 0.686449 0.752188
O O14 0.990597 0.675376 0.700143
O O15 0.750000 0.695356 0.637218
O O16 0.977824 0.599992 0.596540
O O17 0.250000 0.805281 0.057001
O O18 0.000000 0.834194 0.000000
O O19 0.750000 0.500000 0.560238
O O20 0.500000 0.500000 0.500000
#
# Coordination Sequence:
#
# PCOD9405472 Si02
#       7
#     8   8   8   8   8   8   4
#     4   9  18  33  52  73  98 130 169 214 264 315
#     4   9  19  38  60  80 108 145 182 225 274 320
#     4   9  19  37  58  78 105 141 180 226 275 322
#     4   9  19  34  54  81 107 135 176 219 261 314
#     4  10  21  35  51  75 108 141 174 216 267 323
#     4  11  22  36  55  81 112 144 182 226 272 327
#     4  10  22  38  54  76 106 142 181 224 271 322
#
# _framework density 18.756374000000001
#
# number of rings (size 3 to 8) (size 9 to 14) (size 15 to 20)
#    0.000    2.462    0.000    2.769    1.077    5.538 
#    0.000    0.000    0.000    0.000    0.000    0.000 
#    0.000    0.000    0.000    0.000    0.000    0.000 
#
# Total GULP energy -290160.470412 kJ/mol
# GULP energy per Si atom -5580.009046 kJ/mol
# Density = 1.871368 g / cm^3
# Si number density = 18.756374 Si / 1000 Ang^3
#
#
#
# Elastic Constant Matrix: (Units=GPa)
#
#
# Indices 1 2 3 4 5 6 
#
# 1 18.0758 11.4501 18.8816 0.0000 0.0000 0.0000
# 2 11.4501 60.5319 -2.3579 0.0000 0.0000 0.0000
# 3 18.8816 -2.3579 75.1852 0.0000 0.0000 0.0000
# 4 0.0000 0.0000 0.0000 -4.0479 0.0000 0.0000
# 5 0.0000 0.0000 0.0000 0.0000 35.5153 0.0000
# 6 0.0000 0.0000 0.0000 0.0000 0.0000 14.3326
#
#
#
# Elastic Compliance Matrix: (Units=1/GPa)
#
#
# Indices 1 2 3 4 5 6 
#
# 1 0.091446 -0.018215 -0.023536 0.000000 0.000000 0.000000
# 2 -0.018215 0.020168 0.005207 0.000000 0.000000 0.000000
# 3 -0.023536 0.005207 0.019375 0.000000 0.000000 0.000000
# 4 0.000000 0.000000 0.000000 -0.247041 0.000000 0.000000
# 5 0.000000 0.000000 0.000000 0.000000 0.028157 0.000000
# 6 0.000000 0.000000 0.000000 0.000000 0.000000 0.069771
#
#
# Mechanical properties :
#
#
# Convention : Reuss Voigt Hill
#
# Bulk Modulus (GPa) = 17.27097 23.30450 20.28773
# Shear Modulus (GPa) = 67.32743 17.54796 42.43769
#
# Velocity S-wave (km/s) = 5.99781 3.06203 4.76181
# Velocity P-wave (km/s) = 7.56260 4.99532 6.40883
#
# Compressibility (1/GPa) = 0.05790064
#
# Stress axis : x y z
#
# Youngs Moduli (GPa) = 10.93541 49.58233 51.61398
#
# Poissons Ratio (x) = 0.90312 1.21481
# Poissons Ratio (y) = 0.19918 -0.26874
# Poissons Ratio (z) = 0.25738 -0.25817
#
# Static dielectric constant tensor:
#      x y z
#    x 1.626660 0.000000 0.000000 
#    y 0.000000 1.669020 0.000000 
#    z 0.000000 0.000000 1.608670 
# 
# From -- ./inp_files/31720.got.cif
#   From: 2010.05.17/outbox.cif.g08.bks.cpg/sg51_16_cif.got.tgz:31720.got - 2010.06.03 11:52:47.
