data_PCOD9405570
_publ_section_title
;
Structure prediction by ZEFSAII (Michael W. Deem and Ramdas Pophale) SiO2 
 PCOD9405570
Probable space group: P M M A
;
_chemical_formula_sum "Si O2"
_cell_formula_units_Z 48
_cell_length_a 8.570541
_cell_length_b 32.296604
_cell_length_c 9.250300
_cell_angle_alpha 90.000000
_cell_angle_beta 90.000000
_cell_angle_gamma 90.000000
_cell_volume 2560.477201
_symmetry_space_group_name_H-M "P M M A"
_symmetry_group_IT_number 51
_symmetry_cell_setting 'orthorhombic'
loop_
_space_group_symop_operation_xyz
x,y,z
1/2-x,-y,z
1/2+x,-y,-z
-x,y,-z
-x,-y,-z
1/2+x,y,-z
1/2-x,y,z
x,-y,z
loop_
_atom_site_type_symbol
_atom_site_label
_atom_site_fract_x
_atom_site_fract_y
_atom_site_fract_z
Si Si1 0.062443 0.663727 0.837436
Si Si2 0.561629 0.418300 0.337262
Si Si3 0.938899 0.000000 0.161529
Si Si4 0.938216 0.919420 0.336777
Si Si5 0.437291 0.171329 0.664586
Si Si6 0.935894 0.742242 0.664328
Si Si7 0.938679 0.500000 0.162871
O O1 0.250000 0.664962 0.839731
O O2 0.012628 0.623199 0.746847
O O3 0.999588 0.704542 0.758395
O O4 0.000000 0.661178 0.000000
O O5 0.500000 0.418762 0.500000
O O6 0.750000 0.418645 0.341976
O O7 0.510347 0.458965 0.249110
O O8 0.991927 0.958527 0.244196
O O9 0.750000 0.000000 0.161181
O O10 0.000000 0.000000 0.000000
O O11 0.750000 0.920274 0.343065
O O12 0.981827 0.873947 0.275050
O O13 0.000000 0.922945 0.500000
O O14 0.500000 0.170215 0.500000
O O15 0.250000 0.174945 0.663705
O O16 0.508546 0.213372 0.726959
O O17 0.750000 0.741349 0.658589
O O18 0.000000 0.738644 0.500000
O O19 0.750000 0.500000 0.158494
O O20 0.000000 0.500000 0.000000
#
# Coordination Sequence:
#
# PCOD9405570 Si02
#       7
#     8   8   4   8   8   8   4
#     4  11  23  39  57  81 111 146 185 228 275 327
#     4  10  22  38  59  85 114 146 186 229 272 321
#     4  10  21  36  50  72 104 138 173 212 258 312
#     4   9  18  32  53  78 104 133 172 218 263 311
#     4   9  16  29  50  77 106 136 171 218 267 315
#     4  11  21  35  56  82 110 143 180 223 270 322
#     4  10  21  38  58  86 118 150 185 224 270 324
#
# _framework density 18.746507000000001
#
# number of rings (size 3 to 8) (size 9 to 14) (size 15 to 20)
#    0.000    2.000    0.000    5.000    0.000    4.667 
#    0.000    0.833    0.000    2.000    0.000    0.000 
#    0.000    0.000    0.000    0.000    0.000    0.000 
#
# Total GULP energy -267959.554956 kJ/mol
# GULP energy per Si atom -5582.490728 kJ/mol
# Density = 1.870384 g / cm^3
# Si number density = 18.746507 Si / 1000 Ang^3
#
#
#
# Elastic Constant Matrix: (Units=GPa)
#
#
# Indices 1 2 3 4 5 6 
#
# 1 54.7364 50.6420 29.5738 0.0000 0.0000 0.0000
# 2 50.6420 238.0510 107.0086 0.0000 0.0000 0.0000
# 3 29.5738 107.0086 129.2613 0.0000 0.0000 0.0000
# 4 0.0000 0.0000 0.0000 -3.4998 0.0000 0.0000
# 5 0.0000 0.0000 0.0000 0.0000 32.2369 0.0000
# 6 0.0000 0.0000 0.0000 0.0000 0.0000 -10.1228
#
#
#
# Elastic Compliance Matrix: (Units=1/GPa)
#
#
# Indices 1 2 3 4 5 6 
#
# 1 0.023046 -0.004034 -0.001934 0.000000 0.000000 0.000000
# 2 -0.004034 0.007397 -0.005200 0.000000 0.000000 0.000000
# 3 -0.001934 -0.005200 0.012484 0.000000 0.000000 0.000000
# 4 0.000000 0.000000 0.000000 -0.285728 0.000000 0.000000
# 5 0.000000 0.000000 0.000000 0.000000 0.031020 0.000000
# 6 0.000000 0.000000 0.000000 0.000000 0.000000 -0.098787
#
#
# Mechanical properties :
#
#
# Convention : Reuss Voigt Hill
#
# Bulk Modulus (GPa) = 48.56418 88.49972 68.53195
# Shear Modulus (GPa) = -17.77018 19.37782 0.80382
#
# Velocity S-wave (km/s) = -3.08217 3.21857 0.65553
# Velocity P-wave (km/s) = 3.64631 7.81815 6.09996
#
# Compressibility (1/GPa) = 0.02059131
#
# Stress axis : x y z
#
# Youngs Moduli (GPa) = 43.39169 135.19877 80.10418
#
# Poissons Ratio (x) = 0.54533 0.15488
# Poissons Ratio (y) = 0.17502 0.41657
# Poissons Ratio (z) = 0.08390 0.70308
#
# Static dielectric constant tensor:
#      x y z
#    x 1.632060 0.000000 0.000000 
#    y 0.000000 1.684490 0.000000 
#    z 0.000000 0.000000 1.579840 
# 
# From -- ./inp_files/6141.got.cif
#   From: 2010.05.17/outbox.cif.g08.bks.cpg/sg51_4_cif.got.tgz:6141.got - 2010.06.03 11:52:47.
