data_PCOD9405872
_publ_section_title
;
Structure prediction by ZEFSAII (Michael W. Deem and Ramdas Pophale) SiO2 
 PCOD9405872
Probable space group: P M M A
;
_chemical_formula_sum "Si O2"
_cell_formula_units_Z 26
_cell_length_a 12.894594
_cell_length_b 10.482152
_cell_length_c 7.014298
_cell_angle_alpha 90.000000
_cell_angle_beta 90.000000
_cell_angle_gamma 90.000000
_cell_volume 948.074222
_symmetry_space_group_name_H-M "P M M A"
_symmetry_group_IT_number 51
_symmetry_cell_setting 'orthorhombic'
loop_
_space_group_symop_operation_xyz
x,y,z
1/2-x,-y,z
1/2+x,-y,-z
-x,y,-z
-x,-y,-z
1/2+x,y,-z
1/2-x,y,z
x,-y,z
loop_
_atom_site_type_symbol
_atom_site_label
_atom_site_fract_x
_atom_site_fract_y
_atom_site_fract_z
Si Si1 0.864744 0.780744 0.674690
Si Si2 0.089992 0.500000 0.848620
Si Si3 0.750000 0.000000 0.076950
Si Si4 0.633787 0.500000 0.562791
Si Si5 0.403784 0.789865 0.780739
O O1 0.750000 0.832344 0.728588
O O2 0.866221 0.627102 0.685514
O O3 0.874972 0.803055 0.445511
O O4 0.972198 0.816129 0.775964
O O5 0.062577 0.500000 0.624555
O O6 0.128018 0.352132 0.854503
O O7 0.000000 0.500000 0.000000
O O8 0.839715 0.109543 0.103916
O O9 0.750000 0.500000 0.468162
#
# Coordination Sequence:
#
# PCOD9405872 Si02
#       5
#     8   4   2   4   8
#     4   9  16  32  56  89 127 162 192 236 298 364
#     4  10  21  39  62  88 111 146 214 270 301 340
#     4  12  24  40  56  92 126 168 202 234 302 364
#     4   8  15  29  58  91 124 154 189 244 314 357
#     4  10  21  36  59  90 124 160 198 246 297 364
#
# _framework density 27.424012999999999
#
# number of rings (size 3 to 8) (size 9 to 14) (size 15 to 20)
#    0.000    2.462    1.538    0.923    2.154    6.154 
#    0.000    2.308    0.000    0.000    0.000    2.154 
#    0.000    0.000    0.000    0.000    0.000    0.000 
#
# Total GULP energy -144826.960654 kJ/mol
# GULP energy per Si atom -5570.267717 kJ/mol
# Density = 2.736159 g / cm^3
# Si number density = 27.424013 Si / 1000 Ang^3
#
#
#
# Elastic Constant Matrix: (Units=GPa)
#
#
# Indices 1 2 3 4 5 6 
#
# 1 255.7715 51.7273 68.1822 0.0000 0.0000 0.0000
# 2 51.7273 143.7232 18.1766 0.0000 0.0000 0.0000
# 3 68.1822 18.1766 115.0614 0.0000 0.0000 0.0000
# 4 0.0000 0.0000 0.0000 9.6120 0.0000 0.0000
# 5 0.0000 0.0000 0.0000 0.0000 51.6504 0.0000
# 6 0.0000 0.0000 0.0000 0.0000 0.0000 58.7423
#
#
#
# Elastic Compliance Matrix: (Units=1/GPa)
#
#
# Indices 1 2 3 4 5 6 
#
# 1 0.004915 -0.001429 -0.002687 0.000000 0.000000 0.000000
# 2 -0.001429 0.007515 -0.000340 0.000000 0.000000 0.000000
# 3 -0.002687 -0.000340 0.010337 0.000000 0.000000 0.000000
# 4 0.000000 0.000000 0.000000 0.104036 0.000000 0.000000
# 5 0.000000 0.000000 0.000000 0.000000 0.019361 0.000000
# 6 0.000000 0.000000 0.000000 0.000000 0.000000 0.017024
#
#
# Mechanical properties :
#
#
# Convention : Reuss Voigt Hill
#
# Bulk Modulus (GPa) = 72.17785 87.85870 80.01828
# Shear Modulus (GPa) = 28.29357 49.09893 38.69625
#
# Velocity S-wave (km/s) = 3.21551 4.23586 3.76045
# Velocity P-wave (km/s) = 6.33737 7.48532 6.93514
#
# Compressibility (1/GPa) = 0.01385467
#
# Stress axis : x y z
#
# Youngs Moduli (GPa) = 203.45949 133.06315 96.74126
#
# Poissons Ratio (x) = 0.19017 0.25992
# Poissons Ratio (y) = 0.29078 0.03292
# Poissons Ratio (z) = 0.54664 0.04528
#
# Static dielectric constant tensor:
#      x y z
#    x 2.257290 0.000000 0.000000 
#    y 0.000000 2.056040 0.000000 
#    z 0.000000 0.000000 2.182740 
# 
# From -- ./inp_files/2189.got.cif
#   From: 2010.05.17/outbox.cif.g08.bks.cpg/sg51_2_cif.got.tgz:2189.got - 2010.06.03 11:52:47.
