data_PCOD9405277
_publ_section_title
;
Structure prediction by ZEFSAII (Michael W. Deem and Ramdas Pophale) SiO2 
 PCOD9405277
Probable space group: P M M A
;
_chemical_formula_sum "Si O2"
_cell_formula_units_Z 64
_cell_length_a 15.083182
_cell_length_b 7.415117
_cell_length_c 25.900376
_cell_angle_alpha 90.000000
_cell_angle_beta 90.000000
_cell_angle_gamma 90.000000
_cell_volume 2896.790238
_symmetry_space_group_name_H-M "P M M A"
_symmetry_group_IT_number 51
_symmetry_cell_setting 'orthorhombic'
loop_
_space_group_symop_operation_xyz
x,y,z
1/2-x,-y,z
1/2+x,-y,-z
-x,y,-z
-x,-y,-z
1/2+x,y,-z
1/2-x,y,z
x,-y,z
loop_
_atom_site_type_symbol
_atom_site_label
_atom_site_fract_x
_atom_site_fract_y
_atom_site_fract_z
Si Si1 0.358175 0.209073 0.006676
Si Si2 0.351577 0.779451 0.119452
Si Si3 0.852501 0.220790 0.105643
Si Si4 0.498915 0.787679 0.692117
Si Si5 0.647512 0.282247 0.391829
Si Si6 0.009540 0.220325 0.808318
Si Si7 0.850584 0.212934 0.617904
Si Si8 0.854017 0.283931 0.504154
O O1 0.250000 0.211365 0.006227
O O2 0.385180 0.283847 0.950998
O O3 0.386618 0.000000 0.007007
O O4 0.382970 0.284097 0.062634
O O5 0.250000 0.723716 0.127659
O O6 0.417698 0.726298 0.164523
O O7 0.351512 0.000000 0.117378
O O8 0.750000 0.273218 0.112129
O O9 0.912490 0.278814 0.153207
O O10 0.854240 0.000000 0.103818
O O11 0.414107 0.771929 0.655188
O O12 0.484203 0.715282 0.749567
O O13 0.582332 0.710914 0.660231
O O14 0.516602 0.000000 0.698906
O O15 0.750000 0.223996 0.386002
O O16 0.648265 0.500000 0.393116
O O17 0.612622 0.220081 0.448339
O O18 0.012780 0.000000 0.808025
O O19 0.750000 0.287840 0.619025
O O20 0.889538 0.230281 0.559955
O O21 0.843069 0.000000 0.627187
O O22 0.750000 0.231271 0.505010
O O23 0.859123 0.500000 0.503448
#
# Coordination Sequence:
#
# PCOD9405277 Si02
#       8
#     8   8   8   8   8   8   8   8
#     4   7  10  17  29  46  67  93 131 176 219 264
#     4   8  13  21  33  49  71 102 141 183 222 261
#     4   8  13  21  32  46  68  99 134 175 221 265
#     4  10  21  33  45  67  96 125 161 197 225 263
#     4   9  19  36  55  73  94 120 149 185 232 281
#     4   9  17  26  35  51  76 109 149 183 213 256
#     4   9  18  32  48  67  95 128 156 186 228 274
#     4   8  15  30  52  75  94 113 145 188 231 278
#
# _framework density 22.093419999999998
#
# number of rings (size 3 to 8) (size 9 to 14) (size 15 to 20)
#    0.000    3.500    0.000    2.250    0.000    3.250 
#    0.000   10.000    0.000    0.000    0.000    0.000 
#    0.000    0.000    0.000    2.250    0.000   11.750 
#
# Total GULP energy -356896.053018 kJ/mol
# GULP energy per Si atom -5576.500828 kJ/mol
# Density = 2.204313 g / cm^3
# Si number density = 22.093420 Si / 1000 Ang^3
#
#
#
# Elastic Constant Matrix: (Units=GPa)
#
#
# Indices 1 2 3 4 5 6 
#
# 1 173.4127 -15.7426 253.4987 0.0000 0.0000 0.0000
# 2 -15.7426 66.5419 -14.2474 0.0000 0.0000 0.0000
# 3 253.4987 -14.2474 574.6573 0.0000 0.0000 0.0000
# 4 0.0000 0.0000 0.0000 49.6282 0.0000 0.0000
# 5 0.0000 0.0000 0.0000 0.0000 35.8602 0.0000
# 6 0.0000 0.0000 0.0000 0.0000 0.0000 -19.7182
#
#
#
# Elastic Compliance Matrix: (Units=1/GPa)
#
#
# Indices 1 2 3 4 5 6 
#
# 1 0.016602 0.002372 -0.007265 0.000000 0.000000 0.000000
# 2 0.002372 0.015447 -0.000663 0.000000 0.000000 0.000000
# 3 -0.007265 -0.000663 0.004928 0.000000 0.000000 0.000000
# 4 0.000000 0.000000 0.000000 0.020150 0.000000 0.000000
# 5 0.000000 0.000000 0.000000 0.000000 0.027886 0.000000
# 6 0.000000 0.000000 0.000000 0.000000 0.000000 -0.050715
#
#
# Mechanical properties :
#
#
# Convention : Reuss Voigt Hill
#
# Bulk Modulus (GPa) = 38.66176 140.18106 89.42141
# Shear Modulus (GPa) = 92.53786 52.56094 72.54940
#
# Velocity S-wave (km/s) = 6.47887 4.88282 5.73662
# Velocity P-wave (km/s) = 8.57350 9.76608 9.18915
#
# Compressibility (1/GPa) = 0.02586535
#
# Stress axis : x y z
#
# Youngs Moduli (GPa) = 60.23543 64.73634 202.90716
#
# Poissons Ratio (x) = -0.15357 1.47404
# Poissons Ratio (y) = -0.14289 0.13462
# Poissons Ratio (z) = 0.43759 0.04295
#
# Static dielectric constant tensor:
#      x y z
#    x 1.803370 0.000000 0.000000 
#    y 0.000000 1.863570 0.000000 
#    z 0.000000 0.000000 1.810000 
# 
# From -- ./inp_files/35788.got.cif
#   From: 2010.05.17/outbox.cif.g08.bks.cpg/sg51_18_cif.got.tgz:35788.got - 2010.06.03 11:52:47.
