data_PCOD9405090
_publ_section_title
;
Structure prediction by ZEFSAII (Michael W. Deem and Ramdas Pophale) SiO2 
 PCOD9405090
Probable space group: P M M A
;
_chemical_formula_sum "Si O2"
_cell_formula_units_Z 56
_cell_length_a 21.382627
_cell_length_b 15.083214
_cell_length_c 9.386114
_cell_angle_alpha 90.000000
_cell_angle_beta 90.000000
_cell_angle_gamma 90.000000
_cell_volume 3027.197651
_symmetry_space_group_name_H-M "P M M A"
_symmetry_group_IT_number 51
_symmetry_cell_setting 'orthorhombic'
loop_
_space_group_symop_operation_xyz
x,y,z
1/2-x,-y,z
1/2+x,-y,-z
-x,y,-z
-x,-y,-z
1/2+x,y,-z
1/2-x,y,z
x,-y,z
loop_
_atom_site_type_symbol
_atom_site_label
_atom_site_fract_x
_atom_site_fract_y
_atom_site_fract_z
Si Si1 0.567121 0.597656 0.927631
Si Si2 0.880909 0.738235 0.712746
Si Si3 0.183102 0.188257 0.020168
Si Si4 0.557934 0.894617 0.089199
Si Si5 0.476003 0.102071 0.341058
Si Si6 0.678755 0.632499 0.146846
Si Si7 0.674920 0.602824 0.482305
O O1 0.567701 0.500000 0.860222
O O2 0.578628 0.672885 0.812105
O O3 0.500000 0.610650 0.000000
O O4 0.623145 0.598715 0.044640
O O5 0.826970 0.770065 0.822805
O O6 0.921500 0.825238 0.674425
O O7 0.856721 0.677993 0.581414
O O8 0.250000 0.141305 0.015084
O O9 0.122305 0.134364 0.978153
O O10 0.183237 0.265819 0.902315
O O11 0.536854 0.871226 0.247945
O O12 0.557236 0.000000 0.080755
O O13 0.500000 0.856974 0.000000
O O14 0.500000 0.099000 0.500000
O O15 0.456909 0.000000 0.298989
O O16 0.750000 0.597091 0.122680
O O17 0.663500 0.618836 0.313203
O O18 0.750000 0.608813 0.503087
O O19 0.656704 0.500000 0.515808
#
# Coordination Sequence:
#
# PCOD9405090 Si02
#       7
#     8   8   8   8   8   8   8
#     4  10  22  37  55  84 121 155 193 241 295 351
#     4  11  22  35  60  83 119 155 194 243 297 350
#     4  10  21  35  56  87 119 150 192 242 295 352
#     4  10  20  37  61  87 114 149 195 241 289 349
#     4  10  23  40  60  88 116 152 201 246 291 356
#     4   9  20  37  59  83 113 157 202 237 285 349
#     4  10  21  38  59  85 117 155 201 246 288 347
#
# _framework density 18.498956
#
# number of rings (size 3 to 8) (size 9 to 14) (size 15 to 20)
#    0.000    2.000    1.429    1.286    6.000    1.714 
#    0.000    0.000    0.000    4.714    0.000    0.000 
#    0.000    0.000    0.000    0.000    0.000    0.000 
#
# Total GULP energy -311921.531858 kJ/mol
# GULP energy per Si atom -5570.027355 kJ/mol
# Density = 1.845685 g / cm^3
# Si number density = 18.498956 Si / 1000 Ang^3
#
#
#
# Elastic Constant Matrix: (Units=GPa)
#
#
# Indices 1 2 3 4 5 6 
#
# 1 115.1572 47.4534 35.9351 0.0000 0.0000 0.0000
# 2 47.4534 94.5463 44.9885 0.0000 0.0000 0.0000
# 3 35.9351 44.9885 95.1650 0.0000 0.0000 0.0000
# 4 0.0000 0.0000 0.0000 17.5164 0.0000 0.0000
# 5 0.0000 0.0000 0.0000 0.0000 13.3856 0.0000
# 6 0.0000 0.0000 0.0000 0.0000 0.0000 54.7841
#
#
#
# Elastic Compliance Matrix: (Units=1/GPa)
#
#
# Indices 1 2 3 4 5 6 
#
# 1 0.011246 -0.004675 -0.002036 0.000000 0.000000 0.000000
# 2 -0.004675 0.015590 -0.005605 0.000000 0.000000 0.000000
# 3 -0.002036 -0.005605 0.013927 0.000000 0.000000 0.000000
# 4 0.000000 0.000000 0.000000 0.057089 0.000000 0.000000
# 5 0.000000 0.000000 0.000000 0.000000 0.074707 0.000000
# 6 0.000000 0.000000 0.000000 0.000000 0.000000 0.018253
#
#
# Mechanical properties :
#
#
# Convention : Reuss Voigt Hill
#
# Bulk Modulus (GPa) = 61.99652 62.40248 62.19950
# Shear Modulus (GPa) = 22.64262 28.90331 25.77296
#
# Velocity S-wave (km/s) = 3.50236 3.95705 3.73662
# Velocity P-wave (km/s) = 7.06694 7.39485 7.23275
#
# Compressibility (1/GPa) = 0.01612994
#
# Stress axis : x y z
#
# Youngs Moduli (GPa) = 88.92188 64.14207 71.80520
#
# Poissons Ratio (x) = 0.29989 0.14621
# Poissons Ratio (y) = 0.41575 0.40245
# Poissons Ratio (z) = 0.18107 0.35950
#
# Static dielectric constant tensor:
#      x y z
#    x 1.679200 0.000000 0.000000 
#    y 0.000000 1.667120 0.000000 
#    z 0.000000 0.000000 1.700240 
# 
# From -- ./inp_files/11000.got.cif
#   From: 2010.05.17/outbox.cif.g08.bks.cpg/sg51_6_cif.got.tgz:11000.got - 2010.06.03 11:52:47.
