data_PCOD9405138
_publ_section_title
;
Structure prediction by ZEFSAII (Michael W. Deem and Ramdas Pophale) SiO2 
 PCOD9405138
Probable space group: P M M A
;
_chemical_formula_sum "Si O2"
_cell_formula_units_Z 64
_cell_length_a 23.630757
_cell_length_b 7.627470
_cell_length_c 15.269253
_cell_angle_alpha 90.000000
_cell_angle_beta 90.000000
_cell_angle_gamma 90.000000
_cell_volume 2752.174290
_symmetry_space_group_name_H-M "P M M A"
_symmetry_group_IT_number 51
_symmetry_cell_setting 'orthorhombic'
loop_
_space_group_symop_operation_xyz
x,y,z
1/2-x,-y,z
1/2+x,-y,-z
-x,y,-z
-x,-y,-z
1/2+x,y,-z
1/2-x,y,z
x,-y,z
loop_
_atom_site_type_symbol
_atom_site_label
_atom_site_fract_x
_atom_site_fract_y
_atom_site_fract_z
Si Si1 0.184330 0.785858 0.375342
Si Si2 0.022600 0.294765 0.216833
Si Si3 0.404347 0.799873 0.863565
Si Si4 0.365715 0.791451 0.557095
Si Si5 0.511619 0.298651 0.405403
Si Si6 0.688739 0.290950 0.271909
Si Si7 0.354426 0.202460 0.186645
Si Si8 0.313241 0.215579 0.001360
O O1 0.250000 0.737311 0.385149
O O2 0.148548 0.727653 0.459608
O O3 0.161239 0.722469 0.281783
O O4 0.181634 0.000000 0.376633
O O5 0.035230 0.500000 0.224667
O O6 0.964526 0.279302 0.162786
O O7 0.012551 0.221450 0.315567
O O8 0.077975 0.209603 0.175684
O O9 0.362914 0.793723 0.779830
O O10 0.416789 0.000000 0.887379
O O11 0.364522 0.722239 0.939704
O O12 0.420810 0.702843 0.598187
O O13 0.316465 0.752835 0.625773
O O14 0.375404 0.000000 0.554171
O O15 0.500000 0.213463 0.500000
O O16 0.491056 0.500000 0.409720
O O17 0.750000 0.230201 0.239000
O O18 0.684793 0.500000 0.260598
O O19 0.324702 0.275826 0.100590
O O20 0.335869 0.000000 0.190549
O O21 0.250000 0.268620 0.973587
O O22 0.314574 0.000000 0.999063
#
# Coordination Sequence:
#
# PCOD9405138 Si02
#       8
#     8   8   8   8   8   8   8   8
#     4   9  18  33  55  86 120 152 191 243 299 348
#     4  11  23  39  58  83 121 160 196 242 294 352
#     4  11  22  38  62  89 118 151 195 247 293 345
#     4  11  21  33  54  84 116 151 194 244 291 343
#     4  10  21  37  56  77 110 158 204 246 293 348
#     4  11  23  38  56  81 116 156 194 233 287 354
#     4  10  20  37  63  89 116 153 197 244 291 349
#     4   9  19  37  63  94 121 149 191 243 299 353
#
# _framework density 23.254342000000001
#
# number of rings (size 3 to 8) (size 9 to 14) (size 15 to 20)
#    0.000    1.750    1.250    3.375    0.000    4.750 
#    0.000    4.375    0.000    4.500    0.000    0.000 
#    0.000    0.000    0.000    0.000    0.000    0.000 
#
# Total GULP energy -357660.406335 kJ/mol
# GULP energy per Si atom -5588.443849 kJ/mol
# Density = 2.320141 g / cm^3
# Si number density = 23.254342 Si / 1000 Ang^3
#
#
#
# Elastic Constant Matrix: (Units=GPa)
#
#
# Indices 1 2 3 4 5 6 
#
# 1 61.1213 -12.8936 6.8786 0.0000 0.0000 0.0000
# 2 -12.8936 57.1806 -6.2196 0.0000 0.0000 0.0000
# 3 6.8786 -6.2196 110.6526 0.0000 0.0000 0.0000
# 4 0.0000 0.0000 0.0000 -4.5851 0.0000 0.0000
# 5 0.0000 0.0000 0.0000 0.0000 30.8203 0.0000
# 6 0.0000 0.0000 0.0000 0.0000 0.0000 -4.2136
#
#
#
# Elastic Compliance Matrix: (Units=1/GPa)
#
#
# Indices 1 2 3 4 5 6 
#
# 1 0.017259 0.003798 -0.000859 0.000000 0.000000 0.000000
# 2 0.003798 0.018432 0.000800 0.000000 0.000000 0.000000
# 3 -0.000859 0.000800 0.009136 0.000000 0.000000 0.000000
# 4 0.000000 0.000000 0.000000 -0.218100 0.000000 0.000000
# 5 0.000000 0.000000 0.000000 0.000000 0.032446 0.000000
# 6 0.000000 0.000000 0.000000 0.000000 0.000000 -0.237324
#
#
# Mechanical properties :
#
#
# Convention : Reuss Voigt Hill
#
# Bulk Modulus (GPa) = 19.11903 22.72059 20.91981
# Shear Modulus (GPa) = -13.57979 20.48359 3.45190
#
# Velocity S-wave (km/s) = -2.41916 2.97113 1.21969
# Velocity P-wave (km/s) = 0.66061 4.64347 3.31649
#
# Compressibility (1/GPa) = 0.05230391
#
# Stress axis : x y z
#
# Youngs Moduli (GPa) = 57.94131 54.25372 109.46091
#
# Poissons Ratio (x) = -0.20607 0.09407
# Poissons Ratio (y) = -0.22007 -0.08756
# Poissons Ratio (z) = 0.04979 -0.04340
#
# Static dielectric constant tensor:
#      x y z
#    x 1.933850 0.000000 0.000000 
#    y 0.000000 1.920950 0.000000 
#    z 0.000000 0.000000 1.899010 
# 
# From -- ./inp_files/26299.got.cif
#   From: 2010.05.17/outbox.cif.g08.bks.cpg/sg51_14_cif.got.tgz:26299.got - 2010.06.03 11:52:47.
