data_PCOD9406825
_publ_section_title
;
Structure prediction by ZEFSAII (Michael W. Deem and Ramdas Pophale) SiO2 
 PCOD9406825
Probable space group: P M M A
;
_chemical_formula_sum "Si O2"
_cell_formula_units_Z 26
_cell_length_a 17.878489
_cell_length_b 7.604654
_cell_length_c 8.213752
_cell_angle_alpha 90.000000
_cell_angle_beta 90.000000
_cell_angle_gamma 90.000000
_cell_volume 1116.739446
_symmetry_space_group_name_H-M "P M M A"
_symmetry_group_IT_number 51
_symmetry_cell_setting 'orthorhombic'
loop_
_space_group_symop_operation_xyz
x,y,z
1/2-x,-y,z
1/2+x,-y,-z
-x,y,-z
-x,-y,-z
1/2+x,y,-z
1/2-x,y,z
x,-y,z
loop_
_atom_site_type_symbol
_atom_site_label
_atom_site_fract_x
_atom_site_fract_y
_atom_site_fract_z
Si Si1 0.855965 0.702686 0.302824
Si Si2 0.169912 0.711021 0.320866
Si Si3 0.490025 0.205751 0.180820
Si Si4 0.250000 0.000000 0.828003
O O1 0.834233 0.500000 0.271722
O O2 0.833722 0.752902 0.487205
O O3 0.815313 0.843301 0.187660
O O4 0.945740 0.711568 0.291387
O O5 0.250000 0.777584 0.255017
O O6 0.169741 0.500000 0.307713
O O7 0.094771 0.774636 0.237695
O O8 0.507338 0.000000 0.177577
O O9 0.500000 0.279834 0.000000
#
# Coordination Sequence:
#
# PCOD9406825 Si02
#       4
#     8   8   8   2
#     4  11  23  42  69  98 131 169 217 271 325 389
#     4  10  22  41  65  97 129 164 217 273 325 388
#     4  11  25  43  63  93 133 177 223 266 322 394
#     4  12  22  40  68 104 132 168 208 278 322 390
#
# _framework density 23.282063000000001
#
# number of rings (size 3 to 8) (size 9 to 14) (size 15 to 20)
#    0.000    1.231    3.077    2.308    2.154    6.769 
#    2.769    0.000    0.000    0.000    0.000    0.000 
#    0.000    0.000    0.000    0.000    0.000    0.000 
#
# Total GULP energy -144918.450733 kJ/mol
# GULP energy per Si atom -5573.786567 kJ/mol
# Density = 2.322907 g / cm^3
# Si number density = 23.282063 Si / 1000 Ang^3
#
#
#
# Elastic Constant Matrix: (Units=GPa)
#
#
# Indices 1 2 3 4 5 6 
#
# 1 233.6109 20.6334 41.8174 0.0000 0.0000 0.0000
# 2 20.6334 94.6255 6.1490 0.0000 0.0000 0.0000
# 3 41.8174 6.1490 26.6227 0.0000 0.0000 0.0000
# 4 0.0000 0.0000 0.0000 9.6938 0.0000 0.0000
# 5 0.0000 0.0000 0.0000 0.0000 -14.1874 0.0000
# 6 0.0000 0.0000 0.0000 0.0000 0.0000 39.3785
#
#
#
# Elastic Compliance Matrix: (Units=1/GPa)
#
#
# Indices 1 2 3 4 5 6 
#
# 1 0.006001 -0.000707 -0.009263 0.000000 0.000000 0.000000
# 2 -0.000707 0.010812 -0.001387 0.000000 0.000000 0.000000
# 3 -0.009263 -0.001387 0.052432 0.000000 0.000000 0.000000
# 4 0.000000 0.000000 0.000000 0.103158 0.000000 0.000000
# 5 0.000000 0.000000 0.000000 0.000000 -0.070485 0.000000
# 6 0.000000 0.000000 0.000000 0.000000 0.000000 0.025395
#
#
# Mechanical properties :
#
#
# Convention : Reuss Voigt Hill
#
# Bulk Modulus (GPa) = 21.49076 54.67319 38.08198
# Shear Modulus (GPa) = 30.20455 26.06095 28.13275
#
# Velocity S-wave (km/s) = 3.60576 3.34931 3.47990
# Velocity P-wave (km/s) = 5.15616 6.20412 5.70426
#
# Compressibility (1/GPa) = 0.04653162
#
# Stress axis : x y z
#
# Youngs Moduli (GPa) = 166.63425 92.48802 19.07219
#
# Poissons Ratio (x) = 0.06536 0.17667
# Poissons Ratio (y) = 0.11775 0.02646
# Poissons Ratio (z) = 1.54355 0.12831
#
# Static dielectric constant tensor:
#      x y z
#    x 1.904500 0.000000 0.000000 
#    y 0.000000 1.848880 0.000000 
#    z 0.000000 0.000000 1.912580 
# 
# From -- ./inp_files/8925.got.cif
#   From: 2010.05.17/outbox.cif.g08.bks.cpg/sg51_5_cif.got.tgz:8925.got - 2010.06.03 11:52:47.
