data_PCOD9406820
_publ_section_title
;
Structure prediction by ZEFSAII (Michael W. Deem and Ramdas Pophale) SiO2 
 PCOD9406820
Probable space group: P M M A
;
_chemical_formula_sum "Si O2"
_cell_formula_units_Z 48
_cell_length_a 31.515039
_cell_length_b 8.623387
_cell_length_c 9.114977
_cell_angle_alpha 90.000000
_cell_angle_beta 90.000000
_cell_angle_gamma 90.000000
_cell_volume 2477.144281
_symmetry_space_group_name_H-M "P M M A"
_symmetry_group_IT_number 51
_symmetry_cell_setting 'orthorhombic'
loop_
_space_group_symop_operation_xyz
x,y,z
1/2-x,-y,z
1/2+x,-y,-z
-x,y,-z
-x,-y,-z
1/2+x,y,-z
1/2-x,y,z
x,-y,z
loop_
_atom_site_type_symbol
_atom_site_label
_atom_site_fract_x
_atom_site_fract_y
_atom_site_fract_z
Si Si1 0.916465 0.184385 0.161967
Si Si2 0.335607 0.313113 0.663736
Si Si3 0.250000 0.686920 0.170632
Si Si4 0.414059 0.685529 0.166126
Si Si5 0.750000 0.688354 0.169144
Si Si6 0.667270 0.815190 0.665565
Si Si7 0.002126 0.686455 0.671620
O O1 0.876144 0.246548 0.251931
O O2 0.958953 0.231789 0.248137
O O3 0.913918 0.000000 0.147265
O O4 0.916785 0.260940 0.001595
O O5 0.337659 0.500000 0.665298
O O6 0.292510 0.262911 0.746470
O O7 0.334836 0.254943 0.497288
O O8 0.250000 0.500000 0.175580
O O9 0.291668 0.749059 0.251392
O O10 0.250000 0.737292 0.000317
O O11 0.408285 0.500000 0.172292
O O12 0.374553 0.765084 0.245928
O O13 0.457811 0.723988 0.249394
O O14 0.750000 0.500000 0.169361
O O15 0.669934 0.000000 0.657176
O O16 0.008437 0.500000 0.681739
O O17 0.000000 0.727549 0.500000
#
# Coordination Sequence:
#
# PCOD9406820 Si02
#       7
#     8   8   4   8   4   8   8
#     4  12  25  40  61  92 128 163 203 258 318 369
#     4  11  22  41  66  91 122 163 210 255 306 373
#     4  11  22  41  66  92 124 167 214 255 304 368
#     4  11  23  41  65  91 122 165 213 256 305 373
#     4   9  21  39  64  92 116 153 208 259 296 348
#     4  12  25  41  62  94 130 162 204 261 318 365
#     4  10  22  41  65  91 120 160 211 260 307 368
#
# _framework density 19.377151999999999
#
# number of rings (size 3 to 8) (size 9 to 14) (size 15 to 20)
#    0.000    1.000    0.000    7.250    0.000    7.000 
#    0.000    3.750    0.000    0.000    0.000    0.000 
#    0.000    0.000    0.000    0.000    0.000    0.000 
#
# Total GULP energy -268699.800438 kJ/mol
# GULP energy per Si atom -5597.912509 kJ/mol
# Density = 1.933305 g / cm^3
# Si number density = 19.377152 Si / 1000 Ang^3
#
#
#
# Elastic Constant Matrix: (Units=GPa)
#
#
# Indices 1 2 3 4 5 6 
#
# 1 133.8619 23.3109 45.2248 0.0000 0.0000 0.0000
# 2 23.3109 45.9471 -1.7145 0.0000 0.0000 0.0000
# 3 45.2248 -1.7145 129.2163 0.0000 0.0000 0.0000
# 4 0.0000 0.0000 0.0000 11.6131 0.0000 0.0000
# 5 0.0000 0.0000 0.0000 0.0000 43.2356 0.0000
# 6 0.0000 0.0000 0.0000 0.0000 0.0000 5.7714
#
#
#
# Elastic Compliance Matrix: (Units=1/GPa)
#
#
# Indices 1 2 3 4 5 6 
#
# 1 0.009471 -0.004931 -0.003380 0.000000 0.000000 0.000000
# 2 -0.004931 0.024342 0.002049 0.000000 0.000000 0.000000
# 3 -0.003380 0.002049 0.008949 0.000000 0.000000 0.000000
# 4 0.000000 0.000000 0.000000 0.086110 0.000000 0.000000
# 5 0.000000 0.000000 0.000000 0.000000 0.023129 0.000000
# 6 0.000000 0.000000 0.000000 0.000000 0.000000 0.173268
#
#
# Mechanical properties :
#
#
# Convention : Reuss Voigt Hill
#
# Bulk Modulus (GPa) = 33.07142 49.18529 41.12836
# Shear Modulus (GPa) = 14.37302 28.27096 21.32199
#
# Velocity S-wave (km/s) = 2.72647 3.82381 3.32078
# Velocity P-wave (km/s) = 5.19767 6.70325 5.99789
#
# Compressibility (1/GPa) = 0.03023759
#
# Stress axis : x y z
#
# Youngs Moduli (GPa) = 105.58399 41.08049 111.74165
#
# Poissons Ratio (x) = 0.20258 0.37772
# Poissons Ratio (y) = 0.52066 -0.22895
# Poissons Ratio (z) = 0.35690 -0.08417
#
# Static dielectric constant tensor:
#      x y z
#    x 1.637340 0.000000 0.000000 
#    y 0.000000 1.649300 0.000000 
#    z 0.000000 0.000000 1.636050 
# 
# From -- ./inp_files/12907.got.cif
#   From: 2010.05.17/outbox.cif.g08.bks.cpg/sg51_7_cif.got.tgz:12907.got - 2010.06.03 11:52:47.
