data_PCOD9406938
_publ_section_title
;
Structure prediction by ZEFSAII (Michael W. Deem and Ramdas Pophale) SiO2 
 PCOD9406938
Probable space group: P M M A
;
_chemical_formula_sum "Si O2"
_cell_formula_units_Z 32
_cell_length_a 11.901957
_cell_length_b 13.028775
_cell_length_c 9.017071
_cell_angle_alpha 90.000000
_cell_angle_beta 90.000000
_cell_angle_gamma 90.000000
_cell_volume 1398.258443
_symmetry_space_group_name_H-M "P M M A"
_symmetry_group_IT_number 51
_symmetry_cell_setting 'orthorhombic'
loop_
_space_group_symop_operation_xyz
x,y,z
1/2-x,-y,z
1/2+x,-y,-z
-x,y,-z
-x,-y,-z
1/2+x,y,-z
1/2-x,y,z
x,-y,z
loop_
_atom_site_type_symbol
_atom_site_label
_atom_site_fract_x
_atom_site_fract_y
_atom_site_fract_z
Si Si1 0.250000 0.887878 0.963464
Si Si2 0.488151 0.314420 0.172697
Si Si3 0.250000 0.288232 0.210458
Si Si4 0.615884 0.500000 0.109804
Si Si5 0.563562 0.111542 0.291549
Si Si6 0.250000 0.114738 0.456225
O O1 0.144553 0.885645 0.852341
O O2 0.250000 0.000000 0.038434
O O3 0.250000 0.791940 0.072158
O O4 0.362388 0.355020 0.197305
O O5 0.586883 0.395986 0.199098
O O6 0.492386 0.212950 0.271778
O O7 0.500000 0.284033 0.000000
O O8 0.250000 0.212092 0.350077
O O9 0.250000 0.500000 0.931160
O O10 0.500000 0.500000 0.000000
O O11 0.642409 0.118326 0.434626
O O12 0.506051 0.000000 0.291722
O O13 0.250000 0.000000 0.388282
#
# Coordination Sequence:
#
# PCOD9406938 Si02
#       6
#     4   8   4   4   8   4
#     4   9  17  31  54  85 124 164 210 260 316 378
#     4  11  24  39  66  96 135 169 224 276 342 401
#     4  12  23  37  60  97 132 169 218 287 324 398
#     4  10  26  42  70 101 135 176 218 282 345 413
#     4   9  19  37  61  90 129 176 216 265 327 401
#     4   9  21  39  62  94 138 185 227 270 338 410
#
# _framework density 22.885611999999998
#
# number of rings (size 3 to 8) (size 9 to 14) (size 15 to 20)
#    0.000    2.000    2.500    1.875   10.500    3.500 
#    0.000    2.500    0.000    4.500    0.000    0.000 
#    0.000    0.000    0.000    0.000    0.000    0.000 
#
# Total GULP energy -178575.272015 kJ/mol
# GULP energy per Si atom -5580.477250 kJ/mol
# Density = 2.283352 g / cm^3
# Si number density = 22.885612 Si / 1000 Ang^3
#
#
#
# Elastic Constant Matrix: (Units=GPa)
#
#
# Indices 1 2 3 4 5 6 
#
# 1 150.6240 56.9227 10.4401 0.0000 0.0000 0.0000
# 2 56.9227 99.8478 28.0410 0.0000 0.0000 0.0000
# 3 10.4401 28.0410 71.1361 0.0000 0.0000 0.0000
# 4 0.0000 0.0000 0.0000 14.0500 0.0000 0.0000
# 5 0.0000 0.0000 0.0000 0.0000 14.7758 0.0000
# 6 0.0000 0.0000 0.0000 0.0000 0.0000 28.9179
#
#
#
# Elastic Compliance Matrix: (Units=1/GPa)
#
#
# Indices 1 2 3 4 5 6 
#
# 1 0.008497 -0.005053 0.000745 0.000000 0.000000 0.000000
# 2 -0.005053 0.014267 -0.004882 0.000000 0.000000 0.000000
# 3 0.000745 -0.004882 0.015873 0.000000 0.000000 0.000000
# 4 0.000000 0.000000 0.000000 0.071174 0.000000 0.000000
# 5 0.000000 0.000000 0.000000 0.000000 0.067678 0.000000
# 6 0.000000 0.000000 0.000000 0.000000 0.000000 0.034581
#
#
# Mechanical properties :
#
#
# Convention : Reuss Voigt Hill
#
# Bulk Modulus (GPa) = 49.36899 56.93503 53.15201
# Shear Modulus (GPa) = 21.07891 26.62903 23.85397
#
# Velocity S-wave (km/s) = 3.03818 3.41482 3.23199
# Velocity P-wave (km/s) = 5.82463 6.36239 6.09944
#
# Compressibility (1/GPa) = 0.02025563
#
# Stress axis : x y z
#
# Youngs Moduli (GPa) = 117.68655 70.09040 63.00090
#
# Poissons Ratio (x) = 0.35419 -0.04693
# Poissons Ratio (y) = 0.59471 0.30759
# Poissons Ratio (z) = -0.08767 0.34221
#
# Static dielectric constant tensor:
#      x y z
#    x 1.935850 0.000000 0.000000 
#    y 0.000000 1.923320 0.000000 
#    z 0.000000 0.000000 1.828000 
# 
# From -- ./inp_files/6780.got.cif
#   From: 2010.05.17/outbox.cif.g08.bks.cpg/sg51_4_cif.got.tgz:6780.got - 2010.06.03 11:52:47.
