data_PCOD9406767
_publ_section_title
;
Structure prediction by ZEFSAII (Michael W. Deem and Ramdas Pophale) SiO2 
 PCOD9406767
Probable space group: P M M A
;
_chemical_formula_sum "Si O2"
_cell_formula_units_Z 56
_cell_length_a 8.370809
_cell_length_b 20.392867
_cell_length_c 16.154642
_cell_angle_alpha 90.000000
_cell_angle_beta 90.000000
_cell_angle_gamma 90.000000
_cell_volume 2757.674845
_symmetry_space_group_name_H-M "P M M A"
_symmetry_group_IT_number 51
_symmetry_cell_setting 'orthorhombic'
loop_
_space_group_symop_operation_xyz
x,y,z
1/2-x,-y,z
1/2+x,-y,-z
-x,y,-z
-x,-y,-z
1/2+x,y,-z
1/2-x,y,z
x,-y,z
loop_
_atom_site_type_symbol
_atom_site_label
_atom_site_fract_x
_atom_site_fract_y
_atom_site_fract_z
Si Si1 0.935780 0.072021 0.258331
Si Si2 0.427433 0.921973 0.082950
Si Si3 0.941906 0.573200 0.648306
Si Si4 0.441603 0.714112 0.091405
Si Si5 0.062606 0.705247 0.587121
Si Si6 0.056119 0.426926 0.156761
Si Si7 0.944802 0.785675 0.256599
O O1 0.750000 0.069140 0.281526
O O2 0.002223 0.141962 0.285765
O O3 0.953648 0.081219 0.159494
O O4 0.007842 0.000000 0.278388
O O5 0.250000 0.895863 0.102316
O O6 0.408536 0.000000 0.068958
O O7 0.500000 0.892552 0.000000
O O8 0.750000 0.580158 0.642856
O O9 0.985791 0.500000 0.622131
O O10 0.984618 0.579828 0.745829
O O11 0.023864 0.628895 0.595675
O O12 0.250000 0.714083 0.092223
O O13 0.499071 0.638985 0.110685
O O14 0.498321 0.760679 0.166831
O O15 0.500000 0.732985 0.000000
O O16 0.250000 0.715949 0.588073
O O17 0.997276 0.737280 0.671316
O O18 0.000000 0.731302 0.500000
O O19 0.250000 0.427699 0.151830
O O20 0.001007 0.500000 0.128831
O O21 0.750000 0.786989 0.253391
#
# Coordination Sequence:
#
# PCOD9406767 Si02
#       7
#     8   8   8   8   8   8   8
#     4   9  18  34  56  78 100 131 171 217 273 331
#     4   9  16  26  42  67  99 132 167 208 254 307
#     4   9  17  33  58  85 114 148 187 231 278 328
#     4  11  22  36  57  82 113 153 194 234 279 329
#     4  11  23  38  59  85 115 148 186 229 276 334
#     4   8  15  30  53  79 108 145 188 232 277 322
#     4  10  22  40  59  82 112 143 182 232 279 330
#
# _framework density 20.306961999999999
#
# number of rings (size 3 to 8) (size 9 to 14) (size 15 to 20)
#    0.000    2.429    1.429    2.143    0.000    4.286 
#    0.000    0.000    0.000    1.714    0.000    0.000 
#    0.000    0.000    0.000    0.000    0.000    0.143 
#
# Total GULP energy -312106.637798 kJ/mol
# GULP energy per Si atom -5573.332818 kJ/mol
# Density = 2.026074 g / cm^3
# Si number density = 20.306962 Si / 1000 Ang^3
#
#
#
# Elastic Constant Matrix: (Units=GPa)
#
#
# Indices 1 2 3 4 5 6 
#
# 1 21.5850 13.2208 13.3590 0.0000 0.0000 0.0000
# 2 13.2208 122.8954 37.9832 0.0000 0.0000 0.0000
# 3 13.3590 37.9832 84.8764 0.0000 0.0000 0.0000
# 4 0.0000 0.0000 0.0000 -4.1107 0.0000 0.0000
# 5 0.0000 0.0000 0.0000 0.0000 17.2565 0.0000
# 6 0.0000 0.0000 0.0000 0.0000 0.0000 12.2944
#
#
#
# Elastic Compliance Matrix: (Units=1/GPa)
#
#
# Indices 1 2 3 4 5 6 
#
# 1 0.052667 -0.003602 -0.006678 0.000000 0.000000 0.000000
# 2 -0.003602 0.009689 -0.003769 0.000000 0.000000 0.000000
# 3 -0.006678 -0.003769 0.014520 0.000000 0.000000 0.000000
# 4 0.000000 0.000000 0.000000 -0.243266 0.000000 0.000000
# 5 0.000000 0.000000 0.000000 0.000000 0.057949 0.000000
# 6 0.000000 0.000000 0.000000 0.000000 0.000000 0.081338
#
#
# Mechanical properties :
#
#
# Convention : Reuss Voigt Hill
#
# Bulk Modulus (GPa) = 20.50066 39.83143 30.16604
# Shear Modulus (GPa) = 289.78683 16.07430 152.93056
#
# Velocity S-wave (km/s) = 11.95880 2.81653 8.68751
# Velocity P-wave (km/s) = 14.17044 5.49858 10.74792
#
# Compressibility (1/GPa) = 0.04877892
#
# Stress axis : x y z
#
# Youngs Moduli (GPa) = 18.98707 103.20500 68.87239
#
# Poissons Ratio (x) = 0.37175 0.45990
# Poissons Ratio (y) = 0.06839 0.25959
# Poissons Ratio (z) = 0.12679 0.38900
#
# Static dielectric constant tensor:
#      x y z
#    x 1.733700 0.000000 0.000000 
#    y 0.000000 1.802120 0.000000 
#    z 0.000000 0.000000 1.704060 
# 
# From -- ./inp_files/21772.got.cif
#   From: 2010.05.17/outbox.cif.g08.bks.cpg/sg51_11_cif.got.tgz:21772.got - 2010.06.03 11:52:47.
