data_PCOD9406925
_publ_section_title
;
Structure prediction by ZEFSAII (Michael W. Deem and Ramdas Pophale) SiO2 
 PCOD9406925
Probable space group: P M M A
;
_chemical_formula_sum "Si O2"
_cell_formula_units_Z 38
_cell_length_a 8.960829
_cell_length_b 12.085699
_cell_length_c 17.678133
_cell_angle_alpha 90.000000
_cell_angle_beta 90.000000
_cell_angle_gamma 90.000000
_cell_volume 1914.504363
_symmetry_space_group_name_H-M "P M M A"
_symmetry_group_IT_number 51
_symmetry_cell_setting 'orthorhombic'
loop_
_space_group_symop_operation_xyz
x,y,z
1/2-x,-y,z
1/2+x,-y,-z
-x,y,-z
-x,-y,-z
1/2+x,y,-z
1/2-x,y,z
x,-y,z
loop_
_atom_site_type_symbol
_atom_site_label
_atom_site_fract_x
_atom_site_fract_y
_atom_site_fract_z
Si Si1 0.928319 0.500000 0.875018
Si Si2 0.072962 0.130669 0.770925
Si Si3 0.579858 0.287748 0.651814
Si Si4 0.572209 0.730749 0.076123
Si Si5 0.000000 0.825694 0.500000
Si Si6 0.250000 0.000000 0.545095
Si Si7 0.425222 0.500000 0.710802
O O1 0.750000 0.500000 0.882314
O O2 0.997112 0.388622 0.910163
O O3 0.980870 0.500000 0.788103
O O4 0.250000 0.143111 0.752723
O O5 0.046368 0.192532 0.850551
O O6 0.975625 0.190179 0.707208
O O7 0.041904 0.000000 0.775520
O O8 0.750000 0.318234 0.671206
O O9 0.571271 0.246923 0.566144
O O10 0.471807 0.390844 0.665909
O O11 0.750000 0.717537 0.067287
O O12 0.500000 0.778773 0.000000
O O13 0.879121 0.903912 0.460306
O O14 0.250000 0.500000 0.729059
#
# Coordination Sequence:
#
# PCOD9406925 Si02
#       7
#     4   8   8   8   4   2   4
#     4  12  23  41  67  99 130 168 217 274 329 393
#     4  10  24  42  66  95 130 176 223 271 329 396
#     4  12  26  44  68 100 134 174 222 276 329 392
#     4  11  23  41  65  95 132 173 222 273 330 392
#     4  11  26  43  70 102 138 179 229 274 328 382
#     4  10  24  46  68 100 140 182 218 282 326 382
#     4  12  26  44  70  96 133 175 216 270 334 400
#
# _framework density 19.848479999999999
#
# number of rings (size 3 to 8) (size 9 to 14) (size 15 to 20)
#    0.000    0.842    3.158    3.474    5.895    2.105 
#    0.000    0.000    0.000    0.000    0.000    0.000 
#    0.000    0.000    0.000    0.000    0.000    0.000 
#
# Total GULP energy -212037.447840 kJ/mol
# GULP energy per Si atom -5579.932838 kJ/mol
# Density = 1.980330 g / cm^3
# Si number density = 19.848480 Si / 1000 Ang^3
#
#
#
# Elastic Constant Matrix: (Units=GPa)
#
#
# Indices 1 2 3 4 5 6 
#
# 1 111.4143 31.8384 28.5056 0.0000 0.0000 0.0000
# 2 31.8384 93.1234 26.1826 0.0000 0.0000 0.0000
# 3 28.5056 26.1826 95.1933 0.0000 0.0000 0.0000
# 4 0.0000 0.0000 0.0000 -20.3764 0.0000 0.0000
# 5 0.0000 0.0000 0.0000 0.0000 22.3342 0.0000
# 6 0.0000 0.0000 0.0000 0.0000 0.0000 66.9683
#
#
#
# Elastic Compliance Matrix: (Units=1/GPa)
#
#
# Indices 1 2 3 4 5 6 
#
# 1 0.010398 -0.002904 -0.002315 0.000000 0.000000 0.000000
# 2 -0.002904 0.012450 -0.002555 0.000000 0.000000 0.000000
# 3 -0.002315 -0.002555 0.011901 0.000000 0.000000 0.000000
# 4 0.000000 0.000000 0.000000 -0.049076 0.000000 0.000000
# 5 0.000000 0.000000 0.000000 0.000000 0.044774 0.000000
# 6 0.000000 0.000000 0.000000 0.000000 0.000000 0.014932
#
#
# Mechanical properties :
#
#
# Convention : Reuss Voigt Hill
#
# Bulk Modulus (GPa) = 52.08059 52.53158 52.30609
# Shear Modulus (GPa) = 74.26590 27.99885 51.13237
#
# Velocity S-wave (km/s) = 6.12353 3.75991 5.08107
# Velocity P-wave (km/s) = 8.73458 6.73595 7.79955
#
# Compressibility (1/GPa) = 0.01920101
#
# Stress axis : x y z
#
# Youngs Moduli (GPa) = 96.17557 80.32399 84.02833
#
# Poissons Ratio (x) = 0.23327 0.19451
# Poissons Ratio (y) = 0.27930 0.21466
# Poissons Ratio (z) = 0.22263 0.20519
#
# Static dielectric constant tensor:
#      x y z
#    x 1.704620 0.000000 0.000000 
#    y 0.000000 1.673480 0.000000 
#    z 0.000000 0.000000 1.709670 
# 
# From -- ./inp_files/27098.got.cif
#   From: 2010.05.17/outbox.cif.g08.bks.cpg/sg51_14_cif.got.tgz:27098.got - 2010.06.03 11:52:47.
