data_PCOD9406893
_publ_section_title
;
Structure prediction by ZEFSAII (Michael W. Deem and Ramdas Pophale) SiO2 
 PCOD9406893
Probable space group: P M M A
;
_chemical_formula_sum "Si O2"
_cell_formula_units_Z 34
_cell_length_a 11.005779
_cell_length_b 7.292213
_cell_length_c 19.196639
_cell_angle_alpha 90.000000
_cell_angle_beta 90.000000
_cell_angle_gamma 90.000000
_cell_volume 1540.654764
_symmetry_space_group_name_H-M "P M M A"
_symmetry_group_IT_number 51
_symmetry_cell_setting 'orthorhombic'
loop_
_space_group_symop_operation_xyz
x,y,z
1/2-x,-y,z
1/2+x,-y,-z
-x,y,-z
-x,-y,-z
1/2+x,y,-z
1/2-x,y,z
x,-y,z
loop_
_atom_site_type_symbol
_atom_site_label
_atom_site_fract_x
_atom_site_fract_y
_atom_site_fract_z
Si Si1 0.117148 0.716222 0.792549
Si Si2 0.883936 0.779571 0.042591
Si Si3 0.116146 0.278898 0.289648
Si Si4 0.250000 0.000000 0.610618
Si Si5 0.033161 0.282170 0.579733
O O1 0.250000 0.794129 0.771975
O O2 0.121662 0.500000 0.776544
O O3 0.105315 0.736512 0.875625
O O4 0.997548 0.790791 0.755502
O O5 0.750000 0.714500 0.019078
O O6 0.883206 0.000000 0.036217
O O7 0.000000 0.710811 0.000000
O O8 0.250000 0.209942 0.271555
O O9 0.119369 0.500000 0.280126
O O10 0.081006 0.245497 0.369678
O O11 0.356333 0.840170 0.605420
O O12 0.061199 0.500000 0.585300
O O13 0.000000 0.241621 0.500000
#
# Coordination Sequence:
#
# PCOD9406893 Si02
#       5
#     8   8   8   2   8
#     4   9  18  33  54  80 111 144 184 238 290 343
#     4   9  18  33  51  73 103 141 181 226 278 343
#     4   9  19  37  60  85 115 154 198 242 298 367
#     4  12  24  40  62  98 124 158 210 270 304 380
#     4  10  23  42  65  90 123 167 208 256 318 372
#
# _framework density 22.068542000000001
#
# number of rings (size 3 to 8) (size 9 to 14) (size 15 to 20)
#    0.000    2.588    0.000    0.706    3.294    1.412 
#    2.118    0.000    0.000    0.000    0.000    0.000 
#    0.000    0.000    0.000    0.000    0.000    0.000 
#
# Total GULP energy -189388.737241 kJ/mol
# GULP energy per Si atom -5570.256978 kJ/mol
# Density = 2.201831 g / cm^3
# Si number density = 22.068542 Si / 1000 Ang^3
#
#
#
# Elastic Constant Matrix: (Units=GPa)
#
#
# Indices 1 2 3 4 5 6 
#
# 1 252.7617 27.7097 88.8014 0.0000 0.0000 0.0000
# 2 27.7097 100.6803 -7.2849 0.0000 0.0000 0.0000
# 3 88.8014 -7.2849 78.3700 0.0000 0.0000 0.0000
# 4 0.0000 0.0000 0.0000 30.2415 0.0000 0.0000
# 5 0.0000 0.0000 0.0000 0.0000 41.8876 0.0000
# 6 0.0000 0.0000 0.0000 0.0000 0.0000 -10.6736
#
#
#
# Elastic Compliance Matrix: (Units=1/GPa)
#
#
# Indices 1 2 3 4 5 6 
#
# 1 0.007184 -0.002583 -0.008380 0.000000 0.000000 0.000000
# 2 -0.002583 0.010929 0.003943 0.000000 0.000000 0.000000
# 3 -0.008380 0.003943 0.022622 0.000000 0.000000 0.000000
# 4 0.000000 0.000000 0.000000 0.033067 0.000000 0.000000
# 5 0.000000 0.000000 0.000000 0.000000 0.023873 0.000000
# 6 0.000000 0.000000 0.000000 0.000000 0.000000 -0.093689
#
#
# Mechanical properties :
#
#
# Convention : Reuss Voigt Hill
#
# Bulk Modulus (GPa) = 37.46177 72.25160 54.85669
# Shear Modulus (GPa) = 185.70856 33.79681 109.75268
#
# Velocity S-wave (km/s) = 9.18333 3.91762 7.05979
# Velocity P-wave (km/s) = 11.37790 7.29893 9.55853
#
# Compressibility (1/GPa) = 0.02669388
#
# Stress axis : x y z
#
# Youngs Moduli (GPa) = 139.20665 91.50165 44.20517
#
# Poissons Ratio (x) = 0.23639 0.37043
# Poissons Ratio (y) = 0.35963 -0.17431
# Poissons Ratio (z) = 1.16653 -0.36081
#
# Static dielectric constant tensor:
#      x y z
#    x 1.801510 0.000000 0.000000 
#    y 0.000000 1.833650 0.000000 
#    z 0.000000 0.000000 1.783570 
# 
# From -- ./inp_files/31143.got.cif
#   From: 2010.05.17/outbox.cif.g08.bks.cpg/sg51_16_cif.got.tgz:31143.got - 2010.06.03 11:52:47.
