data_PCOD9406442
_publ_section_title
;
Structure prediction by ZEFSAII (Michael W. Deem and Ramdas Pophale) SiO2 
 PCOD9406442
Probable space group: P M M A
;
_chemical_formula_sum "Si O2"
_cell_formula_units_Z 40
_cell_length_a 18.717579
_cell_length_b 8.921613
_cell_length_c 12.676760
_cell_angle_alpha 90.000000
_cell_angle_beta 90.000000
_cell_angle_gamma 90.000000
_cell_volume 2116.904780
_symmetry_space_group_name_H-M "P M M A"
_symmetry_group_IT_number 51
_symmetry_cell_setting 'orthorhombic'
loop_
_space_group_symop_operation_xyz
x,y,z
1/2-x,-y,z
1/2+x,-y,-z
-x,y,-z
-x,-y,-z
1/2+x,y,-z
1/2-x,y,z
x,-y,z
loop_
_atom_site_type_symbol
_atom_site_label
_atom_site_fract_x
_atom_site_fract_y
_atom_site_fract_z
Si Si1 0.420692 0.820102 0.655771
Si Si2 0.077261 0.321166 0.050403
Si Si3 0.832462 0.320750 0.534091
Si Si4 0.918155 0.179562 0.718948
Si Si5 0.833390 0.179240 0.133133
O O1 0.383220 0.740831 0.558000
O O2 0.503807 0.782001 0.670817
O O3 0.378991 0.780504 0.763351
O O4 0.415477 0.000000 0.641155
O O5 0.081147 0.500000 0.062996
O O6 0.085243 0.242857 0.163104
O O7 0.135889 0.263832 0.967872
O O8 0.000000 0.283224 0.000000
O O9 0.750000 0.279839 0.512320
O O10 0.837597 0.500000 0.539429
O O11 0.858846 0.250156 0.643537
O O12 0.912102 0.000000 0.720772
O O13 0.750000 0.211376 0.150258
O O14 0.841423 0.000000 0.117059
#
# Coordination Sequence:
#
# PCOD9406442 Si02
#       5
#     8   8   8   8   8
#     4  10  21  39  64  92 121 155 201 253 301 356
#     4  11  23  39  61  89 123 161 199 245 301 357
#     4  11  25  42  60  87 125 164 201 247 303 361
#     4  11  23  40  66  92 118 157 205 253 301 356
#     4  10  21  38  62  91 123 160 201 249 303 357
#
# _framework density 18.895513000000001
#
# number of rings (size 3 to 8) (size 9 to 14) (size 15 to 20)
#    0.000    1.400    2.000    3.000    0.000    9.200 
#    0.000    0.000    0.000    0.000    0.000    0.000 
#    0.000    0.000    0.000    0.000    0.000    0.000 
#
# Total GULP energy -223693.741686 kJ/mol
# GULP energy per Si atom -5592.343542 kJ/mol
# Density = 1.885251 g / cm^3
# Si number density = 18.895513 Si / 1000 Ang^3
#
#
#
# Elastic Constant Matrix: (Units=GPa)
#
#
# Indices 1 2 3 4 5 6 
#
# 1 34.6395 11.7018 -0.9722 0.0000 0.0000 0.0000
# 2 11.7018 25.0193 25.8149 0.0000 0.0000 0.0000
# 3 -0.9722 25.8149 97.7570 0.0000 0.0000 0.0000
# 4 0.0000 0.0000 0.0000 81.5560 0.0000 0.0000
# 5 0.0000 0.0000 0.0000 0.0000 23.7290 0.0000
# 6 0.0000 0.0000 0.0000 0.0000 0.0000 -2.3993
#
#
#
# Elastic Compliance Matrix: (Units=1/GPa)
#
#
# Indices 1 2 3 4 5 6 
#
# 1 0.037350 -0.024538 0.006851 0.000000 0.000000 0.000000
# 2 -0.024538 0.071059 -0.019009 0.000000 0.000000 0.000000
# 3 0.006851 -0.019009 0.015317 0.000000 0.000000 0.000000
# 4 0.000000 0.000000 0.000000 0.012262 0.000000 0.000000
# 5 0.000000 0.000000 0.000000 0.000000 0.042143 0.000000
# 6 0.000000 0.000000 0.000000 0.000000 0.000000 -0.416789
#
#
# Mechanical properties :
#
#
# Convention : Reuss Voigt Hill
#
# Bulk Modulus (GPa) = 19.86677 25.61163 22.73920
# Shear Modulus (GPa) = -33.67277 28.63523 -2.51877
#
# Velocity S-wave (km/s) = -4.22601 3.89710 -1.15581
# Velocity P-wave (km/s) = 3.64355 5.81667 3.20611
#
# Compressibility (1/GPa) = 0.05033532
#
# Stress axis : x y z
#
# Youngs Moduli (GPa) = 26.77341 14.07279 65.28574
#
# Poissons Ratio (x) = 0.34532 -0.44730
# Poissons Ratio (y) = 0.65698 1.24100
# Poissons Ratio (z) = -0.18343 0.26751
#
# Static dielectric constant tensor:
#      x y z
#    x 1.642180 0.000000 0.000000 
#    y 0.000000 1.630140 0.000000 
#    z 0.000000 0.000000 1.615320 
# 
# From -- ./inp_files/17053.got.cif
#   From: 2010.05.17/outbox.cif.g08.bks.cpg/sg51_9_cif.got.tgz:17053.got - 2010.06.03 11:52:47.
