data_PCOD9406051
_publ_section_title
;
Structure prediction by ZEFSAII (Michael W. Deem and Ramdas Pophale) SiO2 
 PCOD9406051
Probable space group: P M M A
;
_chemical_formula_sum "Si O2"
_cell_formula_units_Z 48
_cell_length_a 9.177526
_cell_length_b 8.620275
_cell_length_c 31.751721
_cell_angle_alpha 90.000000
_cell_angle_beta 90.000000
_cell_angle_gamma 90.000000
_cell_volume 2511.967488
_symmetry_space_group_name_H-M "P M M A"
_symmetry_group_IT_number 51
_symmetry_cell_setting 'orthorhombic'
loop_
_space_group_symop_operation_xyz
x,y,z
1/2-x,-y,z
1/2+x,-y,-z
-x,y,-z
-x,-y,-z
1/2+x,y,-z
1/2-x,y,z
x,-y,z
loop_
_atom_site_type_symbol
_atom_site_label
_atom_site_fract_x
_atom_site_fract_y
_atom_site_fract_z
Si Si1 0.580817 0.813963 0.207442
Si Si2 0.918710 0.312547 0.375342
Si Si3 0.580481 0.687641 0.710328
Si Si4 0.918629 0.812482 0.542658
Si Si5 0.080827 0.686021 0.125235
Si Si6 0.080424 0.812449 0.956984
O O1 0.750000 0.764309 0.207417
O O2 0.501164 0.754069 0.249209
O O3 0.499707 0.750327 0.166347
O O4 0.576520 0.000000 0.206593
O O5 0.750000 0.263033 0.374603
O O6 0.922045 0.500000 0.376608
O O7 0.000989 0.263352 0.332731
O O8 0.999536 0.249472 0.416361
O O9 0.750000 0.733927 0.709965
O O10 0.574847 0.500000 0.712404
O O11 0.750000 0.762682 0.542310
O O12 0.000000 0.761998 0.500000
O O13 0.921656 0.000000 0.543628
O O14 0.250000 0.735756 0.124973
O O15 0.076641 0.500000 0.126338
O O16 0.000459 0.745098 0.083494
O O17 0.250000 0.766263 0.957698
O O18 0.074705 0.000000 0.954622
O O19 0.000000 0.764801 0.000000
#
# Coordination Sequence:
#
# PCOD9406051 Si02
#       6
#     8   8   8   8   8   8
#     4  11  24  40  59  85 115 148 188 232 279 333
#     4  10  21  37  58  84 113 147 186 228 277 332
#     4  10  21  38  60  85 113 146 185 229 278 332
#     4  10  21  37  57  81 110 146 187 231 280 332
#     4  11  24  40  59  85 116 151 191 234 282 335
#     4  10  21  38  61  88 117 151 191 234 282 335
#
# _framework density 19.108529000000001
#
# number of rings (size 3 to 8) (size 9 to 14) (size 15 to 20)
#    0.000    1.667    0.000    4.000    0.000   12.000 
#    0.000    0.000    0.000    0.000    0.000    0.000 
#    0.000    0.000    0.000    0.000    0.000    0.000 
#
# Total GULP energy -268389.979814 kJ/mol
# GULP energy per Si atom -5591.457913 kJ/mol
# Density = 1.906504 g / cm^3
# Si number density = 19.108529 Si / 1000 Ang^3
#
#
#
# Elastic Constant Matrix: (Units=GPa)
#
#
# Indices 1 2 3 4 5 6 
#
# 1 243.2188 46.6843 150.6036 0.0000 0.0000 0.0000
# 2 46.6843 14.8865 40.6396 0.0000 0.0000 0.0000
# 3 150.6036 40.6396 241.8363 0.0000 0.0000 0.0000
# 4 0.0000 0.0000 0.0000 40.9253 0.0000 0.0000
# 5 0.0000 0.0000 0.0000 0.0000 46.6452 0.0000
# 6 0.0000 0.0000 0.0000 0.0000 0.0000 30.0452
#
#
#
# Elastic Compliance Matrix: (Units=1/GPa)
#
#
# Indices 1 2 3 4 5 6 
#
# 1 0.010785 -0.028614 -0.001908 0.000000 0.000000 0.000000
# 2 -0.028614 0.200026 -0.015794 0.000000 0.000000 0.000000
# 3 -0.001908 -0.015794 0.007977 0.000000 0.000000 0.000000
# 4 0.000000 0.000000 0.000000 0.024435 0.000000 0.000000
# 5 0.000000 0.000000 0.000000 0.000000 0.021438 0.000000
# 6 0.000000 0.000000 0.000000 0.000000 0.000000 0.033283
#
#
# Mechanical properties :
#
#
# Convention : Reuss Voigt Hill
#
# Bulk Modulus (GPa) = 7.92668 108.42184 58.17426
# Shear Modulus (GPa) = 11.55724 40.99076 26.27400
#
# Velocity S-wave (km/s) = 2.46198 4.63661 3.71211
# Velocity P-wave (km/s) = 3.49843 9.24810 6.99165
#
# Compressibility (1/GPa) = 0.12615625
#
# Stress axis : x y z
#
# Youngs Moduli (GPa) = 92.71902 4.99936 125.35300
#
# Poissons Ratio (x) = 0.14305 0.23919
# Poissons Ratio (y) = 2.65304 1.97986
# Poissons Ratio (z) = 0.17692 0.07896
#
# Static dielectric constant tensor:
#      x y z
#    x 1.648400 0.000000 0.000000 
#    y 0.000000 1.655930 0.000000 
#    z 0.000000 0.000000 1.609240 
# 
# From -- ./inp_files/36923.got.cif
#   From: 2010.05.17/outbox.cif.g08.bks.cpg/sg51_19_cif.got.tgz:36923.got - 2010.06.03 11:52:47.
