data_PCOD9406963
_publ_section_title
;
Structure prediction by ZEFSAII (Michael W. Deem and Ramdas Pophale) SiO2 
 PCOD9406963
Probable space group: P M M A
;
_chemical_formula_sum "Si O2"
_cell_formula_units_Z 56
_cell_length_a 27.110732
_cell_length_b 9.083493
_cell_length_c 14.727029
_cell_angle_alpha 90.000000
_cell_angle_beta 90.000000
_cell_angle_gamma 90.000000
_cell_volume 3626.680287
_symmetry_space_group_name_H-M "P M M A"
_symmetry_group_IT_number 51
_symmetry_cell_setting 'orthorhombic'
loop_
_space_group_symop_operation_xyz
x,y,z
1/2-x,-y,z
1/2+x,-y,-z
-x,y,-z
-x,-y,-z
1/2+x,y,-z
1/2-x,y,z
x,-y,z
loop_
_atom_site_type_symbol
_atom_site_label
_atom_site_fract_x
_atom_site_fract_y
_atom_site_fract_z
Si Si1 0.375206 0.829248 0.729212
Si Si2 0.886854 0.675080 0.979362
Si Si3 0.543832 0.677797 0.625920
Si Si4 0.807850 0.177232 0.109170
Si Si5 0.567524 0.824827 0.813168
Si Si6 0.957412 0.830251 0.114865
Si Si7 0.431564 0.676305 0.575934
O O1 0.329863 0.778463 0.792334
O O2 0.422013 0.819771 0.797504
O O3 0.389564 0.742434 0.639375
O O4 0.367574 0.000000 0.706187
O O5 0.883746 0.500000 0.974387
O O6 0.894509 0.746778 0.880935
O O7 0.840239 0.742817 0.032829
O O8 0.934063 0.724752 0.039844
O O9 0.546171 0.500000 0.636040
O O10 0.566444 0.756456 0.712926
O O11 0.485873 0.718179 0.614284
O O12 0.569099 0.718503 0.530097
O O13 0.750000 0.206932 0.101815
O O14 0.815914 0.000000 0.101524
O O15 0.512829 0.798722 0.855118
O O16 0.575356 0.000000 0.810387
O O17 0.954536 0.000000 0.081432
O O18 0.429431 0.500000 0.579587
#
# Coordination Sequence:
#
# PCOD9406963 Si02
#       7
#     8   8   8   8   8   8   8
#     4   9  16  28  47  71  94 120 158 197 234 278
#     4  11  22  32  46  69  95 123 156 196 240 286
#     4   9  18  30  43  63  94 130 166 197 230 274
#     4   9  19  37  56  72  94 123 154 193 241 290
#     4  11  20  31  46  65  92 129 167 201 234 275
#     4   9  18  31  44  63  93 128 163 197 230 273
#     4   9  17  29  44  64  94 130 160 192 236 280
#
# _framework density 15.441117999999999
#
# number of rings (size 3 to 8) (size 9 to 14) (size 15 to 20)
#    0.000    2.429    1.429    3.857    0.000    6.000 
#    0.000    1.429    0.000    0.000    0.000    1.000 
#    0.000    3.429    0.000    0.000    0.000    0.000 
#
# Total GULP energy -312251.171971 kJ/mol
# GULP energy per Si atom -5575.913785 kJ/mol
# Density = 1.540597 g / cm^3
# Si number density = 15.441118 Si / 1000 Ang^3
#
#
#
# Elastic Constant Matrix: (Units=GPa)
#
#
# Indices 1 2 3 4 5 6 
#
# 1 66.7153 36.4069 53.6988 0.0000 0.0000 0.0000
# 2 36.4069 57.8661 66.2886 0.0000 0.0000 0.0000
# 3 53.6988 66.2886 141.7158 0.0000 0.0000 0.0000
# 4 0.0000 0.0000 0.0000 34.5523 0.0000 0.0000
# 5 0.0000 0.0000 0.0000 0.0000 12.1877 0.0000
# 6 0.0000 0.0000 0.0000 0.0000 0.0000 -129.6963
#
#
#
# Elastic Compliance Matrix: (Units=1/GPa)
#
#
# Indices 1 2 3 4 5 6 
#
# 1 0.024025 -0.010098 -0.004380 0.000000 0.000000 0.000000
# 2 -0.010098 0.041475 -0.015574 0.000000 0.000000 0.000000
# 3 -0.004380 -0.015574 0.016001 0.000000 0.000000 0.000000
# 4 0.000000 0.000000 0.000000 0.028942 0.000000 0.000000
# 5 0.000000 0.000000 0.000000 0.000000 0.082050 0.000000
# 6 0.000000 0.000000 0.000000 0.000000 0.000000 -0.007710
#
#
# Mechanical properties :
#
#
# Convention : Reuss Voigt Hill
#
# Bulk Modulus (GPa) = 46.73516 64.34286 55.53901
# Shear Modulus (GPa) = 19.83974 -9.26438 5.28768
#
# Velocity S-wave (km/s) = 3.58839 -2.45211 1.85252
# Velocity P-wave (km/s) = 6.89210 5.80889 6.37355
#
# Compressibility (1/GPa) = 0.02139717
#
# Stress axis : x y z
#
# Youngs Moduli (GPa) = 41.62315 24.11070 62.49573
#
# Poissons Ratio (x) = 0.24346 0.27375
# Poissons Ratio (y) = 0.42030 0.97332
# Poissons Ratio (z) = 0.18232 0.37550
#
# Static dielectric constant tensor:
#      x y z
#    x 1.499410 0.000000 0.000000 
#    y 0.000000 1.516030 0.000000 
#    z 0.000000 0.000000 1.520830 
# 
# From -- ./inp_files/26466.got.cif
#   From: 2010.05.17/outbox.cif.g08.bks.cpg/sg51_14_cif.got.tgz:26466.got - 2010.06.03 11:52:47.
