data_PCOD9406903
_publ_section_title
;
Structure prediction by ZEFSAII (Michael W. Deem and Ramdas Pophale) SiO2 
 PCOD9406903
Probable space group: P M M A
;
_chemical_formula_sum "Si O2"
_cell_formula_units_Z 32
_cell_length_a 10.462690
_cell_length_b 21.973040
_cell_length_c 6.733503
_cell_angle_alpha 90.000000
_cell_angle_beta 90.000000
_cell_angle_gamma 90.000000
_cell_volume 1548.012852
_symmetry_space_group_name_H-M "P M M A"
_symmetry_group_IT_number 51
_symmetry_cell_setting 'orthorhombic'
loop_
_space_group_symop_operation_xyz
x,y,z
1/2-x,-y,z
1/2+x,-y,-z
-x,y,-z
-x,-y,-z
1/2+x,y,-z
1/2-x,y,z
x,-y,z
loop_
_atom_site_type_symbol
_atom_site_label
_atom_site_fract_x
_atom_site_fract_y
_atom_site_fract_z
Si Si1 0.392942 0.263878 0.153339
Si Si2 0.603210 0.867558 0.675685
Si Si3 0.897247 0.000000 0.676755
Si Si4 0.500000 0.341617 0.500000
Si Si5 0.605788 0.570688 0.170183
O O1 0.250000 0.274889 0.078387
O O2 0.409843 0.191817 0.190411
O O3 0.414467 0.298603 0.360254
O O4 0.500000 0.284200 0.000000
O O5 0.500000 0.863737 0.500000
O O6 0.750000 0.865239 0.597644
O O7 0.587705 0.933995 0.778191
O O8 0.000000 0.000000 0.500000
O O9 0.750000 0.000000 0.601683
O O10 0.420579 0.384743 0.647133
O O11 0.750000 0.579850 0.092338
O O12 0.595950 0.500000 0.235418
O O13 0.500000 0.579389 0.000000
#
# Coordination Sequence:
#
# PCOD9406903 Si02
#       5
#     8   8   4   4   8
#     4  11  25  41  59  86 122 161 204 251 301 355
#     4   9  17  33  55  83 113 151 195 245 300 355
#     4   8  14  26  51  80 110 143 189 243 297 353
#     4  12  23  40  66  91 120 160 208 244 294 347
#     4  10  23  43  67  96 127 158 195 243 296 352
#
# _framework density 20.671662000000001
#
# number of rings (size 3 to 8) (size 9 to 14) (size 15 to 20)
#    0.000    2.000    1.250    1.875    0.000    7.000 
#    0.000    3.125    0.000    0.000    0.000    0.000 
#    0.000    0.000    0.000    0.000    0.000    0.000 
#
# Total GULP energy -178539.302157 kJ/mol
# GULP energy per Si atom -5579.353192 kJ/mol
# Density = 2.062461 g / cm^3
# Si number density = 20.671662 Si / 1000 Ang^3
#
#
#
# Elastic Constant Matrix: (Units=GPa)
#
#
# Indices 1 2 3 4 5 6 
#
# 1 153.4247 41.6874 58.7452 0.0000 0.0000 0.0000
# 2 41.6874 163.1005 36.4809 0.0000 0.0000 0.0000
# 3 58.7452 36.4809 67.2530 0.0000 0.0000 0.0000
# 4 0.0000 0.0000 0.0000 8.0395 0.0000 0.0000
# 5 0.0000 0.0000 0.0000 0.0000 28.1042 0.0000
# 6 0.0000 0.0000 0.0000 0.0000 0.0000 81.7396
#
#
#
# Elastic Compliance Matrix: (Units=1/GPa)
#
#
# Indices 1 2 3 4 5 6 
#
# 1 0.009858 -0.000676 -0.008245 0.000000 0.000000 0.000000
# 2 -0.000676 0.007024 -0.003220 0.000000 0.000000 0.000000
# 3 -0.008245 -0.003220 0.023818 0.000000 0.000000 0.000000
# 4 0.000000 0.000000 0.000000 0.124387 0.000000 0.000000
# 5 0.000000 0.000000 0.000000 0.000000 0.035582 0.000000
# 6 0.000000 0.000000 0.000000 0.000000 0.000000 0.012234
#
#
# Mechanical properties :
#
#
# Convention : Reuss Voigt Hill
#
# Bulk Modulus (GPa) = 60.90380 73.06723 66.98551
# Shear Modulus (GPa) = 20.60531 40.03430 30.31980
#
# Velocity S-wave (km/s) = 3.16062 4.40554 3.83395
# Velocity P-wave (km/s) = 6.54567 7.82954 7.21621
#
# Compressibility (1/GPa) = 0.01641934
#
# Stress axis : x y z
#
# Youngs Moduli (GPa) = 101.43793 142.36698 41.98579
#
# Poissons Ratio (x) = 0.09618 0.34616
# Poissons Ratio (y) = 0.06853 0.13520
# Poissons Ratio (z) = 0.83632 0.45843
#
# Static dielectric constant tensor:
#      x y z
#    x 1.726620 0.000000 0.000000 
#    y 0.000000 1.796210 0.000000 
#    z 0.000000 0.000000 1.681500 
# 
# From -- ./inp_files/772.got.cif
#   From: 2010.05.17/outbox.cif.g08.bks.cpg/sg51_1_cif.got.tgz:772.got - 2010.06.03 11:52:47.
