data_PCOD9406734
_publ_section_title
;
Structure prediction by ZEFSAII (Michael W. Deem and Ramdas Pophale) SiO2 
 PCOD9406734
Probable space group: P M M A
;
_chemical_formula_sum "Si O2"
_cell_formula_units_Z 40
_cell_length_a 14.776265
_cell_length_b 14.493837
_cell_length_c 7.490880
_cell_angle_alpha 90.000000
_cell_angle_beta 90.000000
_cell_angle_gamma 90.000000
_cell_volume 1604.282640
_symmetry_space_group_name_H-M "P M M A"
_symmetry_group_IT_number 51
_symmetry_cell_setting 'orthorhombic'
loop_
_space_group_symop_operation_xyz
x,y,z
1/2-x,-y,z
1/2+x,-y,-z
-x,y,-z
-x,-y,-z
1/2+x,y,-z
1/2-x,y,z
x,-y,z
loop_
_atom_site_type_symbol
_atom_site_label
_atom_site_fract_x
_atom_site_fract_y
_atom_site_fract_z
Si Si1 0.641273 0.393277 0.476598
Si Si2 0.851575 0.109414 0.593975
Si Si3 0.532992 0.891780 0.230382
Si Si4 0.411797 0.393965 0.129740
Si Si5 0.650892 0.739768 0.141721
O O1 0.750000 0.389535 0.514149
O O2 0.620602 0.500000 0.422758
O O3 0.624669 0.323032 0.313994
O O4 0.586604 0.372244 0.658642
O O5 0.750000 0.149440 0.604893
O O6 0.899558 0.115488 0.401536
O O7 0.843385 0.000000 0.630319
O O8 0.932824 0.141729 0.719593
O O9 0.582308 0.821503 0.102940
O O10 0.531155 0.000000 0.183437
O O11 0.380968 0.500000 0.123288
O O12 0.346149 0.326125 0.027846
O O13 0.500000 0.388290 0.000000
O O14 0.750000 0.778900 0.177035
#
# Coordination Sequence:
#
# PCOD9406734 Si02
#       5
#     8   8   8   8   8
#     4   9  19  37  60  86 116 151 199 260 316 366
#     4   8  14  27  47  71 105 150 197 247 304 360
#     4   9  18  31  50  83 124 161 201 252 305 361
#     4  10  22  39  59  86 122 161 201 256 322 378
#     4  11  22  36  61  92 121 163 213 255 304 370
#
# _framework density 24.933261000000002
#
# number of rings (size 3 to 8) (size 9 to 14) (size 15 to 20)
#    0.000    2.600    0.000    3.000    0.000    7.200 
#    0.000    3.000    0.000    3.000    0.000    2.800 
#    0.000    2.400    0.000   10.000    0.000    0.000 
#
# Total GULP energy -223614.164616 kJ/mol
# GULP energy per Si atom -5590.354115 kJ/mol
# Density = 2.487651 g / cm^3
# Si number density = 24.933261 Si / 1000 Ang^3
#
#
#
# Elastic Constant Matrix: (Units=GPa)
#
#
# Indices 1 2 3 4 5 6 
#
# 1 188.1229 48.5413 38.6523 0.0000 0.0000 0.0000
# 2 48.5413 87.2205 43.2314 0.0000 0.0000 0.0000
# 3 38.6523 43.2314 127.5521 0.0000 0.0000 0.0000
# 4 0.0000 0.0000 0.0000 51.2595 0.0000 0.0000
# 5 0.0000 0.0000 0.0000 0.0000 22.2144 0.0000
# 6 0.0000 0.0000 0.0000 0.0000 0.0000 -25.6224
#
#
#
# Elastic Compliance Matrix: (Units=1/GPa)
#
#
# Indices 1 2 3 4 5 6 
#
# 1 0.006285 -0.003070 -0.000864 0.000000 0.000000 0.000000
# 2 -0.003070 0.015279 -0.004248 0.000000 0.000000 0.000000
# 3 -0.000864 -0.004248 0.009542 0.000000 0.000000 0.000000
# 4 0.000000 0.000000 0.000000 0.019509 0.000000 0.000000
# 5 0.000000 0.000000 0.000000 0.000000 0.045016 0.000000
# 6 0.000000 0.000000 0.000000 0.000000 0.000000 -0.039028
#
#
# Mechanical properties :
#
#
# Convention : Reuss Voigt Hill
#
# Bulk Modulus (GPa) = 67.83461 73.74949 70.79205
# Shear Modulus (GPa) = 64.20048 27.73501 45.96774
#
# Velocity S-wave (km/s) = 5.07985 3.33884 4.29841
# Velocity P-wave (km/s) = 7.85315 6.67134 7.28625
#
# Compressibility (1/GPa) = 0.01474174
#
# Stress axis : x y z
#
# Youngs Moduli (GPa) = 159.10151 65.44796 104.80240
#
# Poissons Ratio (x) = 0.20090 0.09058
# Poissons Ratio (y) = 0.48838 0.44525
# Poissons Ratio (z) = 0.13750 0.27805
#
# Static dielectric constant tensor:
#      x y z
#    x 2.060520 0.000000 0.000000 
#    y 0.000000 1.926720 0.000000 
#    z 0.000000 0.000000 1.980920 
# 
# From -- ./inp_files/2455.got.cif
#   From: 2010.05.17/outbox.cif.g08.bks.cpg/sg51_2_cif.got.tgz:2455.got - 2010.06.03 11:52:47.
