data_PCOD9406015
_publ_section_title
;
Structure prediction by ZEFSAII (Michael W. Deem and Ramdas Pophale) SiO2 
 PCOD9406015
Probable space group: P M M A
;
_chemical_formula_sum "Si O2"
_cell_formula_units_Z 64
_cell_length_a 8.118001
_cell_length_b 29.104180
_cell_length_c 14.549428
_cell_angle_alpha 90.000000
_cell_angle_beta 90.000000
_cell_angle_gamma 90.000000
_cell_volume 3437.560797
_symmetry_space_group_name_H-M "P M M A"
_symmetry_group_IT_number 51
_symmetry_cell_setting 'orthorhombic'
loop_
_space_group_symop_operation_xyz
x,y,z
1/2-x,-y,z
1/2+x,-y,-z
-x,y,-z
-x,-y,-z
1/2+x,y,-z
1/2-x,y,z
x,-y,z
loop_
_atom_site_type_symbol
_atom_site_label
_atom_site_fract_x
_atom_site_fract_y
_atom_site_fract_z
Si Si1 0.947535 0.448678 0.105824
Si Si2 0.050653 0.946973 0.898489
Si Si3 0.945574 0.624334 0.747776
Si Si4 0.558219 0.128337 0.238540
Si Si5 0.059806 0.795179 0.103613
Si Si6 0.444413 0.271919 0.751243
Si Si7 0.448701 0.449502 0.395188
Si Si8 0.948675 0.195315 0.393837
O O1 0.750000 0.446942 0.112674
O O2 0.002572 0.500000 0.137799
O O3 0.021223 0.406600 0.162688
O O4 0.000000 0.445021 0.000000
O O5 0.250000 0.946105 0.896100
O O6 0.987507 0.916208 0.813607
O O7 0.995819 0.000000 0.891556
O O8 0.000000 0.929428 0.000000
O O9 0.750000 0.630825 0.737898
O O10 0.010942 0.591891 0.666260
O O11 0.025254 0.674198 0.744264
O O12 0.750000 0.118453 0.257530
O O13 0.543875 0.167761 0.161102
O O14 0.489260 0.152232 0.331169
O O15 0.250000 0.809465 0.105419
O O16 0.037085 0.748342 0.160354
O O17 0.000000 0.791094 0.000000
O O18 0.250000 0.263437 0.763731
O O19 0.497982 0.241516 0.662455
O O20 0.500000 0.443773 0.500000
O O21 0.250000 0.449641 0.389323
O O22 0.508024 0.500000 0.364544
O O23 0.750000 0.193801 0.391933
O O24 0.000000 0.194731 0.500000
#
# Coordination Sequence:
#
# PCOD9406015 Si02
#       8
#     8   8   8   8   8   8   8   8
#     4  10  21  37  57  80 105 136 174 213 252 297
#     4   9  17  29  47  73 107 145 181 217 259 307
#     4  11  22  36  55  79 106 135 167 205 252 303
#     4   9  18  33  51  75 105 137 177 219 259 305
#     4  11  21  34  53  76 102 134 170 208 253 302
#     4  10  22  39  54  74 103 132 167 209 253 304
#     4   9  19  35  54  76 102 131 163 200 242 291
#     4   9  19  35  55  75  98 130 169 217 265 311
#
# _framework density 18.617851000000002
#
# number of rings (size 3 to 8) (size 9 to 14) (size 15 to 20)
#    0.000    2.250    0.000    3.750    0.000    7.250 
#    0.000    6.250    0.000    0.375    0.000    0.000 
#    0.000    0.000    0.000    0.000    0.000    0.250 
#
# Total GULP energy -356939.954685 kJ/mol
# GULP energy per Si atom -5577.186792 kJ/mol
# Density = 1.857548 g / cm^3
# Si number density = 18.617851 Si / 1000 Ang^3
#
#
#
# Elastic Constant Matrix: (Units=GPa)
#
#
# Indices 1 2 3 4 5 6 
#
# 1 24.5692 -4.0447 -3.8010 0.0000 0.0000 0.0000
# 2 -4.0447 96.1888 48.2366 0.0000 0.0000 0.0000
# 3 -3.8010 48.2366 126.2896 0.0000 0.0000 0.0000
# 4 0.0000 0.0000 0.0000 24.7992 0.0000 0.0000
# 5 0.0000 0.0000 0.0000 0.0000 26.3261 0.0000
# 6 0.0000 0.0000 0.0000 0.0000 0.0000 20.9032
#
#
#
# Elastic Compliance Matrix: (Units=1/GPa)
#
#
# Indices 1 2 3 4 5 6 
#
# 1 0.041037 0.001368 0.000712 0.000000 0.000000 0.000000
# 2 0.001368 0.012905 -0.004888 0.000000 0.000000 0.000000
# 3 0.000712 -0.004888 0.009807 0.000000 0.000000 0.000000
# 4 0.000000 0.000000 0.000000 0.040324 0.000000 0.000000
# 5 0.000000 0.000000 0.000000 0.000000 0.037985 0.000000
# 6 0.000000 0.000000 0.000000 0.000000 0.000000 0.047840
#
#
# Mechanical properties :
#
#
# Convention : Reuss Voigt Hill
#
# Bulk Modulus (GPa) = 17.20160 36.42551 26.81356
# Shear Modulus (GPa) = 23.26781 28.18282 25.72531
#
# Velocity S-wave (km/s) = 3.53903 3.89492 3.72123
# Velocity P-wave (km/s) = 5.09500 6.31146 5.73557
#
# Compressibility (1/GPa) = 0.05813413
#
# Stress axis : x y z
#
# Youngs Moduli (GPa) = 24.36838 77.48981 101.97126
#
# Poissons Ratio (x) = -0.10603 -0.07265
# Poissons Ratio (y) = -0.03334 0.49842
# Poissons Ratio (z) = -0.01736 0.37876
#
# Static dielectric constant tensor:
#      x y z
#    x 1.687760 0.000000 0.000000 
#    y 0.000000 1.660600 0.000000 
#    z 0.000000 0.000000 1.633760 
# 
# From -- ./inp_files/14840.got.cif
#   From: 2010.05.17/outbox.cif.g08.bks.cpg/sg51_8_cif.got.tgz:14840.got - 2010.06.03 11:52:47.
