data_PCOD9406286
_publ_section_title
;
Structure prediction by ZEFSAII (Michael W. Deem and Ramdas Pophale) SiO2 
 PCOD9406286
Probable space group: P M M A
;
_chemical_formula_sum "Si O2"
_cell_formula_units_Z 40
_cell_length_a 9.083201
_cell_length_b 7.376518
_cell_length_c 30.731972
_cell_angle_alpha 90.000000
_cell_angle_beta 90.000000
_cell_angle_gamma 90.000000
_cell_volume 2059.115748
_symmetry_space_group_name_H-M "P M M A"
_symmetry_group_IT_number 51
_symmetry_cell_setting 'orthorhombic'
loop_
_space_group_symop_operation_xyz
x,y,z
1/2-x,-y,z
1/2+x,-y,-z
-x,y,-z
-x,-y,-z
1/2+x,y,-z
1/2-x,y,z
x,-y,z
loop_
_atom_site_type_symbol
_atom_site_label
_atom_site_fract_x
_atom_site_fract_y
_atom_site_fract_z
Si Si1 0.927670 0.500000 0.696368
Si Si2 0.928684 0.500000 0.796547
Si Si3 0.919562 0.220707 0.543974
Si Si4 0.573595 0.212257 0.867077
Si Si5 0.924152 0.783178 0.366047
Si Si6 0.580694 0.778891 0.043867
O O1 0.750000 0.500000 0.694232
O O2 0.976556 0.500000 0.746724
O O3 0.992222 0.673347 0.671194
O O4 0.750000 0.500000 0.795212
O O5 0.973798 0.672853 0.825304
O O6 0.750000 0.279860 0.545674
O O7 0.000000 0.281275 0.500000
O O8 0.007363 0.271435 0.587381
O O9 0.918765 0.000000 0.542943
O O10 0.750000 0.231016 0.872007
O O11 0.498790 0.276449 0.911674
O O12 0.540523 0.000000 0.861065
O O13 0.750000 0.744609 0.365287
O O14 0.943780 0.000000 0.361124
O O15 0.750000 0.723204 0.043665
O O16 0.576565 0.000000 0.043546
O O17 0.500000 0.718479 0.000000
#
# Coordination Sequence:
#
# PCOD9406286 Si02
#       6
#     4   4   8   8   8   8
#     4  11  23  39  60  85 112 143 185 238 290 339
#     4   9  20  37  56  79 104 133 174 222 271 325
#     4   9  16  28  50  81 115 150 187 226 271 326
#     4   9  17  32  54  77 103 136 172 212 259 311
#     4  10  21  38  59  83 114 152 191 231 278 333
#     4   9  16  27  46  74 106 138 172 209 251 303
#
# _framework density 19.425816000000001
#
# number of rings (size 3 to 8) (size 9 to 14) (size 15 to 20)
#    0.000    2.600    0.000    2.100    0.000    6.800 
#    0.000    5.500    0.000    2.400    0.000    0.000 
#    0.000    0.000    0.000    0.000    0.000    0.000 
#
# Total GULP energy -223396.468612 kJ/mol
# GULP energy per Si atom -5584.911715 kJ/mol
# Density = 1.938160 g / cm^3
# Si number density = 19.425816 Si / 1000 Ang^3
#
#
#
# Elastic Constant Matrix: (Units=GPa)
#
#
# Indices 1 2 3 4 5 6 
#
# 1 109.2186 46.0384 90.9273 0.0000 0.0000 0.0000
# 2 46.0384 85.8275 68.5830 0.0000 0.0000 0.0000
# 3 90.9273 68.5830 233.9056 0.0000 0.0000 0.0000
# 4 0.0000 0.0000 0.0000 33.4035 0.0000 0.0000
# 5 0.0000 0.0000 0.0000 0.0000 32.1525 0.0000
# 6 0.0000 0.0000 0.0000 0.0000 0.0000 12.2504
#
#
#
# Elastic Compliance Matrix: (Units=1/GPa)
#
#
# Indices 1 2 3 4 5 6 
#
# 1 0.014672 -0.004326 -0.004435 0.000000 0.000000 0.000000
# 2 -0.004326 0.016492 -0.003154 0.000000 0.000000 0.000000
# 3 -0.004435 -0.003154 0.006924 0.000000 0.000000 0.000000
# 4 0.000000 0.000000 0.000000 0.029937 0.000000 0.000000
# 5 0.000000 0.000000 0.000000 0.000000 0.031102 0.000000
# 6 0.000000 0.000000 0.000000 0.000000 0.000000 0.081630
#
#
# Mechanical properties :
#
#
# Convention : Reuss Voigt Hill
#
# Bulk Modulus (GPa) = 70.13685 93.33879 81.73782
# Shear Modulus (GPa) = 23.88469 30.45481 27.16975
#
# Velocity S-wave (km/s) = 3.51027 3.96378 3.74390
# Velocity P-wave (km/s) = 7.25346 8.31275 7.80111
#
# Compressibility (1/GPa) = 0.01425784
#
# Stress axis : x y z
#
# Youngs Moduli (GPa) = 68.15828 60.63535 144.42512
#
# Poissons Ratio (x) = 0.26231 0.64052
# Poissons Ratio (y) = 0.29486 0.45550
# Poissons Ratio (z) = 0.30228 0.19124
#
# Static dielectric constant tensor:
#      x y z
#    x 1.647340 0.000000 0.000000 
#    y 0.000000 1.730720 0.000000 
#    z 0.000000 0.000000 1.633910 
# 
# From -- ./inp_files/36063.got.cif
#   From: 2010.05.17/outbox.cif.g08.bks.cpg/sg51_19_cif.got.tgz:36063.got - 2010.06.03 11:52:47.
