data_PCOD9406339
_publ_section_title
;
Structure prediction by ZEFSAII (Michael W. Deem and Ramdas Pophale) SiO2 
 PCOD9406339
Probable space group: P M M A
;
_chemical_formula_sum "Si O2"
_cell_formula_units_Z 64
_cell_length_a 19.907653
_cell_length_b 8.606158
_cell_length_c 20.881410
_cell_angle_alpha 90.000000
_cell_angle_beta 90.000000
_cell_angle_gamma 90.000000
_cell_volume 3577.578714
_symmetry_space_group_name_H-M "P M M A"
_symmetry_group_IT_number 51
_symmetry_cell_setting 'orthorhombic'
loop_
_space_group_symop_operation_xyz
x,y,z
1/2-x,-y,z
1/2+x,-y,-z
-x,y,-z
-x,-y,-z
1/2+x,y,-z
1/2-x,y,z
x,-y,z
loop_
_atom_site_type_symbol
_atom_site_label
_atom_site_fract_x
_atom_site_fract_y
_atom_site_fract_z
Si Si1 0.076998 0.312904 0.485725
Si Si2 0.575114 0.814220 0.291736
Si Si3 0.951410 0.312084 0.153266
Si Si4 0.173807 0.814764 0.242295
Si Si5 0.605808 0.688625 0.878924
Si Si6 0.066167 0.685397 0.340745
Si Si7 0.172914 0.812312 0.596207
Si Si8 0.079788 0.681082 0.983425
O O1 0.080233 0.500000 0.491496
O O2 0.089795 0.269771 0.411955
O O3 0.128735 0.242393 0.536056
O O4 0.000000 0.265865 0.500000
O O5 0.576949 0.748472 0.219902
O O6 0.504900 0.761548 0.323284
O O7 0.634761 0.761378 0.338911
O O8 0.576333 0.000000 0.288248
O O9 0.948828 0.500000 0.153027
O O10 0.914896 0.253534 0.088269
O O11 0.030457 0.270599 0.145737
O O12 0.250000 0.773997 0.259677
O O13 0.157626 0.759404 0.170595
O O14 0.120883 0.734243 0.288950
O O15 0.165665 0.000000 0.246403
O O16 0.609718 0.500000 0.878664
O O17 0.613482 0.745557 0.952277
O O18 0.056599 0.500000 0.339381
O O19 0.250000 0.758020 0.593058
O O20 0.173399 0.000000 0.596231
O O21 0.099901 0.500000 0.979493
O O22 0.000000 0.682339 0.000000
#
# Coordination Sequence:
#
# PCOD9406339 Si02
#       8
#     8   8   8   8   8   8   8   8
#     4  10  21  38  60  86 113 139 176 225 274 321
#     4  11  21  33  54  82 112 144 181 224 269 318
#     4   9  16  28  50  79 108 138 174 220 271 321
#     4  11  24  38  51  73 109 148 184 226 274 324
#     4   9  16  29  51  75 102 139 179 222 269 321
#     4  11  22  37  58  81 107 140 180 225 273 327
#     4  10  23  41  59  82 113 149 185 218 261 323
#     4   7  12  24  44  73 104 132 167 212 265 316
#
# _framework density 17.889195000000001
#
# number of rings (size 3 to 8) (size 9 to 14) (size 15 to 20)
#    0.000    2.250    2.500    2.625    0.000    3.500 
#    0.000    3.125    0.000    3.000    0.000    3.500 
#    0.000    0.000    0.000    0.000    0.000    0.000 
#
# Total GULP energy -356879.859455 kJ/mol
# GULP energy per Si atom -5576.247804 kJ/mol
# Density = 1.784848 g / cm^3
# Si number density = 17.889195 Si / 1000 Ang^3
#
#
#
# Elastic Constant Matrix: (Units=GPa)
#
#
# Indices 1 2 3 4 5 6 
#
# 1 86.0975 13.7011 54.9745 0.0000 0.0000 0.0000
# 2 13.7011 10.1858 20.4177 0.0000 0.0000 0.0000
# 3 54.9745 20.4177 160.0367 0.0000 0.0000 0.0000
# 4 0.0000 0.0000 0.0000 -4.7631 0.0000 0.0000
# 5 0.0000 0.0000 0.0000 0.0000 21.4561 0.0000
# 6 0.0000 0.0000 0.0000 0.0000 0.0000 -27.5727
#
#
#
# Elastic Compliance Matrix: (Units=1/GPa)
#
#
# Indices 1 2 3 4 5 6 
#
# 1 0.016310 -0.014387 -0.003767 0.000000 0.000000 0.000000
# 2 -0.014387 0.144602 -0.013506 0.000000 0.000000 0.000000
# 3 -0.003767 -0.013506 0.009266 0.000000 0.000000 0.000000
# 4 0.000000 0.000000 0.000000 -0.209947 0.000000 0.000000
# 5 0.000000 0.000000 0.000000 0.000000 0.046607 0.000000
# 6 0.000000 0.000000 0.000000 0.000000 0.000000 -0.036268
#
#
# Mechanical properties :
#
#
# Convention : Reuss Voigt Hill
#
# Bulk Modulus (GPa) = 9.35835 48.27853 28.81844
# Shear Modulus (GPa) = 71.93194 8.97251 40.45223
#
# Velocity S-wave (km/s) = 6.34799 2.24198 4.76044
# Velocity P-wave (km/s) = 7.67932 5.80931 6.80882
#
# Compressibility (1/GPa) = 0.10685639
#
# Stress axis : x y z
#
# Youngs Moduli (GPa) = 61.31389 6.91551 107.92459
#
# Poissons Ratio (x) = 0.09950 0.40655
# Poissons Ratio (y) = 0.88214 1.45767
# Poissons Ratio (z) = 0.23097 0.09340
#
# Static dielectric constant tensor:
#      x y z
#    x 1.589720 0.000000 0.000000 
#    y 0.000000 1.611080 0.000000 
#    z 0.000000 0.000000 1.640790 
# 
# From -- ./inp_files/33859.got.cif
#   From: 2010.05.17/outbox.cif.g08.bks.cpg/sg51_17_cif.got.tgz:33859.got - 2010.06.03 11:52:47.
