data_PCOD9406696
_publ_section_title
;
Structure prediction by ZEFSAII (Michael W. Deem and Ramdas Pophale) SiO2 
 PCOD9406696
Probable space group: P M M A
;
_chemical_formula_sum "Si O2"
_cell_formula_units_Z 48
_cell_length_a 16.651868
_cell_length_b 9.256917
_cell_length_c 14.189468
_cell_angle_alpha 90.000000
_cell_angle_beta 90.000000
_cell_angle_gamma 90.000000
_cell_volume 2187.234977
_symmetry_space_group_name_H-M "P M M A"
_symmetry_group_IT_number 51
_symmetry_cell_setting 'orthorhombic'
loop_
_space_group_symop_operation_xyz
x,y,z
1/2-x,-y,z
1/2+x,-y,-z
-x,y,-z
-x,-y,-z
1/2+x,y,-z
1/2-x,y,z
x,-y,z
loop_
_atom_site_type_symbol
_atom_site_label
_atom_site_fract_x
_atom_site_fract_y
_atom_site_fract_z
Si Si1 0.161913 0.170684 0.218580
Si Si2 0.899495 0.673505 0.384115
Si Si3 0.844030 0.833511 0.556107
Si Si4 0.750000 0.169548 0.055948
Si Si5 0.250000 0.828503 0.716240
Si Si6 0.413122 0.330996 0.959765
Si Si7 0.992042 0.666843 0.777994
O O1 0.250000 0.224182 0.188723
O O2 0.155695 0.191356 0.331972
O O3 0.083378 0.247976 0.181438
O O4 0.158647 0.000000 0.200165
O O5 0.891515 0.500000 0.379522
O O6 0.895053 0.728116 0.490905
O O7 0.826711 0.751816 0.330029
O O8 0.978289 0.715674 0.324573
O O9 0.750000 0.818046 0.528280
O O10 0.867760 0.000000 0.539121
O O11 0.750000 0.185585 0.170189
O O12 0.667414 0.242475 0.020364
O O13 0.750000 0.000000 0.032756
O O14 0.250000 0.000000 0.694848
O O15 0.402240 0.500000 0.986063
O O16 0.432215 0.323859 0.847837
O O17 0.500000 0.283589 0.000000
O O18 0.968065 0.500000 0.772396
#
# Coordination Sequence:
#
# PCOD9406696 Si02
#       7
#     8   8   8   4   4   8   8
#     4   9  20  39  59  78 107 154 202 242 292 351
#     4  11  21  32  52  83 116 149 190 241 293 338
#     4   9  18  33  52  76 109 150 199 243 283 346
#     4  11  23  39  65  97 126 159 196 245 307 360
#     4  11  21  33  53  83 116 153 192 229 285 354
#     4  10  22  43  68  92 124 164 203 243 295 364
#     4  10  22  38  57  85 116 147 190 245 292 343
#
# _framework density 21.945516000000001
#
# number of rings (size 3 to 8) (size 9 to 14) (size 15 to 20)
#    0.000    2.000    2.500    2.000    0.000    4.667 
#    1.500    5.000    0.000    0.000    0.000    0.000 
#    0.000    0.000    0.000    0.000    0.000    0.000 
#
# Total GULP energy -268189.231597 kJ/mol
# GULP energy per Si atom -5587.275658 kJ/mol
# Density = 2.189557 g / cm^3
# Si number density = 21.945516 Si / 1000 Ang^3
#
#
#
# Elastic Constant Matrix: (Units=GPa)
#
#
# Indices 1 2 3 4 5 6 
#
# 1 165.4093 74.4164 19.7602 0.0000 0.0000 0.0000
# 2 74.4164 58.6554 15.6065 0.0000 0.0000 0.0000
# 3 19.7602 15.6065 58.3212 0.0000 0.0000 0.0000
# 4 0.0000 0.0000 0.0000 13.2367 0.0000 0.0000
# 5 0.0000 0.0000 0.0000 0.0000 39.0428 0.0000
# 6 0.0000 0.0000 0.0000 0.0000 0.0000 42.0547
#
#
#
# Elastic Compliance Matrix: (Units=1/GPa)
#
#
# Indices 1 2 3 4 5 6 
#
# 1 0.014085 -0.017873 0.000010 0.000000 0.000000 0.000000
# 2 -0.017873 0.041034 -0.004925 0.000000 0.000000 0.000000
# 3 0.000010 -0.004925 0.018461 0.000000 0.000000 0.000000
# 4 0.000000 0.000000 0.000000 0.075547 0.000000 0.000000
# 5 0.000000 0.000000 0.000000 0.000000 0.025613 0.000000
# 6 0.000000 0.000000 0.000000 0.000000 0.000000 0.023779
#
#
# Mechanical properties :
#
#
# Convention : Reuss Voigt Hill
#
# Bulk Modulus (GPa) = 35.70719 55.77245 45.73982
# Shear Modulus (GPa) = 19.72939 30.37369 25.05154
#
# Velocity S-wave (km/s) = 3.00161 3.72432 3.38232
# Velocity P-wave (km/s) = 5.32157 6.63048 6.01175
#
# Compressibility (1/GPa) = 0.02800557
#
# Stress axis : x y z
#
# Youngs Moduli (GPa) = 70.99680 24.36988 54.16869
#
# Poissons Ratio (x) = 0.43555 -0.00056
# Poissons Ratio (y) = 1.26890 0.26678
# Poissons Ratio (z) = -0.00074 0.12002
#
# Static dielectric constant tensor:
#      x y z
#    x 1.790300 0.000000 0.000000 
#    y 0.000000 1.740600 0.000000 
#    z 0.000000 0.000000 1.883430 
# 
# From -- ./inp_files/29568.got.cif
#   From: 2010.05.17/outbox.cif.g08.bks.cpg/sg51_15_cif.got.tgz:29568.got - 2010.06.03 11:52:47.
