data_PCOD9406242
_publ_section_title
;
Structure prediction by ZEFSAII (Michael W. Deem and Ramdas Pophale) SiO2 
 PCOD9406242
Probable space group: P M M A
;
_chemical_formula_sum "Si O2"
_cell_formula_units_Z 56
_cell_length_a 16.663428
_cell_length_b 8.731748
_cell_length_c 18.873511
_cell_angle_alpha 90.000000
_cell_angle_beta 90.000000
_cell_angle_gamma 90.000000
_cell_volume 2746.111971
_symmetry_space_group_name_H-M "P M M A"
_symmetry_group_IT_number 51
_symmetry_cell_setting 'orthorhombic'
loop_
_space_group_symop_operation_xyz
x,y,z
1/2-x,-y,z
1/2+x,-y,-z
-x,y,-z
-x,-y,-z
1/2+x,y,-z
1/2-x,y,z
x,-y,z
loop_
_atom_site_type_symbol
_atom_site_label
_atom_site_fract_x
_atom_site_fract_y
_atom_site_fract_z
Si Si1 0.505901 0.815186 0.419043
Si Si2 0.494832 0.175252 0.156100
Si Si3 0.101767 0.179197 0.293842
Si Si4 0.750000 0.680533 0.789334
Si Si5 0.160903 0.682181 0.656114
Si Si6 0.416538 0.320595 0.033121
Si Si7 0.250000 0.181434 0.051673
Si Si8 0.339539 0.318345 0.826436
O O1 0.500000 0.762100 0.500000
O O2 0.432402 0.763715 0.368656
O O3 0.588864 0.763157 0.383808
O O4 0.503443 0.000000 0.418359
O O5 0.472562 0.184234 0.238664
O O6 0.434852 0.287907 0.115469
O O7 0.585786 0.226404 0.143018
O O8 0.480458 0.000000 0.133160
O O9 0.173405 0.270537 0.257536
O O10 0.125916 0.000000 0.299589
O O11 0.750000 0.500000 0.803543
O O12 0.750000 0.765169 0.865627
O O13 0.250000 0.734815 0.633679
O O14 0.155431 0.500000 0.643678
O O15 0.156733 0.702125 0.741225
O O16 0.411092 0.500000 0.017371
O O17 0.331677 0.244591 0.016837
O O18 0.500000 0.259444 0.000000
O O19 0.250000 0.000000 0.049655
O O20 0.250000 0.272452 0.849464
O O21 0.349529 0.500000 0.841000
#
# Coordination Sequence:
#
# PCOD9406242 Si02
#       8
#     8   8   8   4   8   8   4   8
#     4  10  21  38  58  81 112 153 198 243 300 365
#     4  11  21  35  61  91 120 155 197 252 308 361
#     4  10  21  38  59  86 120 155 195 252 312 363
#     4  12  24  38  64  96 122 157 206 255 308 371
#     4   9  18  33  54  79 108 143 183 229 282 340
#     4  11  25  45  68  94 126 167 212 258 308 373
#     4  12  24  42  70 100 132 169 208 259 318 375
#     4   9  18  33  54  81 114 152 191 236 291 350
#
# _framework density 20.392468999999998
#
# number of rings (size 3 to 8) (size 9 to 14) (size 15 to 20)
#    0.000    1.714    2.857    3.000    0.000    3.143 
#    2.571    1.429    0.000    0.000    0.000    0.000 
#    0.000    0.000    0.000    0.000    0.000    0.000 
#
# Total GULP energy -312809.763993 kJ/mol
# GULP energy per Si atom -5585.888643 kJ/mol
# Density = 2.034606 g / cm^3
# Si number density = 20.392469 Si / 1000 Ang^3
#
#
#
# Elastic Constant Matrix: (Units=GPa)
#
#
# Indices 1 2 3 4 5 6 
#
# 1 155.3334 47.0080 33.4636 0.0000 0.0000 0.0000
# 2 47.0080 40.5487 11.6624 0.0000 0.0000 0.0000
# 3 33.4636 11.6624 74.9900 0.0000 0.0000 0.0000
# 4 0.0000 0.0000 0.0000 15.4486 0.0000 0.0000
# 5 0.0000 0.0000 0.0000 0.0000 25.4030 0.0000
# 6 0.0000 0.0000 0.0000 0.0000 0.0000 36.9091
#
#
#
# Elastic Compliance Matrix: (Units=1/GPa)
#
#
# Indices 1 2 3 4 5 6 
#
# 1 0.010495 -0.011326 -0.002922 0.000000 0.000000 0.000000
# 2 -0.011326 0.038040 -0.000862 0.000000 0.000000 0.000000
# 3 -0.002922 -0.000862 0.014773 0.000000 0.000000 0.000000
# 4 0.000000 0.000000 0.000000 0.064731 0.000000 0.000000
# 5 0.000000 0.000000 0.000000 0.000000 0.039365 0.000000
# 6 0.000000 0.000000 0.000000 0.000000 0.000000 0.027094
#
#
# Mechanical properties :
#
#
# Convention : Reuss Voigt Hill
#
# Bulk Modulus (GPa) = 30.22217 50.57113 40.39665
# Shear Modulus (GPa) = 21.20920 27.46801 24.33860
#
# Velocity S-wave (km/s) = 3.22848 3.67409 3.45847
# Velocity P-wave (km/s) = 5.36189 6.54609 5.98336
#
# Compressibility (1/GPa) = 0.03308830
#
# Stress axis : x y z
#
# Youngs Moduli (GPa) = 95.28493 26.28805 67.69134
#
# Poissons Ratio (x) = 0.29775 0.19778
# Poissons Ratio (y) = 1.07923 0.05833
# Poissons Ratio (z) = 0.27840 0.02265
#
# Static dielectric constant tensor:
#      x y z
#    x 1.727020 0.000000 0.000000 
#    y 0.000000 1.701610 0.000000 
#    z 0.000000 0.000000 1.756010 
# 
# From -- ./inp_files/33537.got.cif
#   From: 2010.05.17/outbox.cif.g08.bks.cpg/sg51_17_cif.got.tgz:33537.got - 2010.06.03 11:52:47.
