data_PCOD9406500
_publ_section_title
;
Structure prediction by ZEFSAII (Michael W. Deem and Ramdas Pophale) SiO2 
 PCOD9406500
Probable space group: P M M A
;
_chemical_formula_sum "Si O2"
_cell_formula_units_Z 56
_cell_length_a 19.436095
_cell_length_b 7.640961
_cell_length_c 15.950858
_cell_angle_alpha 90.000000
_cell_angle_beta 90.000000
_cell_angle_gamma 90.000000
_cell_volume 2368.869002
_symmetry_space_group_name_H-M "P M M A"
_symmetry_group_IT_number 51
_symmetry_cell_setting 'orthorhombic'
loop_
_space_group_symop_operation_xyz
x,y,z
1/2-x,-y,z
1/2+x,-y,-z
-x,y,-z
-x,-y,-z
1/2+x,y,-z
1/2-x,y,z
x,-y,z
loop_
_atom_site_type_symbol
_atom_site_label
_atom_site_fract_x
_atom_site_fract_y
_atom_site_fract_z
Si Si1 0.174018 0.793716 0.429966
Si Si2 0.171990 0.714798 0.061477
Si Si3 0.750000 0.711210 0.348872
Si Si4 0.601252 0.698231 0.095841
Si Si5 0.750000 0.206755 0.154400
Si Si6 0.362684 0.302149 0.244816
Si Si7 0.398710 0.201799 0.581791
Si Si8 0.983551 0.204591 0.258003
O O1 0.250000 0.716552 0.447774
O O2 0.160924 0.780347 0.331513
O O3 0.111505 0.721709 0.487861
O O4 0.176941 0.000000 0.449446
O O5 0.250000 0.765069 0.036519
O O6 0.169030 0.500000 0.060350
O O7 0.160671 0.776076 0.156387
O O8 0.111664 0.774585 0.997854
O O9 0.750000 0.500000 0.353971
O O10 0.750000 0.772651 0.253717
O O11 0.819776 0.785300 0.387851
O O12 0.574917 0.500000 0.089146
O O13 0.680890 0.701932 0.123639
O O14 0.560618 0.783616 0.172505
O O15 0.750000 0.000000 0.133443
O O16 0.336164 0.500000 0.246382
O O17 0.444970 0.300114 0.245202
O O18 0.443304 0.274105 0.659375
O O19 0.421513 0.000000 0.573587
O O20 0.998836 0.000000 0.272079
#
# Coordination Sequence:
#
# PCOD9406500 Si02
#       8
#     8   8   4   8   4   8   8   8
#     4  10  21  40  66  92 119 155 202 255 311 369
#     4   9  19  38  64  91 118 154 201 252 312 364
#     4  12  22  32  56  91 124 157 200 253 298 350
#     4  11  21  37  63  92 120 153 202 254 300 359
#     4  12  22  34  54  87 128 163 194 237 308 370
#     4  11  24  42  63  86 121 165 210 257 301 359
#     4  10  21  39  62  87 122 163 200 245 308 374
#     4  11  24  41  61  87 125 167 204 245 303 374
#
# _framework density 23.639973000000001
#
# number of rings (size 3 to 8) (size 9 to 14) (size 15 to 20)
#    0.000    1.429    2.857    3.000    0.000    3.143 
#    0.000    8.571    0.000    0.000    0.000    0.000 
#    0.000    0.000    0.000    0.000    0.000    0.000 
#
# Total GULP energy -312687.072065 kJ/mol
# GULP energy per Si atom -5583.697715 kJ/mol
# Density = 2.358617 g / cm^3
# Si number density = 23.639973 Si / 1000 Ang^3
#
#
#
# Elastic Constant Matrix: (Units=GPa)
#
#
# Indices 1 2 3 4 5 6 
#
# 1 69.6991 -6.9403 21.7926 0.0000 0.0000 0.0000
# 2 -6.9403 75.8315 7.3410 0.0000 0.0000 0.0000
# 3 21.7926 7.3410 165.8852 0.0000 0.0000 0.0000
# 4 0.0000 0.0000 0.0000 25.3950 0.0000 0.0000
# 5 0.0000 0.0000 0.0000 0.0000 23.3641 0.0000
# 6 0.0000 0.0000 0.0000 0.0000 0.0000 19.1686
#
#
#
# Elastic Compliance Matrix: (Units=1/GPa)
#
#
# Indices 1 2 3 4 5 6 
#
# 1 0.015150 0.001586 -0.002060 0.000000 0.000000 0.000000
# 2 0.001586 0.013410 -0.000802 0.000000 0.000000 0.000000
# 3 -0.002060 -0.000802 0.006334 0.000000 0.000000 0.000000
# 4 0.000000 0.000000 0.000000 0.039378 0.000000 0.000000
# 5 0.000000 0.000000 0.000000 0.000000 0.042801 0.000000
# 6 0.000000 0.000000 0.000000 0.000000 0.000000 0.052169
#
#
# Mechanical properties :
#
#
# Convention : Reuss Voigt Hill
#
# Bulk Modulus (GPa) = 30.92006 39.53360 35.22683
# Shear Modulus (GPa) = 27.38615 32.86704 30.12660
#
# Velocity S-wave (km/s) = 3.40732 3.73274 3.57374
# Velocity P-wave (km/s) = 5.34675 5.94452 5.65354
#
# Compressibility (1/GPa) = 0.03234146
#
# Stress axis : x y z
#
# Youngs Moduli (GPa) = 66.00865 74.57173 157.86749
#
# Poissons Ratio (x) = -0.11827 0.32527
# Poissons Ratio (y) = -0.10469 0.12658
# Poissons Ratio (z) = 0.13600 0.05979
#
# Static dielectric constant tensor:
#      x y z
#    x 1.861060 0.000000 0.000000 
#    y 0.000000 1.901090 0.000000 
#    z 0.000000 0.000000 2.009570 
# 
# From -- ./inp_files/25845.got.cif
#   From: 2010.05.17/outbox.cif.g08.bks.cpg/sg51_13_cif.got.tgz:25845.got - 2010.06.03 11:52:47.
