data_PCOD9406456
_publ_section_title
;
Structure prediction by ZEFSAII (Michael W. Deem and Ramdas Pophale) SiO2 
 PCOD9406456
Probable space group: P M M A
;
_chemical_formula_sum "Si O2"
_cell_formula_units_Z 48
_cell_length_a 15.640305
_cell_length_b 9.045526
_cell_length_c 17.514610
_cell_angle_alpha 90.000000
_cell_angle_beta 90.000000
_cell_angle_gamma 90.000000
_cell_volume 2477.875693
_symmetry_space_group_name_H-M "P M M A"
_symmetry_group_IT_number 51
_symmetry_cell_setting 'orthorhombic'
loop_
_space_group_symop_operation_xyz
x,y,z
1/2-x,-y,z
1/2+x,-y,-z
-x,y,-z
-x,-y,-z
1/2+x,y,-z
1/2-x,y,z
x,-y,z
loop_
_atom_site_type_symbol
_atom_site_label
_atom_site_fract_x
_atom_site_fract_y
_atom_site_fract_z
Si Si1 0.902822 0.324378 0.839480
Si Si2 0.395740 0.829874 0.006598
Si Si3 0.345778 0.176015 0.673879
Si Si4 0.846909 0.825606 0.685850
Si Si5 0.588670 0.823459 0.159135
Si Si6 0.496220 0.675880 0.410050
O O1 0.898858 0.500000 0.833895
O O2 0.870208 0.269238 0.921973
O O3 0.855529 0.248890 0.768782
O O4 0.000932 0.267341 0.833826
O O5 0.371668 0.000000 0.021724
O O6 0.500000 0.824605 0.000000
O O7 0.366852 0.786409 0.921498
O O8 0.250000 0.217731 0.650562
O O9 0.357524 0.199807 0.764664
O O10 0.418608 0.263639 0.630002
O O11 0.357032 0.000000 0.660829
O O12 0.750000 0.806697 0.657659
O O13 0.915818 0.752943 0.630222
O O14 0.864974 0.000000 0.693419
O O15 0.567717 0.000000 0.154758
O O16 0.500000 0.708283 0.500000
O O17 0.489757 0.500000 0.399418
#
# Coordination Sequence:
#
# PCOD9406456 Si02
#       6
#     8   8   8   8   8   8
#     4  11  20  31  53  84 119 158 200 247 303 357
#     4   8  15  28  48  76 112 157 206 248 290 343
#     4  10  21  38  63  93 123 159 203 247 292 348
#     4  11  24  42  65  91 119 156 203 251 299 355
#     4   9  17  32  54  80 116 160 205 250 295 345
#     4  11  25  44  66  93 124 157 191 236 301 367
#
# _framework density 19.371431000000001
#
# number of rings (size 3 to 8) (size 9 to 14) (size 15 to 20)
#    0.000    2.000    1.667    3.500    0.000    6.667 
#    0.000    4.167    0.000    3.000    0.000    0.000 
#    0.000    0.000    0.000    0.000    0.000    0.000 
#
# Total GULP energy -268114.270894 kJ/mol
# GULP energy per Si atom -5585.713977 kJ/mol
# Density = 1.932734 g / cm^3
# Si number density = 19.371431 Si / 1000 Ang^3
#
#
#
# Elastic Constant Matrix: (Units=GPa)
#
#
# Indices 1 2 3 4 5 6 
#
# 1 95.6931 66.4289 72.2763 0.0000 0.0000 0.0000
# 2 66.4289 98.0024 85.2982 0.0000 0.0000 0.0000
# 3 72.2763 85.2982 142.5370 0.0000 0.0000 0.0000
# 4 0.0000 0.0000 0.0000 42.5217 0.0000 0.0000
# 5 0.0000 0.0000 0.0000 0.0000 -11.1677 0.0000
# 6 0.0000 0.0000 0.0000 0.0000 0.0000 -20.5926
#
#
#
# Elastic Compliance Matrix: (Units=1/GPa)
#
#
# Indices 1 2 3 4 5 6 
#
# 1 0.021006 -0.010368 -0.004447 0.000000 0.000000 0.000000
# 2 -0.010368 0.026413 -0.010549 0.000000 0.000000 0.000000
# 3 -0.004447 -0.010549 0.015584 0.000000 0.000000 0.000000
# 4 0.000000 0.000000 0.000000 0.023517 0.000000 0.000000
# 5 0.000000 0.000000 0.000000 0.000000 -0.089544 0.000000
# 6 0.000000 0.000000 0.000000 0.000000 0.000000 -0.048561
#
#
# Mechanical properties :
#
#
# Convention : Reuss Voigt Hill
#
# Bulk Modulus (GPa) = 81.46920 87.13770 84.30345
# Shear Modulus (GPa) = 1545.18047 9.63421 777.40734
#
# Velocity S-wave (km/s) = 28.27351 2.23253 20.05462
# Velocity P-wave (km/s) = 33.28667 7.19207 24.08037
#
# Compressibility (1/GPa) = 0.01227458
#
# Stress axis : x y z
#
# Youngs Moduli (GPa) = 47.60466 37.85995 64.16996
#
# Poissons Ratio (x) = 0.39253 0.28538
# Poissons Ratio (y) = 0.49357 0.67693
# Poissons Ratio (z) = 0.21171 0.39939
#
# Static dielectric constant tensor:
#      x y z
#    x 1.690060 0.000000 0.000000 
#    y 0.000000 1.642670 0.000000 
#    z 0.000000 0.000000 1.685110 
# 
# From -- ./inp_files/29433.got.cif
#   From: 2010.05.17/outbox.cif.g08.bks.cpg/sg51_15_cif.got.tgz:29433.got - 2010.06.03 11:52:47.
