data_PCOD9406588
_publ_section_title
;
Structure prediction by ZEFSAII (Michael W. Deem and Ramdas Pophale) SiO2 
 PCOD9406588
Probable space group: P M M A
;
_chemical_formula_sum "Si O2"
_cell_formula_units_Z 64
_cell_length_a 24.586232
_cell_length_b 8.178000
_cell_length_c 15.124285
_cell_angle_alpha 90.000000
_cell_angle_beta 90.000000
_cell_angle_gamma 90.000000
_cell_volume 3040.982593
_symmetry_space_group_name_H-M "P M M A"
_symmetry_group_IT_number 51
_symmetry_cell_setting 'orthorhombic'
loop_
_space_group_symop_operation_xyz
x,y,z
1/2-x,-y,z
1/2+x,-y,-z
-x,y,-z
-x,-y,-z
1/2+x,y,-z
1/2-x,y,z
x,-y,z
loop_
_atom_site_type_symbol
_atom_site_label
_atom_site_fract_x
_atom_site_fract_y
_atom_site_fract_z
Si Si1 0.188272 0.800475 0.137947
Si Si2 0.157383 0.191373 0.941757
Si Si3 0.621783 0.803060 0.694429
Si Si4 0.500070 0.801092 0.280795
Si Si5 0.963692 0.304835 0.086235
Si Si6 0.311843 0.306016 0.475636
Si Si7 0.392281 0.812911 0.627561
Si Si8 0.189643 0.689264 0.759555
O O1 0.250000 0.751391 0.158241
O O2 0.147345 0.742862 0.213406
O O3 0.186637 0.000000 0.137920
O O4 0.172065 0.748809 0.039576
O O5 0.093453 0.214286 0.925356
O O6 0.187009 0.287943 0.864210
O O7 0.172300 0.000000 0.935205
O O8 0.559352 0.747513 0.686351
O O9 0.660999 0.755967 0.614536
O O10 0.620130 0.000000 0.697840
O O11 0.509876 0.744638 0.179865
O O12 0.549106 0.742675 0.344409
O O13 0.502319 0.000000 0.280384
O O14 0.953870 0.500000 0.087816
O O15 0.000000 0.267242 0.000000
O O16 0.250000 0.240486 0.488924
O O17 0.307627 0.500000 0.470734
O O18 0.354204 0.266137 0.553628
O O19 0.356106 0.799990 0.716035
O O20 0.400576 0.000000 0.600293
O O21 0.250000 0.731219 0.726976
O O22 0.178726 0.500000 0.736800
#
# Coordination Sequence:
#
# PCOD9406588 Si02
#       8
#     8   8   8   8   8   8   8   8
#     4   9  18  33  56  87 119 154 201 255 307 360
#     4  11  21  35  57  85 118 159 206 256 307 363
#     4  10  21  40  66  92 121 158 203 256 311 368
#     4  10  22  40  62  92 125 160 204 256 312 365
#     4  11  23  37  56  84 121 166 212 256 305 366
#     4  11  25  44  65  92 125 160 201 252 313 376
#     4  11  23  40  64  92 122 160 206 254 305 364
#     4  11  23  38  57  85 123 162 200 248 306 367
#
# _framework density 21.045828
#
# number of rings (size 3 to 8) (size 9 to 14) (size 15 to 20)
#    0.000    1.500    1.250    3.750    0.000    8.000 
#    0.000    3.750    0.000    3.000    0.000    0.000 
#    0.000    0.000    0.000    0.000    0.000    0.000 
#
# Total GULP energy -357665.022937 kJ/mol
# GULP energy per Si atom -5588.515983 kJ/mol
# Density = 2.099793 g / cm^3
# Si number density = 21.045828 Si / 1000 Ang^3
#
#
#
# Elastic Constant Matrix: (Units=GPa)
#
#
# Indices 1 2 3 4 5 6 
#
# 1 124.3259 11.1230 39.7265 0.0000 0.0000 0.0000
# 2 11.1230 15.6822 -8.0175 0.0000 0.0000 0.0000
# 3 39.7265 -8.0175 84.0253 0.0000 0.0000 0.0000
# 4 0.0000 0.0000 0.0000 10.8528 0.0000 0.0000
# 5 0.0000 0.0000 0.0000 0.0000 22.2536 0.0000
# 6 0.0000 0.0000 0.0000 0.0000 0.0000 -24.6918
#
#
#
# Elastic Compliance Matrix: (Units=1/GPa)
#
#
# Indices 1 2 3 4 5 6 
#
# 1 0.011033 -0.011031 -0.006269 0.000000 0.000000 0.000000
# 2 -0.011031 0.078065 0.012664 0.000000 0.000000 0.000000
# 3 -0.006269 0.012664 0.016074 0.000000 0.000000 0.000000
# 4 0.000000 0.000000 0.000000 0.092142 0.000000 0.000000
# 5 0.000000 0.000000 0.000000 0.000000 0.044937 0.000000
# 6 0.000000 0.000000 0.000000 0.000000 0.000000 -0.040499
#
#
# Mechanical properties :
#
#
# Convention : Reuss Voigt Hill
#
# Bulk Modulus (GPa) = 10.42749 34.41082 22.41915
# Shear Modulus (GPa) = 20.57701 13.76301 17.17001
#
# Velocity S-wave (km/s) = 3.13025 2.56003 2.85939
# Velocity P-wave (km/s) = 4.24618 5.01241 4.64512
#
# Compressibility (1/GPa) = 0.09590038
#
# Stress axis : x y z
#
# Youngs Moduli (GPa) = 90.63348 12.80984 62.21410
#
# Poissons Ratio (x) = 0.14130 0.39002
# Poissons Ratio (y) = 0.99976 -0.78788
# Poissons Ratio (z) = 0.56819 -0.16222
#
# Static dielectric constant tensor:
#      x y z
#    x 1.764110 0.000000 0.000000 
#    y 0.000000 1.736090 0.000000 
#    z 0.000000 0.000000 1.747260 
# 
# From -- ./inp_files/26230.got.cif
#   From: 2010.05.17/outbox.cif.g08.bks.cpg/sg51_14_cif.got.tgz:26230.got - 2010.06.03 11:52:47.
