data_PCOD9406464
_publ_section_title
;
Structure prediction by ZEFSAII (Michael W. Deem and Ramdas Pophale) SiO2 
 PCOD9406464
Probable space group: P M M A
;
_chemical_formula_sum "Si O2"
_cell_formula_units_Z 34
_cell_length_a 10.364990
_cell_length_b 9.562649
_cell_length_c 18.996757
_cell_angle_alpha 90.000000
_cell_angle_beta 90.000000
_cell_angle_gamma 90.000000
_cell_volume 1882.897028
_symmetry_space_group_name_H-M "P M M A"
_symmetry_group_IT_number 51
_symmetry_cell_setting 'orthorhombic'
loop_
_space_group_symop_operation_xyz
x,y,z
1/2-x,-y,z
1/2+x,-y,-z
-x,y,-z
-x,-y,-z
1/2+x,y,-z
1/2-x,y,z
x,-y,z
loop_
_atom_site_type_symbol
_atom_site_label
_atom_site_fract_x
_atom_site_fract_y
_atom_site_fract_z
Si Si1 0.095139 0.837663 0.703494
Si Si2 0.480759 0.274595 0.151850
Si Si3 0.402260 0.000000 0.065281
Si Si4 0.750000 0.500000 0.840691
Si Si5 0.392038 0.500000 0.939998
Si Si6 0.401108 0.333280 0.562703
O O1 0.250000 0.833461 0.711576
O O2 0.064613 0.752177 0.632744
O O3 0.033169 0.769486 0.772164
O O4 0.056097 0.000000 0.697194
O O5 0.435612 0.137458 0.110320
O O6 0.362220 0.379154 0.159074
O O7 0.586405 0.362457 0.107315
O O8 0.250000 0.000000 0.045960
O O9 0.500000 0.000000 0.000000
O O10 0.250000 0.500000 0.973261
O O11 0.500000 0.500000 0.000000
O O12 0.500000 0.299264 0.500000
O O13 0.250000 0.304283 0.544846
O O14 0.410795 0.500000 0.576329
#
# Coordination Sequence:
#
# PCOD9406464 Si02
#       6
#     8   8   4   2   4   8
#     4  10  21  38  64  92 125 164 207 257 309 370
#     4  11  23  43  64  91 126 162 214 257 319 373
#     4  12  26  44  68  92 127 164 211 262 317 384
#     4  10  24  40  66  86 124 168 194 268 316 362
#     4  11  26  41  65  91 125 163 209 260 319 377
#     4   9  19  37  59  89 124 163 207 255 304 362
#
# _framework density 18.057281
#
# number of rings (size 3 to 8) (size 9 to 14) (size 15 to 20)
#    0.000    1.647    2.353    1.412    6.588    4.235 
#    2.118    0.000    0.000    0.000    0.000    0.000 
#    0.000    0.000    0.000    0.000    0.000    0.000 
#
# Total GULP energy -189376.002785 kJ/mol
# GULP energy per Si atom -5569.882435 kJ/mol
# Density = 1.801618 g / cm^3
# Si number density = 18.057281 Si / 1000 Ang^3
#
#
#
# Elastic Constant Matrix: (Units=GPa)
#
#
# Indices 1 2 3 4 5 6 
#
# 1 111.5980 61.7425 80.7891 0.0000 0.0000 0.0000
# 2 61.7425 147.1169 90.9062 0.0000 0.0000 0.0000
# 3 80.7891 90.9062 157.6729 0.0000 0.0000 0.0000
# 4 0.0000 0.0000 0.0000 19.8742 0.0000 0.0000
# 5 0.0000 0.0000 0.0000 0.0000 17.2539 0.0000
# 6 0.0000 0.0000 0.0000 0.0000 0.0000 19.0839
#
#
#
# Elastic Compliance Matrix: (Units=1/GPa)
#
#
# Indices 1 2 3 4 5 6 
#
# 1 0.014755 -0.002362 -0.006198 0.000000 0.000000 0.000000
# 2 -0.002362 0.010937 -0.005095 0.000000 0.000000 0.000000
# 3 -0.006198 -0.005095 0.012456 0.000000 0.000000 0.000000
# 4 0.000000 0.000000 0.000000 0.050317 0.000000 0.000000
# 5 0.000000 0.000000 0.000000 0.000000 0.057958 0.000000
# 6 0.000000 0.000000 0.000000 0.000000 0.000000 0.052400
#
#
# Mechanical properties :
#
#
# Convention : Reuss Voigt Hill
#
# Bulk Modulus (GPa) = 92.28460 98.14036 95.21248
# Shear Modulus (GPa) = 21.76315 23.43907 22.60111
#
# Velocity S-wave (km/s) = 3.47541 3.60674 3.54168
# Velocity P-wave (km/s) = 8.20501 8.47421 8.34069
#
# Compressibility (1/GPa) = 0.01083604
#
# Stress axis : x y z
#
# Youngs Moduli (GPa) = 67.77498 91.42964 80.28395
#
# Poissons Ratio (x) = 0.21600 0.49760
# Poissons Ratio (y) = 0.16011 0.40908
# Poissons Ratio (z) = 0.42007 0.46588
#
# Static dielectric constant tensor:
#      x y z
#    x 1.609860 0.000000 0.000000 
#    y 0.000000 1.621420 0.000000 
#    z 0.000000 0.000000 1.597770 
# 
# From -- ./inp_files/31222.got.cif
#   From: 2010.05.17/outbox.cif.g08.bks.cpg/sg51_16_cif.got.tgz:31222.got - 2010.06.03 11:52:47.
