data_PCOD9406708
_publ_section_title
;
Structure prediction by ZEFSAII (Michael W. Deem and Ramdas Pophale) SiO2 
 PCOD9406708
Probable space group: P M M A
;
_chemical_formula_sum "Si O2"
_cell_formula_units_Z 40
_cell_length_a 23.986042
_cell_length_b 7.935808
_cell_length_c 10.092112
_cell_angle_alpha 90.000000
_cell_angle_beta 90.000000
_cell_angle_gamma 90.000000
_cell_volume 1921.019632
_symmetry_space_group_name_H-M "P M M A"
_symmetry_group_IT_number 51
_symmetry_cell_setting 'orthorhombic'
loop_
_space_group_symop_operation_xyz
x,y,z
1/2-x,-y,z
1/2+x,-y,-z
-x,y,-z
-x,-y,-z
1/2+x,y,-z
1/2-x,y,z
x,-y,z
loop_
_atom_site_type_symbol
_atom_site_label
_atom_site_fract_x
_atom_site_fract_y
_atom_site_fract_z
Si Si1 0.815664 0.000000 0.323122
Si Si2 0.815458 0.304092 0.828072
Si Si3 0.421702 0.307665 0.330080
Si Si4 0.182818 0.000000 0.985563
Si Si5 0.415034 0.805789 0.620161
Si Si6 0.485251 0.193070 0.856867
O O1 0.848479 0.162738 0.378250
O O2 0.750000 0.000000 0.343033
O O3 0.831223 0.000000 0.167822
O O4 0.750000 0.275214 0.797457
O O5 0.820714 0.500000 0.870844
O O6 0.857009 0.278020 0.705520
O O7 0.834324 0.169628 0.938525
O O8 0.435016 0.500000 0.295028
O O9 0.431964 0.281359 0.484933
O O10 0.459909 0.196727 0.234957
O O11 0.250000 0.000000 0.989461
O O12 0.438837 0.731551 0.756836
O O13 0.436881 0.000000 0.613404
O O14 0.467335 0.000000 0.885495
O O15 0.500000 0.270593 0.000000
#
# Coordination Sequence:
#
# PCOD9406708 Si02
#       6
#     4   8   8   4   8   8
#     4   9  20  37  60  92 120 148 198 249 289 361
#     4   9  20  36  55  87 124 156 200 250 298 361
#     4  11  23  37  57  85 120 160 196 244 303 358
#     4   9  18  33  60  87 115 160 198 240 305 355
#     4   9  21  38  57  84 113 155 192 240 295 351
#     4  10  22  38  61  86 114 151 197 248 299 358
#
# _framework density 20.822275000000001
#
# number of rings (size 3 to 8) (size 9 to 14) (size 15 to 20)
#    0.600    1.800    0.000    1.200    5.600    4.400 
#    0.000    1.000    0.000    1.200    0.000    0.000 
#    0.000    0.000    0.000    0.000    0.000    0.000 
#
# Total GULP energy -222818.905702 kJ/mol
# GULP energy per Si atom -5570.472643 kJ/mol
# Density = 2.077488 g / cm^3
# Si number density = 20.822275 Si / 1000 Ang^3
#
#
#
# Elastic Constant Matrix: (Units=GPa)
#
#
# Indices 1 2 3 4 5 6 
#
# 1 102.7416 11.8317 28.9326 0.0000 0.0000 0.0000
# 2 11.8317 36.4520 10.5259 0.0000 0.0000 0.0000
# 3 28.9326 10.5259 117.1734 0.0000 0.0000 0.0000
# 4 0.0000 0.0000 0.0000 497.7119 0.0000 0.0000
# 5 0.0000 0.0000 0.0000 0.0000 31.0313 0.0000
# 6 0.0000 0.0000 0.0000 0.0000 0.0000 -0.3971
#
#
#
# Elastic Compliance Matrix: (Units=1/GPa)
#
#
# Indices 1 2 3 4 5 6 
#
# 1 0.010730 -0.002790 -0.002399 0.000000 0.000000 0.000000
# 2 -0.002790 0.028889 -0.001906 0.000000 0.000000 0.000000
# 3 -0.002399 -0.001906 0.009298 0.000000 0.000000 0.000000
# 4 0.000000 0.000000 0.000000 0.002009 0.000000 0.000000
# 5 0.000000 0.000000 0.000000 0.000000 0.032226 0.000000
# 6 0.000000 0.000000 0.000000 0.000000 0.000000 -2.518079
#
#
# Mechanical properties :
#
#
# Convention : Reuss Voigt Hill
#
# Bulk Modulus (GPa) = 28.79606 39.88307 34.33956
# Shear Modulus (GPa) = -2.07541 119.34098 58.63279
#
# Velocity S-wave (km/s) = -0.99945 7.57882 5.31223
# Velocity P-wave (km/s) = 3.53944 9.78674 7.35894
#
# Compressibility (1/GPa) = 0.03472697
#
# Stress axis : x y z
#
# Youngs Moduli (GPa) = 93.19679 34.61475 107.55091
#
# Poissons Ratio (x) = 0.09658 0.25800
# Poissons Ratio (y) = 0.26003 0.20502
# Poissons Ratio (z) = 0.22356 0.06598
#
# Static dielectric constant tensor:
#      x y z
#    x 1.781630 0.000000 0.000000 
#    y 0.000000 1.768890 0.000000 
#    z 0.000000 0.000000 1.741670 
# 
# From -- ./inp_files/12159.got.cif
#   From: 2010.05.17/outbox.cif.g08.bks.cpg/sg51_7_cif.got.tgz:12159.got - 2010.06.03 11:52:47.
