data_PCOD9406513
_publ_section_title
;
Structure prediction by ZEFSAII (Michael W. Deem and Ramdas Pophale) SiO2 
 PCOD9406513
Probable space group: P M M A
;
_chemical_formula_sum "Si O2"
_cell_formula_units_Z 44
_cell_length_a 9.543798
_cell_length_b 7.748816
_cell_length_c 31.283772
_cell_angle_alpha 90.000000
_cell_angle_beta 90.000000
_cell_angle_gamma 90.000000
_cell_volume 2313.533003
_symmetry_space_group_name_H-M "P M M A"
_symmetry_group_IT_number 51
_symmetry_cell_setting 'orthorhombic'
loop_
_space_group_symop_operation_xyz
x,y,z
1/2-x,-y,z
1/2+x,-y,-z
-x,y,-z
-x,-y,-z
1/2+x,y,-z
1/2-x,y,z
x,-y,z
loop_
_atom_site_type_symbol
_atom_site_label
_atom_site_fract_x
_atom_site_fract_y
_atom_site_fract_z
Si Si1 0.082080 0.000000 0.455812
Si Si2 0.088412 0.709310 0.226890
Si Si3 0.913700 0.694404 0.608658
Si Si4 0.079411 0.298973 0.133668
Si Si5 0.089846 0.795263 0.690209
Si Si6 0.412485 0.288430 0.040879
O O1 0.046883 0.833813 0.426892
O O2 0.000000 0.000000 0.500000
O O3 0.250000 0.000000 0.463265
O O4 0.250000 0.764711 0.234064
O O5 0.090272 0.500000 0.225036
O O6 0.040022 0.774270 0.179981
O O7 0.990147 0.762538 0.265522
O O8 0.750000 0.725055 0.620054
O O9 0.926105 0.500000 0.591958
O O10 0.005585 0.713153 0.651057
O O11 0.250000 0.296740 0.133214
O O12 0.035892 0.500000 0.133860
O O13 0.035576 0.226494 0.087596
O O14 0.250000 0.733081 0.692266
O O15 0.091261 0.000000 0.682498
O O16 0.250000 0.239774 0.036097
O O17 0.416699 0.500000 0.042013
O O18 0.500000 0.231444 0.000000
#
# Coordination Sequence:
#
# PCOD9406513 Si02
#       6
#     4   8   8   8   8   8
#     4  10  22  40  62  90 124 156 190 234 275 318
#     4   9  17  30  49  71  94 126 169 212 257 313
#     4  10  21  39  63  88 114 150 194 233 272 321
#     4   7  11  21  36  54  79 112 150 193 241 296
#     4  11  23  36  51  75 108 142 176 218 271 325
#     4   8  12  18  29  46  71 105 144 185 231 287
#
# _framework density 19.018533000000001
#
# number of rings (size 3 to 8) (size 9 to 14) (size 15 to 20)
#    0.000    2.909    0.909    3.273    0.000    5.091 
#    0.000    0.909    0.000    3.273    0.000    0.000 
#    0.000    0.727    0.000    1.636    0.000    4.727 
#
# Total GULP energy -245272.229669 kJ/mol
# GULP energy per Si atom -5574.368856 kJ/mol
# Density = 1.897525 g / cm^3
# Si number density = 19.018533 Si / 1000 Ang^3
#
#
#
# Elastic Constant Matrix: (Units=GPa)
#
#
# Indices 1 2 3 4 5 6 
#
# 1 70.9874 26.4079 81.9394 0.0000 0.0000 0.0000
# 2 26.4079 59.4887 42.9579 0.0000 0.0000 0.0000
# 3 81.9394 42.9579 193.7925 0.0000 0.0000 0.0000
# 4 0.0000 0.0000 0.0000 20.4674 0.0000 0.0000
# 5 0.0000 0.0000 0.0000 0.0000 34.9631 0.0000
# 6 0.0000 0.0000 0.0000 0.0000 0.0000 13.0892
#
#
#
# Elastic Compliance Matrix: (Units=1/GPa)
#
#
# Indices 1 2 3 4 5 6 
#
# 1 0.028587 -0.004717 -0.011041 0.000000 0.000000 0.000000
# 2 -0.004717 0.020792 -0.002615 0.000000 0.000000 0.000000
# 3 -0.011041 -0.002615 0.010408 0.000000 0.000000 0.000000
# 4 0.000000 0.000000 0.000000 0.048858 0.000000 0.000000
# 5 0.000000 0.000000 0.000000 0.000000 0.028602 0.000000
# 6 0.000000 0.000000 0.000000 0.000000 0.000000 0.076399
#
#
# Mechanical properties :
#
#
# Convention : Reuss Voigt Hill
#
# Bulk Modulus (GPa) = 43.40067 69.65322 56.52695
# Shear Modulus (GPa) = 19.37450 25.23483 22.30467
#
# Velocity S-wave (km/s) = 3.19520 3.64655 3.42831
# Velocity P-wave (km/s) = 6.04004 7.37788 6.74223
#
# Compressibility (1/GPa) = 0.02304112
#
# Stress axis : x y z
#
# Youngs Moduli (GPa) = 34.98142 48.09598 96.07739
#
# Poissons Ratio (x) = 0.22686 1.06083
# Poissons Ratio (y) = 0.16500 0.25120
# Poissons Ratio (z) = 0.38625 0.12575
#
# Static dielectric constant tensor:
#      x y z
#    x 1.635410 0.000000 0.000000 
#    y 0.000000 1.732690 0.000000 
#    z 0.000000 0.000000 1.660780 
# 
# From -- ./inp_files/36742.got.cif
#   From: 2010.05.17/outbox.cif.g08.bks.cpg/sg51_19_cif.got.tgz:36742.got - 2010.06.03 11:52:47.
