data_PCOD9406177
_publ_section_title
;
Structure prediction by ZEFSAII (Michael W. Deem and Ramdas Pophale) SiO2 
 PCOD9406177
Probable space group: P M M A
;
_chemical_formula_sum "Si O2"
_cell_formula_units_Z 40
_cell_length_a 15.924537
_cell_length_b 9.570674
_cell_length_c 12.787822
_cell_angle_alpha 90.000000
_cell_angle_beta 90.000000
_cell_angle_gamma 90.000000
_cell_volume 1948.973437
_symmetry_space_group_name_H-M "P M M A"
_symmetry_group_IT_number 51
_symmetry_cell_setting 'orthorhombic'
loop_
_space_group_symop_operation_xyz
x,y,z
1/2-x,-y,z
1/2+x,-y,-z
-x,y,-z
-x,-y,-z
1/2+x,y,-z
1/2-x,y,z
x,-y,z
loop_
_atom_site_type_symbol
_atom_site_label
_atom_site_fract_x
_atom_site_fract_y
_atom_site_fract_z
Si Si1 0.851103 0.836842 0.233646
Si Si2 0.096177 0.660472 0.962123
Si Si3 0.650427 0.343577 0.659604
Si Si4 0.098279 0.158185 0.527950
Si Si5 0.849240 0.156322 0.846718
O O1 0.750000 0.819349 0.232644
O O2 0.891502 0.734221 0.149151
O O3 0.884473 0.811641 0.350803
O O4 0.868707 0.000000 0.207370
O O5 0.126592 0.500000 0.960857
O O6 0.141664 0.755660 0.048093
O O7 0.000000 0.659029 0.000000
O O8 0.750000 0.355270 0.679354
O O9 0.614430 0.500000 0.662687
O O10 0.639259 0.269749 0.548716
O O11 0.613753 0.244065 0.750020
O O12 0.000000 0.159028 0.500000
O O13 0.130552 0.000000 0.507095
O O14 0.750000 0.141507 0.826785
O O15 0.885532 0.000000 0.854988
#
# Coordination Sequence:
#
# PCOD9406177 Si02
#       5
#     8   8   8   8   8
#     4  10  22  41  64  90 123 165 211 257 305 364
#     4  11  25  41  59  88 124 159 199 251 311 367
#     4  10  21  37  59  88 122 159 198 244 301 362
#     4  10  22  39  61  91 124 160 205 254 305 359
#     4  10  21  38  62  89 117 154 200 248 299 358
#
# _framework density 20.523624000000002
#
# number of rings (size 3 to 8) (size 9 to 14) (size 15 to 20)
#    0.000    1.800    0.000    3.000    2.800    8.800 
#    0.000    0.000    0.000    0.000    0.000    0.000 
#    0.000    0.000    0.000    0.000    0.000    0.000 
#
# Total GULP energy -223487.474950 kJ/mol
# GULP energy per Si atom -5587.186874 kJ/mol
# Density = 2.047691 g / cm^3
# Si number density = 20.523624 Si / 1000 Ang^3
#
#
#
# Elastic Constant Matrix: (Units=GPa)
#
#
# Indices 1 2 3 4 5 6 
#
# 1 32.7946 23.3090 14.7554 0.0000 0.0000 0.0000
# 2 23.3090 201.3912 117.5115 0.0000 0.0000 0.0000
# 3 14.7554 117.5115 140.7712 0.0000 0.0000 0.0000
# 4 0.0000 0.0000 0.0000 38.3073 0.0000 0.0000
# 5 0.0000 0.0000 0.0000 0.0000 29.0297 0.0000
# 6 0.0000 0.0000 0.0000 0.0000 0.0000 -4.1981
#
#
#
# Elastic Compliance Matrix: (Units=1/GPa)
#
#
# Indices 1 2 3 4 5 6 
#
# 1 0.033247 -0.003538 -0.000532 0.000000 0.000000 0.000000
# 2 -0.003538 0.010057 -0.008025 0.000000 0.000000 0.000000
# 3 -0.000532 -0.008025 0.013858 0.000000 0.000000 0.000000
# 4 0.000000 0.000000 0.000000 0.026105 0.000000 0.000000
# 5 0.000000 0.000000 0.000000 0.000000 0.034447 0.000000
# 6 0.000000 0.000000 0.000000 0.000000 0.000000 -0.238205
#
#
# Mechanical properties :
#
#
# Convention : Reuss Voigt Hill
#
# Bulk Modulus (GPa) = 30.32703 76.23430 53.28066
# Shear Modulus (GPa) = -58.60891 27.25321 -15.67785
#
# Velocity S-wave (km/s) = -5.34965 3.64798 -2.76686
# Velocity P-wave (km/s) = 4.83215 7.41411 3.97614
#
# Compressibility (1/GPa) = 0.03297389
#
# Stress axis : x y z
#
# Youngs Moduli (GPa) = 30.07833 99.42977 72.15908
#
# Poissons Ratio (x) = 0.35176 0.03836
# Poissons Ratio (y) = 0.10641 0.57906
# Poissons Ratio (z) = 0.01599 0.79790
#
# Static dielectric constant tensor:
#      x y z
#    x 3.956300 0.000000 0.000000 
#    y 0.000000 1.743960 0.000000 
#    z 0.000000 0.000000 1.694240 
# 
# From -- ./inp_files/17070.got.cif
#   From: 2010.05.17/outbox.cif.g08.bks.cpg/sg51_9_cif.got.tgz:17070.got - 2010.06.03 11:52:47.
