data_PCOD9406585
_publ_section_title
;
Structure prediction by ZEFSAII (Michael W. Deem and Ramdas Pophale) SiO2 
 PCOD9406585
Probable space group: P M M A
;
_chemical_formula_sum "Si O2"
_cell_formula_units_Z 56
_cell_length_a 14.054919
_cell_length_b 8.737228
_cell_length_c 22.023424
_cell_angle_alpha 90.000000
_cell_angle_beta 90.000000
_cell_angle_gamma 90.000000
_cell_volume 2704.499192
_symmetry_space_group_name_H-M "P M M A"
_symmetry_group_IT_number 51
_symmetry_cell_setting 'orthorhombic'
loop_
_space_group_symop_operation_xyz
x,y,z
1/2-x,-y,z
1/2+x,-y,-z
-x,y,-z
-x,-y,-z
1/2+x,y,-z
1/2-x,y,z
x,-y,z
loop_
_atom_site_type_symbol
_atom_site_label
_atom_site_fract_x
_atom_site_fract_y
_atom_site_fract_z
Si Si1 0.357544 0.327988 0.369442
Si Si2 0.357100 0.675161 0.223143
Si Si3 0.448695 0.176699 0.793508
Si Si4 0.024189 0.178036 0.567298
Si Si5 0.863149 0.323259 0.326935
Si Si6 0.640162 0.816875 0.962762
Si Si7 0.944889 0.319426 0.082705
O O1 0.250000 0.304828 0.390930
O O2 0.388585 0.500000 0.387912
O O3 0.356131 0.326407 0.296551
O O4 0.428005 0.202804 0.394694
O O5 0.250000 0.711206 0.202519
O O6 0.380886 0.500000 0.203777
O O7 0.438141 0.792936 0.205960
O O8 0.409944 0.230930 0.728458
O O9 0.411391 0.275717 0.849914
O O10 0.426922 0.000000 0.803163
O O11 0.102007 0.264028 0.607743
O O12 0.000000 0.237157 0.500000
O O13 0.050079 0.000000 0.562529
O O14 0.750000 0.311718 0.322561
O O15 0.892438 0.500000 0.320007
O O16 0.750000 0.774946 0.948579
O O17 0.555361 0.732774 0.926290
O O18 0.630011 0.000000 0.955198
O O19 0.615693 0.770408 0.032150
O O20 0.937891 0.500000 0.072008
#
# Coordination Sequence:
#
# PCOD9406585 Si02
#       7
#     8   8   8   8   8   8   8
#     4   9  18  34  58  85 113 147 189 237 289 348
#     4   9  18  34  57  85 117 152 190 237 294 357
#     4  12  24  39  62  91 126 163 202 253 310 367
#     4  11  24  40  60  89 123 158 197 246 304 363
#     4  11  25  45  67  90 119 159 207 256 306 363
#     4  10  21  40  65  92 126 164 205 258 313 362
#     4  11  23  39  62  91 125 166 211 256 301 361
#
# _framework density 20.706237000000002
#
# number of rings (size 3 to 8) (size 9 to 14) (size 15 to 20)
#    0.000    1.571    1.429    5.571    0.000    5.714 
#    0.000    4.286    0.000    0.000    0.000    0.000 
#    0.000    0.000    0.000    0.000    0.000    0.000 
#
# Total GULP energy -312883.459885 kJ/mol
# GULP energy per Si atom -5587.204641 kJ/mol
# Density = 2.065911 g / cm^3
# Si number density = 20.706237 Si / 1000 Ang^3
#
#
#
# Elastic Constant Matrix: (Units=GPa)
#
#
# Indices 1 2 3 4 5 6 
#
# 1 56.3951 8.6952 1.3503 0.0000 0.0000 0.0000
# 2 8.6952 60.2069 7.3512 0.0000 0.0000 0.0000
# 3 1.3503 7.3512 84.4760 0.0000 0.0000 0.0000
# 4 0.0000 0.0000 0.0000 26.2139 0.0000 0.0000
# 5 0.0000 0.0000 0.0000 0.0000 -0.5346 0.0000
# 6 0.0000 0.0000 0.0000 0.0000 0.0000 35.6133
#
#
#
# Elastic Compliance Matrix: (Units=1/GPa)
#
#
# Indices 1 2 3 4 5 6 
#
# 1 0.018136 -0.002612 -0.000063 0.000000 0.000000 0.000000
# 2 -0.002612 0.017164 -0.001452 0.000000 0.000000 0.000000
# 3 -0.000063 -0.001452 0.011965 0.000000 0.000000 0.000000
# 4 0.000000 0.000000 0.000000 0.038148 0.000000 0.000000
# 5 0.000000 0.000000 0.000000 0.000000 -1.870448 0.000000
# 6 0.000000 0.000000 0.000000 0.000000 0.000000 0.028079
#
#
# Mechanical properties :
#
#
# Convention : Reuss Voigt Hill
#
# Bulk Modulus (GPa) = 25.63257 26.20791 25.92024
# Shear Modulus (GPa) = -2.88068 24.50394 10.81163
#
# Velocity S-wave (km/s) = -1.18078 3.44380 2.28753
# Velocity P-wave (km/s) = 3.24762 5.33831 4.41840
#
# Compressibility (1/GPa) = 0.03901287
#
# Stress axis : x y z
#
# Youngs Moduli (GPa) = 55.13830 58.26202 83.57693
#
# Poissons Ratio (x) = 0.15216 0.00523
# Poissons Ratio (y) = 0.14400 0.12134
# Poissons Ratio (z) = 0.00345 0.08459
#
# Static dielectric constant tensor:
#      x y z
#    x 1.743650 0.000000 0.000000 
#    y 0.000000 1.722740 0.000000 
#    z 0.000000 0.000000 1.755150 
# 
# From -- ./inp_files/33472.got.cif
#   From: 2010.05.17/outbox.cif.g08.bks.cpg/sg51_17_cif.got.tgz:33472.got - 2010.06.03 11:52:47.
