data_PCOD9406485
_publ_section_title
;
Structure prediction by ZEFSAII (Michael W. Deem and Ramdas Pophale) SiO2 
 PCOD9406485
Probable space group: P M M A
;
_chemical_formula_sum "Si O2"
_cell_formula_units_Z 64
_cell_length_a 31.810032
_cell_length_b 8.267209
_cell_length_c 12.213918
_cell_angle_alpha 90.000000
_cell_angle_beta 90.000000
_cell_angle_gamma 90.000000
_cell_volume 3212.018389
_symmetry_space_group_name_H-M "P M M A"
_symmetry_group_IT_number 51
_symmetry_cell_setting 'orthorhombic'
loop_
_space_group_symop_operation_xyz
x,y,z
1/2-x,-y,z
1/2+x,-y,-z
-x,y,-z
-x,-y,-z
1/2+x,y,-z
1/2-x,y,z
x,-y,z
loop_
_atom_site_type_symbol
_atom_site_label
_atom_site_fract_x
_atom_site_fract_y
_atom_site_fract_z
Si Si1 0.588295 0.191646 0.745863
Si Si2 0.452876 0.696022 0.034504
Si Si3 0.296195 0.191027 0.010970
Si Si4 0.375499 0.805705 0.631854
Si Si5 0.547522 0.802977 0.514121
Si Si6 0.203526 0.804570 0.488477
Si Si7 0.123276 0.691363 0.879470
Si Si8 0.181856 0.312081 0.246003
O O1 0.559440 0.228955 0.849458
O O2 0.565557 0.237434 0.633347
O O3 0.631706 0.286876 0.757652
O O4 0.598267 0.000000 0.741222
O O5 0.450647 0.500000 0.043166
O O6 0.500000 0.739854 0.000000
O O7 0.417696 0.749579 0.946609
O O8 0.250000 0.249620 0.974909
O O9 0.300170 0.220517 0.140791
O O10 0.298783 0.000000 0.989561
O O11 0.335153 0.272409 0.950031
O O12 0.418690 0.746288 0.575761
O O13 0.334961 0.745137 0.563636
O O14 0.373406 0.765065 0.759114
O O15 0.375402 0.000000 0.620680
O O16 0.500000 0.743518 0.500000
O O17 0.546136 0.000000 0.507779
O O18 0.250000 0.751298 0.525618
O O19 0.196987 0.752264 0.363061
O O20 0.202692 0.000000 0.491153
O O21 0.118943 0.500000 0.866900
O O22 0.192598 0.500000 0.235663
#
# Coordination Sequence:
#
# PCOD9406485 Si02
#       8
#     8   8   8   8   8   8   8   8
#     4  11  21  37  64  92 120 156 203 250 297 354
#     4  10  23  42  61  86 125 165 200 247 306 362
#     4  11  24  42  65  91 119 156 202 250 301 360
#     4  10  21  39  61  85 119 159 201 249 297 350
#     4   9  19  36  59  89 121 152 193 249 300 344
#     4  10  21  39  62  87 116 154 200 246 293 349
#     4  11  24  41  61  88 123 162 201 248 302 358
#     4  12  23  37  60  91 127 159 192 241 305 361
#
# _framework density 19.925166000000001
#
# number of rings (size 3 to 8) (size 9 to 14) (size 15 to 20)
#    0.000    1.500    2.500    2.625    1.750    4.500 
#    0.000    1.250    0.000    1.875    0.000    0.000 
#    0.000    0.000    0.000    0.000    0.000    0.000 
#
# Total GULP energy -357700.156989 kJ/mol
# GULP energy per Si atom -5589.064953 kJ/mol
# Density = 1.987981 g / cm^3
# Si number density = 19.925166 Si / 1000 Ang^3
#
#
#
# Elastic Constant Matrix: (Units=GPa)
#
#
# Indices 1 2 3 4 5 6 
#
# 1 150.0717 6.3033 47.8341 0.0000 0.0000 0.0000
# 2 6.3033 8.6835 -3.8559 0.0000 0.0000 0.0000
# 3 47.8341 -3.8559 112.7094 0.0000 0.0000 0.0000
# 4 0.0000 0.0000 0.0000 -663.8413 0.0000 0.0000
# 5 0.0000 0.0000 0.0000 0.0000 27.5749 0.0000
# 6 0.0000 0.0000 0.0000 0.0000 0.0000 22.8176
#
#
#
# Elastic Compliance Matrix: (Units=1/GPa)
#
#
# Indices 1 2 3 4 5 6 
#
# 1 0.008170 -0.007586 -0.003727 0.000000 0.000000 0.000000
# 2 -0.007586 0.123981 0.007461 0.000000 0.000000 0.000000
# 3 -0.003727 0.007461 0.010709 0.000000 0.000000 0.000000
# 4 0.000000 0.000000 0.000000 -0.001506 0.000000 0.000000
# 5 0.000000 0.000000 0.000000 0.000000 0.036265 0.000000
# 6 0.000000 0.000000 0.000000 0.000000 0.000000 0.043826
#
#
# Mechanical properties :
#
#
# Convention : Reuss Voigt Hill
#
# Bulk Modulus (GPa) = 7.39882 41.33641 24.36761
# Shear Modulus (GPa) = 18.23488 -107.94422 -44.85467
#
# Velocity S-wave (km/s) = 3.02846 -7.36834 -4.74978
# Velocity P-wave (km/s) = 3.99376 7.18325 4.22190
#
# Compressibility (1/GPa) = 0.13515673
#
# Stress axis : x y z
#
# Youngs Moduli (GPa) = 122.39908 8.06578 93.37679
#
# Poissons Ratio (x) = 0.06118 0.34800
# Poissons Ratio (y) = 0.92846 -0.69666
# Poissons Ratio (z) = 0.45617 -0.06018
#
# Static dielectric constant tensor:
#      x y z
#    x 1.713520 0.000000 0.000000 
#    y 0.000000 1.689260 0.000000 
#    z 0.000000 0.000000 1.657130 
# 
# From -- ./inp_files/19493.got.cif
#   From: 2010.05.17/outbox.cif.g08.bks.cpg/sg51_10_cif.got.tgz:19493.got - 2010.06.03 11:52:47.
