data_PCOD9406575
_publ_section_title
;
Structure prediction by ZEFSAII (Michael W. Deem and Ramdas Pophale) SiO2 
 PCOD9406575
Probable space group: P M M A
;
_chemical_formula_sum "Si O2"
_cell_formula_units_Z 48
_cell_length_a 15.908968
_cell_length_b 15.562534
_cell_length_c 9.753967
_cell_angle_alpha 90.000000
_cell_angle_beta 90.000000
_cell_angle_gamma 90.000000
_cell_volume 2414.924755
_symmetry_space_group_name_H-M "P M M A"
_symmetry_group_IT_number 51
_symmetry_cell_setting 'orthorhombic'
loop_
_space_group_symop_operation_xyz
x,y,z
1/2-x,-y,z
1/2+x,-y,-z
-x,y,-z
-x,-y,-z
1/2+x,y,-z
1/2-x,y,z
x,-y,z
loop_
_atom_site_type_symbol
_atom_site_label
_atom_site_fract_x
_atom_site_fract_y
_atom_site_fract_z
Si Si1 0.647377 0.500000 0.817960
Si Si2 0.851265 0.000000 0.425592
Si Si3 0.650373 0.000000 0.748234
Si Si4 0.149443 0.343945 0.688172
Si Si5 0.438488 0.161542 0.117279
Si Si6 0.853231 0.500000 0.501252
Si Si7 0.441002 0.173998 0.631783
Si Si8 0.851953 0.666062 0.995103
O O1 0.750000 0.500000 0.817945
O O2 0.619485 0.500000 0.659556
O O3 0.621855 0.413862 0.899301
O O4 0.891175 0.084611 0.358958
O O5 0.750000 0.000000 0.415503
O O6 0.875777 0.000000 0.587683
O O7 0.617976 0.085188 0.823476
O O8 0.750000 0.000000 0.749280
O O9 0.250000 0.350949 0.691697
O O10 0.118340 0.417661 0.585936
O O11 0.123328 0.252374 0.628516
O O12 0.121878 0.351050 0.847070
O O13 0.498591 0.189580 0.240384
O O14 0.500000 0.126866 0.000000
O O15 0.389164 0.243883 0.058271
O O16 0.750000 0.500000 0.503852
O O17 0.500000 0.171423 0.500000
O O18 0.750000 0.671444 0.991740
#
# Coordination Sequence:
#
# PCOD9406575 Si02
#       8
#     4   4   4   8   8   4   8   8
#     4   9  19  35  61  93 123 159 208 260 306 355
#     4  11  24  44  67  93 122 161 209 256 306 367
#     4  11  24  43  67  94 122 161 209 256 304 367
#     4  10  21  40  63  90 123 165 211 255 304 365
#     4  12  24  43  63  92 129 163 202 252 314 369
#     4   9  19  35  61  93 123 160 210 259 302 353
#     4  12  24  42  64  91 127 165 204 250 313 371
#     4  10  21  40  63  90 124 166 209 253 307 367
#
# _framework density 19.876396
#
# number of rings (size 3 to 8) (size 9 to 14) (size 15 to 20)
#    0.000    1.333    3.333    2.500    2.333    2.000 
#    0.000    2.500    0.000    0.000    0.000    0.000 
#    0.000    0.000    0.000    0.000    0.000    0.000 
#
# Total GULP energy -268241.355474 kJ/mol
# GULP energy per Si atom -5588.361572 kJ/mol
# Density = 1.983116 g / cm^3
# Si number density = 19.876396 Si / 1000 Ang^3
#
#
#
# Elastic Constant Matrix: (Units=GPa)
#
#
# Indices 1 2 3 4 5 6 
#
# 1 27.9098 23.2072 35.4943 0.0000 0.0000 0.0000
# 2 23.2072 157.1089 39.3212 0.0000 0.0000 0.0000
# 3 35.4943 39.3212 69.7081 0.0000 0.0000 0.0000
# 4 0.0000 0.0000 0.0000 37.6533 0.0000 0.0000
# 5 0.0000 0.0000 0.0000 0.0000 153.8427 0.0000
# 6 0.0000 0.0000 0.0000 0.0000 0.0000 -147.7080
#
#
#
# Elastic Compliance Matrix: (Units=1/GPa)
#
#
# Indices 1 2 3 4 5 6 
#
# 1 0.102444 -0.002418 -0.050799 0.000000 0.000000 0.000000
# 2 -0.002418 0.007468 -0.002981 0.000000 0.000000 0.000000
# 3 -0.050799 -0.002981 0.041893 0.000000 0.000000 0.000000
# 4 0.000000 0.000000 0.000000 0.026558 0.000000 0.000000
# 5 0.000000 0.000000 0.000000 0.000000 0.006500 0.000000
# 6 0.000000 0.000000 0.000000 0.000000 0.000000 -0.006770
#
#
# Mechanical properties :
#
#
# Convention : Reuss Voigt Hill
#
# Bulk Modulus (GPa) = 25.37529 50.08581 37.73055
# Shear Modulus (GPa) = 16.46762 19.20454 17.83608
#
# Velocity S-wave (km/s) = 2.88149 3.11175 2.99883
# Velocity P-wave (km/s) = 4.88517 6.17770 5.56906
#
# Compressibility (1/GPa) = 0.03940841
#
# Stress axis : x y z
#
# Youngs Moduli (GPa) = 9.76147 133.89684 23.87026
#
# Poissons Ratio (x) = 0.32383 1.21257
# Poissons Ratio (y) = 0.02361 0.07117
# Poissons Ratio (z) = 0.49587 0.39920
#
# Static dielectric constant tensor:
#      x y z
#    x 1.687620 0.000000 0.000000 
#    y 0.000000 1.666520 0.000000 
#    z 0.000000 0.000000 1.600790 
# 
# From -- ./inp_files/9766.got.cif
#   From: 2010.05.17/outbox.cif.g08.bks.cpg/sg51_5_cif.got.tgz:9766.got - 2010.06.03 11:52:47.
