data_PCOD9406179
_publ_section_title
;
Structure prediction by ZEFSAII (Michael W. Deem and Ramdas Pophale) SiO2 
 PCOD9406179
Probable space group: P M M A
;
_chemical_formula_sum "Si O2"
_cell_formula_units_Z 40
_cell_length_a 10.002878
_cell_length_b 14.208042
_cell_length_c 14.139508
_cell_angle_alpha 90.000000
_cell_angle_beta 90.000000
_cell_angle_gamma 90.000000
_cell_volume 2009.525410
_symmetry_space_group_name_H-M "P M M A"
_symmetry_group_IT_number 51
_symmetry_cell_setting 'orthorhombic'
loop_
_space_group_symop_operation_xyz
x,y,z
1/2-x,-y,z
1/2+x,-y,-z
-x,y,-z
-x,-y,-z
1/2+x,y,-z
1/2-x,y,z
x,-y,z
loop_
_atom_site_type_symbol
_atom_site_label
_atom_site_fract_x
_atom_site_fract_y
_atom_site_fract_z
Si Si1 0.250000 0.614592 0.355788
Si Si2 0.528962 0.306244 0.292730
Si Si3 0.904443 0.388529 0.089091
Si Si4 0.400839 0.110609 0.076916
Si Si5 0.750000 0.610503 0.426865
Si Si6 0.094036 0.104953 0.743688
O O1 0.250000 0.500000 0.348931
O O2 0.379971 0.658207 0.307550
O O3 0.250000 0.646045 0.465794
O O4 0.567787 0.328944 0.183919
O O5 0.622666 0.361247 0.365327
O O6 0.557880 0.196899 0.315359
O O7 0.750000 0.374001 0.061604
O O8 0.921058 0.500000 0.113792
O O9 0.000000 0.369717 0.000000
O O10 0.250000 0.149937 0.083389
O O11 0.485925 0.110470 0.172494
O O12 0.384674 0.000000 0.051046
O O13 0.500000 0.154810 0.000000
O O14 0.750000 0.500000 0.436749
O O15 0.250000 0.113695 0.776087
O O16 0.082763 0.000000 0.700930
#
# Coordination Sequence:
#
# PCOD9406179 Si02
#       6
#     4   8   8   8   4   8
#     4  11  26  42  68 104 132 159 202 266 330 394
#     4  12  23  41  66  97 130 172 212 260 322 385
#     4  10  21  37  59  88 126 170 213 256 309 381
#     4   9  17  30  51  79 114 157 207 265 320 366
#     4  11  22  44  72  98 128 161 206 264 332 396
#     4  10  21  38  59  85 120 166 217 264 312 367
#
# _framework density 19.905197000000001
#
# number of rings (size 3 to 8) (size 9 to 14) (size 15 to 20)
#    0.000    1.600    2.000    3.000    2.800    4.800 
#    0.000    2.000    0.000    3.600    0.000    0.000 
#    0.000    0.000    0.000    0.000    0.000    0.000 
#
# Total GULP energy -223222.583452 kJ/mol
# GULP energy per Si atom -5580.564586 kJ/mol
# Density = 1.985989 g / cm^3
# Si number density = 19.905197 Si / 1000 Ang^3
#
#
#
# Elastic Constant Matrix: (Units=GPa)
#
#
# Indices 1 2 3 4 5 6 
#
# 1 175.8567 36.3735 26.3899 0.0000 0.0000 0.0000
# 2 36.3735 97.1647 18.2451 0.0000 0.0000 0.0000
# 3 26.3899 18.2451 55.2882 0.0000 0.0000 0.0000
# 4 0.0000 0.0000 0.0000 -6.6217 0.0000 0.0000
# 5 0.0000 0.0000 0.0000 0.0000 116.5555 0.0000
# 6 0.0000 0.0000 0.0000 0.0000 0.0000 21.7217
#
#
#
# Elastic Compliance Matrix: (Units=1/GPa)
#
#
# Indices 1 2 3 4 5 6 
#
# 1 0.006457 -0.001960 -0.002435 0.000000 0.000000 0.000000
# 2 -0.001960 0.011567 -0.002881 0.000000 0.000000 0.000000
# 3 -0.002435 -0.002881 0.020200 0.000000 0.000000 0.000000
# 4 0.000000 0.000000 0.000000 -0.151018 0.000000 0.000000
# 5 0.000000 0.000000 0.000000 0.000000 0.008580 0.000000
# 6 0.000000 0.000000 0.000000 0.000000 0.000000 0.046037
#
#
# Mechanical properties :
#
#
# Convention : Reuss Voigt Hill
#
# Bulk Modulus (GPa) = 42.24640 54.48072 48.36356
# Shear Modulus (GPa) = -139.92644 42.81783 -48.55430
#
# Velocity S-wave (km/s) = -8.39339 4.64301 -4.94426
# Velocity P-wave (km/s) = 8.52421 7.49486 2.87134
#
# Compressibility (1/GPa) = 0.02367065
#
# Stress axis : x y z
#
# Youngs Moduli (GPa) = 154.86336 86.45595 49.50406
#
# Poissons Ratio (x) = 0.16945 0.12056
# Poissons Ratio (y) = 0.30353 0.14264
# Poissons Ratio (z) = 0.37715 0.24912
#
# Static dielectric constant tensor:
#      x y z
#    x 1.656870 0.000000 0.000000 
#    y 0.000000 1.766730 0.000000 
#    z 0.000000 0.000000 1.671160 
# 
# From -- ./inp_files/20563.got.cif
#   From: 2010.05.17/outbox.cif.g08.bks.cpg/sg51_11_cif.got.tgz:20563.got - 2010.06.03 11:52:47.
