data_PCOD9406707
_publ_section_title
;
Structure prediction by ZEFSAII (Michael W. Deem and Ramdas Pophale) SiO2 
 PCOD9406707
Probable space group: P M M A
;
_chemical_formula_sum "Si O2"
_cell_formula_units_Z 56
_cell_length_a 15.349622
_cell_length_b 14.189683
_cell_length_c 12.426573
_cell_angle_alpha 90.000000
_cell_angle_beta 90.000000
_cell_angle_gamma 90.000000
_cell_volume 2706.585518
_symmetry_space_group_name_H-M "P M M A"
_symmetry_group_IT_number 51
_symmetry_cell_setting 'orthorhombic'
loop_
_space_group_symop_operation_xyz
x,y,z
1/2-x,-y,z
1/2+x,-y,-z
-x,y,-z
-x,-y,-z
1/2+x,y,-z
1/2-x,y,z
x,-y,z
loop_
_atom_site_type_symbol
_atom_site_label
_atom_site_fract_x
_atom_site_fract_y
_atom_site_fract_z
Si Si1 0.149953 0.236693 0.824033
Si Si2 0.103998 0.892036 0.016038
Si Si3 0.147050 0.105490 0.632469
Si Si4 0.910471 0.239204 0.557271
Si Si5 0.851592 0.889209 0.735137
Si Si6 0.652213 0.388306 0.716758
Si Si7 0.491608 0.387796 0.872763
O O1 0.250000 0.262028 0.798360
O O2 0.146645 0.183103 0.937608
O O3 0.115347 0.160887 0.737440
O O4 0.087231 0.326193 0.827228
O O5 0.130730 0.000000 0.989373
O O6 0.128462 0.874896 0.139606
O O7 0.000000 0.885965 0.000000
O O8 0.250000 0.094595 0.648709
O O9 0.135562 0.173600 0.530943
O O10 0.109437 0.000000 0.618262
O O11 0.914988 0.170666 0.660462
O O12 0.864347 0.330119 0.607710
O O13 0.000000 0.266634 0.500000
O O14 0.750000 0.863666 0.712947
O O15 0.860946 0.000000 0.711816
O O16 0.750000 0.367591 0.756408
O O17 0.646113 0.500000 0.696476
O O18 0.579263 0.364857 0.805996
O O19 0.476163 0.500000 0.862111
O O20 0.500000 0.366944 0.000000
#
# Coordination Sequence:
#
# PCOD9406707 Si02
#       7
#     8   8   8   8   8   8   8
#     4  11  23  39  63  94 131 177 225 269 328 399
#     4  10  22  38  60  91 131 174 223 277 333 394
#     4  10  22  40  60  86 125 170 213 258 311 377
#     4  12  25  39  62  92 127 166 213 269 327 393
#     4  10  22  40  61  89 126 170 221 273 324 385
#     4  10  23  45  72 100 129 167 220 278 337 400
#     4  10  23  43  66  95 132 169 213 272 336 400
#
# _framework density 20.690276000000001
#
# number of rings (size 3 to 8) (size 9 to 14) (size 15 to 20)
#    0.000    1.571    0.000    3.857    6.000    4.857 
#    0.000    2.143    0.000    0.857    0.000    0.000 
#    0.000    0.000    0.000    0.000    0.000    0.000 
#
# Total GULP energy -313028.209797 kJ/mol
# GULP energy per Si atom -5589.789461 kJ/mol
# Density = 2.064318 g / cm^3
# Si number density = 20.690276 Si / 1000 Ang^3
#
#
#
# Elastic Constant Matrix: (Units=GPa)
#
#
# Indices 1 2 3 4 5 6 
#
# 1 114.0235 45.7511 35.6394 0.0000 0.0000 0.0000
# 2 45.7511 100.7876 45.0698 0.0000 0.0000 0.0000
# 3 35.6394 45.0698 76.3351 0.0000 0.0000 0.0000
# 4 0.0000 0.0000 0.0000 123.2872 0.0000 0.0000
# 5 0.0000 0.0000 0.0000 0.0000 33.9121 0.0000
# 6 0.0000 0.0000 0.0000 0.0000 0.0000 8.3377
#
#
#
# Elastic Compliance Matrix: (Units=1/GPa)
#
#
# Indices 1 2 3 4 5 6 
#
# 1 0.011217 -0.003736 -0.003031 0.000000 0.000000 0.000000
# 2 -0.003736 0.014726 -0.006950 0.000000 0.000000 0.000000
# 3 -0.003031 -0.006950 0.018619 0.000000 0.000000 0.000000
# 4 0.000000 0.000000 0.000000 0.008111 0.000000 0.000000
# 5 0.000000 0.000000 0.000000 0.000000 0.029488 0.000000
# 6 0.000000 0.000000 0.000000 0.000000 0.000000 0.119937
#
#
# Mechanical properties :
#
#
# Convention : Reuss Voigt Hill
#
# Bulk Modulus (GPa) = 58.38831 60.45189 59.42010
# Shear Modulus (GPa) = 21.25485 44.08646 32.67065
#
# Velocity S-wave (km/s) = 3.20861 4.62105 3.97802
# Velocity P-wave (km/s) = 6.48138 7.59954 7.06263
#
# Compressibility (1/GPa) = 0.01712672
#
# Stress axis : x y z
#
# Youngs Moduli (GPa) = 89.15346 67.90815 53.70971
#
# Poissons Ratio (x) = 0.25373 0.16279
# Poissons Ratio (y) = 0.33310 0.37328
# Poissons Ratio (z) = 0.27021 0.47196
#
# Static dielectric constant tensor:
#      x y z
#    x 1.750430 0.000000 0.000000 
#    y 0.000000 1.753240 0.000000 
#    z 0.000000 0.000000 1.726160 
# 
# From -- ./inp_files/16681.got.cif
#   From: 2010.05.17/outbox.cif.g08.bks.cpg/sg51_9_cif.got.tgz:16681.got - 2010.06.03 11:52:47.
