data_PCOD9407575
_publ_section_title
;
Structure prediction by ZEFSAII (Michael W. Deem and Ramdas Pophale) SiO2 
 PCOD9407575
Probable space group: P M M A
;
_chemical_formula_sum "Si O2"
_cell_formula_units_Z 56
_cell_length_a 9.000000
_cell_length_b 15.000000
_cell_length_c 21.000000
_cell_angle_alpha 90.000000
_cell_angle_beta 90.000000
_cell_angle_gamma 90.000000
_cell_volume 2835.000000
_symmetry_space_group_name_H-M "P M M A"
_symmetry_group_IT_number 51
_symmetry_cell_setting 'orthorhombic'
loop_
_space_group_symop_operation_xyz
x,y,z
1/2-x,-y,z
1/2+x,-y,-z
-x,y,-z
-x,-y,-z
1/2+x,y,-z
1/2-x,y,z
x,-y,z
loop_
_atom_site_type_symbol
_atom_site_label
_atom_site_fract_x
_atom_site_fract_y
_atom_site_fract_z
Si Si1 0.421176 0.103469 0.812638
Si Si2 0.075099 0.728468 0.662549
Si Si3 0.569981 0.208862 0.062401
Si Si4 0.921390 0.393406 0.565482
Si Si5 0.426363 0.901920 0.323274
Si Si6 0.426961 0.403939 0.760345
Si Si7 0.426922 0.404572 0.911823
O O1 0.250000 0.129012 0.796663
O O2 0.471737 0.161780 0.871871
O O3 0.517757 0.108904 0.749301
O O4 0.419928 0.000000 0.832528
O O5 0.250000 0.744164 0.663252
O O6 0.019831 0.688037 0.729967
O O7 0.026722 0.648095 0.618030
O O8 0.995502 0.818172 0.641518
O O9 0.750000 0.207836 0.058961
O O10 0.513182 0.310831 0.064927
O O11 0.500000 0.165334 0.000000
O O12 0.750000 0.362649 0.570201
O O13 0.919832 0.500000 0.569782
O O14 0.000000 0.368118 0.500000
O O15 0.250000 0.898815 0.325812
O O16 0.476983 0.000000 0.345034
O O17 0.250000 0.406238 0.746263
O O18 0.490413 0.500000 0.738060
O O19 0.441232 0.401437 0.835699
O O20 0.250000 0.405828 0.926072
O O21 0.492282 0.500000 0.932114
#
# Coordination Sequence:
#
# PCOD9407575 Si02
#       7
#     8   8   8   8   8   8   8
#     4   9  18  34  54  73  94 122 158 202 254 312
#     4  11  20  31  53  82 111 143 179 219 263 314
#     4  10  20  32  46  66  91 120 158 202 247 299
#     4  10  21  37  56  80 114 154 193 230 265 304
#     4  10  21  36  54  78 107 137 171 214 264 318
#     4   8  14  25  44  72 101 127 160 203 250 302
#     4   8  14  26  43  62  87 120 156 194 237 287
#
# _framework density 19.753086
#
# number of rings (size 3 to 8) (size 9 to 14) (size 15 to 20)
#    0.000    2.571    0.000    3.429    0.000    5.714 
#    0.000    0.000    0.000    0.429    0.000    4.000 
#    0.000    0.000    0.000    0.000    0.000    0.000 
#
# Total GULP energy -311808.464975 kJ/mol
# GULP energy per Si atom -5568.008303 kJ/mol
# Density = 1.970813 g / cm^3
# Si number density = 19.753086 Si / 1000 Ang^3
#
#
#
# Elastic Constant Matrix: (Units=GPa)
#
#
# Indices 1 2 3 4 5 6 
#
# 1 11.2659 9.8477 -6.7665 0.0000 0.0000 0.0000
# 2 9.8477 32.9082 -5.7769 0.0000 0.0000 0.0000
# 3 -6.7665 -5.7769 8.8142 0.0000 0.0000 0.0000
# 4 0.0000 0.0000 0.0000 -118.3386 0.0000 0.0000
# 5 0.0000 0.0000 0.0000 0.0000 17.2370 0.0000
# 6 0.0000 0.0000 0.0000 0.0000 0.0000 19.1564
#
#
#
# Elastic Compliance Matrix: (Units=1/GPa)
#
#
# Indices 1 2 3 4 5 6 
#
# 1 0.197422 -0.036695 0.127506 0.000000 0.000000 0.000000
# 2 -0.036695 0.041159 -0.001194 0.000000 0.000000 0.000000
# 3 0.127506 -0.001194 0.210553 0.000000 0.000000 0.000000
# 4 0.000000 0.000000 0.000000 -0.008450 0.000000 0.000000
# 5 0.000000 0.000000 0.000000 0.000000 0.058015 0.000000
# 6 0.000000 0.000000 0.000000 0.000000 0.000000 0.052202
#
#
# Mechanical properties :
#
#
# Convention : Reuss Voigt Hill
#
# Bulk Modulus (GPa) = 1.59143 5.28856 3.43999
# Shear Modulus (GPa) = 8.60403 -12.67679 -2.03638
#
# Velocity S-wave (km/s) = 2.08932 -2.53605 -1.01644
# Velocity P-wave (km/s) = 2.57444 2.42740 0.60641
#
# Compressibility (1/GPa) = 0.62836659
#
# Stress axis : x y z
#
# Youngs Moduli (GPa) = 5.06530 24.29608 4.74939
#
# Poissons Ratio (x) = 0.89155 -0.60557
# Poissons Ratio (y) = 0.18587 0.00567
# Poissons Ratio (z) = -0.64586 0.02902
#
# Static dielectric constant tensor:
#      x y z
#    x 1.669290 0.000000 0.000000 
#    y 0.000000 1.777210 0.000000 
#    z 0.000000 0.000000 1.712230 
# 
# From -- ./inp_files/31889.got.cif
#   From: 2010.05.17/outbox.ucp.g08.bks.cvg/sg51_16_cif.got.tgz:31889.got - 2010.06.11 16:27:58.
