data_PCOD9407577
_publ_section_title
;
Structure prediction by ZEFSAII (Michael W. Deem and Ramdas Pophale) SiO2 
 PCOD9407577
Probable space group: P M M A
;
_chemical_formula_sum "Si O2"
_cell_formula_units_Z 64
_cell_length_a 24.000000
_cell_length_b 9.000000
_cell_length_c 18.000000
_cell_angle_alpha 90.000000
_cell_angle_beta 90.000000
_cell_angle_gamma 90.000000
_cell_volume 3888.000000
_symmetry_space_group_name_H-M "P M M A"
_symmetry_group_IT_number 51
_symmetry_cell_setting 'orthorhombic'
loop_
_space_group_symop_operation_xyz
x,y,z
1/2-x,-y,z
1/2+x,-y,-z
-x,y,-z
-x,-y,-z
1/2+x,y,-z
1/2-x,y,z
x,-y,z
loop_
_atom_site_type_symbol
_atom_site_label
_atom_site_fract_x
_atom_site_fract_y
_atom_site_fract_z
Si Si1 0.686025 0.680532 0.084590
Si Si2 0.004982 0.678784 0.413165
Si Si3 0.184387 0.175271 0.224679
Si Si4 0.892294 0.177521 0.371263
Si Si5 0.683587 0.678389 0.247528
Si Si6 0.872151 0.677216 0.639861
Si Si7 0.317737 0.671005 0.074030
Si Si8 0.312713 0.821516 0.494837
O O1 0.750000 0.733378 0.085633
O O2 0.687900 0.500000 0.082544
O O3 0.663036 0.720561 0.164700
O O4 0.660254 0.724085 0.006046
O O5 0.000677 0.500000 0.408183
O O6 0.065302 0.724069 0.382452
O O7 0.000000 0.720332 0.500000
O O8 0.953220 0.751594 0.371257
O O9 0.250000 0.213726 0.235952
O O10 0.146084 0.265329 0.280441
O O11 0.169029 0.222206 0.141418
O O12 0.178620 0.000000 0.236482
O O13 0.853199 0.235904 0.306085
O O14 0.859394 0.223496 0.446051
O O15 0.896199 0.000000 0.370042
O O16 0.750000 0.710353 0.254144
O O17 0.677837 0.500000 0.256504
O O18 0.869601 0.500000 0.635580
O O19 0.828737 0.747240 0.582160
O O20 0.250000 0.667501 0.067948
O O21 0.334940 0.500000 0.088456
O O22 0.250000 0.780588 0.518792
O O23 0.314331 0.000000 0.487344
#
# Coordination Sequence:
#
# PCOD9407577 Si02
#       8
#     8   8   8   8   8   8   8   8
#     4   7  11  22  42  68  96 128 165 201 236 277
#     4  10  21  39  57  72  92 118 159 214 257 291
#     4  10  20  32  46  69 104 137 161 192 238 292
#     4  11  22  34  51  73  99 130 165 202 244 294
#     4   9  17  30  49  73 103 137 169 202 243 288
#     4  11  22  35  53  73  92 120 161 207 248 287
#     4   8  13  24  44  68  95 128 166 202 233 275
#     4  10  21  35  49  68  98 131 158 189 235 290
#
# _framework density 16.460905
#
# number of rings (size 3 to 8) (size 9 to 14) (size 15 to 20)
#    0.000    2.500    1.250    3.375    0.000    5.000 
#    0.000    0.625    0.000    2.250    0.000    0.875 
#    0.000    7.000    0.000    0.000    0.000    0.000 
#
# Total GULP energy -356511.924909 kJ/mol
# GULP energy per Si atom -5570.498827 kJ/mol
# Density = 1.642344 g / cm^3
# Si number density = 16.460905 Si / 1000 Ang^3
#
#
#
# Elastic Constant Matrix: (Units=GPa)
#
#
# Indices 1 2 3 4 5 6 
#
# 1 45.5626 7.6725 5.5178 0.0000 0.0000 0.0000
# 2 7.6725 -7.4117 -3.4458 0.0000 0.0000 0.0000
# 3 5.5178 -3.4458 65.9930 0.0000 0.0000 0.0000
# 4 0.0000 0.0000 0.0000 -8.6117 0.0000 0.0000
# 5 0.0000 0.0000 0.0000 0.0000 -7.5090 0.0000
# 6 0.0000 0.0000 0.0000 0.0000 0.0000 15.9754
#
#
#
# Elastic Compliance Matrix: (Units=1/GPa)
#
#
# Indices 1 2 3 4 5 6 
#
# 1 0.018710 0.019619 -0.000540 0.000000 0.000000 0.000000
# 2 0.019619 -0.111152 -0.007444 0.000000 0.000000 0.000000
# 3 -0.000540 -0.007444 0.014810 0.000000 0.000000 0.000000
# 4 0.000000 0.000000 0.000000 -0.116122 0.000000 0.000000
# 5 0.000000 0.000000 0.000000 0.000000 -0.133174 0.000000
# 6 0.000000 0.000000 0.000000 0.000000 0.000000 0.062596
#
#
# Mechanical properties :
#
#
# Convention : Reuss Voigt Hill
#
# Bulk Modulus (GPa) = -18.39471 13.73699 -2.32886
# Shear Modulus (GPa) = -16.35470 6.26424 -5.04523
#
# Velocity S-wave (km/s) = -3.15548 1.95289 -1.75261
# Velocity P-wave (km/s) = 4.94723 3.66720 2.34805
#
# Compressibility (1/GPa) = -0.05436345
#
# Stress axis : x y z
#
# Youngs Moduli (GPa) = 53.44873 -8.99669 67.52383
#
# Poissons Ratio (x) = 0.17650 0.03646
# Poissons Ratio (y) = -1.04860 0.50265
# Poissons Ratio (z) = 0.02886 -0.06697
#
# Static dielectric constant tensor:
#      x y z
#    x 1.530940 0.000000 0.000000 
#    y 0.000000 1.544200 0.000000 
#    z 0.000000 0.000000 1.586300 
# 
# From -- ./inp_files/30942.got.cif
#   From: 2010.05.17/outbox.ucp.g08.bks.cvg/sg51_16_cif.got.tgz:30942.got - 2010.06.11 16:27:58.
