data_PCOD9407995
_publ_section_title
;
Structure prediction by ZEFSAII (Michael W. Deem and Ramdas Pophale) SiO2 
 PCOD9407995
Probable space group: P N N A
;
_chemical_formula_sum "Si O2"
_cell_formula_units_Z 60
_cell_length_a 28.192771
_cell_length_b 5.548971
_cell_length_c 25.725619
_cell_angle_alpha 90.000000
_cell_angle_beta 90.000000
_cell_angle_gamma 90.000000
_cell_volume 4024.538184
_symmetry_space_group_name_H-M "P N N A"
_symmetry_group_IT_number 52
_symmetry_cell_setting 'orthorhombic'
loop_
_space_group_symop_operation_xyz
x,y,z
1/2-x,-y,z
x,1/2-y,1/2-z
1/2-x,1/2+y,1/2-z
-x,-y,-z
1/2+x,y,-z
-x,1/2+y,1/2+z
1/2+x,1/2-y,1/2+z
loop_
_atom_site_type_symbol
_atom_site_label
_atom_site_fract_x
_atom_site_fract_y
_atom_site_fract_z
Si Si1 0.334365 0.691425 0.119732
Si Si2 0.604308 0.747554 0.005947
Si Si3 0.296444 0.387789 0.026631
Si Si4 0.057045 0.228894 0.105205
Si Si5 0.307297 0.497508 0.221881
Si Si6 0.535590 0.734325 0.909592
Si Si7 0.942596 0.752555 0.019734
Si Si8 0.250000 0.500000 0.396745
O O1 0.321096 0.591147 0.062759
O O2 0.387215 0.786662 0.116660
O O3 0.329489 0.493916 0.164338
O O4 0.292657 0.878620 0.134372
O O5 0.661105 0.733869 0.004688
O O6 0.582816 0.743222 0.946683
O O7 0.585229 0.496913 0.029893
O O8 0.584762 0.995963 0.030273
O O9 0.250000 0.500000 0.999056
O O10 0.274833 0.196831 0.066911
O O11 0.037835 0.487944 0.122479
O O12 0.034055 0.980055 0.122755
O O13 0.048528 0.239820 0.042479
O O14 0.250000 0.500000 0.217692
O O15 0.321566 0.750000 0.250000
O O16 0.320849 0.250000 0.250000
O O17 0.491507 0.739137 0.949195
#
# Coordination Sequence:
#
# PCOD9407995 Si02
#       8
#     8   8   8   8   8   8   8   4
#     4  11  21  32  46  61  76  96 122 158 197 245
#     4  10  17  27  38  54  74  98 124 148 175 219
#     4  10  20  29  40  57  76  99 125 157 196 233
#     4  10  18  27  42  59  79  95 119 143 180 223
#     4  10  23  37  49  60  73  93 123 160 203 250
#     4  10  17  27  41  59  80 101 119 144 176 222
#     4  10  17  27  41  57  79 101 122 145 176 219
#     4  10  20  28  46  58  72  96 120 154 198 238
#
# _framework density 14.908543999999999
#
# number of rings (size 3 to 8) (size 9 to 14) (size 15 to 20)
#    0.000    1.867    2.667    6.800    6.533    0.000 
#    0.000    0.000    0.000    0.000    0.000    0.000 
#    0.000    0.000    0.000    0.000    0.000    0.000 
#
# Total GULP energy -334347.457653 kJ/mol
# GULP energy per Si atom -5572.457628 kJ/mol
# Density = 1.487461 g / cm^3
# Si number density = 14.908544 Si / 1000 Ang^3
#
#
#
# Elastic Constant Matrix: (Units=GPa)
#
#
# Indices 1 2 3 4 5 6 
#
# 1 70.3251 27.8760 14.0279 0.0000 0.0000 0.0000
# 2 27.8760 121.3171 9.3127 0.0000 0.0000 0.0000
# 3 14.0279 9.3127 8.6858 0.0000 0.0000 0.0000
# 4 0.0000 0.0000 0.0000 9.5562 0.0000 0.0000
# 5 0.0000 0.0000 0.0000 0.0000 2.6496 0.0000
# 6 0.0000 0.0000 0.0000 0.0000 0.0000 22.7663
#
#
#
# Elastic Compliance Matrix: (Units=1/GPa)
#
#
# Indices 1 2 3 4 5 6 
#
# 1 0.021650 -0.002496 -0.032289 0.000000 0.000000 0.000000
# 2 -0.002496 0.009270 -0.005908 0.000000 0.000000 0.000000
# 3 -0.032289 -0.005908 0.173612 0.000000 0.000000 0.000000
# 4 0.000000 0.000000 0.000000 0.104644 0.000000 0.000000
# 5 0.000000 0.000000 0.000000 0.000000 0.377408 0.000000
# 6 0.000000 0.000000 0.000000 0.000000 0.000000 0.043925
#
#
# Mechanical properties :
#
#
# Convention : Reuss Voigt Hill
#
# Bulk Modulus (GPa) = 8.12043 33.64015 20.88029
# Shear Modulus (GPa) = 5.86205 16.93519 11.39862
#
# Velocity S-wave (km/s) = 1.98508 3.37402 2.76809
# Velocity P-wave (km/s) = 3.27303 6.14752 4.92467
#
# Compressibility (1/GPa) = 0.12314616
#
# Stress axis : x y z
#
# Youngs Moduli (GPa) = 46.18969 107.87597 5.75996
#
# Poissons Ratio (x) = 0.26926 0.18598
# Poissons Ratio (y) = 0.11529 0.03403
# Poissons Ratio (z) = 1.49142 0.63731
#
# Static dielectric constant tensor:
#      x y z
#    x 1.516270 0.000000 0.000000 
#    y 0.000000 1.626050 0.000000 
#    z 0.000000 0.000000 1.451350 
# 
# From -- ./inp_files/45216.got.cif
#   From: 2010.05.17/outbox.cif.g08.bks.cpg/sg52_23_cif.got.tgz:45216.got - 2010.06.03 12:15:38.
