data_PCOD9407692
_publ_section_title
;
Structure prediction by ZEFSAII (Michael W. Deem and Ramdas Pophale) SiO2 
 PCOD9407692
Probable space group: P M M A
;
_chemical_formula_sum "Si O2"
_cell_formula_units_Z 40
_cell_length_a 9.000000
_cell_length_b 27.000000
_cell_length_c 9.000000
_cell_angle_alpha 90.000000
_cell_angle_beta 90.000000
_cell_angle_gamma 90.000000
_cell_volume 2187.000000
_symmetry_space_group_name_H-M "P M M A"
_symmetry_group_IT_number 51
_symmetry_cell_setting 'orthorhombic'
loop_
_space_group_symop_operation_xyz
x,y,z
1/2-x,-y,z
1/2+x,-y,-z
-x,y,-z
-x,-y,-z
1/2+x,y,-z
1/2-x,y,z
x,-y,z
loop_
_atom_site_type_symbol
_atom_site_label
_atom_site_fract_x
_atom_site_fract_y
_atom_site_fract_z
Si Si1 0.571188 0.446225 0.838327
Si Si2 0.427965 0.350743 0.339062
Si Si3 0.428231 0.054413 0.661483
Si Si4 0.428209 0.758206 0.336868
Si Si5 0.571365 0.151983 0.160276
O O1 0.750000 0.443565 0.851201
O O2 0.534847 0.500000 0.768751
O O3 0.518537 0.398194 0.750791
O O4 0.500000 0.445378 0.000000
O O5 0.500000 0.351842 0.500000
O O6 0.250000 0.354115 0.354381
O O7 0.459129 0.296585 0.271072
O O8 0.500000 0.059051 0.500000
O O9 0.250000 0.055761 0.645766
O O10 0.472262 0.100767 0.760073
O O11 0.469197 0.000000 0.722589
O O12 0.500000 0.758775 0.500000
O O13 0.250000 0.764843 0.345482
O O14 0.504382 0.801749 0.247397
O O15 0.750000 0.155108 0.155123
O O16 0.500000 0.152149 0.000000
#
# Coordination Sequence:
#
# PCOD9407692 Si02
#       5
#     8   8   8   8   8
#     4   9  18  33  51  72 100 133 169 208 251 301
#     4   9  19  34  52  76 103 132 167 209 255 302
#     4   9  19  36  57  80 105 135 172 212 255 305
#     4  10  20  36  56  77 104 137 174 214 258 309
#     4  11  23  37  54  78 108 140 175 215 260 308
#
# _framework density 18.289895000000001
#
# number of rings (size 3 to 8) (size 9 to 14) (size 15 to 20)
#    0.000    2.400    0.000    1.800    0.000    6.400 
#    0.000    2.000    0.000    0.000    0.000    0.000 
#    0.000    0.000    0.000    0.000    0.000    0.000 
#
# Total GULP energy -222952.954900 kJ/mol
# GULP energy per Si atom -5573.823872 kJ/mol
# Density = 1.824827 g / cm^3
# Si number density = 18.289895 Si / 1000 Ang^3
#
#
#
# Elastic Constant Matrix: (Units=GPa)
#
#
# Indices 1 2 3 4 5 6 
#
# 1 25.6926 59.1492 22.1525 0.0000 0.0000 0.0000
# 2 59.1492 223.5304 99.7451 0.0000 0.0000 0.0000
# 3 22.1525 99.7451 67.4589 0.0000 0.0000 0.0000
# 4 0.0000 0.0000 0.0000 44.3800 0.0000 0.0000
# 5 0.0000 0.0000 0.0000 0.0000 27.5046 0.0000
# 6 0.0000 0.0000 0.0000 0.0000 0.0000 27.2105
#
#
#
# Elastic Compliance Matrix: (Units=1/GPa)
#
#
# Indices 1 2 3 4 5 6 
#
# 1 0.108026 -0.037494 0.019964 0.000000 0.000000 0.000000
# 2 -0.037494 0.026163 -0.026373 0.000000 0.000000 0.000000
# 3 0.019964 -0.026373 0.047262 0.000000 0.000000 0.000000
# 4 0.000000 0.000000 0.000000 0.022533 0.000000 0.000000
# 5 0.000000 0.000000 0.000000 0.000000 0.036357 0.000000
# 6 0.000000 0.000000 0.000000 0.000000 0.000000 0.036750
#
#
# Mechanical properties :
#
#
# Convention : Reuss Voigt Hill
#
# Bulk Modulus (GPa) = 10.67835 75.41950 43.04892
# Shear Modulus (GPa) = 12.62271 28.86138 20.74204
#
# Velocity S-wave (km/s) = 2.62991 3.97671 3.37125
# Velocity P-wave (km/s) = 3.88239 7.90005 6.22430
#
# Compressibility (1/GPa) = 0.09364746
#
# Stress axis : x y z
#
# Youngs Moduli (GPa) = 9.25706 38.22175 21.15844
#
# Poissons Ratio (x) = 1.43307 -0.42241
# Poissons Ratio (y) = 0.34708 0.55800
# Poissons Ratio (z) = -0.18481 1.00801
#
# Static dielectric constant tensor:
#      x y z
#    x 1.566580 0.000000 0.000000 
#    y 0.000000 1.680710 0.000000 
#    z 0.000000 0.000000 1.561710 
# 
# From -- ./inp_files/5205.got.cif
#   From: 2010.05.17/outbox.ucp.g08.bks.cvg/sg51_3_cif.got.tgz:5205.got - 2010.06.11 16:27:58.
