data_PCOD9407319
_publ_section_title
;
Structure prediction by ZEFSAII (Michael W. Deem and Ramdas Pophale) SiO2 
 PCOD9407319
Probable space group: P M M A
;
_chemical_formula_sum "Si O2"
_cell_formula_units_Z 48
_cell_length_a 9.495015
_cell_length_b 15.011053
_cell_length_c 16.397615
_cell_angle_alpha 90.000000
_cell_angle_beta 90.000000
_cell_angle_gamma 90.000000
_cell_volume 2337.154909
_symmetry_space_group_name_H-M "P M M A"
_symmetry_group_IT_number 51
_symmetry_cell_setting 'orthorhombic'
loop_
_space_group_symop_operation_xyz
x,y,z
1/2-x,-y,z
1/2+x,-y,-z
-x,y,-z
-x,-y,-z
1/2+x,y,-z
1/2-x,y,z
x,-y,z
loop_
_atom_site_type_symbol
_atom_site_label
_atom_site_fract_x
_atom_site_fract_y
_atom_site_fract_z
Si Si1 0.413574 0.391038 0.923379
Si Si2 0.086859 0.109022 0.080997
Si Si3 0.088623 0.893322 0.761005
Si Si4 0.409770 0.649219 0.574251
Si Si5 0.590299 0.138250 0.423595
Si Si6 0.086315 0.393190 0.748304
O O1 0.250000 0.365705 0.928931
O O2 0.416706 0.500000 0.925021
O O3 0.472748 0.363098 0.835141
O O4 0.500000 0.357953 0.000000
O O5 0.250000 0.137865 0.077906
O O6 0.007593 0.138379 0.164031
O O7 0.088074 0.000000 0.081778
O O8 0.000000 0.135129 0.000000
O O9 0.250000 0.858234 0.766704
O O10 0.035425 0.876221 0.668695
O O11 0.096489 0.000000 0.769321
O O12 0.500000 0.612607 0.500000
O O13 0.250000 0.612946 0.573897
O O14 0.400435 0.755442 0.565184
O O15 0.478036 0.634192 0.662728
O O16 0.500000 0.103996 0.500000
O O17 0.750000 0.102726 0.425427
O O18 0.250000 0.362987 0.746502
O O19 0.087829 0.500000 0.749438
#
# Coordination Sequence:
#
# PCOD9407319 Si02
#       6
#     8   8   8   8   8   8
#     4   8  13  22  37  57  80 105 132 161 194 234
#     4   9  16  26  42  65  91 117 144 175 213 256
#     4   9  17  29  44  63  87 113 143 180 218 254
#     4   9  17  30  46  62  82 110 142 173 207 251
#     4   9  18  31  46  63  83 111 144 176 214 259
#     4   8  14  25  42  63  85 110 139 169 204 247
#
# _framework density 20.537790999999999
#
# number of rings (size 3 to 8) (size 9 to 14) (size 15 to 20)
#    0.000    3.333    0.000    1.500    0.000    3.333 
#    0.000    0.833    0.000    2.000    0.000    2.333 
#    0.000    0.000    0.000    0.000    0.000    0.000 
#
# Total GULP energy -267421.502242 kJ/mol
# GULP energy per Si atom -5571.281297 kJ/mol
# Density = 2.049105 g / cm^3
# Si number density = 20.537791 Si / 1000 Ang^3
#
#
#
# Elastic Constant Matrix: (Units=GPa)
#
#
# Indices 1 2 3 4 5 6 
#
# 1 82.1714 4.2084 101.0934 0.0000 0.0000 0.0000
# 2 4.2084 40.7812 4.2874 0.0000 0.0000 0.0000
# 3 101.0934 4.2874 258.1446 0.0000 0.0000 0.0000
# 4 0.0000 0.0000 0.0000 30.8986 0.0000 0.0000
# 5 0.0000 0.0000 0.0000 0.0000 37.0957 0.0000
# 6 0.0000 0.0000 0.0000 0.0000 0.0000 -18.1371
#
#
#
# Elastic Compliance Matrix: (Units=1/GPa)
#
#
# Indices 1 2 3 4 5 6 
#
# 1 0.023571 -0.001465 -0.009207 0.000000 0.000000 0.000000
# 2 -0.001465 0.024655 0.000164 0.000000 0.000000 0.000000
# 3 -0.009207 0.000164 0.007477 0.000000 0.000000 0.000000
# 4 0.000000 0.000000 0.000000 0.032364 0.000000 0.000000
# 5 0.000000 0.000000 0.000000 0.000000 0.026957 0.000000
# 6 0.000000 0.000000 0.000000 0.000000 0.000000 -0.055136
#
#
# Mechanical properties :
#
#
# Convention : Reuss Voigt Hill
#
# Bulk Modulus (GPa) = 28.82785 66.69731 47.76258
# Shear Modulus (GPa) = 54.07434 28.07198 41.07316
#
# Velocity S-wave (km/s) = 5.13676 3.70110 4.47686
# Velocity P-wave (km/s) = 7.01775 7.12812 7.07315
#
# Compressibility (1/GPa) = 0.03468867
#
# Stress axis : x y z
#
# Youngs Moduli (GPa) = 42.42446 40.55976 133.75227
#
# Poissons Ratio (x) = 0.05940 1.23140
# Poissons Ratio (y) = 0.06213 -0.02194
# Poissons Ratio (z) = 0.39058 -0.00665
#
# Static dielectric constant tensor:
#      x y z
#    x 1.718820 0.000000 0.000000 
#    y 0.000000 1.767560 0.000000 
#    z 0.000000 0.000000 1.761480 
# 
# From -- ./inp_files/21374.got.cif
#   From: 2010.05.17/outbox.cif.g08.bks.cpg/sg51_11_cif.got.tgz:21374.got - 2010.06.03 11:52:47.
