data_PCOD9407740
_publ_section_title
;
Structure prediction by ZEFSAII (Michael W. Deem and Ramdas Pophale) SiO2 
 PCOD9407740
Probable space group: P M M A
;
_chemical_formula_sum "Si O2"
_cell_formula_units_Z 40
_cell_length_a 9.000000
_cell_length_b 9.000000
_cell_length_c 27.000000
_cell_angle_alpha 90.000000
_cell_angle_beta 90.000000
_cell_angle_gamma 90.000000
_cell_volume 2187.000000
_symmetry_space_group_name_H-M "P M M A"
_symmetry_group_IT_number 51
_symmetry_cell_setting 'orthorhombic'
loop_
_space_group_symop_operation_xyz
x,y,z
1/2-x,-y,z
1/2+x,-y,-z
-x,y,-z
-x,-y,-z
1/2+x,y,-z
1/2-x,y,z
x,-y,z
loop_
_atom_site_type_symbol
_atom_site_label
_atom_site_fract_x
_atom_site_fract_y
_atom_site_fract_z
Si Si1 0.919968 0.821014 0.950099
Si Si2 0.426405 0.176736 0.449951
Si Si3 0.072679 0.324816 0.350070
Si Si4 0.577630 0.318858 0.250638
Si Si5 0.429205 0.673677 0.857372
O O1 0.750000 0.770739 0.949679
O O2 0.003623 0.763979 0.902046
O O3 0.921986 0.000000 0.950372
O O4 0.000000 0.768535 0.000000
O O5 0.500000 0.234843 0.500000
O O6 0.250000 0.203444 0.452732
O O7 0.485113 0.248057 0.399591
O O8 0.450342 0.000000 0.447498
O O9 0.250000 0.306901 0.348620
O O10 0.039768 0.500000 0.353052
O O11 0.007392 0.265505 0.298861
O O12 0.750000 0.278066 0.254885
O O13 0.570794 0.500000 0.249814
O O14 0.520045 0.271387 0.196842
O O15 0.250000 0.682194 0.857756
O O16 0.469192 0.500000 0.862585
#
# Coordination Sequence:
#
# PCOD9407740 Si02
#       5
#     8   8   8   8   8
#     4  10  21  36  53  73  98 130 166 202 243 290
#     4   9  18  32  47  63  87 119 151 185 228 274
#     4   9  17  29  46  68  92 118 150 187 226 270
#     4   8  15  29  48  70  96 124 153 187 229 275
#     4   9  18  33  53  76 101 129 162 200 241 286
#
# _framework density 18.289895000000001
#
# number of rings (size 3 to 8) (size 9 to 14) (size 15 to 20)
#    0.000    3.000    0.000    1.800    0.000    4.000 
#    0.000    3.000    0.000    3.600    0.000    0.000 
#    0.000    0.000    0.000    0.000    0.000    0.000 
#
# Total GULP energy -222818.076515 kJ/mol
# GULP energy per Si atom -5570.451913 kJ/mol
# Density = 1.824827 g / cm^3
# Si number density = 18.289895 Si / 1000 Ang^3
#
#
#
# Elastic Constant Matrix: (Units=GPa)
#
#
# Indices 1 2 3 4 5 6 
#
# 1 3.5636 35.1896 54.2195 0.0000 0.0000 0.0000
# 2 35.1896 -12.0126 36.9710 0.0000 0.0000 0.0000
# 3 54.2195 36.9710 210.6997 0.0000 0.0000 0.0000
# 4 0.0000 0.0000 0.0000 36.5876 0.0000 0.0000
# 5 0.0000 0.0000 0.0000 0.0000 34.6977 0.0000
# 6 0.0000 0.0000 0.0000 0.0000 0.0000 16.1920
#
#
#
# Elastic Compliance Matrix: (Units=1/GPa)
#
#
# Indices 1 2 3 4 5 6 
#
# 1 0.039609 0.054973 -0.019839 0.000000 0.000000 0.000000
# 2 0.054973 0.022243 -0.018049 0.000000 0.000000 0.000000
# 3 -0.019839 -0.018049 0.013018 0.000000 0.000000 0.000000
# 4 0.000000 0.000000 0.000000 0.027332 0.000000 0.000000
# 5 0.000000 0.000000 0.000000 0.000000 0.028820 0.000000
# 6 0.000000 0.000000 0.000000 0.000000 0.000000 0.061759
#
#
# Mechanical properties :
#
#
# Convention : Reuss Voigt Hill
#
# Bulk Modulus (GPa) = 9.17084 50.55676 29.86380
# Shear Modulus (GPa) = 25.64661 22.55350 24.10006
#
# Velocity S-wave (km/s) = 3.74870 3.51538 3.63391
# Velocity P-wave (km/s) = 4.87463 6.64674 5.82843
#
# Compressibility (1/GPa) = 0.10904132
#
# Stress axis : x y z
#
# Youngs Moduli (GPa) = 25.24664 44.95812 76.81510
#
# Poissons Ratio (x) = -2.47150 1.52391
# Poissons Ratio (y) = -1.38790 1.38646
# Poissons Ratio (z) = 0.50086 0.81146
#
# Static dielectric constant tensor:
#      x y z
#    x 1.617370 0.000000 0.000000 
#    y 0.000000 1.616350 0.000000 
#    z 0.000000 0.000000 1.640540 
# 
# From -- ./inp_files/31356.got.cif
#   From: 2010.05.17/outbox.ucp.g08.bks.cvg/sg51_16_cif.got.tgz:31356.got - 2010.06.11 16:27:58.
