data_PCOD9407155
_publ_section_title
;
Structure prediction by ZEFSAII (Michael W. Deem and Ramdas Pophale) SiO2 
 PCOD9407155
Probable space group: P M M A
;
_chemical_formula_sum "Si O2"
_cell_formula_units_Z 48
_cell_length_a 29.410395
_cell_length_b 8.814739
_cell_length_c 10.109768
_cell_angle_alpha 90.000000
_cell_angle_beta 90.000000
_cell_angle_gamma 90.000000
_cell_volume 2620.906358
_symmetry_space_group_name_H-M "P M M A"
_symmetry_group_IT_number 51
_symmetry_cell_setting 'orthorhombic'
loop_
_space_group_symop_operation_xyz
x,y,z
1/2-x,-y,z
1/2+x,-y,-z
-x,y,-z
-x,-y,-z
1/2+x,y,-z
1/2-x,y,z
x,-y,z
loop_
_atom_site_type_symbol
_atom_site_label
_atom_site_fract_x
_atom_site_fract_y
_atom_site_fract_z
Si Si1 0.802456 0.182791 0.994655
Si Si2 0.035219 0.824562 0.621644
Si Si3 0.875070 0.318585 0.496499
Si Si4 0.802536 0.682466 0.277985
Si Si5 0.119694 0.182465 0.211476
Si Si6 0.522280 0.680684 0.857297
O O1 0.750000 0.231636 0.969199
O O2 0.838130 0.228938 0.881993
O O3 0.802599 0.000000 0.000394
O O4 0.816517 0.246281 0.137859
O O5 0.079021 0.730987 0.577376
O O6 0.000000 0.821469 0.500000
O O7 0.009945 0.753859 0.746754
O O8 0.047595 0.000000 0.646731
O O9 0.874221 0.500000 0.513511
O O10 0.833836 0.271990 0.400474
O O11 0.873582 0.241223 0.639554
O O12 0.750000 0.724717 0.300932
O O13 0.805205 0.500000 0.265911
O O14 0.072402 0.248847 0.156692
O O15 0.116770 0.000000 0.212736
O O16 0.525317 0.500000 0.835898
O O17 0.500000 0.708318 0.000000
#
# Coordination Sequence:
#
# PCOD9407155 Si02
#       6
#     8   8   8   8   8   8
#     4   9  20  39  61  86 117 153 193 238 290 346
#     4  11  23  40  62  87 117 155 195 238 288 346
#     4  11  23  38  60  88 118 155 195 241 291 345
#     4   9  20  39  61  87 118 151 192 239 288 346
#     4  11  23  39  59  87 119 154 196 241 289 345
#     4  11  25  42  61  87 118 154 195 241 290 347
#
# _framework density 18.314276
#
# number of rings (size 3 to 8) (size 9 to 14) (size 15 to 20)
#    0.000    1.667    1.667    2.000    2.333    5.333 
#    0.000    0.000    0.000    0.000    0.000    0.000 
#    0.000    0.000    0.000    0.000    0.000    0.000 
#
# Total GULP energy -268176.848453 kJ/mol
# GULP energy per Si atom -5587.017676 kJ/mol
# Density = 1.827259 g / cm^3
# Si number density = 18.314276 Si / 1000 Ang^3
#
#
#
# Elastic Constant Matrix: (Units=GPa)
#
#
# Indices 1 2 3 4 5 6 
#
# 1 95.0462 27.1590 73.9142 0.0000 0.0000 0.0000
# 2 27.1590 46.8977 51.1511 0.0000 0.0000 0.0000
# 3 73.9142 51.1511 132.1204 0.0000 0.0000 0.0000
# 4 0.0000 0.0000 0.0000 21.6507 0.0000 0.0000
# 5 0.0000 0.0000 0.0000 0.0000 40.1584 0.0000
# 6 0.0000 0.0000 0.0000 0.0000 0.0000 -1.2210
#
#
#
# Elastic Compliance Matrix: (Units=1/GPa)
#
#
# Indices 1 2 3 4 5 6 
#
# 1 0.018651 0.001003 -0.010822 0.000000 0.000000 0.000000
# 2 0.001003 0.036962 -0.014871 0.000000 0.000000 0.000000
# 3 -0.010822 -0.014871 0.019381 0.000000 0.000000 0.000000
# 4 0.000000 0.000000 0.000000 0.046188 0.000000 0.000000
# 5 0.000000 0.000000 0.000000 0.000000 0.024901 0.000000
# 6 0.000000 0.000000 0.000000 0.000000 0.000000 -0.819012
#
#
# Mechanical properties :
#
#
# Convention : Reuss Voigt Hill
#
# Bulk Modulus (GPa) = 39.04326 64.27921 51.66124
# Shear Modulus (GPa) = -8.12995 20.24030 6.05518
#
# Velocity S-wave (km/s) = -2.10921 3.32801 1.82029
# Velocity P-wave (km/s) = 3.92850 7.06694 5.71728
#
# Compressibility (1/GPa) = 0.02561262
#
# Stress axis : x y z
#
# Youngs Moduli (GPa) = 53.61689 27.05474 51.59707
#
# Poissons Ratio (x) = -0.02714 0.55841
# Poissons Ratio (y) = -0.05379 0.76731
# Poissons Ratio (z) = 0.58027 0.40234
#
# Static dielectric constant tensor:
#      x y z
#    x 1.617210 0.000000 0.000000 
#    y 0.000000 1.619490 0.000000 
#    z 0.000000 0.000000 1.574800 
# 
# From -- ./inp_files/12841.got.cif
#   From: 2010.05.17/outbox.cif.g08.bks.cpg/sg51_7_cif.got.tgz:12841.got - 2010.06.03 11:52:47.
