data_PCOD9407203
_publ_section_title
;
Structure prediction by ZEFSAII (Michael W. Deem and Ramdas Pophale) SiO2 
 PCOD9407203
Probable space group: P M M A
;
_chemical_formula_sum "Si O2"
_cell_formula_units_Z 56
_cell_length_a 15.788658
_cell_length_b 18.568256
_cell_length_c 10.306962
_cell_angle_alpha 90.000000
_cell_angle_beta 90.000000
_cell_angle_gamma 90.000000
_cell_volume 3021.669824
_symmetry_space_group_name_H-M "P M M A"
_symmetry_group_IT_number 51
_symmetry_cell_setting 'orthorhombic'
loop_
_space_group_symop_operation_xyz
x,y,z
1/2-x,-y,z
1/2+x,-y,-z
-x,y,-z
-x,-y,-z
1/2+x,y,-z
1/2-x,y,z
x,-y,z
loop_
_atom_site_type_symbol
_atom_site_label
_atom_site_fract_x
_atom_site_fract_y
_atom_site_fract_z
Si Si1 0.147648 0.918825 0.419020
Si Si2 0.099331 0.225134 0.996599
Si Si3 0.497813 0.415483 0.842847
Si Si4 0.654340 0.313549 0.243802
Si Si5 0.154405 0.319537 0.236807
Si Si6 0.600142 0.236908 0.504683
Si Si7 0.852127 0.080798 0.883747
O O1 0.250000 0.917925 0.423770
O O2 0.115830 0.849101 0.495558
O O3 0.123080 0.908889 0.267357
O O4 0.120600 0.000000 0.459364
O O5 0.144797 0.267509 0.112811
O O6 0.110019 0.141405 0.025578
O O7 0.138263 0.251573 0.862708
O O8 0.000000 0.243289 0.000000
O O9 0.493929 0.500000 0.812908
O O10 0.416349 0.373458 0.787409
O O11 0.581930 0.379248 0.782899
O O12 0.500000 0.408088 0.000000
O O13 0.750000 0.341426 0.231046
O O14 0.640919 0.277641 0.383382
O O15 0.250000 0.348524 0.242076
O O16 0.136491 0.271406 0.363537
O O17 0.500000 0.249561 0.500000
O O18 0.750000 0.086359 0.887786
O O19 0.875878 0.000000 0.922056
#
# Coordination Sequence:
#
# PCOD9407203 Si02
#       7
#     8   8   8   8   8   8   8
#     4   9  18  34  57  86 118 158 212 263 305 358
#     4  12  21  37  61  89 125 161 209 259 305 359
#     4  11  24  44  68 100 131 158 201 254 309 370
#     4  12  24  41  62  94 130 165 202 249 316 373
#     4  12  22  41  68  94 122 164 214 252 295 363
#     4  12  23  39  63  92 127 164 212 261 307 365
#     4   9  18  33  56  86 117 158 212 263 308 358
#
# _framework density 18.532799000000001
#
# number of rings (size 3 to 8) (size 9 to 14) (size 15 to 20)
#    0.000    1.000    5.714    3.429    0.000    1.143 
#    0.000    3.571    0.000    4.286    0.000    0.000 
#    0.000    0.000    0.000    0.000    0.000    0.000 
#
# Total GULP energy -312848.619948 kJ/mol
# GULP energy per Si atom -5586.582499 kJ/mol
# Density = 1.849062 g / cm^3
# Si number density = 18.532799 Si / 1000 Ang^3
#
#
#
# Elastic Constant Matrix: (Units=GPa)
#
#
# Indices 1 2 3 4 5 6 
#
# 1 132.4638 44.3279 19.5955 0.0000 0.0000 0.0000
# 2 44.3279 136.0270 26.7727 0.0000 0.0000 0.0000
# 3 19.5955 26.7727 71.8900 0.0000 0.0000 0.0000
# 4 0.0000 0.0000 0.0000 24.4369 0.0000 0.0000
# 5 0.0000 0.0000 0.0000 0.0000 4.7475 0.0000
# 6 0.0000 0.0000 0.0000 0.0000 0.0000 2.0450
#
#
#
# Elastic Compliance Matrix: (Units=1/GPa)
#
#
# Indices 1 2 3 4 5 6 
#
# 1 0.008603 -0.002527 -0.001404 0.000000 0.000000 0.000000
# 2 -0.002527 0.008675 -0.002542 0.000000 0.000000 0.000000
# 3 -0.001404 -0.002542 0.015239 0.000000 0.000000 0.000000
# 4 0.000000 0.000000 0.000000 0.040922 0.000000 0.000000
# 5 0.000000 0.000000 0.000000 0.000000 0.210636 0.000000
# 6 0.000000 0.000000 0.000000 0.000000 0.000000 0.489005
#
#
# Mechanical properties :
#
#
# Convention : Reuss Voigt Hill
#
# Bulk Modulus (GPa) = 51.09413 57.97478 54.53445
# Shear Modulus (GPa) = 6.30876 22.89154 14.60015
#
# Velocity S-wave (km/s) = 1.84702 3.51834 2.80982
# Velocity P-wave (km/s) = 5.67257 6.91774 6.32587
#
# Compressibility (1/GPa) = 0.01957172
#
# Stress axis : x y z
#
# Youngs Moduli (GPa) = 116.24457 115.26980 65.61925
#
# Poissons Ratio (x) = 0.29130 0.09211
# Poissons Ratio (y) = 0.29376 0.16680
# Poissons Ratio (z) = 0.16318 0.29301
#
# Static dielectric constant tensor:
#      x y z
#    x 1.641730 0.000000 0.000000 
#    y 0.000000 1.632270 0.000000 
#    z 0.000000 0.000000 1.615740 
# 
# From -- ./inp_files/8542.got.cif
#   From: 2010.05.17/outbox.cif.g08.bks.cpg/sg51_5_cif.got.tgz:8542.got - 2010.06.03 11:52:47.
