data_PCOD9407915
_publ_section_title
;
Structure prediction by ZEFSAII (Michael W. Deem and Ramdas Pophale) SiO2 
 PCOD9407915
Probable space group: P N N A
;
_chemical_formula_sum "Si O2"
_cell_formula_units_Z 32
_cell_length_a 5.311565
_cell_length_b 7.299399
_cell_length_c 36.124582
_cell_angle_alpha 90.000000
_cell_angle_beta 90.000000
_cell_angle_gamma 90.000000
_cell_volume 1400.594559
_symmetry_space_group_name_H-M "P N N A"
_symmetry_group_IT_number 52
_symmetry_cell_setting 'orthorhombic'
loop_
_space_group_symop_operation_xyz
x,y,z
1/2-x,-y,z
x,1/2-y,1/2-z
1/2-x,1/2+y,1/2-z
-x,-y,-z
1/2+x,y,-z
-x,1/2+y,1/2+z
1/2+x,1/2-y,1/2+z
loop_
_atom_site_type_symbol
_atom_site_label
_atom_site_fract_x
_atom_site_fract_y
_atom_site_fract_z
Si Si1 0.708987 0.282740 0.827972
Si Si2 0.019355 0.710970 0.515657
Si Si3 0.001125 0.882858 0.902111
Si Si4 0.712421 0.217790 0.292339
O O1 0.750000 0.500000 0.824031
O O2 0.593551 0.239885 0.868090
O O3 0.492852 0.209327 0.800389
O O4 0.988192 0.209659 0.818620
O O5 0.752008 0.793829 0.505982
O O6 0.068734 0.713562 0.559297
O O7 0.000000 0.500000 0.500000
O O8 0.750000 0.000000 0.911086
O O9 0.250000 0.000000 0.892116
O O10 0.638537 0.250000 0.250000
O O11 0.750000 0.000000 0.298272
#
# Coordination Sequence:
#
# PCOD9407915 Si02
#       4
#     8   8   8   8
#     4  10  23  40  55  81 120 154 181 226 308 354
#     4  10  16  30  49  77 108 142 181 230 290 327
#     4  12  21  33  57  87 110 145 193 245 274 332
#     4  10  21  39  61  81 109 151 188 232 285 351
#
# _framework density 22.847441
#
# number of rings (size 3 to 8) (size 9 to 14) (size 15 to 20)
#    0.000    1.500    5.000    2.250    0.000    3.000 
#    0.000    0.000    0.000    1.500    0.000    0.000 
#    0.000    0.000    0.000    0.000    0.000    0.000 
#
# Total GULP energy -178600.081310 kJ/mol
# GULP energy per Si atom -5581.252541 kJ/mol
# Density = 2.279544 g / cm^3
# Si number density = 22.847441 Si / 1000 Ang^3
#
#
#
# Elastic Constant Matrix: (Units=GPa)
#
#
# Indices 1 2 3 4 5 6 
#
# 1 206.3692 30.0405 51.6888 0.0000 0.0000 0.0000
# 2 30.0405 53.6065 -11.7396 0.0000 0.0000 0.0000
# 3 51.6888 -11.7396 113.9934 0.0000 0.0000 0.0000
# 4 0.0000 0.0000 0.0000 -10.4138 0.0000 0.0000
# 5 0.0000 0.0000 0.0000 0.0000 47.0184 0.0000
# 6 0.0000 0.0000 0.0000 0.0000 0.0000 -3.5939
#
#
#
# Elastic Compliance Matrix: (Units=1/GPa)
#
#
# Indices 1 2 3 4 5 6 
#
# 1 0.006287 -0.004243 -0.003288 0.000000 0.000000 0.000000
# 2 -0.004243 0.021949 0.004184 0.000000 0.000000 0.000000
# 3 -0.003288 0.004184 0.010694 0.000000 0.000000 0.000000
# 4 0.000000 0.000000 0.000000 -0.096026 0.000000 0.000000
# 5 0.000000 0.000000 0.000000 0.000000 0.021268 0.000000
# 6 0.000000 0.000000 0.000000 0.000000 0.000000 -0.278246
#
#
# Mechanical properties :
#
#
# Convention : Reuss Voigt Hill
#
# Bulk Modulus (GPa) = 31.02049 57.10539 44.06294
# Shear Modulus (GPa) = -16.85568 26.86741 5.00587
#
# Velocity S-wave (km/s) = -2.71910 3.43293 1.48181
# Velocity P-wave (km/s) = 1.93615 6.38450 4.71755
#
# Compressibility (1/GPa) = 0.03223676
#
# Stress axis : x y z
#
# Youngs Moduli (GPa) = 159.06424 45.56111 93.50961
#
# Poissons Ratio (x) = 0.19332 0.30742
# Poissons Ratio (y) = 0.67491 -0.39127
# Poissons Ratio (z) = 0.52294 -0.19064
#
# Static dielectric constant tensor:
#      x y z
#    x 1.050430 0.000000 0.000000 
#    y 0.000000 1.400880 0.000000 
#    z 0.000000 0.000000 1.897510 
# 
# From -- ./inp_files/43444.got.cif
#   From: 2010.05.17/outbox.cif.g08.bks.cpg/sg52_22_cif.got.tgz:43444.got - 2010.06.03 12:15:38.
