data_PCOD9407699
_publ_section_title
;
Structure prediction by ZEFSAII (Michael W. Deem and Ramdas Pophale) SiO2 
 PCOD9407699
Probable space group: P M M A
;
_chemical_formula_sum "Si O2"
_cell_formula_units_Z 40
_cell_length_a 18.000000
_cell_length_b 9.000000
_cell_length_c 12.000000
_cell_angle_alpha 90.000000
_cell_angle_beta 90.000000
_cell_angle_gamma 90.000000
_cell_volume 1944.000000
_symmetry_space_group_name_H-M "P M M A"
_symmetry_group_IT_number 51
_symmetry_cell_setting 'orthorhombic'
loop_
_space_group_symop_operation_xyz
x,y,z
1/2-x,-y,z
1/2+x,-y,-z
-x,y,-z
-x,-y,-z
1/2+x,y,-z
1/2-x,y,z
x,-y,z
loop_
_atom_site_type_symbol
_atom_site_label
_atom_site_fract_x
_atom_site_fract_y
_atom_site_fract_z
Si Si1 0.332225 0.180958 0.160660
Si Si2 0.669189 0.165151 0.464862
Si Si3 0.166724 0.177808 0.905115
Si Si4 0.948227 0.172925 0.660529
Si Si5 0.093183 0.329167 0.711607
O O1 0.250000 0.230599 0.196536
O O2 0.399070 0.230159 0.237109
O O3 0.331792 0.000000 0.166725
O O4 0.343059 0.223309 0.032849
O O5 0.750000 0.173511 0.519055
O O6 0.606015 0.177440 0.555997
O O7 0.659589 0.285606 0.370411
O O8 0.662910 0.000000 0.412392
O O9 0.250000 0.225112 0.870088
O O10 0.105261 0.241744 0.825155
O O11 0.164975 0.000000 0.901627
O O12 0.020388 0.270395 0.650478
O O13 0.969714 0.000000 0.677291
O O14 0.089555 0.500000 0.734261
#
# Coordination Sequence:
#
# PCOD9407699 Si02
#       5
#     8   8   8   8   8
#     4   8  15  31  58  88 110 132 172 225 274 319
#     4  10  21  38  61  85 106 133 175 225 273 322
#     4   9  18  35  59  83 107 138 179 225 269 316
#     4  10  20  36  59  84 110 139 173 218 272 325
#     4  12  25  37  51  76 113 151 184 219 260 311
#
# _framework density 20.576132000000001
#
# number of rings (size 3 to 8) (size 9 to 14) (size 15 to 20)
#    0.000    2.200    0.000    4.800    0.000    9.600 
#    0.000    5.000    0.000    3.000    0.000    0.000 
#    0.000    0.000    0.000    0.000    0.000    0.000 
#
# Total GULP energy -223070.135898 kJ/mol
# GULP energy per Si atom -5576.753397 kJ/mol
# Density = 2.052930 g / cm^3
# Si number density = 20.576132 Si / 1000 Ang^3
#
#
#
# Elastic Constant Matrix: (Units=GPa)
#
#
# Indices 1 2 3 4 5 6 
#
# 1 74.1247 17.2518 37.5903 0.0000 0.0000 0.0000
# 2 17.2518 16.6414 27.7288 0.0000 0.0000 0.0000
# 3 37.5903 27.7288 47.9068 0.0000 0.0000 0.0000
# 4 0.0000 0.0000 0.0000 -87.4325 0.0000 0.0000
# 5 0.0000 0.0000 0.0000 0.0000 30.7862 0.0000
# 6 0.0000 0.0000 0.0000 0.0000 0.0000 -223.8450
#
#
#
# Elastic Compliance Matrix: (Units=1/GPa)
#
#
# Indices 1 2 3 4 5 6 
#
# 1 0.096856 0.737420 -0.502822 0.000000 0.000000 0.000000
# 2 0.737420 7.304169 -4.806320 0.000000 0.000000 0.000000
# 3 -0.502822 -4.806320 3.197344 0.000000 0.000000 0.000000
# 4 0.000000 0.000000 0.000000 -0.011437 0.000000 0.000000
# 5 0.000000 0.000000 0.000000 0.000000 0.032482 0.000000
# 6 0.000000 0.000000 0.000000 0.000000 0.000000 -0.004467
#
#
# Mechanical properties :
#
#
# Convention : Reuss Voigt Hill
#
# Bulk Modulus (GPa) = 0.68732 33.75719 17.22225
# Shear Modulus (GPa) = 0.24699 -52.35812 -26.05556
#
# Velocity S-wave (km/s) = 0.34684 -5.04988 -3.56237
# Velocity P-wave (km/s) = 0.70368 4.19048 2.92104
#
# Compressibility (1/GPa) = 1.45492611
#
# Stress axis : x y z
#
# Youngs Moduli (GPa) = 10.32461 0.13691 0.31276
#
# Poissons Ratio (x) = -0.10096 0.15726
# Poissons Ratio (y) = -7.61358 1.50322
# Poissons Ratio (z) = 5.19144 0.65802
#
# Static dielectric constant tensor:
#      x y z
#    x 1.784900 0.000000 0.000000 
#    y 0.000000 1.708890 0.000000 
#    z 0.000000 0.000000 1.734700 
# 
# From -- ./inp_files/17066.got.cif
#   From: 2010.05.17/outbox.ucp.g08.bks.cvg/sg51_9_cif.got.tgz:17066.got - 2010.06.11 16:27:58.
