data_PCOD9407282
_publ_section_title
;
Structure prediction by ZEFSAII (Michael W. Deem and Ramdas Pophale) SiO2 
 PCOD9407282
Probable space group: P M M A
;
_chemical_formula_sum "Si O2"
_cell_formula_units_Z 48
_cell_length_a 9.599173
_cell_length_b 7.357894
_cell_length_c 32.775376
_cell_angle_alpha 90.000000
_cell_angle_beta 90.000000
_cell_angle_gamma 90.000000
_cell_volume 2314.914890
_symmetry_space_group_name_H-M "P M M A"
_symmetry_group_IT_number 51
_symmetry_cell_setting 'orthorhombic'
loop_
_space_group_symop_operation_xyz
x,y,z
1/2-x,-y,z
1/2+x,-y,-z
-x,y,-z
-x,-y,-z
1/2+x,y,-z
1/2-x,y,z
x,-y,z
loop_
_atom_site_type_symbol
_atom_site_label
_atom_site_fract_x
_atom_site_fract_y
_atom_site_fract_z
Si Si1 0.089604 0.282375 0.793353
Si Si2 0.910859 0.721921 0.960638
Si Si3 0.087216 0.278525 0.882685
Si Si4 0.088792 0.221705 0.371138
Si Si5 0.588572 0.778698 0.538440
Si Si6 0.908112 0.215319 0.295681
O O1 0.250000 0.216258 0.791563
O O2 0.092933 0.500000 0.795144
O O3 0.035661 0.221180 0.837539
O O4 0.026323 0.237760 0.749418
O O5 0.750000 0.779724 0.962470
O O6 0.909980 0.500000 0.960539
O O7 0.990164 0.781295 0.919652
O O8 0.000000 0.777952 0.000000
O O9 0.250000 0.225157 0.887644
O O10 0.087108 0.500000 0.883433
O O11 0.250000 0.275759 0.366829
O O12 0.039061 0.276990 0.416362
O O13 0.997666 0.286973 0.333261
O O14 0.087317 0.000000 0.370676
O O15 0.500000 0.715133 0.500000
O O16 0.750000 0.725963 0.534424
O O17 0.585001 0.000000 0.538015
O O18 0.750000 0.289699 0.295244
O O19 0.897171 0.000000 0.301915
#
# Coordination Sequence:
#
# PCOD9407282 Si02
#       6
#     8   8   8   8   8   8
#     4   8  14  25  40  56  76 103 130 156 191 231
#     4   9  15  21  30  46  69  95 121 149 181 218
#     4   8  13  22  35  48  64  91 124 151 178 217
#     4   8  14  24  35  48  71 102 128 150 186 233
#     4   8  13  20  30  45  66  93 123 151 180 219
#     4   9  16  25  39  59  78  97 128 166 192 215
#
# _framework density 20.735102999999999
#
# number of rings (size 3 to 8) (size 9 to 14) (size 15 to 20)
#    0.000    3.667    0.000    2.500    0.000    2.667 
#    0.000    4.167    0.000    1.500    0.000    0.000 
#    0.000    1.333    0.000    2.667    0.000    4.667 
#
# Total GULP energy -267469.286921 kJ/mol
# GULP energy per Si atom -5572.276811 kJ/mol
# Density = 2.068791 g / cm^3
# Si number density = 20.735103 Si / 1000 Ang^3
#
#
#
# Elastic Constant Matrix: (Units=GPa)
#
#
# Indices 1 2 3 4 5 6 
#
# 1 92.2867 3.2760 114.2527 0.0000 0.0000 0.0000
# 2 3.2760 74.8973 5.2312 0.0000 0.0000 0.0000
# 3 114.2527 5.2312 273.1096 0.0000 0.0000 0.0000
# 4 0.0000 0.0000 0.0000 7.1426 0.0000 0.0000
# 5 0.0000 0.0000 0.0000 0.0000 38.1313 0.0000
# 6 0.0000 0.0000 0.0000 0.0000 0.0000 -12.5543
#
#
#
# Elastic Compliance Matrix: (Units=1/GPa)
#
#
# Indices 1 2 3 4 5 6 
#
# 1 0.022485 -0.000327 -0.009400 0.000000 0.000000 0.000000
# 2 -0.000327 0.013374 -0.000119 0.000000 0.000000 0.000000
# 3 -0.009400 -0.000119 0.007596 0.000000 0.000000 0.000000
# 4 0.000000 0.000000 0.000000 0.140005 0.000000 0.000000
# 5 0.000000 0.000000 0.000000 0.000000 0.026225 0.000000
# 6 0.000000 0.000000 0.000000 0.000000 0.000000 -0.079654
#
#
# Mechanical properties :
#
#
# Convention : Reuss Voigt Hill
#
# Bulk Modulus (GPa) = 42.08301 76.20147 59.14224
# Shear Modulus (GPa) = 31.71681 27.71283 29.71482
#
# Velocity S-wave (km/s) = 3.91528 3.65981 3.78970
# Velocity P-wave (km/s) = 6.38583 7.39518 6.90896
#
# Compressibility (1/GPa) = 0.02376256
#
# Stress axis : x y z
#
# Youngs Moduli (GPa) = 44.47446 74.77048 131.64421
#
# Poissons Ratio (x) = 0.02445 1.23746
# Poissons Ratio (y) = 0.01454 0.01572
# Poissons Ratio (z) = 0.41806 0.00893
#
# Static dielectric constant tensor:
#      x y z
#    x 1.695310 0.000000 0.000000 
#    y 0.000000 1.870840 0.000000 
#    z 0.000000 0.000000 1.760880 
# 
# From -- ./inp_files/37312.got.cif
#   From: 2010.05.17/outbox.cif.g08.bks.cpg/sg51_19_cif.got.tgz:37312.got - 2010.06.03 11:52:47.
