data_PCOD9407058
_publ_section_title
;
Structure prediction by ZEFSAII (Michael W. Deem and Ramdas Pophale) SiO2 
 PCOD9407058
Probable space group: P M M A
;
_chemical_formula_sum "Si O2"
_cell_formula_units_Z 48
_cell_length_a 13.812639
_cell_length_b 7.461428
_cell_length_c 19.360776
_cell_angle_alpha 90.000000
_cell_angle_beta 90.000000
_cell_angle_gamma 90.000000
_cell_volume 1995.360517
_symmetry_space_group_name_H-M "P M M A"
_symmetry_group_IT_number 51
_symmetry_cell_setting 'orthorhombic'
loop_
_space_group_symop_operation_xyz
x,y,z
1/2-x,-y,z
1/2+x,-y,-z
-x,y,-z
-x,-y,-z
1/2+x,y,-z
1/2-x,y,z
x,-y,z
loop_
_atom_site_type_symbol
_atom_site_label
_atom_site_fract_x
_atom_site_fract_y
_atom_site_fract_z
Si Si1 0.131640 0.293022 0.958375
Si Si2 0.360477 0.282137 0.804962
Si Si3 0.355714 0.218139 0.544061
Si Si4 0.443792 0.204038 0.250280
Si Si5 0.141991 0.289352 0.104791
Si Si6 0.438425 0.219351 0.398421
O O1 0.250000 0.293713 0.962271
O O2 0.098031 0.500000 0.953304
O O3 0.111748 0.215840 0.882531
O O4 0.099460 0.215631 0.032533
O O5 0.250000 0.229082 0.790642
O O6 0.363229 0.500000 0.805635
O O7 0.439668 0.214074 0.751722
O O8 0.250000 0.278900 0.568100
O O9 0.373831 0.269793 0.463987
O O10 0.451297 0.276226 0.584887
O O11 0.356225 0.000000 0.546031
O O12 0.411390 0.280390 0.177219
O O13 0.408649 0.283804 0.322578
O O14 0.410817 0.000000 0.248463
O O15 0.250000 0.214893 0.114584
O O16 0.150274 0.500000 0.089704
O O17 0.438371 0.000000 0.396261
#
# Coordination Sequence:
#
# PCOD9407058 Si02
#       6
#     8   8   8   8   8   8
#     4   7  12  27  51  72  87 113 164 222 255 271
#     4   9  18  34  54  72  92 125 171 215 248 282
#     4   8  13  25  46  65  83 116 160 198 228 264
#     4  11  22  32  45  72 110 139 154 184 244 309
#     4   9  18  34  54  72  92 125 171 215 248 282
#     4   8  16  28  40  63  97 125 152 187 230 283
#
# _framework density 24.055803000000001
#
# number of rings (size 3 to 8) (size 9 to 14) (size 15 to 20)
#    0.000    3.333    0.000    3.500    0.000    2.667 
#    0.000    7.500    0.000    3.000    0.000    9.333 
#    0.000   16.000    0.000    0.000    0.000    0.000 
#
# Total GULP energy -267774.403289 kJ/mol
# GULP energy per Si atom -5578.633402 kJ/mol
# Density = 2.400105 g / cm^3
# Si number density = 24.055803 Si / 1000 Ang^3
#
#
#
# Elastic Constant Matrix: (Units=GPa)
#
#
# Indices 1 2 3 4 5 6 
#
# 1 52.3920 -8.2828 -10.7965 0.0000 0.0000 0.0000
# 2 -8.2828 67.4303 -0.9899 0.0000 0.0000 0.0000
# 3 -10.7965 -0.9899 78.8097 0.0000 0.0000 0.0000
# 4 0.0000 0.0000 0.0000 3.6869 0.0000 0.0000
# 5 0.0000 0.0000 0.0000 0.0000 9.2276 0.0000
# 6 0.0000 0.0000 0.0000 0.0000 0.0000 12.3909
#
#
#
# Elastic Compliance Matrix: (Units=1/GPa)
#
#
# Indices 1 2 3 4 5 6 
#
# 1 0.020055 0.002504 0.002779 0.000000 0.000000 0.000000
# 2 0.002504 0.015146 0.000533 0.000000 0.000000 0.000000
# 3 0.002779 0.000533 0.013076 0.000000 0.000000 0.000000
# 4 0.000000 0.000000 0.000000 0.271233 0.000000 0.000000
# 5 0.000000 0.000000 0.000000 0.000000 0.108370 0.000000
# 6 0.000000 0.000000 0.000000 0.000000 0.000000 0.080704
#
#
# Mechanical properties :
#
#
# Convention : Reuss Voigt Hill
#
# Bulk Modulus (GPa) = 16.69161 17.61041 17.15101
# Shear Modulus (GPa) = 9.67264 19.64115 14.65690
#
# Velocity S-wave (km/s) = 2.00740 2.86052 2.47105
# Velocity P-wave (km/s) = 3.51093 4.27161 3.90981
#
# Compressibility (1/GPa) = 0.05991033
#
# Stress axis : x y z
#
# Youngs Moduli (GPa) = 49.86173 66.02591 76.47488
#
# Poissons Ratio (x) = -0.16535 -0.21252
# Poissons Ratio (y) = -0.12487 -0.04078
# Poissons Ratio (z) = -0.13856 -0.03521
#
# Static dielectric constant tensor:
#      x y z
#    x 1.952490 0.000000 0.000000 
#    y 0.000000 1.938870 0.000000 
#    z 0.000000 0.000000 1.920040 
# 
# From -- ./inp_files/33213.got.cif
#   From: 2010.05.17/outbox.cif.g08.bks.cpg/sg51_17_cif.got.tgz:33213.got - 2010.06.03 11:52:47.
