data_PCOD9407380
_publ_section_title
;
Structure prediction by ZEFSAII (Michael W. Deem and Ramdas Pophale) SiO2 
 PCOD9407380
Probable space group: P M M A
;
_chemical_formula_sum "Si O2"
_cell_formula_units_Z 48
_cell_length_a 9.365592
_cell_length_b 7.554907
_cell_length_c 32.484682
_cell_angle_alpha 90.000000
_cell_angle_beta 90.000000
_cell_angle_gamma 90.000000
_cell_volume 2298.491895
_symmetry_space_group_name_H-M "P M M A"
_symmetry_group_IT_number 51
_symmetry_cell_setting 'orthorhombic'
loop_
_space_group_symop_operation_xyz
x,y,z
1/2-x,-y,z
1/2+x,-y,-z
-x,y,-z
-x,-y,-z
1/2+x,y,-z
1/2-x,y,z
x,-y,z
loop_
_atom_site_type_symbol
_atom_site_label
_atom_site_fract_x
_atom_site_fract_y
_atom_site_fract_z
Si Si1 0.912906 0.289570 0.119666
Si Si2 0.087387 0.789915 0.790730
Si Si3 0.086928 0.710338 0.701030
Si Si4 0.086078 0.716726 0.040586
Si Si5 0.914194 0.283215 0.621886
Si Si6 0.914559 0.283715 0.459391
O O1 0.750000 0.217660 0.118955
O O2 0.902120 0.500000 0.113925
O O3 0.976365 0.261726 0.165288
O O4 0.007145 0.221944 0.082040
O O5 0.250000 0.714732 0.790781
O O6 0.024088 0.737839 0.746732
O O7 0.095811 0.000000 0.790674
O O8 0.250000 0.782195 0.700126
O O9 0.097876 0.500000 0.695159
O O10 0.991237 0.777872 0.663679
O O11 0.250000 0.773694 0.039057
O O12 0.086436 0.500000 0.040881
O O13 0.000000 0.771224 0.000000
O O14 0.750000 0.226570 0.619582
O O15 0.913545 0.500000 0.622069
O O16 0.003958 0.228356 0.581945
O O17 0.750000 0.226526 0.459921
O O18 0.913795 0.500000 0.459513
O O19 0.000000 0.227346 0.500000
#
# Coordination Sequence:
#
# PCOD9407380 Si02
#       6
#     8   8   8   8   8   8
#     4   9  16  27  45  68  92 118 148 181 217 258
#     4   9  17  29  46  67  89 114 146 183 221 262
#     4   9  16  27  44  64  85 111 145 183 220 259
#     4   9  16  26  42  66  94 120 146 179 218 257
#     4   9  16  25  37  55  80 110 144 181 220 261
#     4   9  15  22  33  51  78 112 146 178 215 261
#
# _framework density 20.883258000000001
#
# number of rings (size 3 to 8) (size 9 to 14) (size 15 to 20)
#    0.000    3.000    0.000    2.000    0.000    8.000 
#    0.000    0.833    0.000    6.500    0.000    0.000 
#    0.000    0.667    0.000    1.833    0.000    3.333 
#
# Total GULP energy -267767.796077 kJ/mol
# GULP energy per Si atom -5578.495752 kJ/mol
# Density = 2.083573 g / cm^3
# Si number density = 20.883258 Si / 1000 Ang^3
#
#
#
# Elastic Constant Matrix: (Units=GPa)
#
#
# Indices 1 2 3 4 5 6 
#
# 1 147.1358 5.5968 125.7559 0.0000 0.0000 0.0000
# 2 5.5968 49.2365 0.4711 0.0000 0.0000 0.0000
# 3 125.7559 0.4711 257.2714 0.0000 0.0000 0.0000
# 4 0.0000 0.0000 0.0000 -45.3212 0.0000 0.0000
# 5 0.0000 0.0000 0.0000 0.0000 22.6116 0.0000
# 6 0.0000 0.0000 0.0000 0.0000 0.0000 -3.6940
#
#
#
# Elastic Compliance Matrix: (Units=1/GPa)
#
#
# Indices 1 2 3 4 5 6 
#
# 1 0.011754 -0.001281 -0.005743 0.000000 0.000000 0.000000
# 2 -0.001281 0.020450 0.000589 0.000000 0.000000 0.000000
# 3 -0.005743 0.000589 0.006693 0.000000 0.000000 0.000000
# 4 0.000000 0.000000 0.000000 -0.022065 0.000000 0.000000
# 5 0.000000 0.000000 0.000000 0.000000 0.044225 0.000000
# 6 0.000000 0.000000 0.000000 0.000000 0.000000 -0.270709
#
#
# Mechanical properties :
#
#
# Convention : Reuss Voigt Hill
#
# Bulk Modulus (GPa) = 38.42269 79.69905 59.06087
# Shear Modulus (GPa) = -26.58068 16.17395 -5.20337
#
# Velocity S-wave (km/s) = -3.57153 2.78599 -1.58021
# Velocity P-wave (km/s) = 1.19622 6.97108 5.00134
#
# Compressibility (1/GPa) = 0.02602629
#
# Stress axis : x y z
#
# Youngs Moduli (GPa) = 85.08059 48.89944 149.40943
#
# Poissons Ratio (x) = 0.06265 0.85804
# Poissons Ratio (y) = 0.10900 -0.08797
# Poissons Ratio (z) = 0.48861 -0.02879
#
# Static dielectric constant tensor:
#      x y z
#    x 1.721100 0.000000 0.000000 
#    y 0.000000 1.762930 0.000000 
#    z 0.000000 0.000000 1.746180 
# 
# From -- ./inp_files/37311.got.cif
#   From: 2010.05.17/outbox.cif.g08.bks.cpg/sg51_19_cif.got.tgz:37311.got - 2010.06.03 11:52:47.
