data_PCOD9407037
_publ_section_title
;
Structure prediction by ZEFSAII (Michael W. Deem and Ramdas Pophale) SiO2 
 PCOD9407037
Probable space group: P M M A
;
_chemical_formula_sum "Si O2"
_cell_formula_units_Z 40
_cell_length_a 10.480736
_cell_length_b 7.913415
_cell_length_c 25.782530
_cell_angle_alpha 90.000000
_cell_angle_beta 90.000000
_cell_angle_gamma 90.000000
_cell_volume 2138.362134
_symmetry_space_group_name_H-M "P M M A"
_symmetry_group_IT_number 51
_symmetry_cell_setting 'orthorhombic'
loop_
_space_group_symop_operation_xyz
x,y,z
1/2-x,-y,z
1/2+x,-y,-z
-x,y,-z
-x,-y,-z
1/2+x,y,-z
1/2-x,y,z
x,-y,z
loop_
_atom_site_type_symbol
_atom_site_label
_atom_site_fract_x
_atom_site_fract_y
_atom_site_fract_z
Si Si1 0.399177 0.207308 0.730272
Si Si2 0.750000 0.702384 0.443614
Si Si3 0.750000 0.699176 0.560764
Si Si4 0.102256 0.207319 0.956983
Si Si5 0.502019 0.200300 0.378064
Si Si6 0.904960 0.195429 0.157180
O O1 0.250000 0.252565 0.722928
O O2 0.476691 0.267801 0.680303
O O3 0.443884 0.268808 0.787052
O O4 0.402406 0.000000 0.731994
O O5 0.750000 0.500000 0.445265
O O6 0.750000 0.772496 0.502388
O O7 0.875247 0.756741 0.412595
O O8 0.750000 0.500000 0.553899
O O9 0.624596 0.744008 0.592841
O O10 0.250000 0.256798 0.967240
O O11 0.063297 0.268420 0.899199
O O12 0.102389 0.000000 0.955543
O O13 0.000000 0.259863 0.000000
O O14 0.496040 0.000000 0.373051
O O15 0.750000 0.192920 0.158634
O O16 0.948555 0.000000 0.156536
#
# Coordination Sequence:
#
# PCOD9407037 Si02
#       6
#     8   4   4   8   8   8
#     4   8  13  24  43  67  90 111 147 199 245 282
#     4  11  23  39  57  77 103 133 164 199 246 304
#     4  11  25  41  53  71 105 141 164 193 248 310
#     4   8  12  17  26  41  64  98 141 182 216 258
#     4  11  21  35  57  81 101 127 168 213 248 287
#     4   7  10  17  31  50  73 104 140 181 229 274
#
# _framework density 18.705905999999999
#
# number of rings (size 3 to 8) (size 9 to 14) (size 15 to 20)
#    0.000    3.000    1.000    4.200    0.000    4.000 
#    0.000    0.000    2.200    0.000    0.000    0.000 
#    0.000    0.000    0.000    0.000    0.000    6.000 
#
# Total GULP energy -222782.515748 kJ/mol
# GULP energy per Si atom -5569.562894 kJ/mol
# Density = 1.866333 g / cm^3
# Si number density = 18.705906 Si / 1000 Ang^3
#
#
#
# Elastic Constant Matrix: (Units=GPa)
#
#
# Indices 1 2 3 4 5 6 
#
# 1 101.5899 0.7263 87.0245 0.0000 0.0000 0.0000
# 2 0.7263 18.0292 5.5482 0.0000 0.0000 0.0000
# 3 87.0245 5.5482 230.1732 0.0000 0.0000 0.0000
# 4 0.0000 0.0000 0.0000 -232.0216 0.0000 0.0000
# 5 0.0000 0.0000 0.0000 0.0000 21.5382 0.0000
# 6 0.0000 0.0000 0.0000 0.0000 0.0000 15.6986
#
#
#
# Elastic Compliance Matrix: (Units=1/GPa)
#
#
# Indices 1 2 3 4 5 6 
#
# 1 0.014581 0.001117 -0.005540 0.000000 0.000000 0.000000
# 2 0.001117 0.055966 -0.001771 0.000000 0.000000 0.000000
# 3 -0.005540 -0.001771 0.006482 0.000000 0.000000 0.000000
# 4 0.000000 0.000000 0.000000 -0.004310 0.000000 0.000000
# 5 0.000000 0.000000 0.000000 0.000000 0.046429 0.000000
# 6 0.000000 0.000000 0.000000 0.000000 0.000000 0.063700
#
#
# Mechanical properties :
#
#
# Convention : Reuss Voigt Hill
#
# Bulk Modulus (GPa) = 15.47014 59.59892 37.53453
# Shear Modulus (GPa) = 23.06464 -21.85739 0.60363
#
# Velocity S-wave (km/s) = 3.51524 -3.42201 0.56868
# Velocity P-wave (km/s) = 4.97635 4.03939 4.53215
#
# Compressibility (1/GPa) = 0.06464065
#
# Stress axis : x y z
#
# Youngs Moduli (GPa) = 68.58239 17.86810 154.27955
#
# Poissons Ratio (x) = -0.01996 0.85467
# Poissons Ratio (y) = -0.07663 0.27330
# Poissons Ratio (z) = 0.37993 0.03165
#
# Static dielectric constant tensor:
#      x y z
#    x 1.595930 0.000000 0.000000 
#    y 0.000000 1.671420 0.000000 
#    z 0.000000 0.000000 1.724400 
# 
# From -- ./inp_files/36083.got.cif
#   From: 2010.05.17/outbox.cif.g08.bks.cpg/sg51_19_cif.got.tgz:36083.got - 2010.06.03 11:52:47.
