data_PCOD9407098
_publ_section_title
;
Structure prediction by ZEFSAII (Michael W. Deem and Ramdas Pophale) SiO2 
 PCOD9407098
Probable space group: P M M A
;
_chemical_formula_sum "Si O2"
_cell_formula_units_Z 40
_cell_length_a 8.520427
_cell_length_b 16.703656
_cell_length_c 14.956213
_cell_angle_alpha 90.000000
_cell_angle_beta 90.000000
_cell_angle_gamma 90.000000
_cell_volume 2128.602358
_symmetry_space_group_name_H-M "P M M A"
_symmetry_group_IT_number 51
_symmetry_cell_setting 'orthorhombic'
loop_
_space_group_symop_operation_xyz
x,y,z
1/2-x,-y,z
1/2+x,-y,-z
-x,y,-z
-x,-y,-z
1/2+x,y,-z
1/2-x,y,z
x,-y,z
loop_
_atom_site_type_symbol
_atom_site_label
_atom_site_fract_x
_atom_site_fract_y
_atom_site_fract_z
Si Si1 0.430174 0.000000 0.157546
Si Si2 0.939199 0.406793 0.599369
Si Si3 0.565348 0.829856 0.406820
Si Si4 0.933672 0.722735 0.742499
Si Si5 0.063814 0.826728 0.901379
Si Si6 0.933674 0.000000 0.627473
O O1 0.505349 0.083917 0.126178
O O2 0.433164 0.000000 0.264901
O O3 0.250000 0.000000 0.126037
O O4 0.750000 0.399633 0.596876
O O5 0.980929 0.500000 0.613246
O O6 0.994805 0.352854 0.683449
O O7 0.000000 0.384558 0.500000
O O8 0.500000 0.797361 0.500000
O O9 0.750000 0.813615 0.395649
O O10 0.462558 0.793689 0.327789
O O11 0.528392 0.923243 0.404257
O O12 0.750000 0.710003 0.760042
O O13 0.010476 0.757323 0.832339
O O14 0.250000 0.829087 0.901606
O O15 0.000000 0.809691 0.000000
O O16 0.750000 0.000000 0.598356
#
# Coordination Sequence:
#
# PCOD9407098 Si02
#       6
#     4   8   8   8   8   4
#     4  11  22  39  62  84 113 149 193 243 296 344
#     4   9  19  36  60  90 123 157 191 230 278 336
#     4  12  24  37  54  77 110 150 193 234 282 337
#     4  11  22  38  59  85 117 149 189 237 287 341
#     4  12  25  41  62  86 115 150 194 242 295 346
#     4  11  22  37  56  76 107 147 189 235 284 336
#
# _framework density 18.791674
#
# number of rings (size 3 to 8) (size 9 to 14) (size 15 to 20)
#    0.000    1.000    2.000    6.000    0.000    4.000 
#    0.000    0.000    0.000    0.600    0.000    0.000 
#    0.000    0.000    0.000    0.000    0.000    0.000 
#
# Total GULP energy -223383.904371 kJ/mol
# GULP energy per Si atom -5584.597609 kJ/mol
# Density = 1.874890 g / cm^3
# Si number density = 18.791674 Si / 1000 Ang^3
#
#
#
# Elastic Constant Matrix: (Units=GPa)
#
#
# Indices 1 2 3 4 5 6 
#
# 1 89.7131 24.1965 38.7098 0.0000 0.0000 0.0000
# 2 24.1965 126.4014 57.3354 0.0000 0.0000 0.0000
# 3 38.7098 57.3354 146.9901 0.0000 0.0000 0.0000
# 4 0.0000 0.0000 0.0000 -20.7363 0.0000 0.0000
# 5 0.0000 0.0000 0.0000 0.0000 32.1655 0.0000
# 6 0.0000 0.0000 0.0000 0.0000 0.0000 16.7555
#
#
#
# Elastic Compliance Matrix: (Units=1/GPa)
#
#
# Indices 1 2 3 4 5 6 
#
# 1 0.012703 -0.001111 -0.002912 0.000000 0.000000 0.000000
# 2 -0.001111 0.009709 -0.003495 0.000000 0.000000 0.000000
# 3 -0.002912 -0.003495 0.008933 0.000000 0.000000 0.000000
# 4 0.000000 0.000000 0.000000 -0.048225 0.000000 0.000000
# 5 0.000000 0.000000 0.000000 0.000000 0.031089 0.000000
# 6 0.000000 0.000000 0.000000 0.000000 0.000000 0.059682
#
#
# Mechanical properties :
#
#
# Convention : Reuss Voigt Hill
#
# Bulk Modulus (GPa) = 61.31130 67.06532 64.18831
# Shear Modulus (GPa) = 52.98689 21.82780 37.40734
#
# Velocity S-wave (km/s) = 5.31585 3.41188 4.46649
# Velocity P-wave (km/s) = 8.38900 7.16153 7.79945
#
# Compressibility (1/GPa) = 0.01631021
#
# Stress axis : x y z
#
# Youngs Moduli (GPa) = 78.72344 102.99624 111.94225
#
# Poissons Ratio (x) = 0.11440 0.32597
# Poissons Ratio (y) = 0.08744 0.39120
# Poissons Ratio (z) = 0.22924 0.35993
#
# Static dielectric constant tensor:
#      x y z
#    x 1.636040 0.000000 0.000000 
#    y 0.000000 1.726220 0.000000 
#    z 0.000000 0.000000 1.672230 
# 
# From -- ./inp_files/20557.got.cif
#   From: 2010.05.17/outbox.cif.g08.bks.cpg/sg51_11_cif.got.tgz:20557.got - 2010.06.03 11:52:47.
