data_PCOD9407634
_publ_section_title
;
Structure prediction by ZEFSAII (Michael W. Deem and Ramdas Pophale) SiO2 
 PCOD9407634
Probable space group: P M M A
;
_chemical_formula_sum "Si O2"
_cell_formula_units_Z 44
_cell_length_a 9.000000
_cell_length_b 30.000000
_cell_length_c 9.000000
_cell_angle_alpha 90.000000
_cell_angle_beta 90.000000
_cell_angle_gamma 90.000000
_cell_volume 2430.000000
_symmetry_space_group_name_H-M "P M M A"
_symmetry_group_IT_number 51
_symmetry_cell_setting 'orthorhombic'
loop_
_space_group_symop_operation_xyz
x,y,z
1/2-x,-y,z
1/2+x,-y,-z
-x,y,-z
-x,-y,-z
1/2+x,y,-z
1/2-x,y,z
x,-y,z
loop_
_atom_site_type_symbol
_atom_site_label
_atom_site_fract_x
_atom_site_fract_y
_atom_site_fract_z
Si Si1 0.428739 0.633090 0.163715
Si Si2 0.569472 0.000000 0.835282
Si Si3 0.427699 0.177103 0.836402
Si Si4 0.428945 0.084312 0.663365
Si Si5 0.071520 0.732719 0.164976
Si Si6 0.428500 0.550226 0.663423
O O1 0.250000 0.628327 0.155474
O O2 0.459037 0.683057 0.229323
O O3 0.499573 0.591451 0.249424
O O4 0.500000 0.632694 0.000000
O O5 0.507267 0.044009 0.752271
O O6 0.750000 0.000000 0.838607
O O7 0.500000 0.000000 0.000000
O O8 0.250000 0.183311 0.850764
O O9 0.454457 0.132040 0.743496
O O10 0.499612 0.222343 0.767940
O O11 0.500000 0.171389 0.000000
O O12 0.500000 0.085460 0.500000
O O13 0.250000 0.076967 0.657171
O O14 0.250000 0.737830 0.156216
O O15 0.000000 0.731385 0.000000
O O16 0.500000 0.550818 0.500000
O O17 0.250000 0.555507 0.655763
O O18 0.457940 0.500000 0.725927
#
# Coordination Sequence:
#
# PCOD9407634 Si02
#       6
#     8   4   8   8   8   8
#     4  10  20  34  54  81 110 142 180 224 273 323
#     4  12  25  42  65  90 116 148 188 232 275 326
#     4  10  20  34  56  83 110 144 185 226 270 321
#     4  11  24  41  60  85 117 152 188 229 279 329
#     4   9  17  30  51  78 108 141 178 221 269 319
#     4  10  21  37  56  77 103 138 178 221 271 327
#
# _framework density 18.106995999999999
#
# number of rings (size 3 to 8) (size 9 to 14) (size 15 to 20)
#    0.000    1.818    0.000    5.455    0.000    8.000 
#    0.000    0.909    0.000    2.182    0.000    0.000 
#    0.000    0.000    0.000    0.000    0.000    0.000 
#
# Total GULP energy -245510.509883 kJ/mol
# GULP energy per Si atom -5579.784316 kJ/mol
# Density = 1.806578 g / cm^3
# Si number density = 18.106996 Si / 1000 Ang^3
#
#
#
# Elastic Constant Matrix: (Units=GPa)
#
#
# Indices 1 2 3 4 5 6 
#
# 1 144.7791 100.0055 46.8476 0.0000 0.0000 0.0000
# 2 100.0055 222.2964 75.7649 0.0000 0.0000 0.0000
# 3 46.8476 75.7649 79.1366 0.0000 0.0000 0.0000
# 4 0.0000 0.0000 0.0000 9.6242 0.0000 0.0000
# 5 0.0000 0.0000 0.0000 0.0000 30.8464 0.0000
# 6 0.0000 0.0000 0.0000 0.0000 0.0000 40.7830
#
#
#
# Elastic Compliance Matrix: (Units=1/GPa)
#
#
# Indices 1 2 3 4 5 6 
#
# 1 0.010338 -0.003807 -0.002475 0.000000 0.000000 0.000000
# 2 -0.003807 0.008079 -0.005481 0.000000 0.000000 0.000000
# 3 -0.002475 -0.005481 0.019349 0.000000 0.000000 0.000000
# 4 0.000000 0.000000 0.000000 0.103905 0.000000 0.000000
# 5 0.000000 0.000000 0.000000 0.000000 0.032419 0.000000
# 6 0.000000 0.000000 0.000000 0.000000 0.000000 0.024520
#
#
# Mechanical properties :
#
#
# Convention : Reuss Voigt Hill
#
# Bulk Modulus (GPa) = 70.22641 99.04980 84.63810
# Shear Modulus (GPa) = 22.03773 31.15698 26.59736
#
# Velocity S-wave (km/s) = 3.49246 4.15265 3.83678
# Velocity P-wave (km/s) = 7.42505 8.82122 8.15308
#
# Compressibility (1/GPa) = 0.01423966
#
# Stress axis : x y z
#
# Youngs Moduli (GPa) = 96.73378 123.77026 51.68141
#
# Poissons Ratio (x) = 0.47122 0.12790
# Poissons Ratio (y) = 0.36828 0.28329
# Poissons Ratio (z) = 0.23939 0.67844
#
# Static dielectric constant tensor:
#      x y z
#    x 1.600710 0.000000 0.000000 
#    y 0.000000 1.658010 0.000000 
#    z 0.000000 0.000000 1.603210 
# 
# From -- ./inp_files/5880.got.cif
#   From: 2010.05.17/outbox.ucp.g08.bks.cvg/sg51_3_cif.got.tgz:5880.got - 2010.06.11 16:27:58.
