data_PCOD9407081
_publ_section_title
;
Structure prediction by ZEFSAII (Michael W. Deem and Ramdas Pophale) SiO2 
 PCOD9407081
Probable space group: P M M A
;
_chemical_formula_sum "Si O2"
_cell_formula_units_Z 48
_cell_length_a 14.658265
_cell_length_b 9.059366
_cell_length_c 17.991426
_cell_angle_alpha 90.000000
_cell_angle_beta 90.000000
_cell_angle_gamma 90.000000
_cell_volume 2389.163995
_symmetry_space_group_name_H-M "P M M A"
_symmetry_group_IT_number 51
_symmetry_cell_setting 'orthorhombic'
loop_
_space_group_symop_operation_xyz
x,y,z
1/2-x,-y,z
1/2+x,-y,-z
-x,y,-z
-x,-y,-z
1/2+x,y,-z
1/2-x,y,z
x,-y,z
loop_
_atom_site_type_symbol
_atom_site_label
_atom_site_fract_x
_atom_site_fract_y
_atom_site_fract_z
Si Si1 0.467084 0.173760 0.321965
Si Si2 0.855845 0.325522 0.375141
Si Si3 0.603329 0.166505 0.968756
Si Si4 0.349395 0.821759 0.868729
Si Si5 0.040577 0.675292 0.173242
Si Si6 0.858506 0.669417 0.551508
O O1 0.570941 0.228823 0.332371
O O2 0.426190 0.257335 0.250801
O O3 0.413502 0.222450 0.395759
O O4 0.464003 0.000000 0.310574
O O5 0.750000 0.289310 0.360371
O O6 0.869055 0.500000 0.358979
O O7 0.872277 0.305505 0.463679
O O8 0.599768 0.268264 0.896728
O O9 0.631115 0.000000 0.947927
O O10 0.500000 0.159454 0.000000
O O11 0.654599 0.213860 0.043116
O O12 0.250000 0.785403 0.835486
O O13 0.437766 0.739221 0.837966
O O14 0.363181 0.000000 0.862934
O O15 0.038261 0.500000 0.175444
O O16 0.750000 0.680844 0.564786
O O17 0.887040 0.500000 0.567499
#
# Coordination Sequence:
#
# PCOD9407081 Si02
#       6
#     8   8   8   8   8   8
#     4  12  24  36  54  81 114 151 187 227 277 331
#     4   9  19  37  60  84 111 145 184 226 274 330
#     4   8  15  31  53  74  98 129 164 203 250 306
#     4   9  18  34  56  80 106 136 169 210 264 323
#     4  11  22  35  52  74 104 142 180 220 265 314
#     4   9  19  38  62  84 108 141 182 229 279 331
#
# _framework density 20.090710000000001
#
# number of rings (size 3 to 8) (size 9 to 14) (size 15 to 20)
#    0.000    2.333    0.000    5.500    0.000    7.333 
#    0.000    2.500    0.000    3.000    0.000    0.000 
#    0.000    0.000    0.000    0.000    0.000    0.000 
#
# Total GULP energy -268001.842469 kJ/mol
# GULP energy per Si atom -5583.371718 kJ/mol
# Density = 2.004498 g / cm^3
# Si number density = 20.090710 Si / 1000 Ang^3
#
#
#
# Elastic Constant Matrix: (Units=GPa)
#
#
# Indices 1 2 3 4 5 6 
#
# 1 24.9396 6.2696 5.7434 0.0000 0.0000 0.0000
# 2 6.2696 93.0884 45.3110 0.0000 0.0000 0.0000
# 3 5.7434 45.3110 61.1785 0.0000 0.0000 0.0000
# 4 0.0000 0.0000 0.0000 32.7408 0.0000 0.0000
# 5 0.0000 0.0000 0.0000 0.0000 8.4966 0.0000
# 6 0.0000 0.0000 0.0000 0.0000 0.0000 97.7108
#
#
#
# Elastic Compliance Matrix: (Units=1/GPa)
#
#
# Indices 1 2 3 4 5 6 
#
# 1 0.041098 -0.001392 -0.002828 0.000000 0.000000 0.000000
# 2 -0.001392 0.016846 -0.012346 0.000000 0.000000 0.000000
# 3 -0.002828 -0.012346 0.025755 0.000000 0.000000 0.000000
# 4 0.000000 0.000000 0.000000 0.030543 0.000000 0.000000
# 5 0.000000 0.000000 0.000000 0.000000 0.117694 0.000000
# 6 0.000000 0.000000 0.000000 0.000000 0.000000 0.010234
#
#
# Mechanical properties :
#
#
# Convention : Reuss Voigt Hill
#
# Bulk Modulus (GPa) = 19.77525 32.65048 26.21286
# Shear Modulus (GPa) = 17.11417 35.91515 26.51466
#
# Velocity S-wave (km/s) = 2.92180 4.23265 3.63677
# Velocity P-wave (km/s) = 4.60944 6.33829 5.54170
#
# Compressibility (1/GPa) = 0.05056827
#
# Stress axis : x y z
#
# Youngs Moduli (GPa) = 24.33217 59.36291 38.82774
#
# Poissons Ratio (x) = 0.08261 0.10979
# Poissons Ratio (y) = 0.03386 0.47936
# Poissons Ratio (z) = 0.06880 0.73288
#
# Static dielectric constant tensor:
#      x y z
#    x 1.756970 0.000000 0.000000 
#    y 0.000000 1.667460 0.000000 
#    z 0.000000 0.000000 1.730150 
# 
# From -- ./inp_files/29424.got.cif
#   From: 2010.05.17/outbox.cif.g08.bks.cpg/sg51_15_cif.got.tgz:29424.got - 2010.06.03 11:52:47.
