data_PCOD9407051
_publ_section_title
;
Structure prediction by ZEFSAII (Michael W. Deem and Ramdas Pophale) SiO2 
 PCOD9407051
Probable space group: P M M A
;
_chemical_formula_sum "Si O2"
_cell_formula_units_Z 40
_cell_length_a 15.885405
_cell_length_b 9.986428
_cell_length_c 13.359430
_cell_angle_alpha 90.000000
_cell_angle_beta 90.000000
_cell_angle_gamma 90.000000
_cell_volume 2119.319312
_symmetry_space_group_name_H-M "P M M A"
_symmetry_group_IT_number 51
_symmetry_cell_setting 'orthorhombic'
loop_
_space_group_symop_operation_xyz
x,y,z
1/2-x,-y,z
1/2+x,-y,-z
-x,y,-z
-x,-y,-z
1/2+x,y,-z
1/2-x,y,z
x,-y,z
loop_
_atom_site_type_symbol
_atom_site_label
_atom_site_fract_x
_atom_site_fract_y
_atom_site_fract_z
Si Si1 0.851428 0.500000 0.803364
Si Si2 0.657739 0.500000 0.130219
Si Si3 0.024536 0.500000 0.696586
Si Si4 0.098467 0.292601 0.026581
Si Si5 0.950249 0.217127 0.395085
Si Si6 0.845075 0.000000 0.488195
Si Si7 0.149386 0.000000 0.090065
Si Si8 0.443242 0.000000 0.300982
O O1 0.750000 0.500000 0.779439
O O2 0.874065 0.370745 0.872085
O O3 0.923179 0.500000 0.716475
O O4 0.750000 0.500000 0.179796
O O5 0.576928 0.500000 0.200986
O O6 0.649327 0.630055 0.059611
O O7 0.053996 0.368074 0.639006
O O8 0.118374 0.136228 0.037402
O O9 0.000000 0.311858 0.000000
O O10 0.000000 0.214081 0.500000
O O11 0.869049 0.129826 0.422790
O O12 0.999328 0.132224 0.310323
O O13 0.894290 0.000000 0.593307
O O14 0.750000 0.000000 0.515645
O O15 0.250000 0.000000 0.093220
O O16 0.112415 0.000000 0.202741
#
# Coordination Sequence:
#
# PCOD9407051 Si02
#       8
#     4   4   4   8   8   4   4   4
#     4  11  21  38  63  86 113 152 195 239 295 355
#     4  11  23  40  59  78 113 162 203 231 277 347
#     4  12  21  37  60  88 120 150 198 245 285 342
#     4  11  21  40  57  81 114 159 194 235 297 343
#     4   9  20  37  59  84 115 155 189 232 299 351
#     4   9  18  38  61  83 115 154 196 236 287 354
#     4  12  23  34  57  91 119 144 191 252 296 339
#     4   9  19  36  59  84 112 149 190 235 294 354
#
# _framework density 18.873982999999999
#
# number of rings (size 3 to 8) (size 9 to 14) (size 15 to 20)
#    0.000    1.600    2.000    6.300    0.000    0.800 
#    0.000    4.000    0.000    2.400    0.000    0.000 
#    0.000    0.000    0.000    0.000    0.000    0.000 
#
# Total GULP energy -223094.203095 kJ/mol
# GULP energy per Si atom -5577.355077 kJ/mol
# Density = 1.883103 g / cm^3
# Si number density = 18.873983 Si / 1000 Ang^3
#
#
#
# Elastic Constant Matrix: (Units=GPa)
#
#
# Indices 1 2 3 4 5 6 
#
# 1 46.8440 10.2470 2.6028 0.0000 0.0000 0.0000
# 2 10.2470 159.7698 19.2416 0.0000 0.0000 0.0000
# 3 2.6028 19.2416 37.4851 0.0000 0.0000 0.0000
# 4 0.0000 0.0000 0.0000 25.8260 0.0000 0.0000
# 5 0.0000 0.0000 0.0000 0.0000 17.3497 0.0000
# 6 0.0000 0.0000 0.0000 0.0000 0.0000 18.7670
#
#
#
# Elastic Compliance Matrix: (Units=1/GPa)
#
#
# Indices 1 2 3 4 5 6 
#
# 1 0.021676 -0.001289 -0.000844 0.000000 0.000000 0.000000
# 2 -0.001289 0.006748 -0.003374 0.000000 0.000000 0.000000
# 3 -0.000844 -0.003374 0.028468 0.000000 0.000000 0.000000
# 4 0.000000 0.000000 0.000000 0.038721 0.000000 0.000000
# 5 0.000000 0.000000 0.000000 0.000000 0.057638 0.000000
# 6 0.000000 0.000000 0.000000 0.000000 0.000000 0.053285
#
#
# Mechanical properties :
#
#
# Convention : Reuss Voigt Hill
#
# Bulk Modulus (GPa) = 21.79653 34.25353 28.02503
# Shear Modulus (GPa) = 21.47379 26.52238 23.99808
#
# Velocity S-wave (km/s) = 3.37671 3.75271 3.56966
# Velocity P-wave (km/s) = 5.17459 6.07989 5.64542
#
# Compressibility (1/GPa) = 0.04587887
#
# Stress axis : x y z
#
# Youngs Moduli (GPa) = 46.13354 148.19126 35.12726
#
# Poissons Ratio (x) = 0.19096 0.02964
# Poissons Ratio (y) = 0.05945 0.11853
# Poissons Ratio (z) = 0.03892 0.50005
#
# Static dielectric constant tensor:
#      x y z
#    x 1.668200 0.000000 0.000000 
#    y 0.000000 1.686100 0.000000 
#    z 0.000000 0.000000 1.643160 
# 
# From -- ./inp_files/23892.got.cif
#   From: 2010.05.17/outbox.cif.g08.bks.cpg/sg51_12_cif.got.tgz:23892.got - 2010.06.03 11:52:47.
