data_PCOD9408870
_publ_section_title
;
Structure prediction by ZEFSAII (Michael W. Deem and Ramdas Pophale) SiO2 
 PCOD9408870
Probable space group: P N N A
;
_chemical_formula_sum "Si O2"
_cell_formula_units_Z 40
_cell_length_a 15.232039
_cell_length_b 8.662922
_cell_length_c 17.244976
_cell_angle_alpha 90.000000
_cell_angle_beta 90.000000
_cell_angle_gamma 90.000000
_cell_volume 2275.542973
_symmetry_space_group_name_H-M "P N N A"
_symmetry_group_IT_number 52
_symmetry_cell_setting 'orthorhombic'
loop_
_space_group_symop_operation_xyz
x,y,z
1/2-x,-y,z
x,1/2-y,1/2-z
1/2-x,1/2+y,1/2-z
-x,-y,-z
1/2+x,y,-z
-x,1/2+y,1/2+z
1/2+x,1/2-y,1/2+z
loop_
_atom_site_type_symbol
_atom_site_label
_atom_site_fract_x
_atom_site_fract_y
_atom_site_fract_z
Si Si1 0.672714 0.621125 0.316142
Si Si2 0.250000 0.500000 0.067980
Si Si3 0.750000 0.500000 0.562857
Si Si4 0.556315 0.170988 0.166872
Si Si5 0.201684 0.236040 0.949222
Si Si6 0.854994 0.252802 0.842076
O O1 0.750000 0.500000 0.291978
O O2 0.658907 0.750000 0.250000
O O3 0.589206 0.508125 0.329982
O O4 0.713462 0.701267 0.393888
O O5 0.177040 0.584991 0.121105
O O6 0.212864 0.373225 0.009075
O O7 0.814170 0.587859 0.503738
O O8 0.797144 0.375458 0.615433
O O9 0.570427 0.250000 0.250000
O O10 0.620892 0.254971 0.107563
O O11 0.455990 0.204756 0.145221
O O12 0.839588 0.250000 0.750000
#
# Coordination Sequence:
#
# PCOD9408870 Si02
#       6
#     8   4   4   8   8   8
#     4  10  19  33  56  86 123 163 187 226 286 358
#     4  10  23  36  59  86 106 158 192 238 297 332
#     4  10  19  38  59  78 108 152 190 236 293 342
#     4  10  21  37  57  86 121 155 189 237 285 343
#     4  10  19  35  55  88 118 149 190 228 290 356
#     4  10  22  41  60  79 109 149 199 246 287 341
#
# _framework density 17.578223000000001
#
# number of rings (size 3 to 8) (size 9 to 14) (size 15 to 20)
#    0.000    2.000    3.000    3.000    4.200    1.600 
#    0.000    9.000    0.000    0.000    0.000    0.000 
#    0.000    0.000    0.000    0.000    0.000    0.000 
#
# Total GULP energy -222773.516066 kJ/mol
# GULP energy per Si atom -5569.337902 kJ/mol
# Density = 1.753821 g / cm^3
# Si number density = 17.578223 Si / 1000 Ang^3
#
#
#
# Elastic Constant Matrix: (Units=GPa)
#
#
# Indices 1 2 3 4 5 6 
#
# 1 104.4531 46.2063 62.8688 0.0000 0.0000 0.0000
# 2 46.2063 101.9003 48.5614 0.0000 0.0000 0.0000
# 3 62.8688 48.5614 103.7919 0.0000 0.0000 0.0000
# 4 0.0000 0.0000 0.0000 35.8432 0.0000 0.0000
# 5 0.0000 0.0000 0.0000 0.0000 23.2115 0.0000
# 6 0.0000 0.0000 0.0000 0.0000 0.0000 22.0154
#
#
#
# Elastic Compliance Matrix: (Units=1/GPa)
#
#
# Indices 1 2 3 4 5 6 
#
# 1 0.015921 -0.003376 -0.008064 0.000000 0.000000 0.000000
# 2 -0.003376 0.013346 -0.004199 0.000000 0.000000 0.000000
# 3 -0.008064 -0.004199 0.016484 0.000000 0.000000 0.000000
# 4 0.000000 0.000000 0.000000 0.027899 0.000000 0.000000
# 5 0.000000 0.000000 0.000000 0.000000 0.043082 0.000000
# 6 0.000000 0.000000 0.000000 0.000000 0.000000 0.045423
#
#
# Mechanical properties :
#
#
# Convention : Reuss Voigt Hill
#
# Bulk Modulus (GPa) = 69.09990 69.49093 69.29542
# Shear Modulus (GPa) = 25.21993 26.38128 25.80060
#
# Velocity S-wave (km/s) = 3.79189 3.87821 3.83529
# Velocity P-wave (km/s) = 7.65287 7.72478 7.68891
#
# Compressibility (1/GPa) = 0.01447180
#
# Stress axis : x y z
#
# Youngs Moduli (GPa) = 62.81122 74.93159 60.66634
#
# Poissons Ratio (x) = 0.25299 0.48920
# Poissons Ratio (y) = 0.21207 0.25473
# Poissons Ratio (z) = 0.50650 0.31463
#
# Static dielectric constant tensor:
#      x y z
#    x 1.595690 0.000000 0.000000 
#    y 0.000000 1.636900 0.000000 
#    z 0.000000 0.000000 1.603630 
# 
# From -- ./inp_files/26956.got.cif
#   From: 2010.05.17/outbox.cif.g08.bks.cpg/sg52_14_cif.got.tgz:26956.got - 2010.06.03 12:15:38.
