data_PCOD9408294
_publ_section_title
;
Structure prediction by ZEFSAII (Michael W. Deem and Ramdas Pophale) SiO2 
 PCOD9408294
Probable space group: P N N A
;
_chemical_formula_sum "Si O2"
_cell_formula_units_Z 64
_cell_length_a 12.265675
_cell_length_b 16.137957
_cell_length_c 15.777881
_cell_angle_alpha 90.000000
_cell_angle_beta 90.000000
_cell_angle_gamma 90.000000
_cell_volume 3123.120085
_symmetry_space_group_name_H-M "P N N A"
_symmetry_group_IT_number 52
_symmetry_cell_setting 'orthorhombic'
loop_
_space_group_symop_operation_xyz
x,y,z
1/2-x,-y,z
x,1/2-y,1/2-z
1/2-x,1/2+y,1/2-z
-x,-y,-z
1/2+x,y,-z
-x,1/2+y,1/2+z
1/2+x,1/2-y,1/2+z
loop_
_atom_site_type_symbol
_atom_site_label
_atom_site_fract_x
_atom_site_fract_y
_atom_site_fract_z
Si Si1 0.969812 0.043976 0.874485
Si Si2 0.695368 0.877165 0.396191
Si Si3 0.367088 0.006847 0.442338
Si Si4 0.357256 0.442450 0.718775
Si Si5 0.263280 0.311740 0.593606
Si Si6 0.942184 0.885436 0.424964
Si Si7 0.522765 0.217384 0.156175
Si Si8 0.338522 0.937623 0.009949
O O1 0.943555 0.138940 0.854292
O O2 0.040883 0.999850 0.803197
O O3 0.054204 0.059567 0.952428
O O4 0.876195 0.981035 0.903748
O O5 0.658716 0.934215 0.474939
O O6 0.634763 0.900117 0.310309
O O7 0.689150 0.779729 0.416155
O O8 0.825184 0.891971 0.379444
O O9 0.463467 0.053059 0.394196
O O10 0.250000 0.000000 0.398435
O O11 0.411198 0.920321 0.481279
O O12 0.250000 0.500000 0.718910
O O13 0.342453 0.372316 0.645869
O O14 0.150706 0.308658 0.648158
O O15 0.221142 0.350324 0.504435
O O16 0.984695 0.792305 0.411616
O O17 0.506145 0.250000 0.250000
O O18 0.250000 0.000000 0.971725
#
# Coordination Sequence:
#
# PCOD9408294 Si02
#       8
#     8   8   8   8   8   8   8   8
#     4  10  21  31  54  84 109 153 187 233 297 344
#     4  10  21  30  53  82 110 145 182 245 289 346
#     4   9  18  34  52  77 107 147 185 225 290 344
#     4  12  18  32  51  83 115 144 182 237 300 347
#     4  10  18  32  48  77 113 148 182 230 290 344
#     4   9  18  33  50  78 112 138 186 235 285 349
#     4  10  19  31  51  81 109 142 190 243 284 342
#     4  10  18  36  51  75 115 149 191 233 279 353
#
# _framework density 20.492328000000001
#
# number of rings (size 3 to 8) (size 9 to 14) (size 15 to 20)
#    0.000    2.000    3.750    3.000    1.750    1.000 
#    4.500    0.000    0.000    0.750    0.000    0.000 
#    0.000    0.000    0.000    0.000    0.000    0.000 
#
# Total GULP energy -356617.459818 kJ/mol
# GULP energy per Si atom -5572.147810 kJ/mol
# Density = 2.044569 g / cm^3
# Si number density = 20.492328 Si / 1000 Ang^3
#
#
#
# Elastic Constant Matrix: (Units=GPa)
#
#
# Indices 1 2 3 4 5 6 
#
# 1 44.4298 19.3891 9.1218 0.0000 0.0000 0.0000
# 2 19.3891 147.1366 47.6254 0.0000 0.0000 0.0000
# 3 9.1218 47.6254 47.5879 0.0000 0.0000 0.0000
# 4 0.0000 0.0000 0.0000 40.5827 0.0000 0.0000
# 5 0.0000 0.0000 0.0000 0.0000 15.8734 0.0000
# 6 0.0000 0.0000 0.0000 0.0000 0.0000 17.1351
#
#
#
# Elastic Compliance Matrix: (Units=1/GPa)
#
#
# Indices 1 2 3 4 5 6 
#
# 1 0.024025 -0.002478 -0.002125 0.000000 0.000000 0.000000
# 2 -0.002478 0.010309 -0.009842 0.000000 0.000000 0.000000
# 3 -0.002125 -0.009842 0.031271 0.000000 0.000000 0.000000
# 4 0.000000 0.000000 0.000000 0.024641 0.000000 0.000000
# 5 0.000000 0.000000 0.000000 0.000000 0.062998 0.000000
# 6 0.000000 0.000000 0.000000 0.000000 0.000000 0.058360
#
#
# Mechanical properties :
#
#
# Convention : Reuss Voigt Hill
#
# Bulk Modulus (GPa) = 27.23725 43.49186 35.36456
# Shear Modulus (GPa) = 19.78386 25.58611 22.68498
#
# Velocity S-wave (km/s) = 3.11050 3.53734 3.33077
# Velocity P-wave (km/s) = 5.12061 6.16063 5.66453
#
# Compressibility (1/GPa) = 0.03671442
#
# Stress axis : x y z
#
# Youngs Moduli (GPa) = 41.62300 97.00722 31.97902
#
# Poissons Ratio (x) = 0.24039 0.06796
# Poissons Ratio (y) = 0.10314 0.31473
# Poissons Ratio (z) = 0.08846 0.95471
#
# Static dielectric constant tensor:
#      x y z
#    x 1.763890 0.000000 0.000000 
#    y 0.000000 1.796440 0.000000 
#    z 0.000000 0.000000 1.755110 
# 
# From -- ./inp_files/33349.got.cif
#   From: 2010.05.17/outbox.cif.g08.bks.cpg/sg52_17_cif.got.tgz:33349.got - 2010.06.03 12:15:38.
