data_PCOD9408400
_publ_section_title
;
Structure prediction by ZEFSAII (Michael W. Deem and Ramdas Pophale) SiO2 
 PCOD9408400
Probable space group: P N N A
;
_chemical_formula_sum "Si O2"
_cell_formula_units_Z 48
_cell_length_a 12.238208
_cell_length_b 11.994912
_cell_length_c 12.604976
_cell_angle_alpha 90.000000
_cell_angle_beta 90.000000
_cell_angle_gamma 90.000000
_cell_volume 1850.362931
_symmetry_space_group_name_H-M "P N N A"
_symmetry_group_IT_number 52
_symmetry_cell_setting 'orthorhombic'
loop_
_space_group_symop_operation_xyz
x,y,z
1/2-x,-y,z
x,1/2-y,1/2-z
1/2-x,1/2+y,1/2-z
-x,-y,-z
1/2+x,y,-z
-x,1/2+y,1/2+z
1/2+x,1/2-y,1/2+z
loop_
_atom_site_type_symbol
_atom_site_label
_atom_site_fract_x
_atom_site_fract_y
_atom_site_fract_z
Si Si1 0.900413 0.441124 0.091207
Si Si2 0.583143 0.179807 0.901810
Si Si3 0.250000 0.500000 0.735858
Si Si4 0.379953 0.813163 0.854340
Si Si5 0.146276 0.427327 0.106239
Si Si6 0.146142 0.706396 0.560316
Si Si7 0.250000 0.500000 0.426165
O O1 0.819665 0.424445 0.186798
O O2 0.889427 0.329988 0.018106
O O3 0.022124 0.460974 0.135124
O O4 0.863621 0.545770 0.020313
O O5 0.564218 0.181701 0.030811
O O6 0.656356 0.074350 0.870750
O O7 0.646586 0.294502 0.874691
O O8 0.458137 0.178648 0.866077
O O9 0.344969 0.561902 0.673941
O O10 0.425449 0.750000 0.750000
O O11 0.259287 0.769623 0.881048
O O12 0.250000 0.500000 0.143848
O O13 0.182611 0.599673 0.488074
#
# Coordination Sequence:
#
# PCOD9408400 Si02
#       7
#     8   8   4   8   8   8   4
#     4  10  20  32  54  82 118 150 180 254 302 358
#     4  10  21  35  54  81 118 154 192 242 288 347
#     4  12  21  34  52  84 126 137 192 242 315 346
#     4  11  20  33  56  87 114 144 184 243 294 343
#     4  10  18  33  56  82 113 148 198 236 300 357
#     4  10  20  37  53  81 115 152 196 237 293 345
#     4  10  19  30  52  78 108 151 198 238 271 324
#
# _framework density 25.940856
#
# number of rings (size 3 to 8) (size 9 to 14) (size 15 to 20)
#    0.000    1.667    2.500    5.500    0.000    0.000 
#    0.000    0.000    0.000    0.000   13.000    4.667 
#    0.000    0.000    0.000    0.000    0.000    0.000 
#
# Total GULP energy -267473.392362 kJ/mol
# GULP energy per Si atom -5572.362341 kJ/mol
# Density = 2.588181 g / cm^3
# Si number density = 25.940856 Si / 1000 Ang^3
#
#
#
# Elastic Constant Matrix: (Units=GPa)
#
#
# Indices 1 2 3 4 5 6 
#
# 1 126.5824 34.5885 6.6375 0.0000 0.0000 0.0000
# 2 34.5885 145.0476 11.8737 0.0000 0.0000 0.0000
# 3 6.6375 11.8737 58.6669 0.0000 0.0000 0.0000
# 4 0.0000 0.0000 0.0000 31.4793 0.0000 0.0000
# 5 0.0000 0.0000 0.0000 0.0000 65.9186 0.0000
# 6 0.0000 0.0000 0.0000 0.0000 0.0000 49.0100
#
#
#
# Elastic Compliance Matrix: (Units=1/GPa)
#
#
# Indices 1 2 3 4 5 6 
#
# 1 0.008469 -0.001974 -0.000559 0.000000 0.000000 0.000000
# 2 -0.001974 0.007470 -0.001289 0.000000 0.000000 0.000000
# 3 -0.000559 -0.001289 0.017369 0.000000 0.000000 0.000000
# 4 0.000000 0.000000 0.000000 0.031767 0.000000 0.000000
# 5 0.000000 0.000000 0.000000 0.000000 0.015170 0.000000
# 6 0.000000 0.000000 0.000000 0.000000 0.000000 0.020404
#
#
# Mechanical properties :
#
#
# Convention : Reuss Voigt Hill
#
# Bulk Modulus (GPa) = 38.96149 48.49961 43.73055
# Shear Modulus (GPa) = 42.79097 47.76139 45.27618
#
# Velocity S-wave (km/s) = 4.06588 4.29553 4.18229
# Velocity P-wave (km/s) = 6.09047 6.58323 6.34164
#
# Compressibility (1/GPa) = 0.02566637
#
# Stress axis : x y z
#
# Youngs Moduli (GPa) = 118.08324 133.86096 57.57252
#
# Poissons Ratio (x) = 0.26420 0.03216
# Poissons Ratio (y) = 0.23306 0.07419
# Poissons Ratio (z) = 0.06597 0.17250
#
# Static dielectric constant tensor:
#      x y z
#    x 2.032690 0.000000 0.000000 
#    y 0.000000 -3.372830 0.000000 
#    z 0.000000 0.000000 2.176910 
# 
# From -- ./inp_files/40267.got.cif
#   From: 2010.05.17/outbox.cif.g08.bks.cpg/sg52_21_cif.got.tgz:40267.got - 2010.06.03 12:15:38.
