data_PCOD9408221
_publ_section_title
;
Structure prediction by ZEFSAII (Michael W. Deem and Ramdas Pophale) SiO2 
 PCOD9408221
Probable space group: P N N A
;
_chemical_formula_sum "Si O2"
_cell_formula_units_Z 60
_cell_length_a 13.817225
_cell_length_b 23.239459
_cell_length_c 11.078610
_cell_angle_alpha 90.000000
_cell_angle_beta 90.000000
_cell_angle_gamma 90.000000
_cell_volume 3557.395224
_symmetry_space_group_name_H-M "P N N A"
_symmetry_group_IT_number 52
_symmetry_cell_setting 'orthorhombic'
loop_
_space_group_symop_operation_xyz
x,y,z
1/2-x,-y,z
x,1/2-y,1/2-z
1/2-x,1/2+y,1/2-z
-x,-y,-z
1/2+x,y,-z
-x,1/2+y,1/2+z
1/2+x,1/2-y,1/2+z
loop_
_atom_site_type_symbol
_atom_site_label
_atom_site_fract_x
_atom_site_fract_y
_atom_site_fract_z
Si Si1 0.168734 0.750000 0.750000
Si Si2 0.279349 0.173587 0.143851
Si Si3 0.752172 0.691590 0.906018
Si Si4 0.086905 0.131798 0.550381
Si Si5 0.400281 0.353005 0.911174
Si Si6 0.304408 0.840357 0.894186
Si Si7 0.237558 0.066867 0.692281
Si Si8 0.503812 0.684534 0.708370
O O1 0.106252 0.704031 0.826678
O O2 0.237727 0.789475 0.835318
O O3 0.263972 0.241360 0.116638
O O4 0.233022 0.162736 0.275196
O O5 0.394071 0.162632 0.157545
O O6 0.231350 0.144969 0.027907
O O7 0.838571 0.679316 0.998808
O O8 0.656944 0.666096 0.968364
O O9 0.155971 0.079277 0.589811
O O10 0.005439 0.125515 0.449103
O O11 0.034676 0.152265 0.672510
O O12 0.336410 0.403022 0.851875
O O13 0.293094 0.895688 0.808231
O O14 0.415608 0.819911 0.886154
O O15 0.250000 0.000000 0.715304
O O16 0.519283 0.750000 0.750000
#
# Coordination Sequence:
#
# PCOD9408221 Si02
#       8
#     4   8   8   8   8   8   8   8
#     4  10  18  30  50  78 114 140 174 218 278 328
#     4  11  19  31  50  80 114 148 174 218 269 338
#     4  10  19  31  48  80 117 140 175 214 265 334
#     4  10  20  34  55  77 109 149 181 228 281 328
#     4  10  18  34  53  80 113 139 180 227 272 338
#     4  10  20  34  53  77 108 142 183 226 271 332
#     4   9  21  38  58  79 101 146 198 238 274 315
#     4  11  18  31  53  74 109 152 179 203 270 342
#
# _framework density 16.866274000000001
#
# number of rings (size 3 to 8) (size 9 to 14) (size 15 to 20)
#    0.000    1.867    4.667    1.600    0.000    1.600 
#    4.800    0.000    0.000    6.400    0.000    0.000 
#    0.000    0.000    0.000    0.000    0.000    0.000 
#
# Total GULP energy -334403.975711 kJ/mol
# GULP energy per Si atom -5573.399595 kJ/mol
# Density = 1.682789 g / cm^3
# Si number density = 16.866274 Si / 1000 Ang^3
#
#
#
# Elastic Constant Matrix: (Units=GPa)
#
#
# Indices 1 2 3 4 5 6 
#
# 1 91.5287 11.2275 32.7768 0.0000 0.0000 0.0000
# 2 11.2275 75.2441 18.3644 0.0000 0.0000 0.0000
# 3 32.7768 18.3644 94.6833 0.0000 0.0000 0.0000
# 4 0.0000 0.0000 0.0000 10.9304 0.0000 0.0000
# 5 0.0000 0.0000 0.0000 0.0000 32.7838 0.0000
# 6 0.0000 0.0000 0.0000 0.0000 0.0000 5.6828
#
#
#
# Elastic Compliance Matrix: (Units=1/GPa)
#
#
# Indices 1 2 3 4 5 6 
#
# 1 0.012523 -0.000851 -0.004170 0.000000 0.000000 0.000000
# 2 -0.000851 0.014008 -0.002422 0.000000 0.000000 0.000000
# 3 -0.004170 -0.002422 0.012475 0.000000 0.000000 0.000000
# 4 0.000000 0.000000 0.000000 0.091488 0.000000 0.000000
# 5 0.000000 0.000000 0.000000 0.000000 0.030503 0.000000
# 6 0.000000 0.000000 0.000000 0.000000 0.000000 0.175968
#
#
# Mechanical properties :
#
#
# Convention : Reuss Voigt Hill
#
# Bulk Modulus (GPa) = 41.46015 42.91036 42.18526
# Shear Modulus (GPa) = 13.89304 23.15191 18.52248
#
# Velocity S-wave (km/s) = 2.87316 3.70898 3.31750
# Velocity P-wave (km/s) = 5.97007 6.62109 6.30399
#
# Compressibility (1/GPa) = 0.02411955
#
# Stress axis : x y z
#
# Youngs Moduli (GPa) = 79.85135 71.38645 80.16046
#
# Poissons Ratio (x) = 0.06074 0.33428
# Poissons Ratio (y) = 0.06794 0.19418
# Poissons Ratio (z) = 0.33299 0.17293
#
# Static dielectric constant tensor:
#      x y z
#    x 1.602330 0.000000 0.000000 
#    y 0.000000 1.538420 0.000000 
#    z 0.000000 0.000000 1.618050 
# 
# From -- ./inp_files/19970.got.cif
#   From: 2010.05.17/outbox.cif.g08.bks.cpg/sg52_10_cif.got.tgz:19970.got - 2010.06.03 12:15:38.
