data_PCOD9408219
_publ_section_title
;
Structure prediction by ZEFSAII (Michael W. Deem and Ramdas Pophale) SiO2 
 PCOD9408219
Probable space group: P N N A
;
_chemical_formula_sum "Si O2"
_cell_formula_units_Z 60
_cell_length_a 13.862556
_cell_length_b 11.044766
_cell_length_c 19.991227
_cell_angle_alpha 90.000000
_cell_angle_beta 90.000000
_cell_angle_gamma 90.000000
_cell_volume 3060.830521
_symmetry_space_group_name_H-M "P N N A"
_symmetry_group_IT_number 52
_symmetry_cell_setting 'orthorhombic'
loop_
_space_group_symop_operation_xyz
x,y,z
1/2-x,-y,z
x,1/2-y,1/2-z
1/2-x,1/2+y,1/2-z
-x,-y,-z
1/2+x,y,-z
-x,1/2+y,1/2+z
1/2+x,1/2-y,1/2+z
loop_
_atom_site_type_symbol
_atom_site_label
_atom_site_fract_x
_atom_site_fract_y
_atom_site_fract_z
Si Si1 0.975200 0.127936 0.866480
Si Si2 0.736424 0.859833 0.803890
Si Si3 0.559316 0.364533 0.659992
Si Si4 0.893488 0.750000 0.250000
Si Si5 0.847512 0.944545 0.347389
Si Si6 0.364518 0.980938 0.435967
Si Si7 0.020130 0.395482 0.184637
Si Si8 0.524106 0.330757 0.035667
O O1 0.865010 0.148801 0.842339
O O2 0.039873 0.180636 0.804960
O O3 0.999694 0.199114 0.934738
O O4 0.984380 0.983159 0.873371
O O5 0.739968 0.750000 0.750000
O O6 0.827309 0.844514 0.853658
O O7 0.750000 0.000000 0.778663
O O8 0.557004 0.388175 0.740058
O O9 0.507524 0.237136 0.653006
O O10 0.830068 0.843798 0.291473
O O11 0.912234 0.889254 0.405371
O O12 0.750000 0.000000 0.374165
O O13 0.917021 0.042595 0.314507
O O14 0.403569 0.969870 0.360074
O O15 0.408629 0.861663 0.472479
O O16 0.250000 0.000000 0.439853
O O17 0.424685 0.092303 0.468911
#
# Coordination Sequence:
#
# PCOD9408219 Si02
#       8
#     8   8   8   4   8   8   8   8
#     4  10  19  33  52  74 116 145 184 230 276 344
#     4  10  19  28  48  78 117 154 178 217 283 349
#     4  10  20  34  50  83 120 146 180 220 295 351
#     4  10  18  30  50  78 100 144 190 220 286 340
#     4  10  20  35  54  76 109 146 188 239 282 333
#     4  10  21  36  58  83 110 143 194 237 281 337
#     4  10  20  34  54  81 115 145 181 232 286 342
#     4   9  21  37  56  82 105 148 190 237 287 323
#
# _framework density 19.602522
#
# number of rings (size 3 to 8) (size 9 to 14) (size 15 to 20)
#    0.000    2.133    3.333    0.400    1.867    2.667 
#    0.000    0.667    0.000    0.000    0.000    0.000 
#    0.000    0.000    0.000    0.000    0.000    0.000 
#
# Total GULP energy -334399.654436 kJ/mol
# GULP energy per Si atom -5573.327574 kJ/mol
# Density = 1.955791 g / cm^3
# Si number density = 19.602522 Si / 1000 Ang^3
#
#
#
# Elastic Constant Matrix: (Units=GPa)
#
#
# Indices 1 2 3 4 5 6 
#
# 1 90.7899 26.1292 8.0007 0.0000 0.0000 0.0000
# 2 26.1292 105.9130 9.6980 0.0000 0.0000 0.0000
# 3 8.0007 9.6980 43.7865 0.0000 0.0000 0.0000
# 4 0.0000 0.0000 0.0000 25.6051 0.0000 0.0000
# 5 0.0000 0.0000 0.0000 0.0000 6.3758 0.0000
# 6 0.0000 0.0000 0.0000 0.0000 0.0000 11.8471
#
#
#
# Elastic Compliance Matrix: (Units=1/GPa)
#
#
# Indices 1 2 3 4 5 6 
#
# 1 0.011960 -0.002807 -0.001564 0.000000 0.000000 0.000000
# 2 -0.002807 0.010296 -0.001767 0.000000 0.000000 0.000000
# 3 -0.001564 -0.001767 0.023515 0.000000 0.000000 0.000000
# 4 0.000000 0.000000 0.000000 0.039055 0.000000 0.000000
# 5 0.000000 0.000000 0.000000 0.000000 0.156843 0.000000
# 6 0.000000 0.000000 0.000000 0.000000 0.000000 0.084409
#
#
# Mechanical properties :
#
#
# Convention : Reuss Voigt Hill
#
# Bulk Modulus (GPa) = 29.85549 36.46056 33.15803
# Shear Modulus (GPa) = 14.30534 21.87637 18.09085
#
# Velocity S-wave (km/s) = 2.70436 3.34428 3.04120
# Velocity P-wave (km/s) = 5.00149 5.79246 5.41145
#
# Compressibility (1/GPa) = 0.03349467
#
# Stress axis : x y z
#
# Youngs Moduli (GPa) = 83.61052 97.12349 42.52559
#
# Poissons Ratio (x) = 0.27267 0.06649
# Poissons Ratio (y) = 0.23473 0.07516
# Poissons Ratio (z) = 0.13073 0.17166
#
# Static dielectric constant tensor:
#      x y z
#    x 1.690880 0.000000 0.000000 
#    y 0.000000 1.758270 0.000000 
#    z 0.000000 0.000000 1.716880 
# 
# From -- ./inp_files/37459.got.cif
#   From: 2010.05.17/outbox.cif.g08.bks.cpg/sg52_19_cif.got.tgz:37459.got - 2010.06.03 12:15:38.
