data_PCOD9408251
_publ_section_title
;
Structure prediction by ZEFSAII (Michael W. Deem and Ramdas Pophale) SiO2 
 PCOD9408251
Probable space group: P N N A
;
_chemical_formula_sum "Si O2"
_cell_formula_units_Z 52
_cell_length_a 18.369220
_cell_length_b 7.254719
_cell_length_c 14.861438
_cell_angle_alpha 90.000000
_cell_angle_beta 90.000000
_cell_angle_gamma 90.000000
_cell_volume 1980.487679
_symmetry_space_group_name_H-M "P N N A"
_symmetry_group_IT_number 52
_symmetry_cell_setting 'orthorhombic'
loop_
_space_group_symop_operation_xyz
x,y,z
1/2-x,-y,z
x,1/2-y,1/2-z
1/2-x,1/2+y,1/2-z
-x,-y,-z
1/2+x,y,-z
-x,1/2+y,1/2+z
1/2+x,1/2-y,1/2+z
loop_
_atom_site_type_symbol
_atom_site_label
_atom_site_fract_x
_atom_site_fract_y
_atom_site_fract_z
Si Si1 0.647107 0.250000 0.250000
Si Si2 0.739037 0.723509 0.116700
Si Si3 0.455548 0.730497 0.889259
Si Si4 0.426289 0.754018 0.096498
Si Si5 0.607832 0.816033 0.904469
Si Si6 0.418437 0.171445 0.885967
Si Si7 0.735449 0.212327 0.588261
O O1 0.703103 0.173000 0.178216
O O2 0.593972 0.364848 0.185354
O O3 0.750000 0.500000 0.121941
O O4 0.659096 0.772451 0.151468
O O5 0.761293 0.784390 0.014775
O O6 0.540316 0.702420 0.864310
O O7 0.435430 0.951140 0.882208
O O8 0.435609 0.684620 0.992607
O O9 0.505895 0.727550 0.139898
O O10 0.345348 0.706887 0.130438
O O11 0.416126 0.973699 0.097256
O O12 0.690265 0.795786 0.869471
O O13 0.599212 0.771565 0.010060
O O14 0.750000 0.000000 0.578659
#
# Coordination Sequence:
#
# PCOD9408251 Si02
#       7
#     4   8   8   8   8   8   8
#     4  12  22  32  50  70 108 142 166 202 252 316
#     4  10  22  34  42  71 106 141 172 200 251 314
#     4   9  18  32  49  74  97 137 177 204 250 300
#     4   9  15  32  53  75  95 133 174 216 254 295
#     4   8  16  31  52  73  98 128 177 221 247 295
#     4   8  17  33  53  66  98 133 177 219 246 289
#     4  10  18  31  48  78 107 129 161 214 269 308
#
# _framework density 26.256157999999999
#
# number of rings (size 3 to 8) (size 9 to 14) (size 15 to 20)
#    0.000    2.769    1.538    2.308    2.154    0.000 
#    2.769    3.077    0.000    0.000    0.000    5.385 
#    0.000    0.000    0.000    0.000    0.000    0.000 
#
# Total GULP energy -289797.978438 kJ/mol
# GULP energy per Si atom -5573.038047 kJ/mol
# Density = 2.619640 g / cm^3
# Si number density = 26.256158 Si / 1000 Ang^3
#
#
#
# Elastic Constant Matrix: (Units=GPa)
#
#
# Indices 1 2 3 4 5 6 
#
# 1 282.5263 17.5963 14.9970 0.0000 0.0000 0.0000
# 2 17.5963 76.3309 0.6975 0.0000 0.0000 0.0000
# 3 14.9970 0.6975 36.1629 0.0000 0.0000 0.0000
# 4 0.0000 0.0000 0.0000 -5.0102 0.0000 0.0000
# 5 0.0000 0.0000 0.0000 0.0000 429.5380 0.0000
# 6 0.0000 0.0000 0.0000 0.0000 0.0000 35.3153
#
#
#
# Elastic Compliance Matrix: (Units=1/GPa)
#
#
# Indices 1 2 3 4 5 6 
#
# 1 0.003671 -0.000833 -0.001506 0.000000 0.000000 0.000000
# 2 -0.000833 0.013292 0.000089 0.000000 0.000000 0.000000
# 3 -0.001506 0.000089 0.028276 0.000000 0.000000 0.000000
# 4 0.000000 0.000000 0.000000 -0.199592 0.000000 0.000000
# 5 0.000000 0.000000 0.000000 0.000000 0.002328 0.000000
# 6 0.000000 0.000000 0.000000 0.000000 0.000000 0.028316
#
#
# Mechanical properties :
#
#
# Convention : Reuss Voigt Hill
#
# Bulk Modulus (GPa) = 24.54666 51.28907 37.91786
# Shear Modulus (GPa) = -47.33564 116.08391 34.37414
#
# Velocity S-wave (km/s) = -4.25059 6.65643 3.62219
# Velocity P-wave (km/s) = 3.83677 8.86870 5.65390
#
# Compressibility (1/GPa) = 0.04073874
#
# Stress axis : x y z
#
# Youngs Moduli (GPa) = 272.38202 75.23336 35.36606
#
# Poissons Ratio (x) = 0.06264 0.05328
# Poissons Ratio (y) = 0.22678 -0.00314
# Poissons Ratio (z) = 0.41033 -0.00669
#
# Static dielectric constant tensor:
#      x y z
#    x 2.328090 0.000000 0.000000 
#    y 0.000000 1.947800 0.000000 
#    z 0.000000 0.000000 2.099140 
# 
# From -- ./inp_files/33714.got.cif
#   From: 2010.05.17/outbox.cif.g08.bks.cpg/sg52_17_cif.got.tgz:33714.got - 2010.06.03 12:15:38.
