data_PCOD9408633
_publ_section_title
;
Structure prediction by ZEFSAII (Michael W. Deem and Ramdas Pophale) SiO2 
 PCOD9408633
Probable space group: P N N A
;
_chemical_formula_sum "Si O2"
_cell_formula_units_Z 48
_cell_length_a 21.104310
_cell_length_b 5.443887
_cell_length_c 17.641254
_cell_angle_alpha 90.000000
_cell_angle_beta 90.000000
_cell_angle_gamma 90.000000
_cell_volume 2026.794478
_symmetry_space_group_name_H-M "P N N A"
_symmetry_group_IT_number 52
_symmetry_cell_setting 'orthorhombic'
loop_
_space_group_symop_operation_xyz
x,y,z
1/2-x,-y,z
x,1/2-y,1/2-z
1/2-x,1/2+y,1/2-z
-x,-y,-z
1/2+x,y,-z
-x,1/2+y,1/2+z
1/2+x,1/2-y,1/2+z
loop_
_atom_site_type_symbol
_atom_site_label
_atom_site_fract_x
_atom_site_fract_y
_atom_site_fract_z
Si Si1 0.791952 0.750000 0.250000
Si Si2 0.316257 0.581951 0.067125
Si Si3 0.591801 0.342805 0.667449
Si Si4 0.490239 0.947952 0.604031
Si Si5 0.318800 0.633296 0.582952
Si Si6 0.411262 0.263032 0.498175
Si Si7 0.011131 0.750000 0.250000
O O1 0.750000 0.500000 0.239871
O O2 0.828180 0.711102 0.329928
O O3 0.250000 0.500000 0.100938
O O4 0.349040 0.805942 0.111882
O O5 0.308775 0.658466 0.979905
O O6 0.361523 0.345971 0.061933
O O7 0.613285 0.250000 0.750000
O O8 0.540556 0.166393 0.624573
O O9 0.556040 0.585163 0.696538
O O10 0.433041 0.054413 0.556715
O O11 0.523814 0.734404 0.552683
O O12 0.469511 0.881795 0.688087
O O13 0.250000 0.500000 0.582772
O O14 0.376788 0.471289 0.547606
#
# Coordination Sequence:
#
# PCOD9408633 Si02
#       7
#     4   8   8   8   8   8   4
#     4  10  24  42  69  90 132 186 236 293 362 420
#     4  11  21  38  65  94 128 174 225 276 343 423
#     4   9  20  38  63  92 132 169 213 282 342 412
#     4   9  20  38  64  91 128 171 221 288 344 410
#     4  11  22  39  63  89 129 177 227 283 350 423
#     4  10  21  39  62  94 128 168 227 283 342 418
#     4  10  18  38  65  90 130 174 222 275 358 404
#
# _framework density 23.682715999999999
#
# number of rings (size 3 to 8) (size 9 to 14) (size 15 to 20)
#    0.000    2.000    1.667    1.500    2.333    1.333 
#    0.000   12.500    7.333    0.000    0.000    0.000 
#    0.000    0.000    0.000    0.000    0.000    0.000 
#
# Total GULP energy -267419.023977 kJ/mol
# GULP energy per Si atom -5571.229666 kJ/mol
# Density = 2.362881 g / cm^3
# Si number density = 23.682716 Si / 1000 Ang^3
#
#
#
# Elastic Constant Matrix: (Units=GPa)
#
#
# Indices 1 2 3 4 5 6 
#
# 1 112.6504 30.7473 36.7476 0.0000 0.0000 0.0000
# 2 30.7473 59.0274 67.8084 0.0000 0.0000 0.0000
# 3 36.7476 67.8084 141.1305 0.0000 0.0000 0.0000
# 4 0.0000 0.0000 0.0000 57.9756 0.0000 0.0000
# 5 0.0000 0.0000 0.0000 0.0000 4.3649 0.0000
# 6 0.0000 0.0000 0.0000 0.0000 0.0000 18.0089
#
#
#
# Elastic Compliance Matrix: (Units=1/GPa)
#
#
# Indices 1 2 3 4 5 6 
#
# 1 0.010352 -0.005124 -0.000233 0.000000 0.000000 0.000000
# 2 -0.005124 0.040347 -0.018051 0.000000 0.000000 0.000000
# 3 -0.000233 -0.018051 0.015819 0.000000 0.000000 0.000000
# 4 0.000000 0.000000 0.000000 0.017249 0.000000 0.000000
# 5 0.000000 0.000000 0.000000 0.000000 0.229102 0.000000
# 6 0.000000 0.000000 0.000000 0.000000 0.000000 0.055528
#
#
# Mechanical properties :
#
#
# Convention : Reuss Voigt Hill
#
# Bulk Modulus (GPa) = 50.75946 64.82388 57.79167
# Shear Modulus (GPa) = 11.85449 27.90352 19.87901
#
# Velocity S-wave (km/s) = 2.23974 3.43625 2.90036
# Velocity P-wave (km/s) = 5.30737 6.57077 5.97257
#
# Compressibility (1/GPa) = 0.01970076
#
# Stress axis : x y z
#
# Youngs Moduli (GPa) = 96.60198 24.78517 63.21369
#
# Poissons Ratio (x) = 0.12700 0.01476
# Poissons Ratio (y) = 0.49499 1.14107
# Poissons Ratio (z) = 0.02256 0.44740
#
# Static dielectric constant tensor:
#      x y z
#    x 1.942850 0.000000 0.000000 
#    y 0.000000 2.040630 0.000000 
#    z 0.000000 0.000000 1.893890 
# 
# From -- ./inp_files/34300.got.cif
#   From: 2010.05.17/outbox.cif.g08.bks.cpg/sg52_18_cif.got.tgz:34300.got - 2010.06.03 12:15:38.
