data_PCOD9408780
_publ_section_title
;
Structure prediction by ZEFSAII (Michael W. Deem and Ramdas Pophale) SiO2 
 PCOD9408780
Probable space group: P N N A
;
_chemical_formula_sum "Si O2"
_cell_formula_units_Z 48
_cell_length_a 8.728859
_cell_length_b 25.709606
_cell_length_c 10.401583
_cell_angle_alpha 90.000000
_cell_angle_beta 90.000000
_cell_angle_gamma 90.000000
_cell_volume 2334.276717
_symmetry_space_group_name_H-M "P N N A"
_symmetry_group_IT_number 52
_symmetry_cell_setting 'orthorhombic'
loop_
_space_group_symop_operation_xyz
x,y,z
1/2-x,-y,z
x,1/2-y,1/2-z
1/2-x,1/2+y,1/2-z
-x,-y,-z
1/2+x,y,-z
-x,1/2+y,1/2+z
1/2+x,1/2-y,1/2+z
loop_
_atom_site_type_symbol
_atom_site_label
_atom_site_fract_x
_atom_site_fract_y
_atom_site_fract_z
Si Si1 0.658779 0.340235 0.442929
Si Si2 0.427363 0.506956 0.668185
Si Si3 0.612356 0.040001 0.435622
Si Si4 0.125377 0.906632 0.118277
Si Si5 0.095410 0.408197 0.196707
Si Si6 0.034472 0.695505 0.681056
O O1 0.510139 0.364149 0.373847
O O2 0.758237 0.386771 0.507349
O O3 0.580952 0.308289 0.559339
O O4 0.788004 0.310548 0.362277
O O5 0.250000 0.500000 0.631994
O O6 0.426330 0.549494 0.788190
O O7 0.546580 0.538767 0.579854
O O8 0.500455 0.454918 0.731966
O O9 0.618636 0.084293 0.543350
O O10 0.750000 0.000000 0.424295
O O11 0.500000 0.000000 0.500000
O O12 0.236793 0.910710 0.239936
O O13 0.012033 0.354514 0.232648
O O14 0.012379 0.750000 0.750000
#
# Coordination Sequence:
#
# PCOD9408780 Si02
#       6
#     8   8   8   8   8   8
#     4   9  21  41  61  85 112 144 189 242 287 335
#     4  10  19  32  53  84 121 156 189 228 281 342
#     4   9  17  30  49  77 116 150 181 224 272 328
#     4  10  19  37  59  79 114 150 184 231 289 342
#     4  10  19  34  57  84 115 152 192 231 281 337
#     4  10  21  42  64  83 113 148 189 240 287 336
#
# _framework density 20.563115
#
# number of rings (size 3 to 8) (size 9 to 14) (size 15 to 20)
#    0.000    2.333    0.000    3.500    0.000    0.000 
#    0.000   38.333    0.000    0.000    0.000    0.000 
#    0.000    0.000    0.000    0.000    0.000    0.000 
#
# Total GULP energy -267464.080546 kJ/mol
# GULP energy per Si atom -5572.168345 kJ/mol
# Density = 2.051631 g / cm^3
# Si number density = 20.563115 Si / 1000 Ang^3
#
#
#
# Elastic Constant Matrix: (Units=GPa)
#
#
# Indices 1 2 3 4 5 6 
#
# 1 160.0213 52.3629 33.3849 0.0000 0.0000 0.0000
# 2 52.3629 128.8003 50.4692 0.0000 0.0000 0.0000
# 3 33.3849 50.4692 32.2229 0.0000 0.0000 0.0000
# 4 0.0000 0.0000 0.0000 84.8570 0.0000 0.0000
# 5 0.0000 0.0000 0.0000 0.0000 24.9261 0.0000
# 6 0.0000 0.0000 0.0000 0.0000 0.0000 16.3013
#
#
#
# Elastic Compliance Matrix: (Units=1/GPa)
#
#
# Indices 1 2 3 4 5 6 
#
# 1 0.007972 -0.000012 -0.008241 0.000000 0.000000 0.000000
# 2 -0.000012 0.020099 -0.031468 0.000000 0.000000 0.000000
# 3 -0.008241 -0.031468 0.088860 0.000000 0.000000 0.000000
# 4 0.000000 0.000000 0.000000 0.011785 0.000000 0.000000
# 5 0.000000 0.000000 0.000000 0.000000 0.040119 0.000000
# 6 0.000000 0.000000 0.000000 0.000000 0.000000 0.061345
#
#
# Mechanical properties :
#
#
# Convention : Reuss Voigt Hill
#
# Bulk Modulus (GPa) = 26.67494 65.94207 46.30851
# Shear Modulus (GPa) = 15.52222 37.53871 26.53047
#
# Velocity S-wave (km/s) = 2.75045 4.27726 3.59583
# Velocity P-wave (km/s) = 4.80489 7.51872 6.30944
#
# Compressibility (1/GPa) = 0.03748836
#
# Stress axis : x y z
#
# Youngs Moduli (GPa) = 125.43228 49.75285 11.25368
#
# Poissons Ratio (x) = 0.00059 0.09275
# Poissons Ratio (y) = 0.00148 0.35414
# Poissons Ratio (z) = 1.03374 1.56564
#
# Static dielectric constant tensor:
#      x y z
#    x 1.728210 0.000000 0.000000 
#    y 0.000000 1.731500 0.000000 
#    z 0.000000 0.000000 1.855220 
# 
# From -- ./inp_files/16941.got.cif
#   From: 2010.05.17/outbox.cif.g08.bks.cpg/sg52_9_cif.got.tgz:16941.got - 2010.06.03 12:15:38.
