data_PCOD9408586
_publ_section_title
;
Structure prediction by ZEFSAII (Michael W. Deem and Ramdas Pophale) SiO2 
 PCOD9408586
Probable space group: P N N A
;
_chemical_formula_sum "Si O2"
_cell_formula_units_Z 48
_cell_length_a 10.420565
_cell_length_b 15.418362
_cell_length_c 14.211947
_cell_angle_alpha 90.000000
_cell_angle_beta 90.000000
_cell_angle_gamma 90.000000
_cell_volume 2283.405718
_symmetry_space_group_name_H-M "P N N A"
_symmetry_group_IT_number 52
_symmetry_cell_setting 'orthorhombic'
loop_
_space_group_symop_operation_xyz
x,y,z
1/2-x,-y,z
x,1/2-y,1/2-z
1/2-x,1/2+y,1/2-z
-x,-y,-z
1/2+x,y,-z
-x,1/2+y,1/2+z
1/2+x,1/2-y,1/2+z
loop_
_atom_site_type_symbol
_atom_site_label
_atom_site_fract_x
_atom_site_fract_y
_atom_site_fract_z
Si Si1 0.843099 0.632115 0.711101
Si Si2 0.063226 0.300225 0.099823
Si Si3 0.850744 0.422875 0.487101
Si Si4 0.681414 0.719882 0.985126
Si Si5 0.503634 0.018825 0.156213
Si Si6 0.559510 0.837738 0.715153
O O1 0.907733 0.638119 0.813246
O O2 0.902806 0.705729 0.644005
O O3 0.879702 0.538726 0.676489
O O4 0.693359 0.651314 0.726134
O O5 0.173057 0.314719 0.020967
O O6 0.919153 0.306547 0.064897
O O7 0.750000 0.500000 0.506976
O O8 0.805049 0.324471 0.501734
O O9 0.969982 0.427893 0.561010
O O10 0.894273 0.448224 0.381133
O O11 0.610461 0.683190 0.890003
O O12 0.522233 0.080776 0.246215
O O13 0.493240 0.750000 0.750000
#
# Coordination Sequence:
#
# PCOD9408586 Si02
#       6
#     8   8   8   8   8   8
#     4  10  18  37  59  81 113 155 203 236 287 362
#     4  10  20  36  62  85 116 157 199 243 297 354
#     4  11  22  32  54  87 118 148 187 252 312 350
#     4  11  21  37  58  87 121 153 195 243 300 356
#     4  11  21  34  56  82 114 148 198 248 294 351
#     4  11  19  33  55  85 114 150 193 242 289 353
#
# _framework density 21.021229999999999
#
# number of rings (size 3 to 8) (size 9 to 14) (size 15 to 20)
#    0.000    1.333    6.667    2.500    2.333    0.000 
#    0.000    2.500    3.667    0.000    0.000    0.000 
#    0.000    0.000    0.000    0.000    0.000    0.000 
#
# Total GULP energy -267204.428088 kJ/mol
# GULP energy per Si atom -5566.758919 kJ/mol
# Density = 2.097339 g / cm^3
# Si number density = 21.021230 Si / 1000 Ang^3
#
#
#
# Elastic Constant Matrix: (Units=GPa)
#
#
# Indices 1 2 3 4 5 6 
#
# 1 59.2968 5.7561 30.0115 0.0000 0.0000 0.0000
# 2 5.7561 62.7486 34.0415 0.0000 0.0000 0.0000
# 3 30.0115 34.0415 56.4043 0.0000 0.0000 0.0000
# 4 0.0000 0.0000 0.0000 32.7616 0.0000 0.0000
# 5 0.0000 0.0000 0.0000 0.0000 31.3812 0.0000
# 6 0.0000 0.0000 0.0000 0.0000 0.0000 20.1862
#
#
#
# Elastic Compliance Matrix: (Units=1/GPa)
#
#
# Indices 1 2 3 4 5 6 
#
# 1 0.025182 0.007373 -0.017849 0.000000 0.000000 0.000000
# 2 0.007373 0.025853 -0.019526 0.000000 0.000000 0.000000
# 3 -0.017849 -0.019526 0.039011 0.000000 0.000000 0.000000
# 4 0.000000 0.000000 0.000000 0.030524 0.000000 0.000000
# 5 0.000000 0.000000 0.000000 0.000000 0.031866 0.000000
# 6 0.000000 0.000000 0.000000 0.000000 0.000000 0.049539
#
#
# Mechanical properties :
#
#
# Convention : Reuss Voigt Hill
#
# Bulk Modulus (GPa) = 33.28630 35.34088 34.31359
# Shear Modulus (GPa) = 18.38285 24.10849 21.24567
#
# Velocity S-wave (km/s) = 2.96039 3.39021 3.18256
# Velocity P-wave (km/s) = 5.24921 5.67214 5.46477
#
# Compressibility (1/GPa) = 0.03004239
#
# Stress axis : x y z
#
# Youngs Moduli (GPa) = 39.71050 38.67979 25.63405
#
# Poissons Ratio (x) = -0.28519 0.45754
# Poissons Ratio (y) = -0.29278 0.50053
# Poissons Ratio (z) = 0.70878 0.75527
#
# Static dielectric constant tensor:
#      x y z
#    x 1.796110 0.000000 0.000000 
#    y 0.000000 1.819970 0.000000 
#    z 0.000000 0.000000 1.816370 
# 
# From -- ./inp_files/26060.got.cif
#   From: 2010.05.17/outbox.cif.g08.bks.cpg/sg52_14_cif.got.tgz:26060.got - 2010.06.03 12:15:38.
