data_PCOD9408320
_publ_section_title
;
Structure prediction by ZEFSAII (Michael W. Deem and Ramdas Pophale) SiO2 
 PCOD9408320
Probable space group: P N N A
;
_chemical_formula_sum "Si O2"
_cell_formula_units_Z 40
_cell_length_a 25.113408
_cell_length_b 8.608564
_cell_length_c 10.479823
_cell_angle_alpha 90.000000
_cell_angle_beta 90.000000
_cell_angle_gamma 90.000000
_cell_volume 2265.636917
_symmetry_space_group_name_H-M "P N N A"
_symmetry_group_IT_number 52
_symmetry_cell_setting 'orthorhombic'
loop_
_space_group_symop_operation_xyz
x,y,z
1/2-x,-y,z
x,1/2-y,1/2-z
1/2-x,1/2+y,1/2-z
-x,-y,-z
1/2+x,y,-z
-x,1/2+y,1/2+z
1/2+x,1/2-y,1/2+z
loop_
_atom_site_type_symbol
_atom_site_label
_atom_site_fract_x
_atom_site_fract_y
_atom_site_fract_z
Si Si1 0.371230 0.021909 0.825076
Si Si2 0.199664 0.250000 0.750000
Si Si3 0.035702 0.586272 0.103456
Si Si4 0.250000 0.500000 0.936702
Si Si5 0.492952 0.568831 0.639022
Si Si6 0.144674 0.841629 0.540020
O O1 0.362616 0.087548 0.682209
O O2 0.356800 0.156155 0.928126
O O3 0.335632 0.867958 0.833690
O O4 0.432292 0.970128 0.828472
O O5 0.232968 0.358544 0.843998
O O6 0.029882 0.509594 0.243824
O O7 0.007285 0.751776 0.121264
O O8 0.094866 0.613626 0.049418
O O9 0.000000 0.500000 0.000000
O O10 0.199016 0.575103 0.008071
O O11 0.500000 0.500000 0.500000
#
# Coordination Sequence:
#
# PCOD9408320 Si02
#       6
#     8   4   8   4   8   8
#     4  10  19  33  55  82 121 151 194 247 296 351
#     4  10  18  32  52  82 114 148 198 246 300 340
#     4  11  22  36  58  85 120 156 187 239 298 350
#     4  10  20  32  54  84 112 158 200 246 296 346
#     4  11  22  36  57  91 117 155 190 235 296 359
#     4  10  20  35  54  83 118 156 193 246 294 346
#
# _framework density 17.655079000000001
#
# number of rings (size 3 to 8) (size 9 to 14) (size 15 to 20)
#    0.000    1.600    4.000    3.600    2.800    0.800 
#    0.000    0.000    0.000    0.000   10.400    0.000 
#    0.000    0.000    0.000    0.000    0.000    0.000 
#
# Total GULP energy -222762.820490 kJ/mol
# GULP energy per Si atom -5569.070512 kJ/mol
# Density = 1.761490 g / cm^3
# Si number density = 17.655079 Si / 1000 Ang^3
#
#
#
# Elastic Constant Matrix: (Units=GPa)
#
#
# Indices 1 2 3 4 5 6 
#
# 1 128.7882 61.0035 30.1160 0.0000 0.0000 0.0000
# 2 61.0035 90.3131 32.2480 0.0000 0.0000 0.0000
# 3 30.1160 32.2480 93.5405 0.0000 0.0000 0.0000
# 4 0.0000 0.0000 0.0000 21.3132 0.0000 0.0000
# 5 0.0000 0.0000 0.0000 0.0000 17.8023 0.0000
# 6 0.0000 0.0000 0.0000 0.0000 0.0000 36.2562
#
#
#
# Elastic Compliance Matrix: (Units=1/GPa)
#
#
# Indices 1 2 3 4 5 6 
#
# 1 0.011529 -0.007369 -0.001171 0.000000 0.000000 0.000000
# 2 -0.007369 0.017337 -0.003604 0.000000 0.000000 0.000000
# 3 -0.001171 -0.003604 0.012310 0.000000 0.000000 0.000000
# 4 0.000000 0.000000 0.000000 0.046919 0.000000 0.000000
# 5 0.000000 0.000000 0.000000 0.000000 0.056172 0.000000
# 6 0.000000 0.000000 0.000000 0.000000 0.000000 0.027581
#
#
# Mechanical properties :
#
#
# Convention : Reuss Voigt Hill
#
# Bulk Modulus (GPa) = 59.21833 62.15297 60.68565
# Shear Modulus (GPa) = 24.78077 27.69263 26.23670
#
# Velocity S-wave (km/s) = 3.75054 3.96477 3.85914
# Velocity P-wave (km/s) = 7.23671 7.49931 7.36918
#
# Compressibility (1/GPa) = 0.01688666
#
# Stress axis : x y z
#
# Youngs Moduli (GPa) = 86.73574 57.67875 81.23273
#
# Poissons Ratio (x) = 0.42506 0.09515
# Poissons Ratio (y) = 0.63919 0.29280
# Poissons Ratio (z) = 0.10160 0.20790
#
# Static dielectric constant tensor:
#      x y z
#    x 1.668250 0.000000 0.000000 
#    y 0.000000 1.599290 0.000000 
#    z 0.000000 0.000000 1.647740 
# 
# From -- ./inp_files/14014.got.cif
#   From: 2010.05.17/outbox.cif.g08.bks.cpg/sg52_8_cif.got.tgz:14014.got - 2010.06.03 12:15:38.
