data_PCOD9408966
_publ_section_title
;
Structure prediction by ZEFSAII (Michael W. Deem and Ramdas Pophale) SiO2 
 PCOD9408966
Probable space group: P N N A
;
_chemical_formula_sum "Si O2"
_cell_formula_units_Z 60
_cell_length_a 23.680641
_cell_length_b 13.863546
_cell_length_c 9.084116
_cell_angle_alpha 90.000000
_cell_angle_beta 90.000000
_cell_angle_gamma 90.000000
_cell_volume 2982.293988
_symmetry_space_group_name_H-M "P N N A"
_symmetry_group_IT_number 52
_symmetry_cell_setting 'orthorhombic'
loop_
_space_group_symop_operation_xyz
x,y,z
1/2-x,-y,z
x,1/2-y,1/2-z
1/2-x,1/2+y,1/2-z
-x,-y,-z
1/2+x,y,-z
-x,1/2+y,1/2+z
1/2+x,1/2-y,1/2+z
loop_
_atom_site_type_symbol
_atom_site_label
_atom_site_fract_x
_atom_site_fract_y
_atom_site_fract_z
Si Si1 0.859810 0.478425 0.929900
Si Si2 0.419110 0.353487 0.555182
Si Si3 0.828261 0.363425 0.214710
Si Si4 0.954108 0.627980 0.612064
Si Si5 0.547154 0.676197 0.887517
Si Si6 0.063295 0.153919 0.454800
Si Si7 0.750000 0.500000 0.395371
Si Si8 0.151507 0.991850 0.109437
O O1 0.913092 0.415210 0.873974
O O2 0.884424 0.581979 0.982047
O O3 0.827593 0.495737 0.776858
O O4 0.830917 0.412625 0.053862
O O5 0.388898 0.383578 0.706328
O O6 0.483581 0.390900 0.547324
O O7 0.429883 0.240433 0.524689
O O8 0.371056 0.386563 0.439234
O O9 0.820614 0.250000 0.250000
O O10 0.777401 0.417381 0.296941
O O11 0.930010 0.730251 0.552353
O O12 0.959370 0.632632 0.789517
O O13 0.905617 0.551574 0.583941
O O14 0.546605 0.750000 0.750000
O O15 0.485093 0.638686 0.925168
O O16 0.800799 0.530897 0.501751
#
# Coordination Sequence:
#
# PCOD9408966 Si02
#       8
#     8   8   8   8   8   8   4   8
#     4  11  21  37  64  91 121 161 211 263 310 371
#     4  10  19  34  60  92 130 163 200 252 315 379
#     4  11  23  43  69  92 126 164 213 265 325 384
#     4   9  18  35  61  88 127 172 199 246 316 375
#     4  11  19  32  54  94 133 167 208 247 302 376
#     4   9  20  34  52  88 134 166 203 241 302 382
#     4  10  26  48  62  92 120 164 214 278 320 374
#     4  10  21  40  64  88 123 158 216 263 314 371
#
# _framework density 20.118741
#
# number of rings (size 3 to 8) (size 9 to 14) (size 15 to 20)
#    0.000    1.867    2.667    1.600    1.867    1.600 
#   12.000    0.000    5.867    0.000    0.000    0.000 
#    0.000    0.000    0.000    0.000    0.000    0.000 
#
# Total GULP energy -334216.819262 kJ/mol
# GULP energy per Si atom -5570.280321 kJ/mol
# Density = 2.007295 g / cm^3
# Si number density = 20.118741 Si / 1000 Ang^3
#
#
#
# Elastic Constant Matrix: (Units=GPa)
#
#
# Indices 1 2 3 4 5 6 
#
# 1 80.2347 39.2400 37.7389 0.0000 0.0000 0.0000
# 2 39.2400 78.9679 29.8581 0.0000 0.0000 0.0000
# 3 37.7389 29.8581 88.4900 0.0000 0.0000 0.0000
# 4 0.0000 0.0000 0.0000 19.8942 0.0000 0.0000
# 5 0.0000 0.0000 0.0000 0.0000 26.2583 0.0000
# 6 0.0000 0.0000 0.0000 0.0000 0.0000 17.6418
#
#
#
# Elastic Compliance Matrix: (Units=1/GPa)
#
#
# Indices 1 2 3 4 5 6 
#
# 1 0.018538 -0.007133 -0.005500 0.000000 0.000000 0.000000
# 2 -0.007133 0.017259 -0.002782 0.000000 0.000000 0.000000
# 3 -0.005500 -0.002782 0.014585 0.000000 0.000000 0.000000
# 4 0.000000 0.000000 0.000000 0.050266 0.000000 0.000000
# 5 0.000000 0.000000 0.000000 0.000000 0.038083 0.000000
# 6 0.000000 0.000000 0.000000 0.000000 0.000000 0.056684
#
#
# Mechanical properties :
#
#
# Convention : Reuss Voigt Hill
#
# Bulk Modulus (GPa) = 51.13812 51.26292 51.20052
# Shear Modulus (GPa) = 21.48124 22.14925 21.81524
#
# Velocity S-wave (km/s) = 3.27115 3.32162 3.29648
# Velocity P-wave (km/s) = 6.30401 6.34400 6.32404
#
# Compressibility (1/GPa) = 0.01955488
#
# Stress axis : x y z
#
# Youngs Moduli (GPa) = 53.94186 57.93940 68.56471
#
# Poissons Ratio (x) = 0.41326 0.37708
# Poissons Ratio (y) = 0.38474 0.19073
# Poissons Ratio (z) = 0.29666 0.16117
#
# Static dielectric constant tensor:
#      x y z
#    x 1.687380 0.000000 0.000000 
#    y 0.000000 1.753130 0.000000 
#    z 0.000000 0.000000 1.792640 
# 
# From -- ./inp_files/14439.got.cif
#   From: 2010.05.17/outbox.cif.g08.bks.cpg/sg52_8_cif.got.tgz:14439.got - 2010.06.03 12:15:38.
