data_PCOD9408945
_publ_section_title
;
Structure prediction by ZEFSAII (Michael W. Deem and Ramdas Pophale) SiO2 
 PCOD9408945
Probable space group: P N N A
;
_chemical_formula_sum "Si O2"
_cell_formula_units_Z 64
_cell_length_a 8.171343
_cell_length_b 22.337807
_cell_length_c 13.935591
_cell_angle_alpha 90.000000
_cell_angle_beta 90.000000
_cell_angle_gamma 90.000000
_cell_volume 2543.661793
_symmetry_space_group_name_H-M "P N N A"
_symmetry_group_IT_number 52
_symmetry_cell_setting 'orthorhombic'
loop_
_space_group_symop_operation_xyz
x,y,z
1/2-x,-y,z
x,1/2-y,1/2-z
1/2-x,1/2+y,1/2-z
-x,-y,-z
1/2+x,y,-z
-x,1/2+y,1/2+z
1/2+x,1/2-y,1/2+z
loop_
_atom_site_type_symbol
_atom_site_label
_atom_site_fract_x
_atom_site_fract_y
_atom_site_fract_z
Si Si1 0.500058 0.608180 0.134875
Si Si2 0.606513 0.691397 0.573558
Si Si3 0.924927 0.017610 0.704227
Si Si4 0.278608 0.297560 0.164008
Si Si5 0.202350 0.567158 0.643788
Si Si6 0.280073 0.063463 0.498698
Si Si7 0.605023 0.111825 0.953358
Si Si8 0.928671 0.640012 0.256873
O O1 0.510808 0.546764 0.195661
O O2 0.382473 0.661007 0.170529
O O3 0.386737 0.585231 0.046420
O O4 0.665985 0.613623 0.074660
O O5 0.694729 0.755050 0.571766
O O6 0.513470 0.667704 0.480928
O O7 0.472554 0.685569 0.657274
O O8 0.741485 0.640939 0.600049
O O9 0.884704 0.044017 0.596510
O O10 0.001664 0.072223 0.760950
O O11 0.750000 0.000000 0.747051
O O12 0.264069 0.250000 0.250000
O O13 0.451867 0.332730 0.175152
O O14 0.250000 0.500000 0.671074
O O15 0.016955 0.569472 0.603725
O O16 0.318303 0.583527 0.550299
O O17 0.239749 0.621108 0.721287
O O18 0.250000 0.000000 0.551037
#
# Coordination Sequence:
#
# PCOD9408945 Si02
#       8
#     8   8   8   8   8   8   8   8
#     4  10  19  34  58  83 114 145 190 240 288 355
#     4   9  20  35  63  80 118 160 202 249 289 350
#     4   9  16  31  53  79 115 142 185 228 290 355
#     4  10  20  37  58  81 111 159 209 237 285 349
#     4  10  20  35  60  94 125 154 191 248 312 364
#     4   9  17  32  55  83 114 146 177 236 294 348
#     4   9  19  39  58  89 122 154 201 251 298 354
#     4  10  19  36  57  85 113 161 197 232 294 370
#
# _framework density 25.160577
#
# number of rings (size 3 to 8) (size 9 to 14) (size 15 to 20)
#    0.000    2.750    2.500    1.875    0.000    2.000 
#    0.000    3.125    0.000   15.750    0.000    0.000 
#    0.000    0.000    0.000    0.000    0.000    0.000 
#
# Total GULP energy -356366.818123 kJ/mol
# GULP energy per Si atom -5568.231533 kJ/mol
# Density = 2.510331 g / cm^3
# Si number density = 25.160577 Si / 1000 Ang^3
#
#
#
# Elastic Constant Matrix: (Units=GPa)
#
#
# Indices 1 2 3 4 5 6 
#
# 1 27.3306 6.9548 -2.7012 0.0000 0.0000 0.0000
# 2 6.9548 85.8437 4.1602 0.0000 0.0000 0.0000
# 3 -2.7012 4.1602 50.9055 0.0000 0.0000 0.0000
# 4 0.0000 0.0000 0.0000 8.3838 0.0000 0.0000
# 5 0.0000 0.0000 0.0000 0.0000 -105.0644 0.0000
# 6 0.0000 0.0000 0.0000 0.0000 0.0000 34.6194
#
#
#
# Elastic Compliance Matrix: (Units=1/GPa)
#
#
# Indices 1 2 3 4 5 6 
#
# 1 0.037615 -0.003157 0.002254 0.000000 0.000000 0.000000
# 2 -0.003157 0.011960 -0.001145 0.000000 0.000000 0.000000
# 3 0.002254 -0.001145 0.019857 0.000000 0.000000 0.000000
# 4 0.000000 0.000000 0.000000 0.119277 0.000000 0.000000
# 5 0.000000 0.000000 0.000000 0.000000 -0.009518 0.000000
# 6 0.000000 0.000000 0.000000 0.000000 0.000000 0.028886
#
#
# Mechanical properties :
#
#
# Convention : Reuss Voigt Hill
#
# Bulk Modulus (GPa) = 15.30517 20.10083 17.70300
# Shear Modulus (GPa) = 21.37189 -2.03449 9.66870
#
# Velocity S-wave (km/s) = 2.91764 -0.90020 1.96243
# Velocity P-wave (km/s) = 4.17689 2.63171 3.49086
#
# Compressibility (1/GPa) = 0.06533741
#
# Stress axis : x y z
#
# Youngs Moduli (GPa) = 26.58505 83.60985 50.35907
#
# Poissons Ratio (x) = 0.26393 -0.11351
# Poissons Ratio (y) = 0.08392 0.05766
# Poissons Ratio (z) = -0.05992 0.09573
#
# Static dielectric constant tensor:
#      x y z
#    x 2.190480 0.000000 0.000000 
#    y 0.000000 2.002940 0.000000 
#    z 0.000000 0.000000 2.107530 
# 
# From -- ./inp_files/31598.got.cif
#   From: 2010.05.17/outbox.cif.g08.bks.cpg/sg52_16_cif.got.tgz:31598.got - 2010.06.03 12:15:38.
