data_PCOD9408018
_publ_section_title
;
Structure prediction by ZEFSAII (Michael W. Deem and Ramdas Pophale) SiO2 
 PCOD9408018
Probable space group: P N N A
;
_chemical_formula_sum "Si O2"
_cell_formula_units_Z 48
_cell_length_a 14.231272
_cell_length_b 9.341760
_cell_length_c 24.728094
_cell_angle_alpha 90.000000
_cell_angle_beta 90.000000
_cell_angle_gamma 90.000000
_cell_volume 3287.479610
_symmetry_space_group_name_H-M "P N N A"
_symmetry_group_IT_number 52
_symmetry_cell_setting 'orthorhombic'
loop_
_space_group_symop_operation_xyz
x,y,z
1/2-x,-y,z
x,1/2-y,1/2-z
1/2-x,1/2+y,1/2-z
-x,-y,-z
1/2+x,y,-z
-x,1/2+y,1/2+z
1/2+x,1/2-y,1/2+z
loop_
_atom_site_type_symbol
_atom_site_label
_atom_site_fract_x
_atom_site_fract_y
_atom_site_fract_z
Si Si1 0.884063 0.401643 0.606437
Si Si2 0.156037 0.911049 0.227216
Si Si3 0.026968 0.635042 0.071065
Si Si4 0.647292 0.446315 0.008007
Si Si5 0.173123 0.213760 0.087448
Si Si6 0.138095 0.037417 0.338550
O O1 0.898919 0.402039 0.671138
O O2 0.959665 0.303118 0.577761
O O3 0.877474 0.561574 0.584156
O O4 0.782878 0.324036 0.596538
O O5 0.175146 0.750000 0.250000
O O6 0.250000 0.000000 0.212973
O O7 0.113789 0.001118 0.276960
O O8 0.072188 0.558826 0.123470
O O9 0.920425 0.597715 0.056754
O O10 0.091730 0.573012 0.022896
O O11 0.750000 0.500000 0.023533
O O12 0.658803 0.317992 0.963895
O O13 0.134724 0.301640 0.139238
O O14 0.250000 0.000000 0.345250
#
# Coordination Sequence:
#
# PCOD9408018 Si02
#       6
#     8   8   8   8   8   8
#     4  11  18  28  43  67  94 127 153 185 237 282
#     4  11  19  25  41  66  92 131 155 177 222 291
#     4  10  18  31  48  63  90 121 155 199 231 276
#     4  10  19  32  49  65  83 124 162 194 241 279
#     4  10  18  29  43  63  97 123 155 191 224 284
#     4  10  17  29  43  63  96 128 153 181 228 277
#
# _framework density 14.600849999999999
#
# number of rings (size 3 to 8) (size 9 to 14) (size 15 to 20)
#    0.000    1.667    6.667    2.000    0.000    0.667 
#    0.000    0.000    0.000    0.000    0.000    0.000 
#    0.000   16.000    5.667    0.000    0.000    0.000 
#
# Total GULP energy -267420.160868 kJ/mol
# GULP energy per Si atom -5571.253351 kJ/mol
# Density = 1.456762 g / cm^3
# Si number density = 14.600850 Si / 1000 Ang^3
#
#
#
# Elastic Constant Matrix: (Units=GPa)
#
#
# Indices 1 2 3 4 5 6 
#
# 1 72.7416 27.7142 33.9351 0.0000 0.0000 0.0000
# 2 27.7142 99.2393 24.2541 0.0000 0.0000 0.0000
# 3 33.9351 24.2541 62.8289 0.0000 0.0000 0.0000
# 4 0.0000 0.0000 0.0000 16.4375 0.0000 0.0000
# 5 0.0000 0.0000 0.0000 0.0000 10.6274 0.0000
# 6 0.0000 0.0000 0.0000 0.0000 0.0000 13.1988
#
#
#
# Elastic Compliance Matrix: (Units=1/GPa)
#
#
# Indices 1 2 3 4 5 6 
#
# 1 0.019217 -0.003125 -0.009173 0.000000 0.000000 0.000000
# 2 -0.003125 0.011634 -0.002804 0.000000 0.000000 0.000000
# 3 -0.009173 -0.002804 0.021953 0.000000 0.000000 0.000000
# 4 0.000000 0.000000 0.000000 0.060837 0.000000 0.000000
# 5 0.000000 0.000000 0.000000 0.000000 0.094096 0.000000
# 6 0.000000 0.000000 0.000000 0.000000 0.000000 0.075764
#
#
# Mechanical properties :
#
#
# Convention : Reuss Voigt Hill
#
# Bulk Modulus (GPa) = 44.24462 45.17962 44.71212
# Shear Modulus (GPa) = 15.56472 17.97985 16.77228
#
# Velocity S-wave (km/s) = 3.26853 3.51297 3.39295
# Velocity P-wave (km/s) = 6.67929 6.88948 6.78520
#
# Compressibility (1/GPa) = 0.02260162
#
# Stress axis : x y z
#
# Youngs Moduli (GPa) = 52.03629 85.95141 45.55138
#
# Poissons Ratio (x) = 0.26858 0.41786
# Poissons Ratio (y) = 0.16260 0.12771
# Poissons Ratio (z) = 0.47735 0.24097
#
# Static dielectric constant tensor:
#      x y z
#    x 1.457210 0.000000 0.000000 
#    y 0.000000 1.519370 0.000000 
#    z 0.000000 0.000000 1.500780 
# 
# From -- ./inp_files/40564.got.cif
#   From: 2010.05.17/outbox.cif.g08.bks.cpg/sg52_21_cif.got.tgz:40564.got - 2010.06.03 12:15:38.
