data_PCOD9408814
_publ_section_title
;
Structure prediction by ZEFSAII (Michael W. Deem and Ramdas Pophale) SiO2 
 PCOD9408814
Probable space group: P N N A
;
_chemical_formula_sum "Si O2"
_cell_formula_units_Z 36
_cell_length_a 21.399352
_cell_length_b 10.261394
_cell_length_c 7.867883
_cell_angle_alpha 90.000000
_cell_angle_beta 90.000000
_cell_angle_gamma 90.000000
_cell_volume 1727.686258
_symmetry_space_group_name_H-M "P N N A"
_symmetry_group_IT_number 52
_symmetry_cell_setting 'orthorhombic'
loop_
_space_group_symop_operation_xyz
x,y,z
1/2-x,-y,z
x,1/2-y,1/2-z
1/2-x,1/2+y,1/2-z
-x,-y,-z
1/2+x,y,-z
-x,1/2+y,1/2+z
1/2+x,1/2-y,1/2+z
loop_
_atom_site_type_symbol
_atom_site_label
_atom_site_fract_x
_atom_site_fract_y
_atom_site_fract_z
Si Si1 0.688715 0.750000 0.250000
Si Si2 0.462225 0.992311 0.211706
Si Si3 0.046578 0.250000 0.750000
Si Si4 0.881997 0.924173 0.464906
Si Si5 0.250000 0.000000 0.583888
Si Si6 0.910598 0.415088 0.378509
O O1 0.730040 0.627376 0.193239
O O2 0.638714 0.702002 0.392632
O O3 0.501073 0.127503 0.224223
O O4 0.427884 0.969398 0.387437
O O5 0.516548 0.888402 0.165732
O O6 0.415068 0.008487 0.055054
O O7 0.092708 0.216384 0.593735
O O8 0.810724 0.949449 0.517148
O O9 0.888222 0.004722 0.287424
#
# Coordination Sequence:
#
# PCOD9408814 Si02
#       6
#     4   8   4   8   4   8
#     4  10  21  38  68  88 127 174 228 262 332 394
#     4  10  21  35  58  95 122 155 210 268 335 381
#     4  10  19  32  62  86 121 152 202 276 318 366
#     4  10  21  39  56  88 126 165 213 261 316 389
#     4  10  22  40  62  90 126 180 218 256 314 406
#     4   9  20  36  57  88 121 159 201 266 324 387
#
# _framework density 20.837115000000001
#
# number of rings (size 3 to 8) (size 9 to 14) (size 15 to 20)
#    0.000    2.222    0.000    3.333    9.333    0.000 
#    0.000    4.444    0.000    8.000    0.000    0.000 
#    0.000    0.000    0.000    0.000    0.000    0.000 
#
# Total GULP energy -200434.047575 kJ/mol
# GULP energy per Si atom -5567.612433 kJ/mol
# Density = 2.078969 g / cm^3
# Si number density = 20.837115 Si / 1000 Ang^3
#
#
#
# Elastic Constant Matrix: (Units=GPa)
#
#
# Indices 1 2 3 4 5 6 
#
# 1 117.5972 46.5354 31.1212 0.0000 0.0000 0.0000
# 2 46.5354 110.4500 27.8867 0.0000 0.0000 0.0000
# 3 31.1212 27.8867 72.9004 0.0000 0.0000 0.0000
# 4 0.0000 0.0000 0.0000 12.7947 0.0000 0.0000
# 5 0.0000 0.0000 0.0000 0.0000 -1.9683 0.0000
# 6 0.0000 0.0000 0.0000 0.0000 0.0000 17.5301
#
#
#
# Elastic Compliance Matrix: (Units=1/GPa)
#
#
# Indices 1 2 3 4 5 6 
#
# 1 0.010835 -0.003760 -0.003187 0.000000 0.000000 0.000000
# 2 -0.003760 0.011327 -0.002728 0.000000 0.000000 0.000000
# 3 -0.003187 -0.002728 0.016121 0.000000 0.000000 0.000000
# 4 0.000000 0.000000 0.000000 0.078158 0.000000 0.000000
# 5 0.000000 0.000000 0.000000 0.000000 -0.508052 0.000000
# 6 0.000000 0.000000 0.000000 0.000000 0.000000 0.057045
#
#
# Mechanical properties :
#
#
# Convention : Reuss Voigt Hill
#
# Bulk Modulus (GPa) = 52.81722 56.89268 54.85495
# Shear Modulus (GPa) = -16.18619 18.69825 1.25603
#
# Velocity S-wave (km/s) = -2.79013 2.99884 0.77724
# Velocity P-wave (km/s) = 3.87594 6.27324 5.21423
#
# Compressibility (1/GPa) = 0.01893322
#
# Stress axis : x y z
#
# Youngs Moduli (GPa) = 92.29274 88.28548 62.02992
#
# Poissons Ratio (x) = 0.33199 0.19769
# Poissons Ratio (y) = 0.34706 0.16919
# Poissons Ratio (z) = 0.29414 0.24080
#
# Static dielectric constant tensor:
#      x y z
#    x 1.812660 0.000000 0.000000 
#    y 0.000000 1.856500 0.000000 
#    z 0.000000 0.000000 1.757300 
# 
# From -- ./inp_files/13105.got.cif
#   From: 2010.05.17/outbox.cif.g08.bks.cpg/sg52_7_cif.got.tgz:13105.got - 2010.06.03 12:15:38.
