data_PCOD9408233
_publ_section_title
;
Structure prediction by ZEFSAII (Michael W. Deem and Ramdas Pophale) SiO2 
 PCOD9408233
Probable space group: P N N A
;
_chemical_formula_sum "Si O2"
_cell_formula_units_Z 40
_cell_length_a 9.138949
_cell_length_b 18.444192
_cell_length_c 10.341830
_cell_angle_alpha 90.000000
_cell_angle_beta 90.000000
_cell_angle_gamma 90.000000
_cell_volume 1743.224346
_symmetry_space_group_name_H-M "P N N A"
_symmetry_group_IT_number 52
_symmetry_cell_setting 'orthorhombic'
loop_
_space_group_symop_operation_xyz
x,y,z
1/2-x,-y,z
x,1/2-y,1/2-z
1/2-x,1/2+y,1/2-z
-x,-y,-z
1/2+x,y,-z
-x,1/2+y,1/2+z
1/2+x,1/2-y,1/2+z
loop_
_atom_site_type_symbol
_atom_site_label
_atom_site_fract_x
_atom_site_fract_y
_atom_site_fract_z
Si Si1 0.833756 0.236953 0.600698
Si Si2 0.607855 0.453249 0.241965
Si Si3 0.378857 0.675547 0.571302
Si Si4 0.370443 0.550600 0.380041
Si Si5 0.186462 0.926235 0.384622
O O1 0.782434 0.250000 0.750000
O O2 0.758012 0.287051 0.494806
O O3 0.801035 0.154215 0.561305
O O4 0.000897 0.263753 0.599646
O O5 0.750000 0.500000 0.214128
O O6 0.647270 0.376211 0.306196
O O7 0.505233 0.501407 0.337024
O O8 0.487408 0.437445 0.132331
O O9 0.426580 0.617617 0.461701
O O10 0.250000 0.500000 0.451934
O O11 0.275637 0.576076 0.253692
O O12 0.250000 0.000000 0.444309
#
# Coordination Sequence:
#
# PCOD9408233 Si02
#       5
#     8   8   8   8   8
#     4  12  23  43  60  90 132 159 206 256 310 369
#     4  10  18  30  55  94 123 145 197 255 311 373
#     4  12  21  34  63  91 125 163 196 250 317 366
#     4   9  17  32  56  88 124 158 189 241 321 385
#     4   9  20  41  63  81 121 172 201 247 310 366
#
# _framework density 22.945983999999999
#
# number of rings (size 3 to 8) (size 9 to 14) (size 15 to 20)
#    0.000    2.000    4.000    3.600    0.000    0.000 
#    0.000    6.000    0.000    0.000    0.000    0.000 
#    0.000    0.000    0.000    0.000    0.000    0.000 
#
# Total GULP energy -223291.803655 kJ/mol
# GULP energy per Si atom -5582.295091 kJ/mol
# Density = 2.289376 g / cm^3
# Si number density = 22.945984 Si / 1000 Ang^3
#
#
#
# Elastic Constant Matrix: (Units=GPa)
#
#
# Indices 1 2 3 4 5 6 
#
# 1 111.7941 33.1622 36.5159 0.0000 0.0000 0.0000
# 2 33.1622 119.3250 21.1068 0.0000 0.0000 0.0000
# 3 36.5159 21.1068 52.4415 0.0000 0.0000 0.0000
# 4 0.0000 0.0000 0.0000 21.1288 0.0000 0.0000
# 5 0.0000 0.0000 0.0000 0.0000 15.9080 0.0000
# 6 0.0000 0.0000 0.0000 0.0000 0.0000 44.0740
#
#
#
# Elastic Compliance Matrix: (Units=1/GPa)
#
#
# Indices 1 2 3 4 5 6 
#
# 1 0.012006 -0.002000 -0.007555 0.000000 0.000000 0.000000
# 2 -0.002000 0.009356 -0.002373 0.000000 0.000000 0.000000
# 3 -0.007555 -0.002373 0.025285 0.000000 0.000000 0.000000
# 4 0.000000 0.000000 0.000000 0.047329 0.000000 0.000000
# 5 0.000000 0.000000 0.000000 0.000000 0.062862 0.000000
# 6 0.000000 0.000000 0.000000 0.000000 0.000000 0.022689
#
#
# Mechanical properties :
#
#
# Convention : Reuss Voigt Hill
#
# Bulk Modulus (GPa) = 43.87784 51.68117 47.77950
# Shear Modulus (GPa) = 23.69901 29.07386 26.38644
#
# Velocity S-wave (km/s) = 3.21723 3.56344 3.39475
# Velocity P-wave (km/s) = 5.74148 6.28511 6.01943
#
# Compressibility (1/GPa) = 0.02279055
#
# Stress axis : x y z
#
# Youngs Moduli (GPa) = 83.29094 106.88208 39.54983
#
# Poissons Ratio (x) = 0.21380 0.29880
# Poissons Ratio (y) = 0.16661 0.09384
# Poissons Ratio (z) = 0.62926 0.25361
#
# Static dielectric constant tensor:
#      x y z
#    x 1.828700 0.000000 0.000000 
#    y 0.000000 1.860850 0.000000 
#    z 0.000000 0.000000 1.967550 
# 
# From -- ./inp_files/16637.got.cif
#   From: 2010.05.17/outbox.cif.g08.bks.cpg/sg52_9_cif.got.tgz:16637.got - 2010.06.03 12:15:38.
