data_PCOD9408058
_publ_section_title
;
Structure prediction by ZEFSAII (Michael W. Deem and Ramdas Pophale) SiO2 
 PCOD9408058
Probable space group: P N N A
;
_chemical_formula_sum "Si O2"
_cell_formula_units_Z 64
_cell_length_a 7.962949
_cell_length_b 16.908628
_cell_length_c 27.417624
_cell_angle_alpha 90.000000
_cell_angle_beta 90.000000
_cell_angle_gamma 90.000000
_cell_volume 3691.578603
_symmetry_space_group_name_H-M "P N N A"
_symmetry_group_IT_number 52
_symmetry_cell_setting 'orthorhombic'
loop_
_space_group_symop_operation_xyz
x,y,z
1/2-x,-y,z
x,1/2-y,1/2-z
1/2-x,1/2+y,1/2-z
-x,-y,-z
1/2+x,y,-z
-x,1/2+y,1/2+z
1/2+x,1/2-y,1/2+z
loop_
_atom_site_type_symbol
_atom_site_label
_atom_site_fract_x
_atom_site_fract_y
_atom_site_fract_z
Si Si1 0.404609 0.083980 0.279655
Si Si2 0.449677 0.315426 0.953375
Si Si3 0.442876 0.982583 0.423719
Si Si4 0.255565 0.811259 0.204595
Si Si5 0.940804 0.651910 0.052984
Si Si6 0.543702 0.072519 0.679663
Si Si7 0.433965 0.254270 0.846868
Si Si8 0.546153 0.280623 0.159323
O O1 0.314316 0.109447 0.229712
O O2 0.246120 0.085354 0.317622
O O3 0.531609 0.150472 0.299482
O O4 0.482455 0.996394 0.280578
O O5 0.549258 0.397326 0.948212
O O6 0.256861 0.338351 0.949833
O O7 0.481197 0.264132 0.904603
O O8 0.483689 0.294256 0.009595
O O9 0.519381 0.058525 0.449706
O O10 0.250000 0.000000 0.417089
O O11 0.518960 0.968072 0.370204
O O12 0.268935 0.750000 0.250000
O O13 0.435227 0.806485 0.177834
O O14 0.105007 0.778736 0.171235
O O15 0.990386 0.680623 0.106809
O O16 0.467904 0.159989 0.678859
O O17 0.233119 0.242819 0.841654
#
# Coordination Sequence:
#
# PCOD9408058 Si02
#       8
#     8   8   8   8   8   8   8   8
#     4  10  18  33  49  72  91 128 168 201 259 297
#     4  10  23  30  45  64  87 125 166 205 246 282
#     4  11  18  28  45  59  90 124 156 204 247 273
#     4  10  20  34  52  69  96 128 168 207 256 302
#     4  11  20  33  43  64  89 122 168 205 243 286
#     4  10  17  31  51  69  94 128 164 210 248 289
#     4  10  21  34  51  72  96 130 169 207 251 295
#     4  10  20  33  50  68  95 128 166 209 244 295
#
# _framework density 17.336756000000001
#
# number of rings (size 3 to 8) (size 9 to 14) (size 15 to 20)
#    0.000    1.750    5.000    1.500    3.500    2.000 
#    0.000    0.000    0.000    0.000    0.000    0.000 
#    0.000    0.000    0.000    4.500    2.000    0.000 
#
# Total GULP energy -356327.161462 kJ/mol
# GULP energy per Si atom -5567.611898 kJ/mol
# Density = 1.729730 g / cm^3
# Si number density = 17.336756 Si / 1000 Ang^3
#
#
#
# Elastic Constant Matrix: (Units=GPa)
#
#
# Indices 1 2 3 4 5 6 
#
# 1 48.9165 1.9321 22.6916 0.0000 0.0000 0.0000
# 2 1.9321 21.5177 11.9510 0.0000 0.0000 0.0000
# 3 22.6916 11.9510 61.1976 0.0000 0.0000 0.0000
# 4 0.0000 0.0000 0.0000 20.3867 0.0000 0.0000
# 5 0.0000 0.0000 0.0000 0.0000 35.0025 0.0000
# 6 0.0000 0.0000 0.0000 0.0000 0.0000 19.3528
#
#
#
# Elastic Compliance Matrix: (Units=1/GPa)
#
#
# Indices 1 2 3 4 5 6 
#
# 1 0.024890 0.003243 -0.009862 0.000000 0.000000 0.000000
# 2 0.003243 0.052550 -0.011465 0.000000 0.000000 0.000000
# 3 -0.009862 -0.011465 0.022236 0.000000 0.000000 0.000000
# 4 0.000000 0.000000 0.000000 0.049052 0.000000 0.000000
# 5 0.000000 0.000000 0.000000 0.000000 0.028569 0.000000
# 6 0.000000 0.000000 0.000000 0.000000 0.000000 0.051672
#
#
# Mechanical properties :
#
#
# Convention : Reuss Voigt Hill
#
# Bulk Modulus (GPa) = 15.74619 22.75346 19.24982
# Shear Modulus (GPa) = 17.46383 21.28554 19.37469
#
# Velocity S-wave (km/s) = 3.17729 3.50776 3.34660
# Velocity P-wave (km/s) = 4.75000 5.43679 5.10496
#
# Compressibility (1/GPa) = 0.06350743
#
# Stress axis : x y z
#
# Youngs Moduli (GPa) = 40.17703 19.02966 44.97173
#
# Poissons Ratio (x) = -0.06171 0.44352
# Poissons Ratio (y) = -0.13028 0.51558
# Poissons Ratio (z) = 0.39623 0.21817
#
# Static dielectric constant tensor:
#      x y z
#    x 1.620650 0.000000 0.000000 
#    y 0.000000 1.634860 0.000000 
#    z 0.000000 0.000000 1.696050 
# 
# From -- ./inp_files/39763.got.cif
#   From: 2010.05.17/outbox.cif.g08.bks.cpg/sg52_20_cif.got.tgz:39763.got - 2010.06.03 12:15:38.
