data_PCOD9408429
_publ_section_title
;
Structure prediction by ZEFSAII (Michael W. Deem and Ramdas Pophale) SiO2 
 PCOD9408429
Probable space group: P N N A
;
_chemical_formula_sum "Si O2"
_cell_formula_units_Z 44
_cell_length_a 13.506974
_cell_length_b 11.944930
_cell_length_c 10.970613
_cell_angle_alpha 90.000000
_cell_angle_beta 90.000000
_cell_angle_gamma 90.000000
_cell_volume 1769.997154
_symmetry_space_group_name_H-M "P N N A"
_symmetry_group_IT_number 52
_symmetry_cell_setting 'orthorhombic'
loop_
_space_group_symop_operation_xyz
x,y,z
1/2-x,-y,z
x,1/2-y,1/2-z
1/2-x,1/2+y,1/2-z
-x,-y,-z
1/2+x,y,-z
-x,1/2+y,1/2+z
1/2+x,1/2-y,1/2+z
loop_
_atom_site_type_symbol
_atom_site_label
_atom_site_fract_x
_atom_site_fract_y
_atom_site_fract_z
Si Si1 0.003439 0.750000 0.250000
Si Si2 0.660415 0.824888 0.552234
Si Si3 0.856830 0.416292 0.452799
Si Si4 0.579959 0.146538 0.028193
Si Si5 0.573004 0.620873 0.202873
Si Si6 0.135605 0.341022 0.145189
O O1 0.075888 0.810575 0.346158
O O2 0.936133 0.833490 0.171540
O O3 0.688476 0.696710 0.509373
O O4 0.620400 0.882854 0.430404
O O5 0.756846 0.882029 0.607974
O O6 0.846098 0.543736 0.499685
O O7 0.854759 0.426011 0.306425
O O8 0.973580 0.389735 0.476198
O O9 0.599978 0.266409 0.969074
O O10 0.563565 0.750000 0.250000
O O11 0.457431 0.584152 0.188949
O O12 0.154494 0.250000 0.250000
#
# Coordination Sequence:
#
# PCOD9408429 Si02
#       6
#     4   8   8   8   8   8
#     4  10  18  34  50  84 112 138 186 226 282 336
#     4  10  19  32  56  80 112 144 185 230 274 332
#     4   9  18  35  56  81 108 140 183 231 273 322
#     4  10  19  33  57  82 106 143 184 228 273 332
#     4   9  16  35  53  79 108 145 182 218 282 334
#     4  11  18  32  57  81 105 147 185 225 277 337
#
# _framework density 24.858798
#
# number of rings (size 3 to 8) (size 9 to 14) (size 15 to 20)
#    0.000    2.182    8.182    0.000    0.000    0.727 
#    4.909    0.909    0.000    1.091    0.000    0.000 
#    0.000    0.000    0.000    0.000    0.000    0.000 
#
# Total GULP energy -245559.107509 kJ/mol
# GULP energy per Si atom -5580.888807 kJ/mol
# Density = 2.480222 g / cm^3
# Si number density = 24.858798 Si / 1000 Ang^3
#
#
#
# Elastic Constant Matrix: (Units=GPa)
#
#
# Indices 1 2 3 4 5 6 
#
# 1 64.2905 16.4383 2.0107 0.0000 0.0000 0.0000
# 2 16.4383 82.7144 2.5123 0.0000 0.0000 0.0000
# 3 2.0107 2.5123 121.7768 0.0000 0.0000 0.0000
# 4 0.0000 0.0000 0.0000 -0.9930 0.0000 0.0000
# 5 0.0000 0.0000 0.0000 0.0000 11.9464 0.0000
# 6 0.0000 0.0000 0.0000 0.0000 0.0000 -9.4286
#
#
#
# Elastic Compliance Matrix: (Units=1/GPa)
#
#
# Indices 1 2 3 4 5 6 
#
# 1 0.016392 -0.003252 -0.000204 0.000000 0.000000 0.000000
# 2 -0.003252 0.012742 -0.000209 0.000000 0.000000 0.000000
# 3 -0.000204 -0.000209 0.008219 0.000000 0.000000 0.000000
# 4 0.000000 0.000000 0.000000 -1.007089 0.000000 0.000000
# 5 0.000000 0.000000 0.000000 0.000000 0.083707 0.000000
# 6 0.000000 0.000000 0.000000 0.000000 0.000000 -0.106060
#
#
# Mechanical properties :
#
#
# Convention : Reuss Voigt Hill
#
# Bulk Modulus (GPa) = 33.30520 34.52268 33.91394
# Shear Modulus (GPa) = -5.12952 16.82632 5.84840
#
# Velocity S-wave (km/s) = -1.43803 2.60451 1.53550
# Velocity P-wave (km/s) = 3.26643 4.79190 4.10072
#
# Compressibility (1/GPa) = 0.03002534
#
# Stress axis : x y z
#
# Youngs Moduli (GPa) = 61.00483 78.47848 121.66304
#
# Poissons Ratio (x) = 0.25517 0.02477
# Poissons Ratio (y) = 0.19836 0.02545
# Poissons Ratio (z) = 0.01242 0.01642
#
# Static dielectric constant tensor:
#      x y z
#    x 2.041110 0.000000 0.000000 
#    y 0.000000 2.083260 0.000000 
#    z 0.000000 0.000000 2.095020 
# 
# From -- ./inp_files/19451.got.cif
#   From: 2010.05.17/outbox.cif.g08.bks.cpg/sg52_10_cif.got.tgz:19451.got - 2010.06.03 12:15:38.
