data_PCOD9408580
_publ_section_title
;
Structure prediction by ZEFSAII (Michael W. Deem and Ramdas Pophale) SiO2 
 PCOD9408580
Probable space group: P N N A
;
_chemical_formula_sum "Si O2"
_cell_formula_units_Z 56
_cell_length_a 8.304526
_cell_length_b 15.975941
_cell_length_c 18.031913
_cell_angle_alpha 90.000000
_cell_angle_beta 90.000000
_cell_angle_gamma 90.000000
_cell_volume 2392.341095
_symmetry_space_group_name_H-M "P N N A"
_symmetry_group_IT_number 52
_symmetry_cell_setting 'orthorhombic'
loop_
_space_group_symop_operation_xyz
x,y,z
1/2-x,-y,z
x,1/2-y,1/2-z
1/2-x,1/2+y,1/2-z
-x,-y,-z
1/2+x,y,-z
-x,1/2+y,1/2+z
1/2+x,1/2-y,1/2+z
loop_
_atom_site_type_symbol
_atom_site_label
_atom_site_fract_x
_atom_site_fract_y
_atom_site_fract_z
Si Si1 0.156705 0.084860 0.599871
Si Si2 0.189893 0.649012 0.761184
Si Si3 0.380411 0.729902 0.416055
Si Si4 0.300422 0.750000 0.250000
Si Si5 0.339936 0.922054 0.264382
Si Si6 0.886463 0.164449 0.519383
Si Si7 0.250000 0.500000 0.641217
Si Si8 0.587889 0.042228 0.908028
O O1 0.181807 0.137991 0.673566
O O2 0.255692 0.119571 0.530439
O O3 0.976181 0.096709 0.570663
O O4 0.250000 0.000000 0.617765
O O5 0.184148 0.750000 0.750000
O O6 0.237048 0.584962 0.693121
O O7 0.016038 0.610975 0.789944
O O8 0.393426 0.732069 0.327144
O O9 0.498205 0.790417 0.460103
O O10 0.201665 0.762903 0.434016
O O11 0.418471 0.635710 0.439633
O O12 0.224152 0.840678 0.263934
O O13 0.378611 0.948624 0.180402
O O14 0.250000 0.000000 0.301265
O O15 0.413852 0.501763 0.592410
O O16 0.750000 0.000000 0.937525
#
# Coordination Sequence:
#
# PCOD9408580 Si02
#       8
#     8   8   8   4   8   8   4   8
#     4  11  23  43  66  96 140 188 242 293 358 460
#     4  11  22  39  66 103 142 184 235 303 380 436
#     4  10  22  44  67  98 135 182 243 292 367 439
#     4  10  18  36  66  98 126 178 238 294 354 426
#     4   9  18  33  59  94 134 174 218 291 364 429
#     4  10  24  43  67  95 140 192 229 299 369 449
#     4  10  22  40  68 104 146 186 232 308 388 428
#     4   9  20  40  65  94 139 176 232 305 358 431
#
# _framework density 23.408034000000001
#
# number of rings (size 3 to 8) (size 9 to 14) (size 15 to 20)
#    0.000    2.000    1.429    1.286    4.000    2.286 
#    9.000    4.286    0.000    0.000    0.000    0.000 
#    0.000    0.000    0.000    0.000    0.000    0.000 
#
# Total GULP energy -312007.176918 kJ/mol
# GULP energy per Si atom -5571.556731 kJ/mol
# Density = 2.335476 g / cm^3
# Si number density = 23.408034 Si / 1000 Ang^3
#
#
#
# Elastic Constant Matrix: (Units=GPa)
#
#
# Indices 1 2 3 4 5 6 
#
# 1 99.1495 53.0917 32.3227 0.0000 0.0000 0.0000
# 2 53.0917 149.5240 17.0827 0.0000 0.0000 0.0000
# 3 32.3227 17.0827 76.5445 0.0000 0.0000 0.0000
# 4 0.0000 0.0000 0.0000 37.1484 0.0000 0.0000
# 5 0.0000 0.0000 0.0000 0.0000 38.5591 0.0000
# 6 0.0000 0.0000 0.0000 0.0000 0.0000 27.9768
#
#
#
# Elastic Compliance Matrix: (Units=1/GPa)
#
#
# Indices 1 2 3 4 5 6 
#
# 1 0.014073 -0.004431 -0.004954 0.000000 0.000000 0.000000
# 2 -0.004431 0.008258 0.000028 0.000000 0.000000 0.000000
# 3 -0.004954 0.000028 0.015150 0.000000 0.000000 0.000000
# 4 0.000000 0.000000 0.000000 0.026919 0.000000 0.000000
# 5 0.000000 0.000000 0.000000 0.000000 0.025934 0.000000
# 6 0.000000 0.000000 0.000000 0.000000 0.000000 0.035744
#
#
# Mechanical properties :
#
#
# Convention : Reuss Voigt Hill
#
# Bulk Modulus (GPa) = 53.28313 58.91244 56.09779
# Shear Modulus (GPa) = 33.10199 35.58493 34.34346
#
# Velocity S-wave (km/s) = 3.76457 3.90321 3.83451
# Velocity P-wave (km/s) = 6.45819 6.74801 6.60469
#
# Compressibility (1/GPa) = 0.01876766
#
# Stress axis : x y z
#
# Youngs Moduli (GPa) = 71.05555 121.09415 66.00690
#
# Poissons Ratio (x) = 0.53658 0.32700
# Poissons Ratio (y) = 0.31486 -0.00186
# Poissons Ratio (z) = 0.35201 -0.00341
#
# Static dielectric constant tensor:
#      x y z
#    x 1.979690 0.000000 0.000000 
#    y 0.000000 2.016490 0.000000 
#    z 0.000000 0.000000 1.912830 
# 
# From -- ./inp_files/36072.got.cif
#   From: 2010.05.17/outbox.cif.g08.bks.cpg/sg52_19_cif.got.tgz:36072.got - 2010.06.03 12:15:38.
