data_PCOD9408028
_publ_section_title
;
Structure prediction by ZEFSAII (Michael W. Deem and Ramdas Pophale) SiO2 
 PCOD9408028
Probable space group: P N N A
;
_chemical_formula_sum "Si O2"
_cell_formula_units_Z 24
_cell_length_a 11.318441
_cell_length_b 11.302732
_cell_length_c 7.488318
_cell_angle_alpha 90.000000
_cell_angle_beta 90.000000
_cell_angle_gamma 90.000000
_cell_volume 957.975319
_symmetry_space_group_name_H-M "P N N A"
_symmetry_group_IT_number 52
_symmetry_cell_setting 'orthorhombic'
loop_
_space_group_symop_operation_xyz
x,y,z
1/2-x,-y,z
x,1/2-y,1/2-z
1/2-x,1/2+y,1/2-z
-x,-y,-z
1/2+x,y,-z
-x,1/2+y,1/2+z
1/2+x,1/2-y,1/2+z
loop_
_atom_site_type_symbol
_atom_site_label
_atom_site_fract_x
_atom_site_fract_y
_atom_site_fract_z
Si Si1 0.154334 0.086695 0.893830
Si Si2 0.409911 0.458069 0.226927
Si Si3 0.314913 0.820421 0.412109
O O1 0.035749 0.093629 0.779163
O O2 0.250000 0.000000 0.802045
O O3 0.197320 0.218977 0.940551
O O4 0.127961 0.017664 0.081632
O O5 0.395989 0.563387 0.082679
O O6 0.312769 0.365278 0.157058
O O7 0.374856 0.750000 0.250000
#
# Coordination Sequence:
#
# PCOD9408028 Si02
#       3
#     8   8   8
#     4  10  17  29  55  82 101 149 204 233 290 359
#     4   9  17  29  52  78 105 151 193 237 292 352
#     4   9  15  31  51  77 112 148 191 238 295 345
#
# _framework density 25.052838999999999
#
# number of rings (size 3 to 8) (size 9 to 14) (size 15 to 20)
#    0.000    2.667    6.667    0.000    0.000    0.000 
#    0.000    0.000    0.000   44.000    0.000    0.000 
#    0.000    0.000    0.000    0.000    0.000    0.000 
#
# Total GULP energy -133901.683925 kJ/mol
# GULP energy per Si atom -5579.236830 kJ/mol
# Density = 2.499582 g / cm^3
# Si number density = 25.052839 Si / 1000 Ang^3
#
#
#
# Elastic Constant Matrix: (Units=GPa)
#
#
# Indices 1 2 3 4 5 6 
#
# 1 171.1871 107.4212 41.0854 0.0000 0.0000 0.0000
# 2 107.4212 212.2110 37.7975 0.0000 0.0000 0.0000
# 3 41.0854 37.7975 121.8633 0.0000 0.0000 0.0000
# 4 0.0000 0.0000 0.0000 4.0249 0.0000 0.0000
# 5 0.0000 0.0000 0.0000 0.0000 18.6434 0.0000
# 6 0.0000 0.0000 0.0000 0.0000 0.0000 24.7227
#
#
#
# Elastic Compliance Matrix: (Units=1/GPa)
#
#
# Indices 1 2 3 4 5 6 
#
# 1 0.008879 -0.004193 -0.001693 0.000000 0.000000 0.000000
# 2 -0.004193 0.006968 -0.000748 0.000000 0.000000 0.000000
# 3 -0.001693 -0.000748 0.009009 0.000000 0.000000 0.000000
# 4 0.000000 0.000000 0.000000 0.248454 0.000000 0.000000
# 5 0.000000 0.000000 0.000000 0.000000 0.053638 0.000000
# 6 0.000000 0.000000 0.000000 0.000000 0.000000 0.040449
#
#
# Mechanical properties :
#
#
# Convention : Reuss Voigt Hill
#
# Bulk Modulus (GPa) = 86.29304 97.54106 91.91705
# Shear Modulus (GPa) = 13.00301 30.74201 21.87251
#
# Velocity S-wave (km/s) = 2.28068 3.50678 2.95796
# Velocity P-wave (km/s) = 6.43852 7.44415 6.95952
#
# Compressibility (1/GPa) = 0.01158842
#
# Stress axis : x y z
#
# Youngs Moduli (GPa) = 112.62477 143.51423 111.00560
#
# Poissons Ratio (x) = 0.60176 0.18793
# Poissons Ratio (y) = 0.47224 0.08298
# Poissons Ratio (z) = 0.19067 0.10728
#
# Static dielectric constant tensor:
#      x y z
#    x 1.991440 0.000000 0.000000 
#    y 0.000000 2.028690 0.000000 
#    z 0.000000 0.000000 2.071020 
# 
# From -- ./inp_files/7966.got.cif
#   From: 2010.05.17/outbox.cif.g08.bks.cpg/sg52_4_cif.got.tgz:7966.got - 2010.06.03 12:15:38.
