data_PCOD9408359
_publ_section_title
;
Structure prediction by ZEFSAII (Michael W. Deem and Ramdas Pophale) SiO2 
 PCOD9408359
Probable space group: P N N A
;
_chemical_formula_sum "Si O2"
_cell_formula_units_Z 32
_cell_length_a 11.068642
_cell_length_b 7.998452
_cell_length_c 15.212311
_cell_angle_alpha 90.000000
_cell_angle_beta 90.000000
_cell_angle_gamma 90.000000
_cell_volume 1346.776344
_symmetry_space_group_name_H-M "P N N A"
_symmetry_group_IT_number 52
_symmetry_cell_setting 'orthorhombic'
loop_
_space_group_symop_operation_xyz
x,y,z
1/2-x,-y,z
x,1/2-y,1/2-z
1/2-x,1/2+y,1/2-z
-x,-y,-z
1/2+x,y,-z
-x,1/2+y,1/2+z
1/2+x,1/2-y,1/2+z
loop_
_atom_site_type_symbol
_atom_site_label
_atom_site_fract_x
_atom_site_fract_y
_atom_site_fract_z
Si Si1 0.279442 0.302814 0.342572
Si Si2 0.147657 0.122323 0.672756
Si Si3 0.187369 0.819849 0.963634
Si Si4 0.489571 0.815169 0.346433
O O1 0.250000 0.500000 0.335156
O O2 0.336435 0.250000 0.250000
O O3 0.341370 0.273906 0.435688
O O4 0.153046 0.203931 0.352205
O O5 0.115635 0.250000 0.750000
O O6 0.216610 0.204880 0.589667
O O7 0.250000 0.000000 0.713194
O O8 0.039418 0.002075 0.643481
O O9 0.061652 0.803998 0.912546
O O10 0.250000 0.000000 0.963875
O O11 0.523668 0.750000 0.250000
#
# Coordination Sequence:
#
# PCOD9408359 Si02
#       4
#     8   8   8   8
#     4  10  24  44  63  86 125 169 208 259 316 373
#     4  10  18  32  59  94 132 165 201 261 315 365
#     4  10  20  36  62  93 127 163 206 258 314 370
#     4  10  21  39  62  92 126 162 211 256 307 378
#
# _framework density 23.760439999999999
#
# number of rings (size 3 to 8) (size 9 to 14) (size 15 to 20)
#    0.000    2.000    0.000    5.250    0.000    8.000 
#    0.000   12.500    0.000    1.500    0.000    0.000 
#    0.000    0.000    0.000    0.000    0.000    0.000 
#
# Total GULP energy -179071.198102 kJ/mol
# GULP energy per Si atom -5595.974941 kJ/mol
# Density = 2.370636 g / cm^3
# Si number density = 23.760440 Si / 1000 Ang^3
#
#
#
# Elastic Constant Matrix: (Units=GPa)
#
#
# Indices 1 2 3 4 5 6 
#
# 1 67.6382 18.1473 16.5941 0.0000 0.0000 0.0000
# 2 18.1473 68.7646 2.1088 0.0000 0.0000 0.0000
# 3 16.5941 2.1088 189.5563 0.0000 0.0000 0.0000
# 4 0.0000 0.0000 0.0000 12.9829 0.0000 0.0000
# 5 0.0000 0.0000 0.0000 0.0000 15.2563 0.0000
# 6 0.0000 0.0000 0.0000 0.0000 0.0000 16.4844
#
#
#
# Elastic Compliance Matrix: (Units=1/GPa)
#
#
# Indices 1 2 3 4 5 6 
#
# 1 0.016262 -0.004250 -0.001376 0.000000 0.000000 0.000000
# 2 -0.004250 0.015658 0.000198 0.000000 0.000000 0.000000
# 3 -0.001376 0.000198 0.005394 0.000000 0.000000 0.000000
# 4 0.000000 0.000000 0.000000 0.077025 0.000000 0.000000
# 5 0.000000 0.000000 0.000000 0.000000 0.065547 0.000000
# 6 0.000000 0.000000 0.000000 0.000000 0.000000 0.060663
#
#
# Mechanical properties :
#
#
# Convention : Reuss Voigt Hill
#
# Bulk Modulus (GPa) = 37.79606 44.40663 41.10135
# Shear Modulus (GPa) = 19.21420 28.21862 23.71641
#
# Velocity S-wave (km/s) = 2.84679 3.44994 3.16277
# Velocity P-wave (km/s) = 5.17178 5.88212 5.53835
#
# Compressibility (1/GPa) = 0.02645778
#
# Stress axis : x y z
#
# Youngs Moduli (GPa) = 61.49168 63.86609 185.39920
#
# Poissons Ratio (x) = 0.27140 0.25518
# Poissons Ratio (y) = 0.26131 -0.03667
# Poissons Ratio (z) = 0.08463 -0.01263
#
# Static dielectric constant tensor:
#      x y z
#    x 1.899180 0.000000 0.000000 
#    y 0.000000 1.921760 0.000000 
#    z 0.000000 0.000000 1.897370 
# 
# From -- ./inp_files/25454.got.cif
#   From: 2010.05.17/outbox.cif.g08.bks.cpg/sg52_13_cif.got.tgz:25454.got - 2010.06.03 12:15:38.
