data_PCOD9408588
_publ_section_title
;
Structure prediction by ZEFSAII (Michael W. Deem and Ramdas Pophale) SiO2 
 PCOD9408588
Probable space group: P N N A
;
_chemical_formula_sum "Si O2"
_cell_formula_units_Z 60
_cell_length_a 8.339159
_cell_length_b 17.778722
_cell_length_c 15.914055
_cell_angle_alpha 90.000000
_cell_angle_beta 90.000000
_cell_angle_gamma 90.000000
_cell_volume 2359.411263
_symmetry_space_group_name_H-M "P N N A"
_symmetry_group_IT_number 52
_symmetry_cell_setting 'orthorhombic'
loop_
_space_group_symop_operation_xyz
x,y,z
1/2-x,-y,z
x,1/2-y,1/2-z
1/2-x,1/2+y,1/2-z
-x,-y,-z
1/2+x,y,-z
-x,1/2+y,1/2+z
1/2+x,1/2-y,1/2+z
loop_
_atom_site_type_symbol
_atom_site_label
_atom_site_fract_x
_atom_site_fract_y
_atom_site_fract_z
Si Si1 0.313410 0.680598 0.308101
Si Si2 0.454252 0.903890 0.909768
Si Si3 0.250000 0.500000 0.458823
Si Si4 0.057921 0.167099 0.751731
Si Si5 0.609514 0.913096 0.614615
Si Si6 0.951816 0.578957 0.814560
Si Si7 0.583444 0.240335 0.981719
Si Si8 0.673635 0.851394 0.440169
O O1 0.373675 0.750000 0.250000
O O2 0.125244 0.673278 0.286989
O O3 0.417808 0.607854 0.279725
O O4 0.325956 0.700814 0.405274
O O5 0.373390 0.892270 0.818293
O O6 0.620622 0.950803 0.907253
O O7 0.346729 0.946581 0.977765
O O8 0.462954 0.820144 0.948538
O O9 0.132780 0.250000 0.750000
O O10 0.023249 0.138884 0.658429
O O11 0.788889 0.887682 0.641775
O O12 0.615406 0.909458 0.514044
O O13 0.570370 0.992528 0.658656
O O14 0.117850 0.608493 0.854185
O O15 0.428687 0.274943 0.938451
O O16 0.669792 0.312669 0.021041
#
# Coordination Sequence:
#
# PCOD9408588 Si02
#       8
#     8   8   4   8   8   8   8   8
#     4  10  18  37  59  97 122 168 223 280 319 401
#     4  11  23  42  67  98 128 179 223 285 350 420
#     4  10  24  42  66  96 134 170 228 288 348 418
#     4  10  20  37  66  91 125 167 226 275 329 401
#     4  10  21  38  61  95 126 174 221 274 335 410
#     4  10  21  37  64  92 132 168 222 279 334 402
#     4  12  23  37  70  95 132 166 225 279 343 402
#     4  12  21  40  62  98 128 173 214 279 331 410
#
# _framework density 25.430074000000001
#
# number of rings (size 3 to 8) (size 9 to 14) (size 15 to 20)
#    0.000    1.333    2.667    5.200    0.000    4.267 
#    0.000    0.000   20.533    0.000    0.000    0.000 
#    0.000    0.000    0.000    0.000    0.000    0.000 
#
# Total GULP energy -335018.470158 kJ/mol
# GULP energy per Si atom -5583.641169 kJ/mol
# Density = 2.537219 g / cm^3
# Si number density = 25.430074 Si / 1000 Ang^3
#
#
#
# Elastic Constant Matrix: (Units=GPa)
#
#
# Indices 1 2 3 4 5 6 
#
# 1 25.5157 5.8627 16.1525 0.0000 0.0000 0.0000
# 2 5.8627 117.4622 40.8994 0.0000 0.0000 0.0000
# 3 16.1525 40.8994 136.0908 0.0000 0.0000 0.0000
# 4 0.0000 0.0000 0.0000 28.8439 0.0000 0.0000
# 5 0.0000 0.0000 0.0000 0.0000 11.9539 0.0000
# 6 0.0000 0.0000 0.0000 0.0000 0.0000 20.7606
#
#
#
# Elastic Compliance Matrix: (Units=1/GPa)
#
#
# Indices 1 2 3 4 5 6 
#
# 1 0.042393 -0.000406 -0.004909 0.000000 0.000000 0.000000
# 2 -0.000406 0.009512 -0.002810 0.000000 0.000000 0.000000
# 3 -0.004909 -0.002810 0.008775 0.000000 0.000000 0.000000
# 4 0.000000 0.000000 0.000000 0.034669 0.000000 0.000000
# 5 0.000000 0.000000 0.000000 0.000000 0.083655 0.000000
# 6 0.000000 0.000000 0.000000 0.000000 0.000000 0.048168
#
#
# Mechanical properties :
#
#
# Convention : Reuss Voigt Hill
#
# Bulk Modulus (GPa) = 22.50849 44.98866 33.74857
# Shear Modulus (GPa) = 19.36221 26.72193 23.04207
#
# Velocity S-wave (km/s) = 2.76232 3.24512 3.01341
# Velocity P-wave (km/s) = 4.36397 5.63654 5.04058
#
# Compressibility (1/GPa) = 0.04442769
#
# Stress axis : x y z
#
# Youngs Moduli (GPa) = 23.58893 105.12755 113.95535
#
# Poissons Ratio (x) = 0.04273 0.55945
# Poissons Ratio (y) = 0.00959 0.32027
# Poissons Ratio (z) = 0.11581 0.29546
#
# Static dielectric constant tensor:
#      x y z
#    x 2.127810 0.000000 0.000000 
#    y 0.000000 2.029110 0.000000 
#    z 0.000000 0.000000 2.057530 
# 
# From -- ./inp_files/31496.got.cif
#   From: 2010.05.17/outbox.cif.g08.bks.cpg/sg52_16_cif.got.tgz:31496.got - 2010.06.03 12:15:38.
