data_PCOD9408471
_publ_section_title
;
Structure prediction by ZEFSAII (Michael W. Deem and Ramdas Pophale) SiO2 
 PCOD9408471
Probable space group: P N N A
;
_chemical_formula_sum "Si O2"
_cell_formula_units_Z 64
_cell_length_a 21.471028
_cell_length_b 8.203519
_cell_length_c 18.009879
_cell_angle_alpha 90.000000
_cell_angle_beta 90.000000
_cell_angle_gamma 90.000000
_cell_volume 3172.223818
_symmetry_space_group_name_H-M "P N N A"
_symmetry_group_IT_number 52
_symmetry_cell_setting 'orthorhombic'
loop_
_space_group_symop_operation_xyz
x,y,z
1/2-x,-y,z
x,1/2-y,1/2-z
1/2-x,1/2+y,1/2-z
-x,-y,-z
1/2+x,y,-z
-x,1/2+y,1/2+z
1/2+x,1/2-y,1/2+z
loop_
_atom_site_type_symbol
_atom_site_label
_atom_site_fract_x
_atom_site_fract_y
_atom_site_fract_z
Si Si1 0.878595 0.500649 0.390393
Si Si2 0.401927 0.026212 0.178909
Si Si3 0.927720 0.095658 0.662555
Si Si4 0.683100 0.083897 0.953131
Si Si5 0.684052 0.443281 0.243287
Si Si6 0.396587 0.886699 0.472084
Si Si7 0.500853 0.377564 0.570875
Si Si8 0.425034 0.874941 0.636626
O O1 0.849693 0.515460 0.472241
O O2 0.829946 0.476959 0.323731
O O3 0.930989 0.362924 0.399729
O O4 0.910473 0.678323 0.370483
O O5 0.404446 0.991935 0.266510
O O6 0.405494 0.220214 0.171797
O O7 0.347527 0.961853 0.125929
O O8 0.462811 0.956923 0.139176
O O9 0.003096 0.098630 0.657909
O O10 0.899252 0.027837 0.587336
O O11 0.665410 0.275686 0.962947
O O12 0.750000 0.000000 0.953568
O O13 0.750000 0.500000 0.211380
O O14 0.691341 0.250000 0.250000
O O15 0.622015 0.458236 0.194182
O O16 0.457324 0.774335 0.453345
O O17 0.407688 0.941327 0.555656
O O18 0.500000 0.500000 0.500000
#
# Coordination Sequence:
#
# PCOD9408471 Si02
#       8
#     8   8   8   8   8   8   8   8
#     4  10  18  34  61  86 108 156 197 239 280 349
#     4  10  21  35  60  84 114 154 189 238 292 363
#     4  11  21  37  57  90 119 147 191 240 312 356
#     4  10  21  39  59  81 112 155 204 239 287 350
#     4  10  22  39  57  80 118 161 197 232 270 345
#     4  10  22  36  59  90 117 152 190 257 293 345
#     4  11  16  33  57  88 116 140 197 240 290 347
#     4  10  19  35  61  83 120 155 191 234 303 349
#
# _framework density 20.175122000000002
#
# number of rings (size 3 to 8) (size 9 to 14) (size 15 to 20)
#    0.000    1.750    5.000    1.500    3.500    2.000 
#    2.250    6.875    0.000    0.000    0.000    0.000 
#    0.000    0.000    0.000    0.000    0.000    0.000 
#
# Total GULP energy -356919.700732 kJ/mol
# GULP energy per Si atom -5576.870324 kJ/mol
# Density = 2.012920 g / cm^3
# Si number density = 20.175122 Si / 1000 Ang^3
#
#
#
# Elastic Constant Matrix: (Units=GPa)
#
#
# Indices 1 2 3 4 5 6 
#
# 1 68.6223 7.8773 -9.0369 0.0000 0.0000 0.0000
# 2 7.8773 11.9800 7.1489 0.0000 0.0000 0.0000
# 3 -9.0369 7.1489 85.3457 0.0000 0.0000 0.0000
# 4 0.0000 0.0000 0.0000 23.4046 0.0000 0.0000
# 5 0.0000 0.0000 0.0000 0.0000 69.0384 0.0000
# 6 0.0000 0.0000 0.0000 0.0000 0.0000 7.7402
#
#
#
# Elastic Compliance Matrix: (Units=1/GPa)
#
#
# Indices 1 2 3 4 5 6 
#
# 1 0.016363 -0.012413 0.002772 0.000000 0.000000 0.000000
# 2 -0.012413 0.097282 -0.009463 0.000000 0.000000 0.000000
# 3 0.002772 -0.009463 0.012803 0.000000 0.000000 0.000000
# 4 0.000000 0.000000 0.000000 0.042727 0.000000 0.000000
# 5 0.000000 0.000000 0.000000 0.000000 0.014485 0.000000
# 6 0.000000 0.000000 0.000000 0.000000 0.000000 0.129196
#
#
# Mechanical properties :
#
#
# Convention : Reuss Voigt Hill
#
# Bulk Modulus (GPa) = 11.33278 19.76960 15.55119
# Shear Modulus (GPa) = 13.14143 30.70057 21.92100
#
# Velocity S-wave (km/s) = 2.55496 3.90513 3.29984
# Velocity P-wave (km/s) = 3.78592 5.49124 4.71629
#
# Compressibility (1/GPa) = 0.08823960
#
# Stress axis : x y z
#
# Youngs Moduli (GPa) = 61.11508 10.27940 78.10508
#
# Poissons Ratio (x) = 0.12760 -0.21653
# Poissons Ratio (y) = 0.75864 0.73911
# Poissons Ratio (z) = -0.16943 0.09727
#
# Static dielectric constant tensor:
#      x y z
#    x 1.814510 0.000000 0.000000 
#    y 0.000000 1.749350 0.000000 
#    z 0.000000 0.000000 1.761190 
# 
# From -- ./inp_files/34105.got.cif
#   From: 2010.05.17/outbox.cif.g08.bks.cpg/sg52_18_cif.got.tgz:34105.got - 2010.06.03 12:15:38.
