data_PCOD9409869
_publ_section_title
;
Structure prediction by ZEFSAII (Michael W. Deem and Ramdas Pophale) SiO2 
 PCOD9409869
Probable space group: P N N A
;
_chemical_formula_sum "Si O2"
_cell_formula_units_Z 44
_cell_length_a 29.986590
_cell_length_b 11.889467
_cell_length_c 5.426980
_cell_angle_alpha 90.000000
_cell_angle_beta 90.000000
_cell_angle_gamma 90.000000
_cell_volume 1934.851723
_symmetry_space_group_name_H-M "P N N A"
_symmetry_group_IT_number 52
_symmetry_cell_setting 'orthorhombic'
loop_
_space_group_symop_operation_xyz
x,y,z
1/2-x,-y,z
x,1/2-y,1/2-z
1/2-x,1/2+y,1/2-z
-x,-y,-z
1/2+x,y,-z
-x,1/2+y,1/2+z
1/2+x,1/2-y,1/2+z
loop_
_atom_site_type_symbol
_atom_site_label
_atom_site_fract_x
_atom_site_fract_y
_atom_site_fract_z
Si Si1 0.993324 0.175294 0.439656
Si Si2 0.772802 0.372855 0.191880
Si Si3 0.055633 0.459262 0.757787
Si Si4 0.890489 0.995167 0.760301
Si Si5 0.085441 0.750000 0.250000
Si Si6 0.200904 0.944695 0.186517
O O1 0.020651 0.250000 0.250000
O O2 0.976406 0.066964 0.288982
O O3 0.948306 0.236314 0.522295
O O4 0.020993 0.138221 0.676490
O O5 0.750000 0.500000 0.179871
O O6 0.749527 0.250000 0.250000
O O7 0.805813 0.386739 0.422492
O O8 0.795740 0.366660 0.926396
O O9 0.081254 0.456881 0.499157
O O10 0.088190 0.462712 0.997883
O O11 0.889955 0.131883 0.769558
O O12 0.838407 0.965011 0.775983
O O13 0.250000 0.000000 0.169584
#
# Coordination Sequence:
#
# PCOD9409869 Si02
#       6
#     8   8   8   8   4   8
#     4  10  20  37  57  87 123 163 206 248 319 398
#     4  10  21  38  63  97 128 170 222 274 340 408
#     4  10  23  36  60  84 128 164 198 258 323 389
#     4  11  22  39  56  96 125 158 211 271 327 381
#     4  10  22  32  60  90 126 152 206 272 324 382
#     4  10  22  40  64  92 131 173 217 276 341 404
#
# _framework density 22.740758
#
# number of rings (size 3 to 8) (size 9 to 14) (size 15 to 20)
#    0.000    1.818    1.818    1.636    5.091    2.182 
#    0.000    0.000    0.000   17.455    2.364    0.000 
#    0.000    0.000    0.000    0.000    0.000    0.000 
#
# Total GULP energy -245104.645789 kJ/mol
# GULP energy per Si atom -5570.560132 kJ/mol
# Density = 2.268900 g / cm^3
# Si number density = 22.740758 Si / 1000 Ang^3
#
#
#
# Elastic Constant Matrix: (Units=GPa)
#
#
# Indices 1 2 3 4 5 6 
#
# 1 98.7659 13.5689 19.5155 0.0000 0.0000 0.0000
# 2 13.5689 78.2656 10.2881 0.0000 0.0000 0.0000
# 3 19.5155 10.2881 162.7456 0.0000 0.0000 0.0000
# 4 0.0000 0.0000 0.0000 24.0662 0.0000 0.0000
# 5 0.0000 0.0000 0.0000 0.0000 21.6983 0.0000
# 6 0.0000 0.0000 0.0000 0.0000 0.0000 12.4560
#
#
#
# Elastic Compliance Matrix: (Units=1/GPa)
#
#
# Indices 1 2 3 4 5 6 
#
# 1 0.010586 -0.001682 -0.001163 0.000000 0.000000 0.000000
# 2 -0.001682 0.013151 -0.000630 0.000000 0.000000 0.000000
# 3 -0.001163 -0.000630 0.006324 0.000000 0.000000 0.000000
# 4 0.000000 0.000000 0.000000 0.041552 0.000000 0.000000
# 5 0.000000 0.000000 0.000000 0.000000 0.046087 0.000000
# 6 0.000000 0.000000 0.000000 0.000000 0.000000 0.080283
#
#
# Mechanical properties :
#
#
# Convention : Reuss Voigt Hill
#
# Bulk Modulus (GPa) = 43.26942 47.39138 45.33040
# Shear Modulus (GPa) = 23.51432 31.40440 27.45936
#
# Velocity S-wave (km/s) = 3.21910 3.72018 3.47867
# Velocity P-wave (km/s) = 5.73458 6.27200 6.00930
#
# Compressibility (1/GPa) = 0.02311101
#
# Stress axis : x y z
#
# Youngs Moduli (GPa) = 94.46531 76.03725 158.13209
#
# Poissons Ratio (x) = 0.12792 0.18392
# Poissons Ratio (y) = 0.15893 0.09957
# Poissons Ratio (z) = 0.10987 0.04788
#
# Static dielectric constant tensor:
#      x y z
#    x 1.941870 0.000000 0.000000 
#    y 0.000000 1.927380 0.000000 
#    z 0.000000 0.000000 1.886040 
# 
# From -- ./inp_files/5765.got.cif
#   From: 2010.05.17/outbox.cif.g08.bks.cpg/sg52_3_cif.got.tgz:5765.got - 2010.06.03 12:15:38.
