data_PCOD9409058
_publ_section_title
;
Structure prediction by ZEFSAII (Michael W. Deem and Ramdas Pophale) SiO2 
 PCOD9409058
Probable space group: P N N A
;
_chemical_formula_sum "Si O2"
_cell_formula_units_Z 60
_cell_length_a 5.607495
_cell_length_b 20.395417
_cell_length_c 25.342266
_cell_angle_alpha 90.000000
_cell_angle_beta 90.000000
_cell_angle_gamma 90.000000
_cell_volume 2898.323975
_symmetry_space_group_name_H-M "P N N A"
_symmetry_group_IT_number 52
_symmetry_cell_setting 'orthorhombic'
loop_
_space_group_symop_operation_xyz
x,y,z
1/2-x,-y,z
x,1/2-y,1/2-z
1/2-x,1/2+y,1/2-z
-x,-y,-z
1/2+x,y,-z
-x,1/2+y,1/2+z
1/2+x,1/2-y,1/2+z
loop_
_atom_site_type_symbol
_atom_site_label
_atom_site_fract_x
_atom_site_fract_y
_atom_site_fract_z
Si Si1 0.090812 0.153032 0.789977
Si Si2 0.220875 0.250000 0.250000
Si Si3 0.562644 0.758108 0.022196
Si Si4 0.069207 0.939248 0.738749
Si Si5 0.267921 0.930278 0.156856
Si Si6 0.507388 0.461771 0.876984
Si Si7 0.577842 0.605486 0.020257
Si Si8 0.027896 0.790778 0.856495
O O1 0.288992 0.127346 0.750168
O O2 0.206947 0.200294 0.833125
O O3 0.886989 0.186409 0.755961
O O4 0.991079 0.093578 0.824745
O O5 0.092609 0.247416 0.192894
O O6 0.582488 0.681910 0.005076
O O7 0.530850 0.761301 0.085360
O O8 0.320832 0.786806 0.995557
O O9 0.903520 0.946238 0.788898
O O10 0.946121 0.938392 0.682473
O O11 0.250000 0.000000 0.737930
O O12 0.402832 0.863664 0.137584
O O13 0.250000 0.000000 0.126668
O O14 0.750000 0.500000 0.892834
O O15 0.469764 0.403740 0.918111
O O16 0.250000 0.500000 0.877332
O O17 0.339801 0.576818 0.992643
#
# Coordination Sequence:
#
# PCOD9409058 Si02
#       8
#     8   4   8   8   8   8   8   8
#     4  10  21  36  60  87 128 169 205 253 313 380
#     4  10  22  38  58  96 132 168 206 262 330 388
#     4  10  24  45  69  91 121 166 217 269 318 381
#     4  10  20  35  54  86 124 163 205 247 295 376
#     4  10  19  35  61  89 123 164 198 246 302 382
#     4  11  24  37  57  87 117 159 203 256 315 362
#     4  10  22  42  60  83 109 151 207 259 316 370
#     4  10  23  39  61  97 125 165 213 263 323 381
#
# _framework density 20.701619999999998
#
# number of rings (size 3 to 8) (size 9 to 14) (size 15 to 20)
#    0.000    1.867    1.333    1.600    5.600    5.867 
#    4.800    0.000    0.000    0.800    0.000    0.000 
#    0.000    0.000    0.000    0.000    0.000    0.000 
#
# Total GULP energy -334231.009434 kJ/mol
# GULP energy per Si atom -5570.516824 kJ/mol
# Density = 2.065450 g / cm^3
# Si number density = 20.701620 Si / 1000 Ang^3
#
#
#
# Elastic Constant Matrix: (Units=GPa)
#
#
# Indices 1 2 3 4 5 6 
#
# 1 114.2253 11.2285 22.9712 0.0000 0.0000 0.0000
# 2 11.2285 31.1692 -9.3733 0.0000 0.0000 0.0000
# 3 22.9712 -9.3733 74.2708 0.0000 0.0000 0.0000
# 4 0.0000 0.0000 0.0000 304.6728 0.0000 0.0000
# 5 0.0000 0.0000 0.0000 0.0000 45.9220 0.0000
# 6 0.0000 0.0000 0.0000 0.0000 0.0000 26.0905
#
#
#
# Elastic Compliance Matrix: (Units=1/GPa)
#
#
# Indices 1 2 3 4 5 6 
#
# 1 0.009954 -0.004690 -0.003670 0.000000 0.000000 0.000000
# 2 -0.004690 0.035558 0.005938 0.000000 0.000000 0.000000
# 3 -0.003670 0.005938 0.015349 0.000000 0.000000 0.000000
# 4 0.000000 0.000000 0.000000 0.003282 0.000000 0.000000
# 5 0.000000 0.000000 0.000000 0.000000 0.021776 0.000000
# 6 0.000000 0.000000 0.000000 0.000000 0.000000 0.038328
#
#
# Mechanical properties :
#
#
# Convention : Reuss Voigt Hill
#
# Bulk Modulus (GPa) = 17.85184 29.92425 23.88805
# Shear Modulus (GPa) = 33.83790 88.32631 61.08211
#
# Velocity S-wave (km/s) = 4.04735 6.53904 5.43783
# Velocity P-wave (km/s) = 5.52119 8.45567 7.14079
#
# Compressibility (1/GPa) = 0.05601662
#
# Stress axis : x y z
#
# Youngs Moduli (GPa) = 100.46456 28.12306 65.15135
#
# Poissons Ratio (x) = 0.13188 0.23913
# Poissons Ratio (y) = 0.47113 -0.38687
# Poissons Ratio (z) = 0.36875 -0.16699
#
# Static dielectric constant tensor:
#      x y z
#    x 1.737590 0.000000 0.000000 
#    y 0.000000 1.802560 0.000000 
#    z 0.000000 0.000000 1.694840 
# 
# From -- ./inp_files/38875.got.cif
#   From: 2010.05.17/outbox.cif.g08.bks.cpg/sg52_20_cif.got.tgz:38875.got - 2010.06.03 12:15:38.
