data_PCOD9409801
_publ_section_title
;
Structure prediction by ZEFSAII (Michael W. Deem and Ramdas Pophale) SiO2 
 PCOD9409801
Probable space group: P N N A
;
_chemical_formula_sum "Si O2"
_cell_formula_units_Z 32
_cell_length_a 22.360076
_cell_length_b 10.037876
_cell_length_c 6.064089
_cell_angle_alpha 90.000000
_cell_angle_beta 90.000000
_cell_angle_gamma 90.000000
_cell_volume 1361.070648
_symmetry_space_group_name_H-M "P N N A"
_symmetry_group_IT_number 52
_symmetry_cell_setting 'orthorhombic'
loop_
_space_group_symop_operation_xyz
x,y,z
1/2-x,-y,z
x,1/2-y,1/2-z
1/2-x,1/2+y,1/2-z
-x,-y,-z
1/2+x,y,-z
-x,1/2+y,1/2+z
1/2+x,1/2-y,1/2+z
loop_
_atom_site_type_symbol
_atom_site_label
_atom_site_fract_x
_atom_site_fract_y
_atom_site_fract_z
Si Si1 0.533256 0.582744 0.309997
Si Si2 0.414723 0.909691 0.440782
Si Si3 0.750000 0.500000 0.563582
Si Si4 0.635238 0.870903 0.905099
Si Si5 0.819290 0.750000 0.750000
O O1 0.500000 0.500000 0.500000
O O2 0.480839 0.630260 0.145381
O O3 0.579946 0.673445 0.443680
O O4 0.574232 0.481982 0.169719
O O5 0.366507 0.791313 0.441787
O O6 0.389149 0.015147 0.261668
O O7 0.691456 0.569447 0.458572
O O8 0.778895 0.622502 0.698588
O O9 0.654240 0.750000 0.750000
#
# Coordination Sequence:
#
# PCOD9409801 Si02
#       5
#     8   8   4   8   4
#     4   9  19  37  60  93 128 167 213 273 336 402
#     4   9  20  36  59  93 128 167 217 271 334 396
#     4  10  20  40  62  94 124 178 224 274 334 400
#     4  10  20  36  61  87 124 171 214 268 331 399
#     4  10  20  38  68  92 134 178 228 280 334 404
#
# _framework density 23.510905000000001
#
# number of rings (size 3 to 8) (size 9 to 14) (size 15 to 20)
#    0.000    2.500    1.250    0.000    0.000    7.000 
#    0.000   15.000    5.500    0.000    0.000    0.000 
#    0.000    0.000    0.000    0.000    0.000    0.000 
#
# Total GULP energy -178405.548399 kJ/mol
# GULP energy per Si atom -5575.173387 kJ/mol
# Density = 2.345739 g / cm^3
# Si number density = 23.510905 Si / 1000 Ang^3
#
#
#
# Elastic Constant Matrix: (Units=GPa)
#
#
# Indices 1 2 3 4 5 6 
#
# 1 170.8614 42.9886 16.4807 0.0000 0.0000 0.0000
# 2 42.9886 96.4089 3.4554 0.0000 0.0000 0.0000
# 3 16.4807 3.4554 53.9484 0.0000 0.0000 0.0000
# 4 0.0000 0.0000 0.0000 29.0047 0.0000 0.0000
# 5 0.0000 0.0000 0.0000 0.0000 12.5973 0.0000
# 6 0.0000 0.0000 0.0000 0.0000 0.0000 38.1163
#
#
#
# Elastic Compliance Matrix: (Units=1/GPa)
#
#
# Indices 1 2 3 4 5 6 
#
# 1 0.006778 -0.002955 -0.001881 0.000000 0.000000 0.000000
# 2 -0.002955 0.011684 0.000154 0.000000 0.000000 0.000000
# 3 -0.001881 0.000154 0.019101 0.000000 0.000000 0.000000
# 4 0.000000 0.000000 0.000000 0.034477 0.000000 0.000000
# 5 0.000000 0.000000 0.000000 0.000000 0.079382 0.000000
# 6 0.000000 0.000000 0.000000 0.000000 0.000000 0.026235
#
#
# Mechanical properties :
#
#
# Convention : Reuss Voigt Hill
#
# Bulk Modulus (GPa) = 35.46138 49.67425 42.56781
# Shear Modulus (GPa) = 25.45552 33.16325 29.30938
#
# Velocity S-wave (km/s) = 3.29403 3.75980 3.53459
# Velocity P-wave (km/s) = 5.43904 6.32631 5.89938
#
# Compressibility (1/GPa) = 0.02819969
#
# Stress axis : x y z
#
# Youngs Moduli (GPa) = 147.54599 85.58389 52.35314
#
# Poissons Ratio (x) = 0.25287 0.09849
# Poissons Ratio (y) = 0.43595 -0.00807
# Poissons Ratio (z) = 0.27757 -0.01320
#
# Static dielectric constant tensor:
#      x y z
#    x 1.923340 0.000000 0.000000 
#    y 0.000000 1.910850 0.000000 
#    z 0.000000 0.000000 1.811650 
# 
# From -- ./inp_files/3936.got.cif
#   From: 2010.05.17/outbox.cif.g08.bks.cpg/sg52_2_cif.got.tgz:3936.got - 2010.06.03 12:15:38.
