data_PCOD9409722
_publ_section_title
;
Structure prediction by ZEFSAII (Michael W. Deem and Ramdas Pophale) SiO2 
 PCOD9409722
Probable space group: P N N A
;
_chemical_formula_sum "Si O2"
_cell_formula_units_Z 40
_cell_length_a 28.127009
_cell_length_b 4.795105
_cell_length_c 13.858098
_cell_angle_alpha 90.000000
_cell_angle_beta 90.000000
_cell_angle_gamma 90.000000
_cell_volume 1869.068860
_symmetry_space_group_name_H-M "P N N A"
_symmetry_group_IT_number 52
_symmetry_cell_setting 'orthorhombic'
loop_
_space_group_symop_operation_xyz
x,y,z
1/2-x,-y,z
x,1/2-y,1/2-z
1/2-x,1/2+y,1/2-z
-x,-y,-z
1/2+x,y,-z
-x,1/2+y,1/2+z
1/2+x,1/2-y,1/2+z
loop_
_atom_site_type_symbol
_atom_site_label
_atom_site_fract_x
_atom_site_fract_y
_atom_site_fract_z
Si Si1 0.388508 0.254516 0.507229
Si Si2 0.418448 0.750000 0.750000
Si Si3 0.344402 0.718843 0.593208
Si Si4 0.480508 0.122338 0.600600
Si Si5 0.750000 0.500000 0.315745
Si Si6 0.923622 0.522546 0.812787
O O1 0.359461 0.537046 0.501120
O O2 0.439489 0.319519 0.558228
O O3 0.398834 0.103812 0.406859
O O4 0.358337 0.036384 0.571913
O O5 0.380007 0.611736 0.677739
O O6 0.452257 0.566202 0.820106
O O7 0.291410 0.648670 0.624059
O O8 0.500000 0.000000 0.500000
O O9 0.529770 0.195974 0.651399
O O10 0.729286 0.750000 0.250000
O O11 0.936761 0.250000 0.750000
O O12 0.895582 0.750000 0.750000
#
# Coordination Sequence:
#
# PCOD9409722 Si02
#       6
#     8   4   8   8   4   8
#     4  10  23  39  57  86 118 156 202 240 293 352
#     4  10  20  36  56  84 118 164 200 234 298 340
#     4  11  23  39  61  85 121 156 191 242 296 359
#     4   9  20  34  53  81 117 157 206 245 278 340
#     4  12  24  40  60  94 120 148 196 236 294 368
#     4  11  22  37  58  85 116 158 202 250 290 332
#
# _framework density 21.401033000000002
#
# number of rings (size 3 to 8) (size 9 to 14) (size 15 to 20)
#    0.000    1.600    2.000    2.400    5.600    0.000 
#    0.000    8.000    0.000    0.000    0.000   14.000 
#    0.000    0.000    0.000    0.000    0.000    0.000 
#
# Total GULP energy -222969.139976 kJ/mol
# GULP energy per Si atom -5574.228499 kJ/mol
# Density = 2.135232 g / cm^3
# Si number density = 21.401033 Si / 1000 Ang^3
#
#
#
# Elastic Constant Matrix: (Units=GPa)
#
#
# Indices 1 2 3 4 5 6 
#
# 1 75.9727 0.5752 10.8253 0.0000 0.0000 0.0000
# 2 0.5752 69.6674 3.0358 0.0000 0.0000 0.0000
# 3 10.8253 3.0358 89.1484 0.0000 0.0000 0.0000
# 4 0.0000 0.0000 0.0000 36.4975 0.0000 0.0000
# 5 0.0000 0.0000 0.0000 0.0000 18.0895 0.0000
# 6 0.0000 0.0000 0.0000 0.0000 0.0000 19.1310
#
#
#
# Elastic Compliance Matrix: (Units=1/GPa)
#
#
# Indices 1 2 3 4 5 6 
#
# 1 0.013394 -0.000040 -0.001625 0.000000 0.000000 0.000000
# 2 -0.000040 0.014375 -0.000485 0.000000 0.000000 0.000000
# 3 -0.001625 -0.000485 0.011431 0.000000 0.000000 0.000000
# 4 0.000000 0.000000 0.000000 0.027399 0.000000 0.000000
# 5 0.000000 0.000000 0.000000 0.000000 0.055281 0.000000
# 6 0.000000 0.000000 0.000000 0.000000 0.000000 0.052271
#
#
# Mechanical properties :
#
#
# Convention : Reuss Voigt Hill
#
# Bulk Modulus (GPa) = 28.65192 29.29572 28.97382
# Shear Modulus (GPa) = 26.30400 29.43374 27.86887
#
# Velocity S-wave (km/s) = 3.50966 3.71258 3.61254
# Velocity P-wave (km/s) = 5.46267 5.66536 5.56494
#
# Compressibility (1/GPa) = 0.03490168
#
# Stress axis : x y z
#
# Youngs Moduli (GPa) = 74.65754 69.56350 87.48069
#
# Poissons Ratio (x) = 0.00277 0.14217
# Poissons Ratio (y) = 0.00297 0.04240
# Poissons Ratio (z) = 0.12133 0.03372
#
# Static dielectric constant tensor:
#      x y z
#    x 1.764290 0.000000 0.000000 
#    y 0.000000 1.844650 0.000000 
#    z 0.000000 0.000000 1.882100 
# 
# From -- ./inp_files/22697.got.cif
#   From: 2010.05.17/outbox.cif.g08.bks.cpg/sg52_12_cif.got.tgz:22697.got - 2010.06.03 12:15:38.
