data_PCOD9409508
_publ_section_title
;
Structure prediction by ZEFSAII (Michael W. Deem and Ramdas Pophale) SiO2 
 PCOD9409508
Probable space group: P N N A
;
_chemical_formula_sum "Si O2"
_cell_formula_units_Z 64
_cell_length_a 12.241819
_cell_length_b 18.534913
_cell_length_c 15.446239
_cell_angle_alpha 90.000000
_cell_angle_beta 90.000000
_cell_angle_gamma 90.000000
_cell_volume 3504.767850
_symmetry_space_group_name_H-M "P N N A"
_symmetry_group_IT_number 52
_symmetry_cell_setting 'orthorhombic'
loop_
_space_group_symop_operation_xyz
x,y,z
1/2-x,-y,z
x,1/2-y,1/2-z
1/2-x,1/2+y,1/2-z
-x,-y,-z
1/2+x,y,-z
-x,1/2+y,1/2+z
1/2+x,1/2-y,1/2+z
loop_
_atom_site_type_symbol
_atom_site_label
_atom_site_fract_x
_atom_site_fract_y
_atom_site_fract_z
Si Si1 0.756050 0.917394 0.149952
Si Si2 0.183664 0.923183 0.250001
Si Si3 0.243950 0.082606 0.649952
Si Si4 0.597936 0.335417 0.750000
Si Si5 0.004006 0.074969 0.608291
Si Si6 0.466949 0.098304 0.911316
Si Si7 0.495995 0.925031 0.891709
Si Si8 0.966950 0.401696 0.088684
O O1 0.722013 0.918872 0.250000
O O2 0.659104 0.877921 0.100739
O O3 0.881406 0.894528 0.144452
O O4 0.750000 0.000000 0.116716
O O5 0.278717 0.864473 0.250000
O O6 0.102381 0.914906 0.332155
O O7 0.102380 0.914907 0.167846
O O8 0.250000 0.000000 0.250001
O O9 0.340896 0.122079 0.600739
O O10 0.118594 0.105472 0.644452
O O11 0.250000 0.000000 0.616716
O O12 0.593579 0.250000 0.750000
O O13 0.538717 0.364523 0.662934
O O14 0.538716 0.364523 0.837066
O O15 0.995053 0.106332 0.511848
O O16 0.018972 0.987881 0.605242
O O17 0.481028 0.012119 0.894759
O O18 0.495052 0.106332 0.011849
#
# Coordination Sequence:
#
# PCOD9409508 Si02
#       8
#     8   8   8   8   8   8   8   8
#     4   9  16  29  52  83 119 146 180 243 311 355
#     4  12  22  37  63  92 129 167 207 265 316 372
#     4   9  16  29  52  83 119 146 180 243 311 355
#     4  12  26  43  59  85 129 175 208 249 325 398
#     4  10  20  33  60  96 122 147 203 266 312 351
#     4  10  20  35  59  90 122 158 200 256 310 370
#     4  10  20  33  60  96 122 147 203 266 312 351
#     4  10  20  35  59  90 122 158 200 256 310 370
#
# _framework density 18.260836999999999
#
# number of rings (size 3 to 8) (size 9 to 14) (size 15 to 20)
#    0.000    1.750    5.000    0.000    3.500    1.000 
#    0.000    1.250    0.000    3.000    0.000    0.000 
#    0.000    0.000    0.000    0.000    0.000    0.000 
#
# Total GULP energy -356396.477109 kJ/mol
# GULP energy per Si atom -5568.694955 kJ/mol
# Density = 1.821927 g / cm^3
# Si number density = 18.260837 Si / 1000 Ang^3
#
#
#
# Elastic Constant Matrix: (Units=GPa)
#
#
# Indices 1 2 3 4 5 6 
#
# 1 157.6592 24.7325 72.1761 0.0000 0.0000 0.0000
# 2 24.7325 38.4711 39.8423 0.0000 0.0000 0.0000
# 3 72.1761 39.8423 116.9793 0.0000 0.0000 0.0000
# 4 0.0000 0.0000 0.0000 7.0058 0.0000 0.0000
# 5 0.0000 0.0000 0.0000 0.0000 28.8932 0.0000
# 6 0.0000 0.0000 0.0000 0.0000 0.0000 9.9806
#
#
#
# Elastic Compliance Matrix: (Units=1/GPa)
#
#
# Indices 1 2 3 4 5 6 
#
# 1 0.008840 -0.000053 -0.005436 0.000000 0.000000 0.000000
# 2 -0.000053 0.040159 -0.013645 0.000000 0.000000 0.000000
# 3 -0.005436 -0.013645 0.016550 0.000000 0.000000 0.000000
# 4 0.000000 0.000000 0.000000 0.142740 0.000000 0.000000
# 5 0.000000 0.000000 0.000000 0.000000 0.034610 0.000000
# 6 0.000000 0.000000 0.000000 0.000000 0.000000 0.100195
#
#
# Mechanical properties :
#
#
# Convention : Reuss Voigt Hill
#
# Bulk Modulus (GPa) = 36.65649 65.17905 50.91777
# Shear Modulus (GPa) = 12.80556 20.93315 16.86936
#
# Velocity S-wave (km/s) = 2.65100 3.38944 3.04270
# Velocity P-wave (km/s) = 5.43027 7.14763 6.34730
#
# Compressibility (1/GPa) = 0.02728030
#
# Stress axis : x y z
#
# Youngs Moduli (GPa) = 113.12576 24.90087 60.42319
#
# Poissons Ratio (x) = 0.00133 0.32846
# Poissons Ratio (y) = 0.00602 0.82448
# Poissons Ratio (z) = 0.61495 0.33978
#
# Static dielectric constant tensor:
#      x y z
#    x 1.665140 0.000000 0.000000 
#    y 0.000000 1.610210 0.000000 
#    z 0.000000 0.000000 1.632970 
# 
# From -- ./inp_files/26345.got.cif
#   From: 2010.05.17/outbox.cif.g08.bks.cpg/sg52_14_cif.got.tgz:26345.got - 2010.06.03 12:15:38.
