data_PCOD9409316
_publ_section_title
;
Structure prediction by ZEFSAII (Michael W. Deem and Ramdas Pophale) SiO2 
 PCOD9409316
Probable space group: P N N A
;
_chemical_formula_sum "Si O2"
_cell_formula_units_Z 52
_cell_length_a 20.525498
_cell_length_b 9.155153
_cell_length_c 13.503247
_cell_angle_alpha 90.000000
_cell_angle_beta 90.000000
_cell_angle_gamma 90.000000
_cell_volume 2537.450164
_symmetry_space_group_name_H-M "P N N A"
_symmetry_group_IT_number 52
_symmetry_cell_setting 'orthorhombic'
loop_
_space_group_symop_operation_xyz
x,y,z
1/2-x,-y,z
x,1/2-y,1/2-z
1/2-x,1/2+y,1/2-z
-x,-y,-z
1/2+x,y,-z
-x,1/2+y,1/2+z
1/2+x,1/2-y,1/2+z
loop_
_atom_site_type_symbol
_atom_site_label
_atom_site_fract_x
_atom_site_fract_y
_atom_site_fract_z
Si Si1 0.896811 0.694155 0.143466
Si Si2 0.272349 0.650887 0.570009
Si Si3 0.477774 0.842162 0.035490
Si Si4 0.935763 0.418667 0.040072
Si Si5 0.354670 0.552549 0.375794
Si Si6 0.732757 0.250000 0.750000
Si Si7 0.829761 0.272519 0.923919
O O1 0.919314 0.750000 0.250000
O O2 0.822575 0.747970 0.128205
O O3 0.905243 0.521773 0.123859
O O4 0.940388 0.769085 0.057654
O O5 0.250000 0.500000 0.621770
O O6 0.313476 0.595614 0.473967
O O7 0.210675 0.734823 0.523845
O O8 0.537436 0.740874 0.068776
O O9 0.423515 0.867384 0.118858
O O10 0.500000 0.000000 0.000000
O O11 0.883254 0.391317 0.953014
O O12 0.000000 0.500000 0.000000
O O13 0.311877 0.617806 0.288236
O O14 0.361683 0.378356 0.383246
O O15 0.777569 0.307137 0.839439
#
# Coordination Sequence:
#
# PCOD9409316 Si02
#       7
#     8   8   8   8   8   4   8
#     4  10  22  42  61  92 131 159 216 287 322 393
#     4   8  17  36  64  83 113 165 202 258 342 383
#     4  10  19  41  70  84 121 183 220 257 332 406
#     4  10  22  41  60  92 126 177 219 260 347 399
#     4   9  18  37  60  89 124 163 215 272 322 402
#     4  10  20  36  58 106 132 162 222 286 346 400
#     4  10  19  39  62  89 134 169 215 273 333 403
#
# _framework density 20.493013999999999
#
# number of rings (size 3 to 8) (size 9 to 14) (size 15 to 20)
#    0.000    2.462    1.538    1.385    0.000    0.615 
#   33.231    0.000    0.000    0.000    0.000    0.000 
#    0.000    0.000    0.000    0.000    0.000    0.000 
#
# Total GULP energy -290045.461889 kJ/mol
# GULP energy per Si atom -5577.797344 kJ/mol
# Density = 2.044637 g / cm^3
# Si number density = 20.493014 Si / 1000 Ang^3
#
#
#
# Elastic Constant Matrix: (Units=GPa)
#
#
# Indices 1 2 3 4 5 6 
#
# 1 97.6114 47.9609 33.0584 0.0000 0.0000 0.0000
# 2 47.9609 119.9094 39.8619 0.0000 0.0000 0.0000
# 3 33.0584 39.8619 63.7546 0.0000 0.0000 0.0000
# 4 0.0000 0.0000 0.0000 23.1824 0.0000 0.0000
# 5 0.0000 0.0000 0.0000 0.0000 17.6199 0.0000
# 6 0.0000 0.0000 0.0000 0.0000 0.0000 36.2157
#
#
#
# Elastic Compliance Matrix: (Units=1/GPa)
#
#
# Indices 1 2 3 4 5 6 
#
# 1 0.013769 -0.003956 -0.004666 0.000000 0.000000 0.000000
# 2 -0.003956 0.011665 -0.005242 0.000000 0.000000 0.000000
# 3 -0.004666 -0.005242 0.021382 0.000000 0.000000 0.000000
# 4 0.000000 0.000000 0.000000 0.043136 0.000000 0.000000
# 5 0.000000 0.000000 0.000000 0.000000 0.056754 0.000000
# 6 0.000000 0.000000 0.000000 0.000000 0.000000 0.027612
#
#
# Mechanical properties :
#
#
# Convention : Reuss Voigt Hill
#
# Bulk Modulus (GPa) = 52.39012 58.11530 55.25271
# Shear Modulus (GPa) = 23.99141 26.09655 25.04398
#
# Velocity S-wave (km/s) = 3.42528 3.57240 3.49961
# Velocity P-wave (km/s) = 6.42369 6.74064 6.58407
#
# Compressibility (1/GPa) = 0.01908757
#
# Stress axis : x y z
#
# Youngs Moduli (GPa) = 72.62845 85.73014 46.76836
#
# Poissons Ratio (x) = 0.33915 0.21822
# Poissons Ratio (y) = 0.28732 0.24515
# Poissons Ratio (z) = 0.33888 0.44938
#
# Static dielectric constant tensor:
#      x y z
#    x 1.754530 0.000000 0.000000 
#    y 0.000000 1.808130 0.000000 
#    z 0.000000 0.000000 1.755110 
# 
# From -- ./inp_files/28696.got.cif
#   From: 2010.05.17/outbox.cif.g08.bks.cpg/sg52_15_cif.got.tgz:28696.got - 2010.06.03 12:15:38.
