data_PCOD9409050
_publ_section_title
;
Structure prediction by ZEFSAII (Michael W. Deem and Ramdas Pophale) SiO2 
 PCOD9409050
Probable space group: P N N A
;
_chemical_formula_sum "Si O2"
_cell_formula_units_Z 56
_cell_length_a 13.843538
_cell_length_b 21.113966
_cell_length_c 8.268041
_cell_angle_alpha 90.000000
_cell_angle_beta 90.000000
_cell_angle_gamma 90.000000
_cell_volume 2416.682163
_symmetry_space_group_name_H-M "P N N A"
_symmetry_group_IT_number 52
_symmetry_cell_setting 'orthorhombic'
loop_
_space_group_symop_operation_xyz
x,y,z
1/2-x,-y,z
x,1/2-y,1/2-z
1/2-x,1/2+y,1/2-z
-x,-y,-z
1/2+x,y,-z
-x,1/2+y,1/2+z
1/2+x,1/2-y,1/2+z
loop_
_atom_site_type_symbol
_atom_site_label
_atom_site_fract_x
_atom_site_fract_y
_atom_site_fract_z
Si Si1 0.251883 0.568519 0.217245
Si Si2 0.016495 0.926304 0.554472
Si Si3 0.152315 0.150004 0.566537
Si Si4 0.730679 0.276448 0.572110
Si Si5 0.584807 0.390958 0.604843
Si Si6 0.887385 0.380192 0.546132
Si Si7 0.792712 0.430772 0.233313
O O1 0.250000 0.500000 0.142840
O O2 0.323409 0.562587 0.374957
O O3 0.151593 0.593599 0.284817
O O4 0.299252 0.615295 0.089050
O O5 0.129595 0.917492 0.590444
O O6 0.958009 0.875403 0.444193
O O7 0.972419 0.910607 0.732267
O O8 0.000000 0.000000 0.500000
O O9 0.185542 0.222173 0.542282
O O10 0.206125 0.119606 0.719083
O O11 0.754289 0.250000 0.750000
O O12 0.642767 0.325167 0.601893
O O13 0.828530 0.313762 0.519133
O O14 0.502417 0.384719 0.470384
O O15 0.847167 0.423160 0.401335
O O16 0.750000 0.500000 0.217729
#
# Coordination Sequence:
#
# PCOD9409050 Si02
#       7
#     8   8   8   8   8   8   8
#     4  10  20  37  63  90 124 168 211 247 315 394
#     4  10  19  35  60  93 123 167 205 251 324 384
#     4  11  22  38  63  90 123 170 213 266 305 382
#     4  11  20  43  67  83 124 173 225 256 307 392
#     4   9  21  38  63  91 124 166 211 265 314 378
#     4  10  22  40  63  92 122 171 208 260 331 365
#     4  11  22  37  60  95 135 156 201 268 324 379
#
# _framework density 23.172263000000001
#
# number of rings (size 3 to 8) (size 9 to 14) (size 15 to 20)
#    0.000    1.714    5.714    0.857    2.000    2.286 
#    0.000    7.143    6.286    0.000    0.000    0.000 
#    0.000    0.000    0.000    0.000    0.000    0.000 
#
# Total GULP energy -312214.523334 kJ/mol
# GULP energy per Si atom -5575.259345 kJ/mol
# Density = 2.311952 g / cm^3
# Si number density = 23.172263 Si / 1000 Ang^3
#
#
#
# Elastic Constant Matrix: (Units=GPa)
#
#
# Indices 1 2 3 4 5 6 
#
# 1 111.8623 2.0755 16.6444 0.0000 0.0000 0.0000
# 2 2.0755 108.5331 1.8285 0.0000 0.0000 0.0000
# 3 16.6444 1.8285 52.0055 0.0000 0.0000 0.0000
# 4 0.0000 0.0000 0.0000 17.9652 0.0000 0.0000
# 5 0.0000 0.0000 0.0000 0.0000 42.7243 0.0000
# 6 0.0000 0.0000 0.0000 0.0000 0.0000 20.6166
#
#
#
# Elastic Compliance Matrix: (Units=1/GPa)
#
#
# Indices 1 2 3 4 5 6 
#
# 1 0.009388 -0.000129 -0.003000 0.000000 0.000000 0.000000
# 2 -0.000129 0.009221 -0.000283 0.000000 0.000000 0.000000
# 3 -0.003000 -0.000283 0.020199 0.000000 0.000000 0.000000
# 4 0.000000 0.000000 0.000000 0.055663 0.000000 0.000000
# 5 0.000000 0.000000 0.000000 0.000000 0.023406 0.000000
# 6 0.000000 0.000000 0.000000 0.000000 0.000000 0.048504
#
#
# Mechanical properties :
#
#
# Convention : Reuss Voigt Hill
#
# Bulk Modulus (GPa) = 31.26560 34.83308 33.04934
# Shear Modulus (GPa) = 27.19351 33.05140 30.12246
#
# Velocity S-wave (km/s) = 3.42941 3.78078 3.60937
# Velocity P-wave (km/s) = 5.40399 5.84157 5.62704
#
# Compressibility (1/GPa) = 0.03198403
#
# Stress axis : x y z
#
# Youngs Moduli (GPa) = 106.51479 108.44799 49.50759
#
# Poissons Ratio (x) = 0.01399 0.14853
# Poissons Ratio (y) = 0.01374 0.01401
# Poissons Ratio (z) = 0.31957 0.03068
#
# Static dielectric constant tensor:
#      x y z
#    x 2.052710 0.000000 0.000000 
#    y 0.000000 1.978510 0.000000 
#    z 0.000000 0.000000 1.993670 
# 
# From -- ./inp_files/10777.got.cif
#   From: 2010.05.17/outbox.cif.g08.bks.cpg/sg52_6_cif.got.tgz:10777.got - 2010.06.03 12:15:38.
