data_PCOD9409521
_publ_section_title
;
Structure prediction by ZEFSAII (Michael W. Deem and Ramdas Pophale) SiO2 
 PCOD9409521
Probable space group: P N N A
;
_chemical_formula_sum "Si O2"
_cell_formula_units_Z 64
_cell_length_a 4.994759
_cell_length_b 22.930526
_cell_length_c 28.783191
_cell_angle_alpha 90.000000
_cell_angle_beta 90.000000
_cell_angle_gamma 90.000000
_cell_volume 3296.609416
_symmetry_space_group_name_H-M "P N N A"
_symmetry_group_IT_number 52
_symmetry_cell_setting 'orthorhombic'
loop_
_space_group_symop_operation_xyz
x,y,z
1/2-x,-y,z
x,1/2-y,1/2-z
1/2-x,1/2+y,1/2-z
-x,-y,-z
1/2+x,y,-z
-x,1/2+y,1/2+z
1/2+x,1/2-y,1/2+z
loop_
_atom_site_type_symbol
_atom_site_label
_atom_site_fract_x
_atom_site_fract_y
_atom_site_fract_z
Si Si1 0.242390 0.621410 0.736179
Si Si2 0.882285 0.151781 0.529036
Si Si3 0.791250 0.932943 0.139356
Si Si4 0.082034 0.712858 0.468203
Si Si5 0.199805 0.143227 0.120198
Si Si6 0.245525 0.691860 0.279960
Si Si7 0.515383 0.960283 0.587191
Si Si8 0.512216 0.539210 0.806322
O O1 0.231076 0.575154 0.694241
O O2 0.433618 0.674361 0.720472
O O3 0.405659 0.594065 0.778311
O O4 0.944366 0.644523 0.743811
O O5 0.570917 0.145246 0.516343
O O6 0.915116 0.218497 0.545026
O O7 0.987704 0.101533 0.562315
O O8 0.584186 0.888987 0.114211
O O9 0.088646 0.908079 0.132353
O O10 0.750000 0.000000 0.125763
O O11 0.288766 0.701941 0.510733
O O12 0.184061 0.676166 0.424426
O O13 0.178098 0.186166 0.165221
O O14 0.282246 0.750000 0.250000
O O15 0.589745 0.947091 0.640835
O O16 0.250000 0.000000 0.584871
O O17 0.750000 0.000000 0.566099
O O18 0.750000 0.500000 0.784842
O O19 0.250000 0.500000 0.809009
#
# Coordination Sequence:
#
# PCOD9409521 Si02
#       8
#     8   8   8   8   8   8   8   8
#     4  10  20  34  54  78 107 147 184 218 263 311
#     4  10  21  36  55  79 103 135 184 230 273 329
#     4  10  20  35  58  85 113 143 180 223 269 334
#     4  10  21  39  61  82 107 141 184 230 270 324
#     4  10  21  37  59  85 112 147 183 225 283 329
#     4  10  21  36  53  81 115 144 182 224 267 325
#     4  10  21  35  51  76 109 142 179 227 278 324
#     4  10  20  34  51  74 106 141 181 221 261 314
#
# _framework density 19.413888
#
# number of rings (size 3 to 8) (size 9 to 14) (size 15 to 20)
#    0.000    2.000    0.000    3.375    0.000    4.500 
#    0.000    3.750    0.000    7.500    0.000    0.000 
#    0.000    0.000    0.000    0.000    0.000    0.000 
#
# Total GULP energy -356808.376853 kJ/mol
# GULP energy per Si atom -5575.130888 kJ/mol
# Density = 1.936970 g / cm^3
# Si number density = 19.413888 Si / 1000 Ang^3
#
#
#
# Elastic Constant Matrix: (Units=GPa)
#
#
# Indices 1 2 3 4 5 6 
#
# 1 81.3333 3.4990 -6.8397 0.0000 0.0000 0.0000
# 2 3.4990 73.4668 45.1150 0.0000 0.0000 0.0000
# 3 -6.8397 45.1150 46.3673 0.0000 0.0000 0.0000
# 4 0.0000 0.0000 0.0000 19.9704 0.0000 0.0000
# 5 0.0000 0.0000 0.0000 0.0000 12.9416 0.0000
# 6 0.0000 0.0000 0.0000 0.0000 0.0000 22.6347
#
#
#
# Elastic Compliance Matrix: (Units=1/GPa)
#
#
# Indices 1 2 3 4 5 6 
#
# 1 0.013014 -0.004469 0.006268 0.000000 0.000000 0.000000
# 2 -0.004469 0.035352 -0.035057 0.000000 0.000000 0.000000
# 3 0.006268 -0.035057 0.056602 0.000000 0.000000 0.000000
# 4 0.000000 0.000000 0.000000 0.050074 0.000000 0.000000
# 5 0.000000 0.000000 0.000000 0.000000 0.077270 0.000000
# 6 0.000000 0.000000 0.000000 0.000000 0.000000 0.044180
#
#
# Mechanical properties :
#
#
# Convention : Reuss Voigt Hill
#
# Bulk Modulus (GPa) = 26.00582 31.63511 28.82047
# Shear Modulus (GPa) = 14.05182 21.73554 17.89368
#
# Velocity S-wave (km/s) = 2.69328 3.34965 3.03924
# Velocity P-wave (km/s) = 4.80585 5.59381 5.21473
#
# Compressibility (1/GPa) = 0.03845293
#
# Stress axis : x y z
#
# Youngs Moduli (GPa) = 76.83767 28.28664 17.66734
#
# Poissons Ratio (x) = 0.12641 -0.11074
# Poissons Ratio (y) = 0.34338 0.61936
# Poissons Ratio (z) = -0.48162 0.99164
#
# Static dielectric constant tensor:
#      x y z
#    x 1.679560 0.000000 0.000000 
#    y 0.000000 1.680190 0.000000 
#    z 0.000000 0.000000 1.696860 
# 
# From -- ./inp_files/43892.got.cif
#   From: 2010.05.17/outbox.cif.g08.bks.cpg/sg52_22_cif.got.tgz:43892.got - 2010.06.03 12:15:38.
