data_PCOD9409645
_publ_section_title
;
Structure prediction by ZEFSAII (Michael W. Deem and Ramdas Pophale) SiO2 
 PCOD9409645
Probable space group: P N N A
;
_chemical_formula_sum "Si O2"
_cell_formula_units_Z 48
_cell_length_a 14.658507
_cell_length_b 8.815952
_cell_length_c 16.539365
_cell_angle_alpha 90.000000
_cell_angle_beta 90.000000
_cell_angle_gamma 90.000000
_cell_volume 2137.360540
_symmetry_space_group_name_H-M "P N N A"
_symmetry_group_IT_number 52
_symmetry_cell_setting 'orthorhombic'
loop_
_space_group_symop_operation_xyz
x,y,z
1/2-x,-y,z
x,1/2-y,1/2-z
1/2-x,1/2+y,1/2-z
-x,-y,-z
1/2+x,y,-z
-x,1/2+y,1/2+z
1/2+x,1/2-y,1/2+z
loop_
_atom_site_type_symbol
_atom_site_label
_atom_site_fract_x
_atom_site_fract_y
_atom_site_fract_z
Si Si1 0.002768 0.662673 0.667916
Si Si2 0.023693 0.305018 0.666390
Si Si3 0.729110 0.178463 0.505902
Si Si4 0.770177 0.678529 0.167900
Si Si5 0.511624 0.180505 0.502467
Si Si6 0.281933 0.669372 0.331671
O O1 0.030620 0.750000 0.750000
O O2 0.028480 0.747796 0.584448
O O3 0.892175 0.667210 0.667419
O O4 0.033749 0.487137 0.668207
O O5 0.977268 0.250000 0.750000
O O6 0.121790 0.218447 0.667390
O O7 0.978659 0.255195 0.581578
O O8 0.764426 0.237002 0.419188
O O9 0.620488 0.204812 0.504706
O O10 0.759017 0.253493 0.588652
O O11 0.750000 0.000000 0.509304
O O12 0.750000 0.500000 0.170375
O O13 0.733007 0.750000 0.250000
O O14 0.500000 0.000000 0.500000
O O15 0.250000 0.500000 0.330002
O O16 0.252552 0.750000 0.250000
#
# Coordination Sequence:
#
# PCOD9409645 Si02
#       6
#     8   8   8   8   8   8
#     4  10  21  37  56  81 113 147 188 236 282 335
#     4  10  20  36  56  81 111 145 187 232 282 339
#     4   9  19  36  54  76 108 142 180 222 270 328
#     4   9  19  37  57  79 109 145 184 229 278 335
#     4  10  20  35  56  83 112 145 185 231 282 336
#     4  10  21  35  54  80 109 144 183 224 273 327
#
# _framework density 22.457605999999998
#
# number of rings (size 3 to 8) (size 9 to 14) (size 15 to 20)
#    0.000    2.333    0.000    2.000    0.000    2.667 
#    0.000   13.333    0.000    0.000    0.000    0.000 
#    0.000    0.000    0.000    0.000    0.000    0.000 
#
# Total GULP energy -268064.506254 kJ/mol
# GULP energy per Si atom -5584.677214 kJ/mol
# Density = 2.240649 g / cm^3
# Si number density = 22.457606 Si / 1000 Ang^3
#
#
#
# Elastic Constant Matrix: (Units=GPa)
#
#
# Indices 1 2 3 4 5 6 
#
# 1 87.2232 -3.3088 24.1185 0.0000 0.0000 0.0000
# 2 -3.3088 142.3321 115.6635 0.0000 0.0000 0.0000
# 3 24.1185 115.6635 291.9679 0.0000 0.0000 0.0000
# 4 0.0000 0.0000 0.0000 49.8372 0.0000 0.0000
# 5 0.0000 0.0000 0.0000 0.0000 -1.6129 0.0000
# 6 0.0000 0.0000 0.0000 0.0000 0.0000 33.0187
#
#
#
# Elastic Compliance Matrix: (Units=1/GPa)
#
#
# Indices 1 2 3 4 5 6 
#
# 1 0.011974 0.001596 -0.001621 0.000000 0.000000 0.000000
# 2 0.001596 0.010574 -0.004321 0.000000 0.000000 0.000000
# 3 -0.001621 -0.004321 0.005271 0.000000 0.000000 0.000000
# 4 0.000000 0.000000 0.000000 0.020065 0.000000 0.000000
# 5 0.000000 0.000000 0.000000 0.000000 -0.620006 0.000000
# 6 0.000000 0.000000 0.000000 0.000000 0.000000 0.030286
#
#
# Mechanical properties :
#
#
# Convention : Reuss Voigt Hill
#
# Bulk Modulus (GPa) = 52.28475 88.27440 70.27958
# Shear Modulus (GPa) = -9.49183 41.91859 16.21338
#
# Velocity S-wave (km/s) = -2.05809 4.32506 2.68984
# Velocity P-wave (km/s) = 4.20529 8.02085 6.40385
#
# Compressibility (1/GPa) = 0.01912604
#
# Stress axis : x y z
#
# Youngs Moduli (GPa) = 83.51638 94.57044 189.72981
#
# Poissons Ratio (x) = -0.15092 0.30761
# Poissons Ratio (y) = -0.13328 0.81978
# Poissons Ratio (z) = 0.13541 0.40862
#
# Static dielectric constant tensor:
#      x y z
#    x 1.829360 0.000000 0.000000 
#    y 0.000000 1.727450 0.000000 
#    z 0.000000 0.000000 1.864450 
# 
# From -- ./inp_files/28600.got.cif
#   From: 2010.05.17/outbox.cif.g08.bks.cpg/sg52_15_cif.got.tgz:28600.got - 2010.06.03 12:15:38.
