data_PCOD9409504
_publ_section_title
;
Structure prediction by ZEFSAII (Michael W. Deem and Ramdas Pophale) SiO2 
 PCOD9409504
Probable space group: P N N A
;
_chemical_formula_sum "Si O2"
_cell_formula_units_Z 48
_cell_length_a 15.750117
_cell_length_b 7.041242
_cell_length_c 20.080306
_cell_angle_alpha 90.000000
_cell_angle_beta 90.000000
_cell_angle_gamma 90.000000
_cell_volume 2226.913673
_symmetry_space_group_name_H-M "P N N A"
_symmetry_group_IT_number 52
_symmetry_cell_setting 'orthorhombic'
loop_
_space_group_symop_operation_xyz
x,y,z
1/2-x,-y,z
x,1/2-y,1/2-z
1/2-x,1/2+y,1/2-z
-x,-y,-z
1/2+x,y,-z
-x,1/2+y,1/2+z
1/2+x,1/2-y,1/2+z
loop_
_atom_site_type_symbol
_atom_site_label
_atom_site_fract_x
_atom_site_fract_y
_atom_site_fract_z
Si Si1 0.579459 0.535403 0.879659
Si Si2 0.397824 0.685266 0.465689
Si Si3 0.513312 0.565504 0.633646
Si Si4 0.150363 0.974114 0.241722
Si Si5 0.716404 0.703080 0.974452
Si Si6 0.344811 0.480237 0.589510
O O1 0.558615 0.372937 0.934291
O O2 0.513341 0.703977 0.862756
O O3 0.618668 0.444864 0.812708
O O4 0.654429 0.653656 0.914786
O O5 0.449379 0.509759 0.436474
O O6 0.298903 0.693342 0.444051
O O7 0.379810 0.657252 0.544197
O O8 0.582015 0.483312 0.685183
O O9 0.421338 0.467348 0.641054
O O10 0.141518 0.750000 0.250000
O O11 0.250000 0.000000 0.228152
O O12 0.750000 0.500000 0.000864
O O13 0.670810 0.818193 0.033356
O O14 0.250000 0.500000 0.618006
#
# Coordination Sequence:
#
# PCOD9409504 Si02
#       6
#     8   8   8   8   8   8
#     4  10  21  36  55  89 119 149 193 229 296 361
#     4  10  20  33  58  82 116 155 182 240 289 354
#     4  11  23  36  55  84 121 155 198 237 287 356
#     4  10  23  36  58  86 122 156 186 234 291 361
#     4   9  18  34  56  82 119 152 192 234 289 355
#     4  10  21  39  57  83 116 157 200 244 300 338
#
# _framework density 21.554496
#
# number of rings (size 3 to 8) (size 9 to 14) (size 15 to 20)
#    0.000    2.000    1.667    2.000    7.000    0.667 
#    6.000    0.000    0.000    0.000   13.000    0.000 
#    0.000    0.000    0.000    0.000    0.000    0.000 
#
# Total GULP energy -267361.467054 kJ/mol
# GULP energy per Si atom -5570.030564 kJ/mol
# Density = 2.150544 g / cm^3
# Si number density = 21.554496 Si / 1000 Ang^3
#
#
#
# Elastic Constant Matrix: (Units=GPa)
#
#
# Indices 1 2 3 4 5 6 
#
# 1 152.4949 37.2763 48.7545 0.0000 0.0000 0.0000
# 2 37.2763 75.4890 13.2901 0.0000 0.0000 0.0000
# 3 48.7545 13.2901 60.5437 0.0000 0.0000 0.0000
# 4 0.0000 0.0000 0.0000 9.5213 0.0000 0.0000
# 5 0.0000 0.0000 0.0000 0.0000 1.3464 0.0000
# 6 0.0000 0.0000 0.0000 0.0000 0.0000 18.7431
#
#
#
# Elastic Compliance Matrix: (Units=1/GPa)
#
#
# Indices 1 2 3 4 5 6 
#
# 1 0.009662 -0.003538 -0.007004 0.000000 0.000000 0.000000
# 2 -0.003538 0.015075 -0.000460 0.000000 0.000000 0.000000
# 3 -0.007004 -0.000460 0.022258 0.000000 0.000000 0.000000
# 4 0.000000 0.000000 0.000000 0.105028 0.000000 0.000000
# 5 0.000000 0.000000 0.000000 0.000000 0.742713 0.000000
# 6 0.000000 0.000000 0.000000 0.000000 0.000000 0.053353
#
#
# Mechanical properties :
#
#
# Convention : Reuss Voigt Hill
#
# Bulk Modulus (GPa) = 40.01434 54.12994 47.07214
# Shear Modulus (GPa) = 5.11027 18.53595 11.82311
#
# Velocity S-wave (km/s) = 1.54143 2.93568 2.34460
# Velocity P-wave (km/s) = 4.66611 6.05463 5.40514
#
# Compressibility (1/GPa) = 0.02499104
#
# Stress axis : x y z
#
# Youngs Moduli (GPa) = 103.50317 66.33521 44.92789
#
# Poissons Ratio (x) = 0.23468 0.31466
# Poissons Ratio (y) = 0.36618 0.02068
# Poissons Ratio (z) = 0.72490 0.03053
#
# Static dielectric constant tensor:
#      x y z
#    x 1.899930 0.000000 0.000000 
#    y 0.000000 1.899020 0.000000 
#    z 0.000000 0.000000 1.876030 
# 
# From -- ./inp_files/40571.got.cif
#   From: 2010.05.17/outbox.cif.g08.bks.cpg/sg52_21_cif.got.tgz:40571.got - 2010.06.03 12:15:38.
