data_PCOD9409112
_publ_section_title
;
Structure prediction by ZEFSAII (Michael W. Deem and Ramdas Pophale) SiO2 
 PCOD9409112
Probable space group: P N N A
;
_chemical_formula_sum "Si O2"
_cell_formula_units_Z 32
_cell_length_a 5.406153
_cell_length_b 15.240735
_cell_length_c 16.689831
_cell_angle_alpha 90.000000
_cell_angle_beta 90.000000
_cell_angle_gamma 90.000000
_cell_volume 1375.137684
_symmetry_space_group_name_H-M "P N N A"
_symmetry_group_IT_number 52
_symmetry_cell_setting 'orthorhombic'
loop_
_space_group_symop_operation_xyz
x,y,z
1/2-x,-y,z
x,1/2-y,1/2-z
1/2-x,1/2+y,1/2-z
-x,-y,-z
1/2+x,y,-z
-x,1/2+y,1/2+z
1/2+x,1/2-y,1/2+z
loop_
_atom_site_type_symbol
_atom_site_label
_atom_site_fract_x
_atom_site_fract_y
_atom_site_fract_z
Si Si1 0.477112 0.898409 0.469752
Si Si2 0.872641 0.592737 0.783393
Si Si3 0.125861 0.344040 0.715796
Si Si4 0.523147 0.102307 0.032779
O O1 0.748709 0.858564 0.481125
O O2 0.399895 0.896578 0.378197
O O3 0.500000 0.000000 0.500000
O O4 0.750000 0.500000 0.765299
O O5 0.652594 0.652352 0.750329
O O6 0.146653 0.597456 0.748123
O O7 0.217029 0.250000 0.750000
O O8 0.098067 0.375145 0.623636
O O9 0.249466 0.139622 0.019072
O O10 0.500000 0.000000 0.000000
#
# Coordination Sequence:
#
# PCOD9409112 Si02
#       4
#     8   8   8   8
#     4  10  19  36  58  95 141 165 223 294 340 420
#     4  12  25  41  75 104 133 196 253 303 374 465
#     4  12  28  48  69 107 153 189 244 323 395 441
#     4  10  23  44  73 104 137 186 251 314 364 448
#
# _framework density 23.270399000000001
#
# number of rings (size 3 to 8) (size 9 to 14) (size 15 to 20)
#    0.000    1.000    2.500    4.500   14.000    0.000 
#    0.000    7.500    0.000    0.000    0.000    0.000 
#    0.000    0.000    0.000    0.000    0.000    0.000 
#
# Total GULP energy -178364.597503 kJ/mol
# GULP energy per Si atom -5573.893672 kJ/mol
# Density = 2.321743 g / cm^3
# Si number density = 23.270399 Si / 1000 Ang^3
#
#
#
# Elastic Constant Matrix: (Units=GPa)
#
#
# Indices 1 2 3 4 5 6 
#
# 1 141.9462 2.1789 21.6216 0.0000 0.0000 0.0000
# 2 2.1789 75.8170 29.7365 0.0000 0.0000 0.0000
# 3 21.6216 29.7365 134.0656 0.0000 0.0000 0.0000
# 4 0.0000 0.0000 0.0000 18.8057 0.0000 0.0000
# 5 0.0000 0.0000 0.0000 0.0000 -19.5181 0.0000
# 6 0.0000 0.0000 0.0000 0.0000 0.0000 21.4638
#
#
#
# Elastic Compliance Matrix: (Units=1/GPa)
#
#
# Indices 1 2 3 4 5 6 
#
# 1 0.007228 0.000273 -0.001226 0.000000 0.000000 0.000000
# 2 0.000273 0.014457 -0.003251 0.000000 0.000000 0.000000
# 3 -0.001226 -0.003251 0.008378 0.000000 0.000000 0.000000
# 4 0.000000 0.000000 0.000000 0.053175 0.000000 0.000000
# 5 0.000000 0.000000 0.000000 0.000000 -0.051235 0.000000
# 6 0.000000 0.000000 0.000000 0.000000 0.000000 0.046590
#
#
# Mechanical properties :
#
#
# Convention : Reuss Voigt Hill
#
# Bulk Modulus (GPa) = 46.17919 50.98921 48.58420
# Shear Modulus (GPa) = 53.06809 24.03640 38.55224
#
# Velocity S-wave (km/s) = 4.78064 3.21739 4.07468
# Velocity P-wave (km/s) = 7.09650 5.98008 6.56207
#
# Compressibility (1/GPa) = 0.02165478
#
# Stress axis : x y z
#
# Youngs Moduli (GPa) = 138.36019 69.17178 119.36295
#
# Poissons Ratio (x) = -0.01890 0.14637
# Poissons Ratio (y) = -0.03781 0.38801
# Poissons Ratio (z) = 0.16966 0.22485
#
# Static dielectric constant tensor:
#      x y z
#    x 1.940430 0.000000 0.000000 
#    y 0.000000 1.902980 0.000000 
#    z 0.000000 0.000000 1.859140 
# 
# From -- ./inp_files/23491.got.cif
#   From: 2010.05.17/outbox.cif.g08.bks.cpg/sg52_12_cif.got.tgz:23491.got - 2010.06.03 12:15:38.
