data_PCOD9409874
_publ_section_title
;
Structure prediction by ZEFSAII (Michael W. Deem and Ramdas Pophale) SiO2 
 PCOD9409874
Probable space group: P N N A
;
_chemical_formula_sum "Si O2"
_cell_formula_units_Z 64
_cell_length_a 12.972940
_cell_length_b 9.111788
_cell_length_c 29.805426
_cell_angle_alpha 90.000000
_cell_angle_beta 90.000000
_cell_angle_gamma 90.000000
_cell_volume 3523.200424
_symmetry_space_group_name_H-M "P N N A"
_symmetry_group_IT_number 52
_symmetry_cell_setting 'orthorhombic'
loop_
_space_group_symop_operation_xyz
x,y,z
1/2-x,-y,z
x,1/2-y,1/2-z
1/2-x,1/2+y,1/2-z
-x,-y,-z
1/2+x,y,-z
-x,1/2+y,1/2+z
1/2+x,1/2-y,1/2+z
loop_
_atom_site_type_symbol
_atom_site_label
_atom_site_fract_x
_atom_site_fract_y
_atom_site_fract_z
Si Si1 0.129311 0.171029 0.702045
Si Si2 0.531095 0.685735 0.635797
Si Si3 0.015963 0.335563 0.369405
Si Si4 0.755521 0.823354 0.895910
Si Si5 0.102752 0.860858 0.962203
Si Si6 0.442281 0.682286 0.539372
Si Si7 0.731833 0.329542 0.992713
Si Si8 0.864031 0.180083 0.299511
O O1 0.122811 0.250000 0.750000
O O2 0.245460 0.207041 0.684534
O O3 0.036328 0.231459 0.672300
O O4 0.122610 0.995038 0.704956
O O5 0.517586 0.509858 0.641438
O O6 0.653026 0.718709 0.631804
O O7 0.481958 0.725544 0.587779
O O8 0.135502 0.287534 0.372463
O O9 0.966228 0.320536 0.419081
O O10 0.945931 0.249824 0.333770
O O11 0.755536 0.751128 0.945058
O O12 0.750000 0.000000 0.902186
O O13 0.126091 0.033913 0.956465
O O14 0.193570 0.747303 0.970933
O O15 0.039196 0.855751 0.008481
O O16 0.380780 0.803814 0.512662
O O17 0.750000 0.500000 0.987012
O O18 0.874802 0.250000 0.250000
#
# Coordination Sequence:
#
# PCOD9409874 Si02
#       8
#     8   8   8   8   8   8   8   8
#     4  10  22  41  64  89 119 149 184 233 289 347
#     4  10  21  37  62  88 113 150 196 242 285 340
#     4  10  21  37  62  88 113 150 196 242 285 340
#     4  10  20  40  61  81 114 157 202 236 280 345
#     4  10  20  37  58  79 109 155 203 239 278 337
#     4  10  20  37  58  79 109 155 203 239 278 337
#     4  12  24  34  50  79 118 155 192 246 297 337
#     4  10  22  41  64  89 119 149 184 233 289 347
#
# _framework density 18.165300999999999
#
# number of rings (size 3 to 8) (size 9 to 14) (size 15 to 20)
#    0.000    1.750    2.500    1.875    1.750    4.000 
#    0.000    0.625    0.000    0.000    0.000    0.000 
#    0.000    0.000    0.000    0.000    0.000    0.000 
#
# Total GULP energy -357080.563074 kJ/mol
# GULP energy per Si atom -5579.383798 kJ/mol
# Density = 1.812396 g / cm^3
# Si number density = 18.165301 Si / 1000 Ang^3
#
#
#
# Elastic Constant Matrix: (Units=GPa)
#
#
# Indices 1 2 3 4 5 6 
#
# 1 131.1473 56.8840 64.3446 0.0000 0.0000 0.0000
# 2 56.8840 55.2449 38.0358 0.0000 0.0000 0.0000
# 3 64.3446 38.0358 85.1427 0.0000 0.0000 0.0000
# 4 0.0000 0.0000 0.0000 -6.1358 0.0000 0.0000
# 5 0.0000 0.0000 0.0000 0.0000 -57.4186 0.0000
# 6 0.0000 0.0000 0.0000 0.0000 0.0000 22.9641
#
#
#
# Elastic Compliance Matrix: (Units=1/GPa)
#
#
# Indices 1 2 3 4 5 6 
#
# 1 0.016176 -0.011899 -0.006909 0.000000 0.000000 0.000000
# 2 -0.011899 0.034895 -0.006596 0.000000 0.000000 0.000000
# 3 -0.006909 -0.006596 0.019913 0.000000 0.000000 0.000000
# 4 0.000000 0.000000 0.000000 -0.162979 0.000000 0.000000
# 5 0.000000 0.000000 0.000000 0.000000 -0.017416 0.000000
# 6 0.000000 0.000000 0.000000 0.000000 0.000000 0.043546
#
#
# Mechanical properties :
#
#
# Convention : Reuss Voigt Hill
#
# Bulk Modulus (GPa) = 49.56525 65.56261 57.56393
# Shear Modulus (GPa) = -600.03545 -0.63334 -300.33439
#
# Velocity S-wave (km/s) = -18.19441 -0.59111 -12.87218
# Velocity P-wave (km/s) = 20.34791 5.97534 13.75377
#
# Compressibility (1/GPa) = 0.02017542
#
# Stress axis : x y z
#
# Youngs Moduli (GPa) = 61.82089 28.65774 50.21888
#
# Poissons Ratio (x) = 0.34100 0.34695
# Poissons Ratio (y) = 0.73561 0.33125
# Poissons Ratio (z) = 0.42711 0.18903
#
# Static dielectric constant tensor:
#      x y z
#    x 1.662140 0.000000 0.000000 
#    y 0.000000 1.626340 0.000000 
#    z 0.000000 0.000000 1.579320 
# 
# From -- ./inp_files/44589.got.cif
#   From: 2010.05.17/outbox.cif.g08.bks.cpg/sg52_23_cif.got.tgz:44589.got - 2010.06.03 12:15:38.
