data_PCOD9409088
_publ_section_title
;
Structure prediction by ZEFSAII (Michael W. Deem and Ramdas Pophale) SiO2 
 PCOD9409088
Probable space group: P N N A
;
_chemical_formula_sum "Si O2"
_cell_formula_units_Z 56
_cell_length_a 22.747861
_cell_length_b 27.201827
_cell_length_c 4.996844
_cell_angle_alpha 90.000000
_cell_angle_beta 90.000000
_cell_angle_gamma 90.000000
_cell_volume 3091.964017
_symmetry_space_group_name_H-M "P N N A"
_symmetry_group_IT_number 52
_symmetry_cell_setting 'orthorhombic'
loop_
_space_group_symop_operation_xyz
x,y,z
1/2-x,-y,z
x,1/2-y,1/2-z
1/2-x,1/2+y,1/2-z
-x,-y,-z
1/2+x,y,-z
-x,1/2+y,1/2+z
1/2+x,1/2-y,1/2+z
loop_
_atom_site_type_symbol
_atom_site_label
_atom_site_fract_x
_atom_site_fract_y
_atom_site_fract_z
Si Si1 0.592323 0.155139 0.361291
Si Si2 0.459338 0.944709 0.796462
Si Si3 0.526290 0.304779 0.636459
Si Si4 0.101220 0.652288 0.633407
Si Si5 0.796127 0.784565 0.507529
Si Si6 0.458695 0.445301 0.799047
Si Si7 0.163683 0.805118 0.351385
O O1 0.585099 0.099440 0.261119
O O2 0.551785 0.162622 0.621699
O O3 0.656585 0.174062 0.437589
O O4 0.567043 0.188982 0.122325
O O5 0.486317 0.941966 0.092717
O O6 0.514791 0.938522 0.594465
O O7 0.435448 0.999214 0.737839
O O8 0.524216 0.250000 0.750000
O O9 0.461592 0.323584 0.562233
O O10 0.086869 0.596977 0.723878
O O11 0.143280 0.657985 0.379975
O O12 0.786899 0.750000 0.250000
O O13 0.733276 0.805797 0.595188
O O14 0.818545 0.750000 0.750000
O O15 0.370691 0.318095 0.879430
O O16 0.149394 0.750000 0.250000
#
# Coordination Sequence:
#
# PCOD9409088 Si02
#       7
#     8   8   8   8   8   8   8
#     4  12  21  37  57  83 114 149 187 234 279 338
#     4  10  19  36  56  82 114 146 185 224 278 342
#     4  12  23  33  51  85 121 148 175 224 294 342
#     4  12  21  37  56  83 117 148 185 232 281 339
#     4  11  23  40  58  79 110 153 199 233 268 328
#     4  10  20  35  56  82 114 148 182 225 277 343
#     4  11  23  38  56  78 110 154 197 228 267 331
#
# _framework density 18.111464000000002
#
# number of rings (size 3 to 8) (size 9 to 14) (size 15 to 20)
#    0.000    0.857    2.857    7.286    0.000    0.000 
#    0.000    0.000    0.000    0.857    0.000    4.000 
#    0.000    0.000    0.000    0.000    0.000    0.000 
#
# Total GULP energy -313191.454433 kJ/mol
# GULP energy per Si atom -5592.704543 kJ/mol
# Density = 1.807024 g / cm^3
# Si number density = 18.111464 Si / 1000 Ang^3
#
#
#
# Elastic Constant Matrix: (Units=GPa)
#
#
# Indices 1 2 3 4 5 6 
#
# 1 80.6522 46.8490 16.3181 0.0000 0.0000 0.0000
# 2 46.8490 98.8841 -0.1919 0.0000 0.0000 0.0000
# 3 16.3181 -0.1919 83.2679 0.0000 0.0000 0.0000
# 4 0.0000 0.0000 0.0000 24.3411 0.0000 0.0000
# 5 0.0000 0.0000 0.0000 0.0000 31.2987 0.0000
# 6 0.0000 0.0000 0.0000 0.0000 0.0000 10.4444
#
#
#
# Elastic Compliance Matrix: (Units=1/GPa)
#
#
# Indices 1 2 3 4 5 6 
#
# 1 0.018109 -0.008586 -0.003569 0.000000 0.000000 0.000000
# 2 -0.008586 0.014184 0.001715 0.000000 0.000000 0.000000
# 3 -0.003569 0.001715 0.012713 0.000000 0.000000 0.000000
# 4 0.000000 0.000000 0.000000 0.041083 0.000000 0.000000
# 5 0.000000 0.000000 0.000000 0.000000 0.031950 0.000000
# 6 0.000000 0.000000 0.000000 0.000000 0.000000 0.095745
#
#
# Mechanical properties :
#
#
# Convention : Reuss Voigt Hill
#
# Bulk Modulus (GPa) = 41.44835 43.19497 42.32166
# Shear Modulus (GPa) = 20.60116 26.53877 23.56997
#
# Velocity S-wave (km/s) = 3.37629 3.83208 3.61138
# Velocity P-wave (km/s) = 6.17527 6.59402 6.38808
#
# Compressibility (1/GPa) = 0.02412641
#
# Stress axis : x y z
#
# Youngs Moduli (GPa) = 55.22266 70.50113 78.66140
#
# Poissons Ratio (x) = 0.60534 0.28071
# Poissons Ratio (y) = 0.47416 -0.13493
# Poissons Ratio (z) = 0.19706 -0.12093
#
# Static dielectric constant tensor:
#      x y z
#    x 1.593540 0.000000 0.000000 
#    y 0.000000 1.655100 0.000000 
#    z 0.000000 0.000000 1.633820 
# 
# From -- ./inp_files/4519.got.cif
#   From: 2010.05.17/outbox.cif.g08.bks.cpg/sg52_3_cif.got.tgz:4519.got - 2010.06.03 12:15:38.
