data_PCOD9409692
_publ_section_title
;
Structure prediction by ZEFSAII (Michael W. Deem and Ramdas Pophale) SiO2 
 PCOD9409692
Probable space group: P N N A
;
_chemical_formula_sum "Si O2"
_cell_formula_units_Z 48
_cell_length_a 18.862421
_cell_length_b 8.482985
_cell_length_c 16.354184
_cell_angle_alpha 90.000000
_cell_angle_beta 90.000000
_cell_angle_gamma 90.000000
_cell_volume 2616.827003
_symmetry_space_group_name_H-M "P N N A"
_symmetry_group_IT_number 52
_symmetry_cell_setting 'orthorhombic'
loop_
_space_group_symop_operation_xyz
x,y,z
1/2-x,-y,z
x,1/2-y,1/2-z
1/2-x,1/2+y,1/2-z
-x,-y,-z
1/2+x,y,-z
-x,1/2+y,1/2+z
1/2+x,1/2-y,1/2+z
loop_
_atom_site_type_symbol
_atom_site_label
_atom_site_fract_x
_atom_site_fract_y
_atom_site_fract_z
Si Si1 0.472055 0.412963 0.580847
Si Si2 0.683644 0.892168 0.591723
Si Si3 0.317436 0.401874 0.513211
Si Si4 0.965883 0.933031 0.582687
Si Si5 0.325737 0.067307 0.171907
Si Si6 0.973088 0.062535 0.755903
O O1 0.500000 0.500000 0.500000
O O2 0.387845 0.394916 0.566819
O O3 0.516337 0.251082 0.584144
O O4 0.484811 0.505475 0.664767
O O5 0.698585 0.778843 0.513399
O O6 0.750000 0.000000 0.608637
O O7 0.614417 0.999981 0.581904
O O8 0.673661 0.757362 0.660915
O O9 0.250000 0.500000 0.545475
O O10 0.335162 0.482023 0.424226
O O11 0.996608 0.996597 0.668652
O O12 0.000000 0.000000 0.500000
O O13 0.250000 0.000000 0.197864
O O14 0.391927 0.011051 0.224282
O O15 0.975478 0.250000 0.750000
#
# Coordination Sequence:
#
# PCOD9409692 Si02
#       6
#     8   8   8   8   8   8
#     4  12  23  40  66  92 124 173 214 266 329 394
#     4  10  20  35  61  93 133 166 214 250 324 393
#     4   9  19  39  60  91 127 166 210 255 322 389
#     4  12  24  42  62  93 130 168 215 275 322 388
#     4   9  19  38  58  89 133 169 202 245 319 397
#     4  12  23  43  60  93 129 167 216 269 326 390
#
# _framework density 18.342825000000001
#
# number of rings (size 3 to 8) (size 9 to 14) (size 15 to 20)
#    1.000    0.333    5.000    1.500    4.667    0.667 
#    0.000    0.000    0.000    3.000    0.000    0.000 
#    0.000    0.000    0.000    0.000    0.000    0.000 
#
# Total GULP energy -267584.941546 kJ/mol
# GULP energy per Si atom -5574.686282 kJ/mol
# Density = 1.830108 g / cm^3
# Si number density = 18.342825 Si / 1000 Ang^3
#
#
#
# Elastic Constant Matrix: (Units=GPa)
#
#
# Indices 1 2 3 4 5 6 
#
# 1 107.2234 47.5894 42.0600 0.0000 0.0000 0.0000
# 2 47.5894 106.7189 44.5632 0.0000 0.0000 0.0000
# 3 42.0600 44.5632 125.0679 0.0000 0.0000 0.0000
# 4 0.0000 0.0000 0.0000 33.3313 0.0000 0.0000
# 5 0.0000 0.0000 0.0000 0.0000 19.8493 0.0000
# 6 0.0000 0.0000 0.0000 0.0000 0.0000 36.3983
#
#
#
# Elastic Compliance Matrix: (Units=1/GPa)
#
#
# Indices 1 2 3 4 5 6 
#
# 1 0.012288 -0.004410 -0.002561 0.000000 0.000000 0.000000
# 2 -0.004410 0.012591 -0.003003 0.000000 0.000000 0.000000
# 3 -0.002561 -0.003003 0.009927 0.000000 0.000000 0.000000
# 4 0.000000 0.000000 0.000000 0.030002 0.000000 0.000000
# 5 0.000000 0.000000 0.000000 0.000000 0.050380 0.000000
# 6 0.000000 0.000000 0.000000 0.000000 0.000000 0.027474
#
#
# Mechanical properties :
#
#
# Convention : Reuss Voigt Hill
#
# Bulk Modulus (GPa) = 67.30686 67.49282 67.39984
# Shear Modulus (GPa) = 29.83942 31.56897 30.70420
#
# Velocity S-wave (km/s) = 4.03769 4.15306 4.09578
# Velocity P-wave (km/s) = 7.64923 7.73772 7.69360
#
# Compressibility (1/GPa) = 0.01485733
#
# Stress axis : x y z
#
# Youngs Moduli (GPa) = 81.37743 79.42058 100.73514
#
# Poissons Ratio (x) = 0.35027 0.25799
# Poissons Ratio (y) = 0.35890 0.30253
# Poissons Ratio (z) = 0.20842 0.23852
#
# Static dielectric constant tensor:
#      x y z
#    x 1.633000 0.000000 0.000000 
#    y 0.000000 1.651890 0.000000 
#    z 0.000000 0.000000 2.099210 
# 
# From -- ./inp_files/28086.got.cif
#   From: 2010.05.17/outbox.cif.g08.bks.cpg/sg52_15_cif.got.tgz:28086.got - 2010.06.03 12:15:38.
