data_PCOD9409775
_publ_section_title
;
Structure prediction by ZEFSAII (Michael W. Deem and Ramdas Pophale) SiO2 
 PCOD9409775
Probable space group: P N N A
;
_chemical_formula_sum "Si O2"
_cell_formula_units_Z 48
_cell_length_a 24.291164
_cell_length_b 11.548443
_cell_length_c 8.428520
_cell_angle_alpha 90.000000
_cell_angle_beta 90.000000
_cell_angle_gamma 90.000000
_cell_volume 2364.411609
_symmetry_space_group_name_H-M "P N N A"
_symmetry_group_IT_number 52
_symmetry_cell_setting 'orthorhombic'
loop_
_space_group_symop_operation_xyz
x,y,z
1/2-x,-y,z
x,1/2-y,1/2-z
1/2-x,1/2+y,1/2-z
-x,-y,-z
1/2+x,y,-z
-x,1/2+y,1/2+z
1/2+x,1/2-y,1/2+z
loop_
_atom_site_type_symbol
_atom_site_label
_atom_site_fract_x
_atom_site_fract_y
_atom_site_fract_z
Si Si1 0.226615 0.374578 0.687695
Si Si2 0.112497 0.024225 0.774684
Si Si3 0.006628 0.880829 0.313165
Si Si4 0.071606 0.678704 0.903497
Si Si5 0.109264 0.895000 0.103837
Si Si6 0.234803 0.874824 0.179231
O O1 0.250000 0.500000 0.745371
O O2 0.247982 0.250000 0.750000
O O3 0.162384 0.386664 0.735605
O O4 0.240138 0.375085 0.499560
O O5 0.051575 0.066226 0.732234
O O6 0.116723 0.911779 0.660371
O O7 0.112896 0.981244 0.955685
O O8 0.002691 0.750000 0.250000
O O9 0.021951 0.878263 0.498654
O O10 0.059764 0.931011 0.220030
O O11 0.051784 0.750000 0.750000
O O12 0.096131 0.770654 0.025933
O O13 0.168742 0.882121 0.178791
O O14 0.251492 0.750000 0.250000
O O15 0.250000 0.000000 0.254570
#
# Coordination Sequence:
#
# PCOD9409775 Si02
#       6
#     8   8   8   8   8   8
#     4  11  25  43  65  96 129 174 222 272 333 388
#     4  11  20  38  62  88 130 161 211 275 332 383
#     4  10  20  36  59  91 124 167 215 262 335 396
#     4   9  20  34  61  92 121 165 210 265 319 406
#     4  10  20  39  62  89 123 170 216 268 326 393
#     4  11  23  44  68  92 133 173 226 277 325 385
#
# _framework density 20.301034000000001
#
# number of rings (size 3 to 8) (size 9 to 14) (size 15 to 20)
#    0.000    1.667    3.333    3.000    2.333    0.667 
#    3.000    0.000    0.000    0.000    0.000    0.000 
#    0.000    0.000    0.000    0.000    0.000    0.000 
#
# Total GULP energy -267523.394952 kJ/mol
# GULP energy per Si atom -5573.404062 kJ/mol
# Density = 2.025483 g / cm^3
# Si number density = 20.301034 Si / 1000 Ang^3
#
#
#
# Elastic Constant Matrix: (Units=GPa)
#
#
# Indices 1 2 3 4 5 6 
#
# 1 98.4610 35.3356 27.4389 0.0000 0.0000 0.0000
# 2 35.3356 134.4234 36.5629 0.0000 0.0000 0.0000
# 3 27.4389 36.5629 51.8355 0.0000 0.0000 0.0000
# 4 0.0000 0.0000 0.0000 24.6675 0.0000 0.0000
# 5 0.0000 0.0000 0.0000 0.0000 13.8848 0.0000
# 6 0.0000 0.0000 0.0000 0.0000 0.0000 34.4364
#
#
#
# Elastic Compliance Matrix: (Units=1/GPa)
#
#
# Indices 1 2 3 4 5 6 
#
# 1 0.012257 -0.001803 -0.005216 0.000000 0.000000 0.000000
# 2 -0.001803 0.009471 -0.005726 0.000000 0.000000 0.000000
# 3 -0.005216 -0.005726 0.026092 0.000000 0.000000 0.000000
# 4 0.000000 0.000000 0.000000 0.040539 0.000000 0.000000
# 5 0.000000 0.000000 0.000000 0.000000 0.072021 0.000000
# 6 0.000000 0.000000 0.000000 0.000000 0.000000 0.029039
#
#
# Mechanical properties :
#
#
# Convention : Reuss Voigt Hill
#
# Bulk Modulus (GPa) = 44.78484 53.71052 49.24768
# Shear Modulus (GPa) = 22.48683 26.95657 24.72170
#
# Velocity S-wave (km/s) = 3.33178 3.64791 3.49342
# Velocity P-wave (km/s) = 6.07530 6.65263 6.37051
#
# Compressibility (1/GPa) = 0.02232898
#
# Stress axis : x y z
#
# Youngs Moduli (GPa) = 81.58536 105.59052 38.32630
#
# Poissons Ratio (x) = 0.19040 0.19992
# Poissons Ratio (y) = 0.14711 0.21944
# Poissons Ratio (z) = 0.42558 0.60458
#
# Static dielectric constant tensor:
#      x y z
#    x 1.761150 0.000000 0.000000 
#    y 0.000000 1.821400 0.000000 
#    z 0.000000 0.000000 1.718170 
# 
# From -- ./inp_files/14254.got.cif
#   From: 2010.05.17/outbox.cif.g08.bks.cpg/sg52_8_cif.got.tgz:14254.got - 2010.06.03 12:15:38.
