data_PCOD9409912
_publ_section_title
;
Structure prediction by ZEFSAII (Michael W. Deem and Ramdas Pophale) SiO2 
 PCOD9409912
Probable space group: P N N A
;
_chemical_formula_sum "Si O2"
_cell_formula_units_Z 56
_cell_length_a 12.414101
_cell_length_b 12.284191
_cell_length_c 19.670008
_cell_angle_alpha 90.000000
_cell_angle_beta 90.000000
_cell_angle_gamma 90.000000
_cell_volume 2999.620904
_symmetry_space_group_name_H-M "P N N A"
_symmetry_group_IT_number 52
_symmetry_cell_setting 'orthorhombic'
loop_
_space_group_symop_operation_xyz
x,y,z
1/2-x,-y,z
x,1/2-y,1/2-z
1/2-x,1/2+y,1/2-z
-x,-y,-z
1/2+x,y,-z
-x,1/2+y,1/2+z
1/2+x,1/2-y,1/2+z
loop_
_atom_site_type_symbol
_atom_site_label
_atom_site_fract_x
_atom_site_fract_y
_atom_site_fract_z
Si Si1 0.363518 0.208226 0.083808
Si Si2 0.845351 0.736018 0.669859
Si Si3 0.547769 0.374624 0.065607
Si Si4 0.351791 0.933160 0.947770
Si Si5 0.728565 0.728031 0.065439
Si Si6 0.440840 0.960424 0.090043
Si Si7 0.013241 0.614476 0.906275
O O1 0.273694 0.240599 0.138241
O O2 0.474363 0.275267 0.092948
O O3 0.386145 0.079347 0.089287
O O4 0.313306 0.238327 0.009946
O O5 0.844175 0.750000 0.750000
O O6 0.896224 0.620468 0.646163
O O7 0.919717 0.827868 0.635522
O O8 0.676081 0.359479 0.063662
O O9 0.523069 0.485655 0.105584
O O10 0.513371 0.380251 0.986595
O O11 0.296375 0.833121 0.909449
O O12 0.250000 0.000000 0.972830
O O13 0.432790 0.010652 0.906900
O O14 0.417441 0.902712 0.016592
O O15 0.624700 0.681160 0.103533
#
# Coordination Sequence:
#
# PCOD9409912 Si02
#       7
#     8   8   8   8   8   8   8
#     4  11  21  37  59  91 125 158 206 250 316 361
#     4  12  25  43  59  84 129 173 210 241 295 387
#     4  10  20  37  61  91 124 154 198 264 309 368
#     4  11  18  29  59  94 124 150 182 264 327 363
#     4  11  18  34  62  94 125 148 190 263 325 363
#     4  11  21  35  57  90 127 153 205 257 313 360
#     4  10  22  37  59  90 123 162 205 244 309 368
#
# _framework density 18.669027
#
# number of rings (size 3 to 8) (size 9 to 14) (size 15 to 20)
#    0.000    1.143    5.714    1.714    4.000    0.571 
#    5.143    0.000    0.000    6.000    0.000    0.000 
#    0.000    0.000    0.000    0.000    0.000    0.000 
#
# Total GULP energy -312363.750060 kJ/mol
# GULP energy per Si atom -5577.924108 kJ/mol
# Density = 1.862654 g / cm^3
# Si number density = 18.669027 Si / 1000 Ang^3
#
#
#
# Elastic Constant Matrix: (Units=GPa)
#
#
# Indices 1 2 3 4 5 6 
#
# 1 107.0888 16.2706 20.2636 0.0000 0.0000 0.0000
# 2 16.2706 85.7045 25.4597 0.0000 0.0000 0.0000
# 3 20.2636 25.4597 51.3159 0.0000 0.0000 0.0000
# 4 0.0000 0.0000 0.0000 12.7234 0.0000 0.0000
# 5 0.0000 0.0000 0.0000 0.0000 6.5466 0.0000
# 6 0.0000 0.0000 0.0000 0.0000 0.0000 30.1132
#
#
#
# Elastic Compliance Matrix: (Units=1/GPa)
#
#
# Indices 1 2 3 4 5 6 
#
# 1 0.010146 -0.000863 -0.003578 0.000000 0.000000 0.000000
# 2 -0.000863 0.013758 -0.006485 0.000000 0.000000 0.000000
# 3 -0.003578 -0.006485 0.024118 0.000000 0.000000 0.000000
# 4 0.000000 0.000000 0.000000 0.078596 0.000000 0.000000
# 5 0.000000 0.000000 0.000000 0.000000 0.152751 0.000000
# 6 0.000000 0.000000 0.000000 0.000000 0.000000 0.033208
#
#
# Mechanical properties :
#
#
# Convention : Reuss Voigt Hill
#
# Bulk Modulus (GPa) = 38.21319 40.89965 39.55642
# Shear Modulus (GPa) = 14.57076 22.01766 18.29421
#
# Velocity S-wave (km/s) = 2.79673 3.43792 3.13377
# Velocity P-wave (km/s) = 5.56257 6.14120 5.85903
#
# Compressibility (1/GPa) = 0.02616897
#
# Stress axis : x y z
#
# Youngs Moduli (GPa) = 98.55821 72.68290 41.46342
#
# Poissons Ratio (x) = 0.06274 0.14837
# Poissons Ratio (y) = 0.08508 0.26890
# Poissons Ratio (z) = 0.35267 0.47136
#
# Static dielectric constant tensor:
#      x y z
#    x 1.678380 0.000000 0.000000 
#    y 0.000000 1.725300 0.000000 
#    z 0.000000 0.000000 1.599570 
# 
# From -- ./inp_files/36805.got.cif
#   From: 2010.05.17/outbox.cif.g08.bks.cpg/sg52_19_cif.got.tgz:36805.got - 2010.06.03 12:15:38.
