data_PCOD9409304
_publ_section_title
;
Structure prediction by ZEFSAII (Michael W. Deem and Ramdas Pophale) SiO2 
 PCOD9409304
Probable space group: P N N A
;
_chemical_formula_sum "Si O2"
_cell_formula_units_Z 36
_cell_length_a 24.844965
_cell_length_b 7.422042
_cell_length_c 10.342132
_cell_angle_alpha 90.000000
_cell_angle_beta 90.000000
_cell_angle_gamma 90.000000
_cell_volume 1907.093006
_symmetry_space_group_name_H-M "P N N A"
_symmetry_group_IT_number 52
_symmetry_cell_setting 'orthorhombic'
loop_
_space_group_symop_operation_xyz
x,y,z
1/2-x,-y,z
x,1/2-y,1/2-z
1/2-x,1/2+y,1/2-z
-x,-y,-z
1/2+x,y,-z
-x,1/2+y,1/2+z
1/2+x,1/2-y,1/2+z
loop_
_atom_site_type_symbol
_atom_site_label
_atom_site_fract_x
_atom_site_fract_y
_atom_site_fract_z
Si Si1 0.354110 0.896078 0.930631
Si Si2 0.822874 0.250000 0.750000
Si Si3 0.099716 0.472134 0.834098
Si Si4 0.002066 0.250000 0.750000
Si Si5 0.250000 0.000000 0.071935
Si Si6 0.907946 0.262999 0.549294
O O1 0.380665 0.698728 0.920347
O O2 0.358741 0.976897 0.785322
O O3 0.293416 0.895605 0.983609
O O4 0.387706 0.035123 0.019234
O O5 0.784837 0.375818 0.666087
O O6 0.864417 0.168872 0.645171
O O7 0.042559 0.416235 0.771639
O O8 0.092664 0.648246 0.918881
O O9 0.964001 0.266691 0.625281
#
# Coordination Sequence:
#
# PCOD9409304 Si02
#       6
#     8   4   8   4   4   8
#     4   9  21  38  54  82 114 141 194 233 274 342
#     4   9  22  34  58  82 106 144 192 231 282 344
#     4  10  21  37  57  84 113 151 185 232 282 340
#     4   9  20  36  58  86 114 148 194 227 280 344
#     4  10  20  40  54  80 112 144 186 240 278 344
#     4  10  19  39  57  82 115 147 185 239 279 331
#
# _framework density 18.876898000000001
#
# number of rings (size 3 to 8) (size 9 to 14) (size 15 to 20)
#    0.000    2.667    0.000    1.333    3.111    3.556 
#   16.000    4.444    0.000    0.000    0.000    0.000 
#    0.000    0.000    0.000    0.000    0.000    0.000 
#
# Total GULP energy -200566.900342 kJ/mol
# GULP energy per Si atom -5571.302787 kJ/mol
# Density = 1.883393 g / cm^3
# Si number density = 18.876898 Si / 1000 Ang^3
#
#
#
# Elastic Constant Matrix: (Units=GPa)
#
#
# Indices 1 2 3 4 5 6 
#
# 1 113.0093 22.8247 38.9439 0.0000 0.0000 0.0000
# 2 22.8247 42.3055 14.8073 0.0000 0.0000 0.0000
# 3 38.9439 14.8073 76.7005 0.0000 0.0000 0.0000
# 4 0.0000 0.0000 0.0000 29.1010 0.0000 0.0000
# 5 0.0000 0.0000 0.0000 0.0000 -52.1318 0.0000
# 6 0.0000 0.0000 0.0000 0.0000 0.0000 10.4705
#
#
#
# Elastic Compliance Matrix: (Units=1/GPa)
#
#
# Indices 1 2 3 4 5 6 
#
# 1 0.011455 -0.004445 -0.004958 0.000000 0.000000 0.000000
# 2 -0.004445 0.027075 -0.002970 0.000000 0.000000 0.000000
# 3 -0.004958 -0.002970 0.016129 0.000000 0.000000 0.000000
# 4 0.000000 0.000000 0.000000 0.034363 0.000000 0.000000
# 5 0.000000 0.000000 0.000000 0.000000 -0.019182 0.000000
# 6 0.000000 0.000000 0.000000 0.000000 0.000000 0.095507
#
#
# Mechanical properties :
#
#
# Convention : Reuss Voigt Hill
#
# Bulk Modulus (GPa) = 33.43063 42.79633 38.11348
# Shear Modulus (GPa) = 24.99201 7.85056 16.42129
#
# Velocity S-wave (km/s) = 3.64256 2.04153 2.95263
# Velocity P-wave (km/s) = 5.95308 5.31767 5.64433
#
# Compressibility (1/GPa) = 0.02991268
#
# Stress axis : x y z
#
# Youngs Moduli (GPa) = 87.29664 36.93401 62.00181
#
# Poissons Ratio (x) = 0.16417 0.30741
# Poissons Ratio (y) = 0.38803 0.18415
# Poissons Ratio (z) = 0.43283 0.10970
#
# Static dielectric constant tensor:
#      x y z
#    x 1.663240 0.000000 0.000000 
#    y 0.000000 1.659460 0.000000 
#    z 0.000000 0.000000 1.693300 
# 
# From -- ./inp_files/14766.got.cif
#   From: 2010.05.17/outbox.cif.g08.bks.cpg/sg52_8_cif.got.tgz:14766.got - 2010.06.03 12:15:38.
