data_PCOD9409425
_publ_section_title
;
Structure prediction by ZEFSAII (Michael W. Deem and Ramdas Pophale) SiO2 
 PCOD9409425
Probable space group: P N N A
;
_chemical_formula_sum "Si O2"
_cell_formula_units_Z 60
_cell_length_a 9.377202
_cell_length_b 14.784383
_cell_length_c 24.201666
_cell_angle_alpha 90.000000
_cell_angle_beta 90.000000
_cell_angle_gamma 90.000000
_cell_volume 3355.225697
_symmetry_space_group_name_H-M "P N N A"
_symmetry_group_IT_number 52
_symmetry_cell_setting 'orthorhombic'
loop_
_space_group_symop_operation_xyz
x,y,z
1/2-x,-y,z
x,1/2-y,1/2-z
1/2-x,1/2+y,1/2-z
-x,-y,-z
1/2+x,y,-z
-x,1/2+y,1/2+z
1/2+x,1/2-y,1/2+z
loop_
_atom_site_type_symbol
_atom_site_label
_atom_site_fract_x
_atom_site_fract_y
_atom_site_fract_z
Si Si1 0.006821 0.068371 0.424871
Si Si2 0.742891 0.840659 0.273829
Si Si3 0.313893 0.261135 0.316204
Si Si4 0.850867 0.426454 0.339456
Si Si5 0.750000 0.500000 0.000804
Si Si6 0.902689 0.045323 0.793893
Si Si7 0.504374 0.913655 0.668929
Si Si8 0.988395 0.240683 0.351228
O O1 0.865900 0.049971 0.461082
O O2 0.994247 0.166153 0.398240
O O3 0.149125 0.060717 0.461801
O O4 0.017242 0.990798 0.377175
O O5 0.817705 0.750000 0.250000
O O6 0.719933 0.901600 0.220109
O O7 0.593994 0.808493 0.300256
O O8 0.840506 0.884232 0.320826
O O9 0.307749 0.250000 0.250000
O O10 0.394270 0.356473 0.322420
O O11 0.398175 0.175256 0.341442
O O12 0.150563 0.265304 0.336091
O O13 0.750000 0.500000 0.368694
O O14 0.895092 0.329881 0.364473
O O15 0.993222 0.479843 0.325893
O O16 0.950038 0.052849 0.729928
O O17 0.750000 0.000000 0.793595
#
# Coordination Sequence:
#
# PCOD9409425 Si02
#       8
#     8   8   8   8   4   8   8   8
#     4  11  23  40  62  82 109 134 183 236 297 352
#     4  10  20  32  48  75 117 159 195 219 249 300
#     4  10  21  32  48  77 117 154 197 223 254 306
#     4  11  21  34  50  75 117 160 190 224 259 300
#     4  10  24  44  60  82 106 132 170 246 318 352
#     4  11  21  33  50  76 119 164 191 222 253 298
#     4  11  22  33  54  81 110 155 191 225 268 331
#     4  11  22  34  54  81 106 148 193 229 266 337
#
# _framework density 17.882552
#
# number of rings (size 3 to 8) (size 9 to 14) (size 15 to 20)
#    0.000    1.333    2.667    4.800    8.400    0.000 
#    0.000    0.000    0.000    0.000    0.000    0.933 
#    0.000    0.000    0.000    0.000    0.000    0.000 
#
# Total GULP energy -334934.338686 kJ/mol
# GULP energy per Si atom -5582.238978 kJ/mol
# Density = 1.784185 g / cm^3
# Si number density = 17.882552 Si / 1000 Ang^3
#
#
#
# Elastic Constant Matrix: (Units=GPa)
#
#
# Indices 1 2 3 4 5 6 
#
# 1 95.0493 41.2368 30.5369 0.0000 0.0000 0.0000
# 2 41.2368 142.9497 47.3808 0.0000 0.0000 0.0000
# 3 30.5369 47.3808 51.9049 0.0000 0.0000 0.0000
# 4 0.0000 0.0000 0.0000 10.7373 0.0000 0.0000
# 5 0.0000 0.0000 0.0000 0.0000 4.9886 0.0000
# 6 0.0000 0.0000 0.0000 0.0000 0.0000 25.0672
#
#
#
# Elastic Compliance Matrix: (Units=1/GPa)
#
#
# Indices 1 2 3 4 5 6 
#
# 1 0.013281 -0.001780 -0.006189 0.000000 0.000000 0.000000
# 2 -0.001780 0.010269 -0.008327 0.000000 0.000000 0.000000
# 3 -0.006189 -0.008327 0.030508 0.000000 0.000000 0.000000
# 4 0.000000 0.000000 0.000000 0.093133 0.000000 0.000000
# 5 0.000000 0.000000 0.000000 0.000000 0.200457 0.000000
# 6 0.000000 0.000000 0.000000 0.000000 0.000000 0.039893
#
#
# Mechanical properties :
#
#
# Convention : Reuss Voigt Hill
#
# Bulk Modulus (GPa) = 46.58272 58.69031 52.63652
# Shear Modulus (GPa) = 11.70171 19.54192 15.62182
#
# Velocity S-wave (km/s) = 2.56083 3.30933 2.95884
# Velocity P-wave (km/s) = 5.90336 6.89154 6.41650
#
# Compressibility (1/GPa) = 0.02146719
#
# Stress axis : x y z
#
# Youngs Moduli (GPa) = 75.29300 97.38259 32.77836
#
# Poissons Ratio (x) = 0.17334 0.20286
# Poissons Ratio (y) = 0.13402 0.27293
# Poissons Ratio (z) = 0.46599 0.81086
#
# Static dielectric constant tensor:
#      x y z
#    x 1.663260 0.000000 0.000000 
#    y 0.000000 1.657930 0.000000 
#    z 0.000000 0.000000 1.580690 
# 
# From -- ./inp_files/39628.got.cif
#   From: 2010.05.17/outbox.cif.g08.bks.cpg/sg52_20_cif.got.tgz:39628.got - 2010.06.03 12:15:38.
