data_PCOD9409680
_publ_section_title
;
Structure prediction by ZEFSAII (Michael W. Deem and Ramdas Pophale) SiO2 
 PCOD9409680
Probable space group: P N N A
;
_chemical_formula_sum "Si O2"
_cell_formula_units_Z 56
_cell_length_a 14.711936
_cell_length_b 19.606283
_cell_length_c 9.627773
_cell_angle_alpha 90.000000
_cell_angle_beta 90.000000
_cell_angle_gamma 90.000000
_cell_volume 2777.096276
_symmetry_space_group_name_H-M "P N N A"
_symmetry_group_IT_number 52
_symmetry_cell_setting 'orthorhombic'
loop_
_space_group_symop_operation_xyz
x,y,z
1/2-x,-y,z
x,1/2-y,1/2-z
1/2-x,1/2+y,1/2-z
-x,-y,-z
1/2+x,y,-z
-x,1/2+y,1/2+z
1/2+x,1/2-y,1/2+z
loop_
_atom_site_type_symbol
_atom_site_label
_atom_site_fract_x
_atom_site_fract_y
_atom_site_fract_z
Si Si1 0.179778 0.398833 0.226391
Si Si2 0.976342 0.813645 0.841508
Si Si3 0.344689 0.373970 0.020994
Si Si4 0.885400 0.435310 0.263921
Si Si5 0.830363 0.084238 0.940621
Si Si6 0.921273 0.229725 0.910262
Si Si7 0.550048 0.523245 0.789770
O O1 0.121616 0.336603 0.286951
O O2 0.252739 0.379752 0.109737
O O3 0.239109 0.426734 0.354214
O O4 0.111491 0.457221 0.173072
O O5 0.007079 0.750000 0.750000
O O6 0.040888 0.877848 0.809958
O O7 0.990072 0.792477 0.001522
O O8 0.377427 0.296242 0.019239
O O9 0.422100 0.417813 0.102682
O O10 0.334528 0.406668 0.870040
O O11 0.826249 0.440651 0.402102
O O12 0.945946 0.500566 0.221395
O O13 0.854207 0.164915 0.924348
O O14 0.913152 0.047413 0.860058
O O15 0.937087 0.250000 0.750000
#
# Coordination Sequence:
#
# PCOD9409680 Si02
#       7
#     8   8   8   8   8   8   8
#     4  10  22  37  59  81 117 159 192 231 299 357
#     4  10  21  37  57  82 120 148 185 238 296 339
#     4  11  20  36  60  87 116 152 200 241 290 352
#     4  10  21  36  59  87 111 152 195 246 282 338
#     4  10  20  35  60  85 114 152 200 236 289 349
#     4  11  20  36  60  88 110 151 197 245 286 350
#     4  10  20  38  58  84 118 155 197 237 293 351
#
# _framework density 20.164949
#
# number of rings (size 3 to 8) (size 9 to 14) (size 15 to 20)
#    0.000    1.714    4.286    2.571    2.000    0.000 
#    0.000    4.286    0.000    0.000    0.000    0.000 
#    0.000    0.000    0.000    0.000    0.000    0.000 
#
# Total GULP energy -312631.426375 kJ/mol
# GULP energy per Si atom -5582.704042 kJ/mol
# Density = 2.011905 g / cm^3
# Si number density = 20.164949 Si / 1000 Ang^3
#
#
#
# Elastic Constant Matrix: (Units=GPa)
#
#
# Indices 1 2 3 4 5 6 
#
# 1 46.9163 10.5377 27.9620 0.0000 0.0000 0.0000
# 2 10.5377 85.9804 -1.0228 0.0000 0.0000 0.0000
# 3 27.9620 -1.0228 120.1402 0.0000 0.0000 0.0000
# 4 0.0000 0.0000 0.0000 22.2357 0.0000 0.0000
# 5 0.0000 0.0000 0.0000 0.0000 4.2291 0.0000
# 6 0.0000 0.0000 0.0000 0.0000 0.0000 17.8152
#
#
#
# Elastic Compliance Matrix: (Units=1/GPa)
#
#
# Indices 1 2 3 4 5 6 
#
# 1 0.025603 -0.003209 -0.005986 0.000000 0.000000 0.000000
# 2 -0.003209 0.012034 0.000849 0.000000 0.000000 0.000000
# 3 -0.005986 0.000849 0.009724 0.000000 0.000000 0.000000
# 4 0.000000 0.000000 0.000000 0.044973 0.000000 0.000000
# 5 0.000000 0.000000 0.000000 0.000000 0.236456 0.000000
# 6 0.000000 0.000000 0.000000 0.000000 0.000000 0.056132
#
#
# Mechanical properties :
#
#
# Convention : Reuss Voigt Hill
#
# Bulk Modulus (GPa) = 32.60611 36.44341 34.52476
# Shear Modulus (GPa) = 12.14073 23.22668 17.68370
#
# Velocity S-wave (km/s) = 2.45638 3.39755 2.96455
# Velocity P-wave (km/s) = 4.92441 5.78818 5.37368
#
# Compressibility (1/GPa) = 0.03066910
#
# Stress axis : x y z
#
# Youngs Moduli (GPa) = 39.05760 83.09811 102.83698
#
# Poissons Ratio (x) = 0.26667 0.61562
# Poissons Ratio (y) = 0.12534 -0.08735
# Poissons Ratio (z) = 0.23381 -0.07058
#
# Static dielectric constant tensor:
#      x y z
#    x 1.708080 0.000000 0.000000 
#    y 0.000000 1.742690 0.000000 
#    z 0.000000 0.000000 1.726230 
# 
# From -- ./inp_files/12535.got.cif
#   From: 2010.05.17/outbox.cif.g08.bks.cpg/sg52_7_cif.got.tgz:12535.got - 2010.06.03 12:15:38.
