data_PCOD9409101
_publ_section_title
;
Structure prediction by ZEFSAII (Michael W. Deem and Ramdas Pophale) SiO2 
 PCOD9409101
Probable space group: P N N A
;
_chemical_formula_sum "Si O2"
_cell_formula_units_Z 48
_cell_length_a 17.183471
_cell_length_b 8.840977
_cell_length_c 15.679472
_cell_angle_alpha 90.000000
_cell_angle_beta 90.000000
_cell_angle_gamma 90.000000
_cell_volume 2382.004562
_symmetry_space_group_name_H-M "P N N A"
_symmetry_group_IT_number 52
_symmetry_cell_setting 'orthorhombic'
loop_
_space_group_symop_operation_xyz
x,y,z
1/2-x,-y,z
x,1/2-y,1/2-z
1/2-x,1/2+y,1/2-z
-x,-y,-z
1/2+x,y,-z
-x,1/2+y,1/2+z
1/2+x,1/2-y,1/2+z
loop_
_atom_site_type_symbol
_atom_site_label
_atom_site_fract_x
_atom_site_fract_y
_atom_site_fract_z
Si Si1 0.516633 0.856848 0.821585
Si Si2 0.907039 0.875039 0.025920
Si Si3 0.025161 0.853608 0.555898
Si Si4 0.084476 0.400828 0.199249
Si Si5 0.359253 0.198146 0.045316
Si Si6 0.705068 0.353555 0.954007
O O1 0.481152 0.750000 0.750000
O O2 0.448777 0.911958 0.884795
O O3 0.577501 0.766970 0.881427
O O4 0.570876 0.974447 0.771341
O O5 0.974687 0.795465 0.969702
O O6 0.843764 0.740877 0.023358
O O7 0.872050 0.024238 0.982354
O O8 0.998642 0.888721 0.651051
O O9 0.112111 0.804133 0.532943
O O10 0.000000 0.000000 0.500000
O O11 0.103549 0.250000 0.250000
O O12 0.148594 0.408894 0.123295
O O13 0.273391 0.239394 0.075162
O O14 0.750000 0.500000 0.986365
#
# Coordination Sequence:
#
# PCOD9409101 Si02
#       6
#     8   8   8   8   8   8
#     4  11  21  36  60  88 119 153 197 252 304 353
#     4  10  21  38  58  84 116 160 211 245 287 364
#     4  10  19  36  58  82 112 155 207 245 283 354
#     4  11  22  36  56  88 123 152 192 250 308 360
#     4  11  21  38  60  83 116 161 200 240 297 367
#     4  11  23  38  58  85 119 159 201 248 308 370
#
# _framework density 20.151095000000002
#
# number of rings (size 3 to 8) (size 9 to 14) (size 15 to 20)
#    0.000    1.333    0.000   10.500    0.000    2.000 
#    0.000    0.000    0.000    7.000    0.000    0.000 
#    0.000    0.000    0.000    0.000    0.000    0.000 
#
# Total GULP energy -267622.227685 kJ/mol
# GULP energy per Si atom -5575.463077 kJ/mol
# Density = 2.010523 g / cm^3
# Si number density = 20.151095 Si / 1000 Ang^3
#
#
#
# Elastic Constant Matrix: (Units=GPa)
#
#
# Indices 1 2 3 4 5 6 
#
# 1 78.3111 34.6822 42.5821 0.0000 0.0000 0.0000
# 2 34.6822 106.7224 19.0067 0.0000 0.0000 0.0000
# 3 42.5821 19.0067 60.5244 0.0000 0.0000 0.0000
# 4 0.0000 0.0000 0.0000 32.7483 0.0000 0.0000
# 5 0.0000 0.0000 0.0000 0.0000 23.2417 0.0000
# 6 0.0000 0.0000 0.0000 0.0000 0.0000 40.5234
#
#
#
# Elastic Compliance Matrix: (Units=1/GPa)
#
#
# Indices 1 2 3 4 5 6 
#
# 1 0.022808 -0.004824 -0.014531 0.000000 0.000000 0.000000
# 2 -0.004824 0.010945 -0.000043 0.000000 0.000000 0.000000
# 3 -0.014531 -0.000043 0.026760 0.000000 0.000000 0.000000
# 4 0.000000 0.000000 0.000000 0.030536 0.000000 0.000000
# 5 0.000000 0.000000 0.000000 0.000000 0.043026 0.000000
# 6 0.000000 0.000000 0.000000 0.000000 0.000000 0.024677
#
#
# Mechanical properties :
#
#
# Convention : Reuss Voigt Hill
#
# Bulk Modulus (GPa) = 46.05093 48.67777 47.36435
# Shear Modulus (GPa) = 24.41556 29.25515 26.83535
#
# Velocity S-wave (km/s) = 3.48462 3.81437 3.65321
# Velocity P-wave (km/s) = 6.25240 6.60364 6.43042
#
# Compressibility (1/GPa) = 0.02171509
#
# Stress axis : x y z
#
# Youngs Moduli (GPa) = 43.84517 91.36188 37.36987
#
# Poissons Ratio (x) = 0.44072 0.54304
# Poissons Ratio (y) = 0.21151 0.00162
# Poissons Ratio (z) = 0.63713 0.00396
#
# Static dielectric constant tensor:
#      x y z
#    x 1.771800 0.000000 0.000000 
#    y 0.000000 1.796420 0.000000 
#    z 0.000000 0.000000 1.707690 
# 
# From -- ./inp_files/28054.got.cif
#   From: 2010.05.17/outbox.cif.g08.bks.cpg/sg52_15_cif.got.tgz:28054.got - 2010.06.03 12:15:38.
