data_PCOD9409852
_publ_section_title
;
Structure prediction by ZEFSAII (Michael W. Deem and Ramdas Pophale) SiO2 
 PCOD9409852
Probable space group: P N N A
;
_chemical_formula_sum "Si O2"
_cell_formula_units_Z 40
_cell_length_a 8.485603
_cell_length_b 8.444151
_cell_length_c 27.013775
_cell_angle_alpha 90.000000
_cell_angle_beta 90.000000
_cell_angle_gamma 90.000000
_cell_volume 1935.637282
_symmetry_space_group_name_H-M "P N N A"
_symmetry_group_IT_number 52
_symmetry_cell_setting 'orthorhombic'
loop_
_space_group_symop_operation_xyz
x,y,z
1/2-x,-y,z
x,1/2-y,1/2-z
1/2-x,1/2+y,1/2-z
-x,-y,-z
1/2+x,y,-z
-x,1/2+y,1/2+z
1/2+x,1/2-y,1/2+z
loop_
_atom_site_type_symbol
_atom_site_label
_atom_site_fract_x
_atom_site_fract_y
_atom_site_fract_z
Si Si1 0.750000 0.500000 0.305443
Si Si2 0.964231 0.750000 0.250000
Si Si3 0.505220 0.400713 0.148857
Si Si4 0.354627 0.263611 0.873714
Si Si5 0.173969 0.834125 0.447980
Si Si6 0.018186 0.170860 0.024953
O O1 0.853391 0.613614 0.271889
O O2 0.638576 0.608770 0.339483
O O3 0.043660 0.667030 0.202464
O O4 0.537664 0.589406 0.144526
O O5 0.674023 0.323266 0.132927
O O6 0.380013 0.349638 0.108164
O O7 0.403140 0.211101 0.928937
O O8 0.305809 0.701538 0.456376
O O9 0.025875 0.793758 0.481899
O O10 0.250000 0.000000 0.463128
O O11 0.000000 0.000000 0.000000
#
# Coordination Sequence:
#
# PCOD9409852 Si02
#       6
#     4   4   8   8   8   8
#     4  10  20  36  66  98 128 166 216 282 320 388
#     4  10  20  38  68  94 130 170 224 270 334 382
#     4  10  22  41  68  96 128 173 222 275 322 394
#     4  10  22  39  65  98 134 165 222 269 331 386
#     4  12  25  44  68  93 132 176 220 263 332 402
#     4  12  27  42  65  98 135 173 214 271 334 396
#
# _framework density 20.665029000000001
#
# number of rings (size 3 to 8) (size 9 to 14) (size 15 to 20)
#    0.000    1.200    2.000    4.800   11.200    0.000 
#    0.000    0.000    4.400    0.000    0.000    0.000 
#    0.000    0.000    0.000    0.000    0.000    0.000 
#
# Total GULP energy -223517.336095 kJ/mol
# GULP energy per Si atom -5587.933402 kJ/mol
# Density = 2.061799 g / cm^3
# Si number density = 20.665029 Si / 1000 Ang^3
#
#
#
# Elastic Constant Matrix: (Units=GPa)
#
#
# Indices 1 2 3 4 5 6 
#
# 1 58.2567 26.5694 36.1017 0.0000 0.0000 0.0000
# 2 26.5694 147.7194 78.7148 0.0000 0.0000 0.0000
# 3 36.1017 78.7148 151.6190 0.0000 0.0000 0.0000
# 4 0.0000 0.0000 0.0000 39.6022 0.0000 0.0000
# 5 0.0000 0.0000 0.0000 0.0000 41.5884 0.0000
# 6 0.0000 0.0000 0.0000 0.0000 0.0000 27.2208
#
#
#
# Elastic Compliance Matrix: (Units=1/GPa)
#
#
# Indices 1 2 3 4 5 6 
#
# 1 0.020372 -0.001492 -0.004076 0.000000 0.000000 0.000000
# 2 -0.001492 0.009468 -0.004560 0.000000 0.000000 0.000000
# 3 -0.004076 -0.004560 0.009933 0.000000 0.000000 0.000000
# 4 0.000000 0.000000 0.000000 0.025251 0.000000 0.000000
# 5 0.000000 0.000000 0.000000 0.000000 0.024045 0.000000
# 6 0.000000 0.000000 0.000000 0.000000 0.000000 0.036737
#
#
# Mechanical properties :
#
#
# Convention : Reuss Voigt Hill
#
# Bulk Modulus (GPa) = 51.23835 71.15190 61.19513
# Shear Modulus (GPa) = 32.77225 36.09625 34.43425
#
# Velocity S-wave (km/s) = 3.98663 4.18393 4.08647
# Velocity P-wave (km/s) = 6.78524 7.60566 7.20714
#
# Compressibility (1/GPa) = 0.01951663
#
# Stress axis : x y z
#
# Youngs Moduli (GPa) = 49.08729 105.62012 100.67021
#
# Poissons Ratio (x) = 0.15761 0.41033
# Poissons Ratio (y) = 0.07325 0.45906
# Poissons Ratio (z) = 0.20008 0.48163
#
# Static dielectric constant tensor:
#      x y z
#    x 1.752720 0.000000 0.000000 
#    y 0.000000 1.734020 0.000000 
#    z 0.000000 0.000000 1.752300 
# 
# From -- ./inp_files/42165.got.cif
#   From: 2010.05.17/outbox.cif.g08.bks.cpg/sg52_22_cif.got.tgz:42165.got - 2010.06.03 12:15:38.
