data_PCOD9409152
_publ_section_title
;
Structure prediction by ZEFSAII (Michael W. Deem and Ramdas Pophale) SiO2 
 PCOD9409152
Probable space group: P N N A
;
_chemical_formula_sum "Si O2"
_cell_formula_units_Z 32
_cell_length_a 5.254651
_cell_length_b 14.102587
_cell_length_c 18.352190
_cell_angle_alpha 90.000000
_cell_angle_beta 90.000000
_cell_angle_gamma 90.000000
_cell_volume 1359.973861
_symmetry_space_group_name_H-M "P N N A"
_symmetry_group_IT_number 52
_symmetry_cell_setting 'orthorhombic'
loop_
_space_group_symop_operation_xyz
x,y,z
1/2-x,-y,z
x,1/2-y,1/2-z
1/2-x,1/2+y,1/2-z
-x,-y,-z
1/2+x,y,-z
-x,1/2+y,1/2+z
1/2+x,1/2-y,1/2+z
loop_
_atom_site_type_symbol
_atom_site_label
_atom_site_fract_x
_atom_site_fract_y
_atom_site_fract_z
Si Si1 0.212033 0.364745 0.745438
Si Si2 0.859457 0.236768 0.538434
Si Si3 0.007511 0.440210 0.591402
Si Si4 0.779742 0.661094 0.806060
O O1 0.231216 0.250000 0.750000
O O2 0.137791 0.397170 0.664730
O O3 0.479287 0.395905 0.777668
O O4 0.981196 0.393701 0.796243
O O5 0.649950 0.206296 0.478388
O O6 0.729662 0.202543 0.613203
O O7 0.904986 0.349951 0.546394
O O8 0.250000 0.500000 0.559452
O O9 0.750000 0.500000 0.608478
O O10 0.762894 0.750000 0.750000
#
# Coordination Sequence:
#
# PCOD9409152 Si02
#       4
#     8   8   8   8
#     4  10  19  36  64  81 106 159 213 263 310 328
#     4  12  25  39  58  90 130 173 212 244 297 377
#     4  12  25  39  58  90 130 173 212 246 300 377
#     4  10  19  36  64  81 106 159 213 263 309 328
#
# _framework density 23.529864
#
# number of rings (size 3 to 8) (size 9 to 14) (size 15 to 20)
#    0.000    1.000    5.000    4.500    7.000    3.000 
#    0.000    0.000    0.000    0.000    0.000    0.000 
#    0.000   70.000    0.000    0.000    0.000    0.000 
#
# Total GULP energy -178545.753688 kJ/mol
# GULP energy per Si atom -5579.554803 kJ/mol
# Density = 2.347631 g / cm^3
# Si number density = 23.529864 Si / 1000 Ang^3
#
#
#
# Elastic Constant Matrix: (Units=GPa)
#
#
# Indices 1 2 3 4 5 6 
#
# 1 338.0356 22.3673 37.4380 0.0000 0.0000 0.0000
# 2 22.3673 69.2827 6.8863 0.0000 0.0000 0.0000
# 3 37.4380 6.8863 92.8350 0.0000 0.0000 0.0000
# 4 0.0000 0.0000 0.0000 20.2097 0.0000 0.0000
# 5 0.0000 0.0000 0.0000 0.0000 29.2177 0.0000
# 6 0.0000 0.0000 0.0000 0.0000 0.0000 33.5830
#
#
#
# Elastic Compliance Matrix: (Units=1/GPa)
#
#
# Indices 1 2 3 4 5 6 
#
# 1 0.003151 -0.000898 -0.001204 0.000000 0.000000 0.000000
# 2 -0.000898 0.014797 -0.000736 0.000000 0.000000 0.000000
# 3 -0.001204 -0.000736 0.011312 0.000000 0.000000 0.000000
# 4 0.000000 0.000000 0.000000 0.049481 0.000000 0.000000
# 5 0.000000 0.000000 0.000000 0.000000 0.034226 0.000000
# 6 0.000000 0.000000 0.000000 0.000000 0.000000 0.029777
#
#
# Mechanical properties :
#
#
# Convention : Reuss Voigt Hill
#
# Bulk Modulus (GPa) = 42.40013 70.39293 56.39653
# Shear Modulus (GPa) = 31.99394 45.49956 38.74675
#
# Velocity S-wave (km/s) = 3.69143 4.40215 4.06236
# Velocity P-wave (km/s) = 6.01895 7.47127 6.78409
#
# Compressibility (1/GPa) = 0.02358483
#
# Stress axis : x y z
#
# Youngs Moduli (GPa) = 317.35739 67.58352 88.40201
#
# Poissons Ratio (x) = 0.06066 0.10645
# Poissons Ratio (y) = 0.28486 0.06503
# Poissons Ratio (z) = 0.38214 0.04971
#
# Static dielectric constant tensor:
#      x y z
#    x 2.118880 0.000000 0.000000 
#    y 0.000000 2.310060 0.000000 
#    z 0.000000 0.000000 1.828190 
# 
# From -- ./inp_files/23461.got.cif
#   From: 2010.05.17/outbox.cif.g08.bks.cpg/sg52_12_cif.got.tgz:23461.got - 2010.06.03 12:15:38.
