data_PCOD9409145
_publ_section_title
;
Structure prediction by ZEFSAII (Michael W. Deem and Ramdas Pophale) SiO2 
 PCOD9409145
Probable space group: P N N A
;
_chemical_formula_sum "Si O2"
_cell_formula_units_Z 32
_cell_length_a 16.188146
_cell_length_b 16.029766
_cell_length_c 5.271827
_cell_angle_alpha 90.000000
_cell_angle_beta 90.000000
_cell_angle_gamma 90.000000
_cell_volume 1367.997946
_symmetry_space_group_name_H-M "P N N A"
_symmetry_group_IT_number 52
_symmetry_cell_setting 'orthorhombic'
loop_
_space_group_symop_operation_xyz
x,y,z
1/2-x,-y,z
x,1/2-y,1/2-z
1/2-x,1/2+y,1/2-z
-x,-y,-z
1/2+x,y,-z
-x,1/2+y,1/2+z
1/2+x,1/2-y,1/2+z
loop_
_atom_site_type_symbol
_atom_site_label
_atom_site_fract_x
_atom_site_fract_y
_atom_site_fract_z
Si Si1 0.167256 0.543375 0.801820
Si Si2 0.425247 0.622695 0.975469
Si Si3 0.753732 0.301158 0.001222
Si Si4 0.978951 0.098024 0.014790
O O1 0.250000 0.500000 0.694610
O O2 0.116428 0.593749 0.590845
O O3 0.110184 0.472035 0.929581
O O4 0.199174 0.610926 0.000981
O O5 0.343763 0.678638 0.971900
O O6 0.470956 0.631466 0.242386
O O7 0.488263 0.638236 0.743531
O O8 0.768834 0.250000 0.750000
O O9 0.778404 0.250000 0.250000
O O10 0.000000 0.000000 0.000000
#
# Coordination Sequence:
#
# PCOD9409145 Si02
#       4
#     8   8   8   8
#     4   9  20  38  63  93 122 156 201 254 309 365
#     4  10  21  39  63  87 119 161 206 250 298 365
#     4  11  24  41  60  88 126 166 203 251 312 370
#     4  10  19  36  62  92 118 151 203 255 300 358
#
# _framework density 23.391846000000001
#
# number of rings (size 3 to 8) (size 9 to 14) (size 15 to 20)
#    0.000    2.000    0.000    4.500    0.000    6.000 
#    0.000   25.000    0.000    0.000    0.000    0.000 
#    0.000    0.000    0.000    0.000    0.000    0.000 
#
# Total GULP energy -179015.175123 kJ/mol
# GULP energy per Si atom -5594.224223 kJ/mol
# Density = 2.333860 g / cm^3
# Si number density = 23.391846 Si / 1000 Ang^3
#
#
#
# Elastic Constant Matrix: (Units=GPa)
#
#
# Indices 1 2 3 4 5 6 
#
# 1 107.5179 34.3373 38.9989 0.0000 0.0000 0.0000
# 2 34.3373 62.9606 37.1698 0.0000 0.0000 0.0000
# 3 38.9989 37.1698 156.4816 0.0000 0.0000 0.0000
# 4 0.0000 0.0000 0.0000 15.6085 0.0000 0.0000
# 5 0.0000 0.0000 0.0000 0.0000 17.3862 0.0000
# 6 0.0000 0.0000 0.0000 0.0000 0.0000 21.5929
#
#
#
# Elastic Compliance Matrix: (Units=1/GPa)
#
#
# Indices 1 2 3 4 5 6 
#
# 1 0.011603 -0.005375 -0.001615 0.000000 0.000000 0.000000
# 2 -0.005375 0.020963 -0.003640 0.000000 0.000000 0.000000
# 3 -0.001615 -0.003640 0.007658 0.000000 0.000000 0.000000
# 4 0.000000 0.000000 0.000000 0.064068 0.000000 0.000000
# 5 0.000000 0.000000 0.000000 0.000000 0.057517 0.000000
# 6 0.000000 0.000000 0.000000 0.000000 0.000000 0.046311
#
#
# Mechanical properties :
#
#
# Convention : Reuss Voigt Hill
#
# Bulk Modulus (GPa) = 52.73015 60.88581 56.80798
# Shear Modulus (GPa) = 21.21336 25.34779 23.28058
#
# Velocity S-wave (km/s) = 3.01469 3.29540 3.15817
# Velocity P-wave (km/s) = 5.89143 6.36905 6.13489
#
# Compressibility (1/GPa) = 0.01896448
#
# Stress axis : x y z
#
# Youngs Moduli (GPa) = 86.18430 47.70300 130.58794
#
# Poissons Ratio (x) = 0.25638 0.21091
# Poissons Ratio (y) = 0.46320 0.47534
# Poissons Ratio (z) = 0.13920 0.17364
#
# Static dielectric constant tensor:
#      x y z
#    x 1.938750 0.000000 0.000000 
#    y 0.000000 1.941750 0.000000 
#    z 0.000000 0.000000 1.858840 
# 
# From -- ./inp_files/3138.got.cif
#   From: 2010.05.17/outbox.cif.g08.bks.cpg/sg52_2_cif.got.tgz:3138.got - 2010.06.03 12:15:38.
