data_PCOD9409155
_publ_section_title
;
Structure prediction by ZEFSAII (Michael W. Deem and Ramdas Pophale) SiO2 
 PCOD9409155
Probable space group: P N N A
;
_chemical_formula_sum "Si O2"
_cell_formula_units_Z 48
_cell_length_a 14.342615
_cell_length_b 15.389779
_cell_length_c 10.071071
_cell_angle_alpha 90.000000
_cell_angle_beta 90.000000
_cell_angle_gamma 90.000000
_cell_volume 2222.984230
_symmetry_space_group_name_H-M "P N N A"
_symmetry_group_IT_number 52
_symmetry_cell_setting 'orthorhombic'
loop_
_space_group_symop_operation_xyz
x,y,z
1/2-x,-y,z
x,1/2-y,1/2-z
1/2-x,1/2+y,1/2-z
-x,-y,-z
1/2+x,y,-z
-x,1/2+y,1/2+z
1/2+x,1/2-y,1/2+z
loop_
_atom_site_type_symbol
_atom_site_label
_atom_site_fract_x
_atom_site_fract_y
_atom_site_fract_z
Si Si1 0.660475 0.339749 0.670864
Si Si2 0.783575 0.900251 0.360076
Si Si3 0.454684 0.197240 0.890041
Si Si4 0.089590 0.869417 0.517781
Si Si5 0.594138 0.049161 0.602710
Si Si6 0.234910 0.602633 0.578350
O O1 0.671565 0.250000 0.750000
O O2 0.557566 0.340778 0.606591
O O3 0.657575 0.415452 0.779977
O O4 0.732899 0.350498 0.554398
O O5 0.692948 0.856030 0.423983
O O6 0.866948 0.907483 0.465531
O O7 0.793806 0.868563 0.209354
O O8 0.750000 0.000000 0.345450
O O9 0.446050 0.250000 0.750000
O O10 0.372156 0.128189 0.896439
O O11 0.446107 0.272172 0.002228
O O12 0.011934 0.915923 0.613503
O O13 0.097420 0.945094 0.408086
O O14 0.250000 0.500000 0.559390
#
# Coordination Sequence:
#
# PCOD9409155 Si02
#       6
#     8   8   8   8   8   8
#     4  11  24  43  66  95 135 171 213 273 340 381
#     4   9  19  36  61  90 119 160 215 259 306 382
#     4  11  21  42  68  92 132 179 215 264 331 395
#     4  10  19  36  64  92 121 171 219 254 312 387
#     4  10  20  37  64  94 125 164 219 264 313 387
#     4  11  25  43  66  93 127 174 218 269 334 396
#
# _framework density 21.592594999999999
#
# number of rings (size 3 to 8) (size 9 to 14) (size 15 to 20)
#    0.000    1.667    5.000    0.000    2.333    2.667 
#    0.000    1.667    0.000    0.000    0.000    0.000 
#    0.000    0.000    0.000    0.000    0.000    0.000 
#
# Total GULP energy -267825.328126 kJ/mol
# GULP energy per Si atom -5579.694336 kJ/mol
# Density = 2.154345 g / cm^3
# Si number density = 21.592595 Si / 1000 Ang^3
#
#
#
# Elastic Constant Matrix: (Units=GPa)
#
#
# Indices 1 2 3 4 5 6 
#
# 1 70.4125 4.9300 26.7583 0.0000 0.0000 0.0000
# 2 4.9300 64.5684 21.0612 0.0000 0.0000 0.0000
# 3 26.7583 21.0612 85.0055 0.0000 0.0000 0.0000
# 4 0.0000 0.0000 0.0000 22.2570 0.0000 0.0000
# 5 0.0000 0.0000 0.0000 0.0000 22.2850 0.0000
# 6 0.0000 0.0000 0.0000 0.0000 0.0000 29.0064
#
#
#
# Elastic Compliance Matrix: (Units=1/GPa)
#
#
# Indices 1 2 3 4 5 6 
#
# 1 0.016144 0.000462 -0.005197 0.000000 0.000000 0.000000
# 2 0.000462 0.016862 -0.004323 0.000000 0.000000 0.000000
# 3 -0.005197 -0.004323 0.014471 0.000000 0.000000 0.000000
# 4 0.000000 0.000000 0.000000 0.044930 0.000000 0.000000
# 5 0.000000 0.000000 0.000000 0.000000 0.044873 0.000000
# 6 0.000000 0.000000 0.000000 0.000000 0.000000 0.034475
#
#
# Mechanical properties :
#
#
# Convention : Reuss Voigt Hill
#
# Bulk Modulus (GPa) = 34.05703 36.16505 35.11104
# Shear Modulus (GPa) = 25.04273 25.85878 25.45075
#
# Velocity S-wave (km/s) = 3.40925 3.46436 3.43691
# Velocity P-wave (km/s) = 5.59501 5.72604 5.66090
#
# Compressibility (1/GPa) = 0.02936252
#
# Stress axis : x y z
#
# Youngs Moduli (GPa) = 61.94071 59.30356 69.10407
#
# Poissons Ratio (x) = -0.02742 0.35910
# Poissons Ratio (y) = -0.02864 0.29877
# Poissons Ratio (z) = 0.32188 0.25639
#
# Static dielectric constant tensor:
#      x y z
#    x 1.805760 0.000000 0.000000 
#    y 0.000000 1.860240 0.000000 
#    z 0.000000 0.000000 1.847550 
# 
# From -- ./inp_files/10503.got.cif
#   From: 2010.05.17/outbox.cif.g08.bks.cpg/sg52_6_cif.got.tgz:10503.got - 2010.06.03 12:15:38.
