data_PCOD9410947
_publ_section_title
;
Structure prediction by ZEFSAII (Michael W. Deem and Ramdas Pophale) SiO2 
 PCOD9410947
Probable space group: P N N A
;
_chemical_formula_sum "Si O2"
_cell_formula_units_Z 60
_cell_length_a 29.040087
_cell_length_b 9.244655
_cell_length_c 10.045304
_cell_angle_alpha 90.000000
_cell_angle_beta 90.000000
_cell_angle_gamma 90.000000
_cell_volume 2696.818420
_symmetry_space_group_name_H-M "P N N A"
_symmetry_group_IT_number 52
_symmetry_cell_setting 'orthorhombic'
loop_
_space_group_symop_operation_xyz
x,y,z
1/2-x,-y,z
x,1/2-y,1/2-z
1/2-x,1/2+y,1/2-z
-x,-y,-z
1/2+x,y,-z
-x,1/2+y,1/2+z
1/2+x,1/2-y,1/2+z
loop_
_atom_site_type_symbol
_atom_site_label
_atom_site_fract_x
_atom_site_fract_y
_atom_site_fract_z
Si Si1 0.477126 0.922807 0.205903
Si Si2 0.374124 0.228572 0.025385
Si Si3 0.549836 0.750000 0.750000
Si Si4 0.802484 0.507350 0.538056
Si Si5 0.609868 0.177948 0.949794
Si Si6 0.577250 0.975504 0.168684
Si Si7 0.879491 0.963806 0.435667
Si Si8 0.709660 0.090102 0.269224
O O1 0.484346 0.750000 0.250000
O O2 0.524999 0.945740 0.127880
O O3 0.474300 0.089459 0.271055
O O4 0.427137 0.903353 0.139926
O O5 0.417137 0.227301 0.123927
O O6 0.331195 0.135123 0.073939
O O7 0.391403 0.152561 0.889441
O O8 0.361360 0.392350 0.002334
O O9 0.750000 0.500000 0.586130
O O10 0.837657 0.634596 0.581937
O O11 0.799757 0.522543 0.376489
O O12 0.603228 0.348677 0.957330
O O13 0.596782 0.117991 0.096435
O O14 0.582255 0.993319 0.326574
O O15 0.836808 0.900049 0.352906
O O16 0.728304 0.250000 0.250000
O O17 0.750000 0.000000 0.337367
#
# Coordination Sequence:
#
# PCOD9410947 Si02
#       8
#     8   8   4   8   8   8   8   8
#     4  12  26  44  68  94 131 173 225 273 320 388
#     4  11  24  41  64  93 132 169 217 271 319 388
#     4  12  26  46  66  94 126 178 226 272 328 372
#     4  10  21  39  62  86 125 170 198 255 329 381
#     4  11  22  42  63  91 132 170 207 263 326 388
#     4  11  23  42  63  97 132 169 210 265 329 390
#     4  12  22  37  65  97 130 166 214 262 326 395
#     4  11  22  34  57  94 132 163 199 250 328 397
#
# _framework density 22.248438
#
# number of rings (size 3 to 8) (size 9 to 14) (size 15 to 20)
#    0.000    0.800    6.667    2.800    5.600    0.000 
#    0.000    2.667    1.467    0.800    0.000    0.000 
#    0.000    0.000    0.000    0.000    0.000    0.000 
#
# Total GULP energy -334364.430916 kJ/mol
# GULP energy per Si atom -5572.740515 kJ/mol
# Density = 2.219780 g / cm^3
# Si number density = 22.248438 Si / 1000 Ang^3
#
#
#
# Elastic Constant Matrix: (Units=GPa)
#
#
# Indices 1 2 3 4 5 6 
#
# 1 135.2924 26.3325 5.6642 0.0000 0.0000 0.0000
# 2 26.3325 176.7539 13.7990 0.0000 0.0000 0.0000
# 3 5.6642 13.7990 15.1101 0.0000 0.0000 0.0000
# 4 0.0000 0.0000 0.0000 20.0775 0.0000 0.0000
# 5 0.0000 0.0000 0.0000 0.0000 7.0021 0.0000
# 6 0.0000 0.0000 0.0000 0.0000 0.0000 25.9791
#
#
#
# Elastic Compliance Matrix: (Units=1/GPa)
#
#
# Indices 1 2 3 4 5 6 
#
# 1 0.007666 -0.000988 -0.001971 0.000000 0.000000 0.000000
# 2 -0.000988 0.006219 -0.005309 0.000000 0.000000 0.000000
# 3 -0.001971 -0.005309 0.071768 0.000000 0.000000 0.000000
# 4 0.000000 0.000000 0.000000 0.049807 0.000000 0.000000
# 5 0.000000 0.000000 0.000000 0.000000 0.142814 0.000000
# 6 0.000000 0.000000 0.000000 0.000000 0.000000 0.038493
#
#
# Mechanical properties :
#
#
# Convention : Reuss Voigt Hill
#
# Bulk Modulus (GPa) = 14.46832 46.52753 30.49792
# Shear Modulus (GPa) = 14.03139 29.36913 21.70026
#
# Velocity S-wave (km/s) = 2.51404 3.63720 3.12647
# Velocity P-wave (km/s) = 3.86579 6.21265 5.17404
#
# Compressibility (1/GPa) = 0.06911652
#
# Stress axis : x y z
#
# Youngs Moduli (GPa) = 130.44158 160.79013 13.93370
#
# Poissons Ratio (x) = 0.15889 0.02747
# Poissons Ratio (y) = 0.12890 0.07398
# Poissons Ratio (z) = 0.25714 0.85367
#
# Static dielectric constant tensor:
#      x y z
#    x 1.797550 0.000000 0.000000 
#    y 0.000000 1.884900 0.000000 
#    z 0.000000 0.000000 1.869950 
# 
# From -- ./inp_files/22898.got.cif
#   From: 2010.05.17/outbox.cif.g08.bks.cpg/sg52_12_cif.got.tgz:22898.got - 2010.06.03 12:15:38.
