data_PCOD9410511
_publ_section_title
;
Structure prediction by ZEFSAII (Michael W. Deem and Ramdas Pophale) SiO2 
 PCOD9410511
Probable space group: P N N A
;
_chemical_formula_sum "Si O2"
_cell_formula_units_Z 32
_cell_length_a 9.403698
_cell_length_b 24.786021
_cell_length_c 4.772206
_cell_angle_alpha 90.000000
_cell_angle_beta 90.000000
_cell_angle_gamma 90.000000
_cell_volume 1112.306997
_symmetry_space_group_name_H-M "P N N A"
_symmetry_group_IT_number 52
_symmetry_cell_setting 'orthorhombic'
loop_
_space_group_symop_operation_xyz
x,y,z
1/2-x,-y,z
x,1/2-y,1/2-z
1/2-x,1/2+y,1/2-z
-x,-y,-z
1/2+x,y,-z
-x,1/2+y,1/2+z
1/2+x,1/2-y,1/2+z
loop_
_atom_site_type_symbol
_atom_site_label
_atom_site_fract_x
_atom_site_fract_y
_atom_site_fract_z
Si Si1 0.750000 0.000000 0.128532
Si Si2 0.667964 0.654880 0.064864
Si Si3 0.509050 0.750000 0.750000
Si Si4 0.484424 0.434886 0.266751
Si Si5 0.349269 0.658937 0.431884
O O1 0.875461 0.970770 0.309342
O O2 0.644796 0.965131 0.926120
O O3 0.596780 0.708433 0.941375
O O4 0.588246 0.600637 0.974532
O O5 0.816153 0.655142 0.893703
O O6 0.703213 0.656991 0.390290
O O7 0.417749 0.713734 0.539145
O O8 0.560930 0.391982 0.471153
#
# Coordination Sequence:
#
# PCOD9410511 Si02
#       5
#     4   8   4   8   8
#     4  10  20  46  74 110 138 198 238 314 370 428
#     4  11  24  44  69 103 143 188 236 295 355 431
#     4  10  24  40  70 104 144 190 236 290 356 430
#     4  10  22  42  76 100 148 181 249 295 368 429
#     4  11  24  44  69 103 143 188 236 295 355 431
#
# _framework density 28.769034999999999
#
# number of rings (size 3 to 8) (size 9 to 14) (size 15 to 20)
#    0.000    1.500    2.500    1.500    0.000   10.000 
#    0.000    3.750    0.000    0.000    0.000    0.000 
#    0.000    0.000    0.000    0.000    0.000    0.000 
#
# Total GULP energy -179763.642677 kJ/mol
# GULP energy per Si atom -5617.613834 kJ/mol
# Density = 2.870355 g / cm^3
# Si number density = 28.769035 Si / 1000 Ang^3
#
#
#
# Elastic Constant Matrix: (Units=GPa)
#
#
# Indices 1 2 3 4 5 6 
#
# 1 191.0513 80.3339 33.5201 0.0000 0.0000 0.0000
# 2 80.3339 145.1952 14.5941 0.0000 0.0000 0.0000
# 3 33.5201 14.5941 97.5853 0.0000 0.0000 0.0000
# 4 0.0000 0.0000 0.0000 20.8816 0.0000 0.0000
# 5 0.0000 0.0000 0.0000 0.0000 66.0004 0.0000
# 6 0.0000 0.0000 0.0000 0.0000 0.0000 64.4138
#
#
#
# Elastic Compliance Matrix: (Units=1/GPa)
#
#
# Indices 1 2 3 4 5 6 
#
# 1 0.007150 -0.003766 -0.001893 0.000000 0.000000 0.000000
# 2 -0.003766 0.008976 -0.000049 0.000000 0.000000 0.000000
# 3 -0.001893 -0.000049 0.010905 0.000000 0.000000 0.000000
# 4 0.000000 0.000000 0.000000 0.047889 0.000000 0.000000
# 5 0.000000 0.000000 0.000000 0.000000 0.015151 0.000000
# 6 0.000000 0.000000 0.000000 0.000000 0.000000 0.015525
#
#
# Mechanical properties :
#
#
# Convention : Reuss Voigt Hill
#
# Bulk Modulus (GPa) = 64.03741 76.74755 70.39248
# Shear Modulus (GPa) = 40.91159 50.61806 45.76482
#
# Velocity S-wave (km/s) = 3.77513 4.19915 3.99277
# Velocity P-wave (km/s) = 6.42725 7.08841 6.76591
#
# Compressibility (1/GPa) = 0.01561587
#
# Stress axis : x y z
#
# Youngs Moduli (GPa) = 139.86778 111.41343 91.70192
#
# Poissons Ratio (x) = 0.41953 0.17357
# Poissons Ratio (y) = 0.52667 0.00448
# Poissons Ratio (z) = 0.26473 0.00545
#
# Static dielectric constant tensor:
#      x y z
#    x 2.283820 0.000000 0.000000 
#    y 0.000000 2.250030 0.000000 
#    z 0.000000 0.000000 2.100540 
# 
# From -- ./inp_files/429.got.cif
#   From: 2010.05.17/outbox.cif.g08.bks.cpg/sg52_1_cif.got.tgz:429.got - 2010.06.03 12:15:38.
