data_PCOD9410365
_publ_section_title
;
Structure prediction by ZEFSAII (Michael W. Deem and Ramdas Pophale) SiO2 
 PCOD9410365
Probable space group: P N N A
;
_chemical_formula_sum "Si O2"
_cell_formula_units_Z 40
_cell_length_a 17.531796
_cell_length_b 8.874476
_cell_length_c 12.096862
_cell_angle_alpha 90.000000
_cell_angle_beta 90.000000
_cell_angle_gamma 90.000000
_cell_volume 1882.096357
_symmetry_space_group_name_H-M "P N N A"
_symmetry_group_IT_number 52
_symmetry_cell_setting 'orthorhombic'
loop_
_space_group_symop_operation_xyz
x,y,z
1/2-x,-y,z
x,1/2-y,1/2-z
1/2-x,1/2+y,1/2-z
-x,-y,-z
1/2+x,y,-z
-x,1/2+y,1/2+z
1/2+x,1/2-y,1/2+z
loop_
_atom_site_type_symbol
_atom_site_label
_atom_site_fract_x
_atom_site_fract_y
_atom_site_fract_z
Si Si1 0.835437 0.522264 0.318460
Si Si2 0.367793 0.644187 0.905121
Si Si3 0.040203 0.648565 0.141549
Si Si4 0.888145 0.832803 0.645921
Si Si5 0.535385 0.648790 0.441109
O O1 0.750000 0.500000 0.361573
O O2 0.831248 0.536829 0.185888
O O3 0.862910 0.684655 0.361950
O O4 0.898006 0.402982 0.358555
O O5 0.456610 0.598733 0.900047
O O6 0.342069 0.650795 0.031501
O O7 0.031160 0.750000 0.250000
O O8 0.087059 0.501944 0.173229
O O9 0.069675 0.746873 0.038519
O O10 0.850813 0.750000 0.750000
O O11 0.964713 0.735155 0.616722
O O12 0.500000 0.500000 0.500000
#
# Coordination Sequence:
#
# PCOD9410365 Si02
#       5
#     8   8   8   8   8
#     4  11  22  39  62  90 129 173 205 260 329 385
#     4  10  20  41  56  88 132 163 207 265 310 378
#     4  11  20  36  62  94 128 161 211 276 320 372
#     4  11  22  35  64  96 122 165 211 269 329 374
#     4  11  19  37  63  91 128 166 213 269 322 378
#
# _framework density 21.252897000000001
#
# number of rings (size 3 to 8) (size 9 to 14) (size 15 to 20)
#    0.000    1.200    6.000    4.800    0.000    0.000 
#   18.000    0.000    0.000    2.400    0.000    0.000 
#    0.000    0.000    0.000    0.000    0.000    0.000 
#
# Total GULP energy -223392.470150 kJ/mol
# GULP energy per Si atom -5584.811754 kJ/mol
# Density = 2.120452 g / cm^3
# Si number density = 21.252897 Si / 1000 Ang^3
#
#
#
# Elastic Constant Matrix: (Units=GPa)
#
#
# Indices 1 2 3 4 5 6 
#
# 1 43.2337 6.4358 3.7897 0.0000 0.0000 0.0000
# 2 6.4358 81.3560 24.1670 0.0000 0.0000 0.0000
# 3 3.7897 24.1670 133.1205 0.0000 0.0000 0.0000
# 4 0.0000 0.0000 0.0000 41.0938 0.0000 0.0000
# 5 0.0000 0.0000 0.0000 0.0000 4.9487 0.0000
# 6 0.0000 0.0000 0.0000 0.0000 0.0000 -16.9061
#
#
#
# Elastic Compliance Matrix: (Units=1/GPa)
#
#
# Indices 1 2 3 4 5 6 
#
# 1 0.023421 -0.001749 -0.000349 0.000000 0.000000 0.000000
# 2 -0.001749 0.013123 -0.002333 0.000000 0.000000 0.000000
# 3 -0.000349 -0.002333 0.007945 0.000000 0.000000 0.000000
# 4 0.000000 0.000000 0.000000 0.024335 0.000000 0.000000
# 5 0.000000 0.000000 0.000000 0.000000 0.202072 0.000000
# 6 0.000000 0.000000 0.000000 0.000000 0.000000 -0.059150
#
#
# Mechanical properties :
#
#
# Convention : Reuss Voigt Hill
#
# Bulk Modulus (GPa) = 28.06802 36.27724 32.17263
# Shear Modulus (GPa) = 21.50698 20.71514 21.11106
#
# Velocity S-wave (km/s) = 3.18458 3.12540 3.15513
# Velocity P-wave (km/s) = 5.17275 5.48913 5.33329
#
# Compressibility (1/GPa) = 0.03562773
#
# Stress axis : x y z
#
# Youngs Moduli (GPa) = 42.69656 76.20263 125.85915
#
# Poissons Ratio (x) = 0.13328 0.04395
# Poissons Ratio (y) = 0.07468 0.29357
# Poissons Ratio (z) = 0.01491 0.17775
#
# Static dielectric constant tensor:
#      x y z
#    x 1.727830 0.000000 0.000000 
#    y 0.000000 -3.262910 0.000000 
#    z 0.000000 0.000000 1.831130 
# 
# From -- ./inp_files/20290.got.cif
#   From: 2010.05.17/outbox.cif.g08.bks.cpg/sg52_11_cif.got.tgz:20290.got - 2010.06.03 12:15:38.
