data_PCOD9410242
_publ_section_title
;
Structure prediction by ZEFSAII (Michael W. Deem and Ramdas Pophale) SiO2 
 PCOD9410242
Probable space group: P N N A
;
_chemical_formula_sum "Si O2"
_cell_formula_units_Z 40
_cell_length_a 9.060541
_cell_length_b 13.390427
_cell_length_c 14.598222
_cell_angle_alpha 90.000000
_cell_angle_beta 90.000000
_cell_angle_gamma 90.000000
_cell_volume 1771.122172
_symmetry_space_group_name_H-M "P N N A"
_symmetry_group_IT_number 52
_symmetry_cell_setting 'orthorhombic'
loop_
_space_group_symop_operation_xyz
x,y,z
1/2-x,-y,z
x,1/2-y,1/2-z
1/2-x,1/2+y,1/2-z
-x,-y,-z
1/2+x,y,-z
-x,1/2+y,1/2+z
1/2+x,1/2-y,1/2+z
loop_
_atom_site_type_symbol
_atom_site_label
_atom_site_fract_x
_atom_site_fract_y
_atom_site_fract_z
Si Si1 0.448858 0.352897 0.193826
Si Si2 0.330434 0.236595 0.040963
Si Si3 0.222042 0.679861 0.840782
Si Si4 0.920592 0.465844 0.278333
Si Si5 0.449247 0.606636 0.459869
O O1 0.440860 0.250000 0.250000
O O2 0.333809 0.328032 0.112667
O O3 0.613249 0.363601 0.152839
O O4 0.457024 0.448033 0.261349
O O5 0.215249 0.146549 0.057423
O O6 0.309843 0.273636 0.937940
O O7 0.489595 0.184103 0.035343
O O8 0.225907 0.750000 0.750000
O O9 0.102077 0.597187 0.813795
O O10 0.750000 0.500000 0.301834
O O11 0.974090 0.396261 0.360768
O O12 0.500000 0.500000 0.500000
#
# Coordination Sequence:
#
# PCOD9410242 Si02
#       5
#     8   8   8   8   8
#     4  10  22  41  65  94 138 180 222 289 350 406
#     4  12  23  42  66  98 137 178 229 289 349 410
#     4  10  20  39  67  95 130 179 232 276 343 418
#     4  10  21  40  69 100 133 183 236 279 346 425
#     4  12  24  39  67 102 134 174 232 289 346 416
#
# _framework density 22.58455
#
# number of rings (size 3 to 8) (size 9 to 14) (size 15 to 20)
#    0.000    1.200    4.000    3.000    2.800    0.800 
#    3.600    0.000    0.000    0.000    0.000    0.000 
#    0.000    0.000    0.000    0.000    0.000    0.000 
#
# Total GULP energy -222843.701317 kJ/mol
# GULP energy per Si atom -5571.092533 kJ/mol
# Density = 2.253315 g / cm^3
# Si number density = 22.584550 Si / 1000 Ang^3
#
#
#
# Elastic Constant Matrix: (Units=GPa)
#
#
# Indices 1 2 3 4 5 6 
#
# 1 66.8336 20.8772 27.3161 0.0000 0.0000 0.0000
# 2 20.8772 59.4365 33.3364 0.0000 0.0000 0.0000
# 3 27.3161 33.3364 121.3651 0.0000 0.0000 0.0000
# 4 0.0000 0.0000 0.0000 25.1509 0.0000 0.0000
# 5 0.0000 0.0000 0.0000 0.0000 11.7255 0.0000
# 6 0.0000 0.0000 0.0000 0.0000 0.0000 24.4159
#
#
#
# Elastic Compliance Matrix: (Units=1/GPa)
#
#
# Indices 1 2 3 4 5 6 
#
# 1 0.017505 -0.004656 -0.002661 0.000000 0.000000 0.000000
# 2 -0.004656 0.021127 -0.004755 0.000000 0.000000 0.000000
# 3 -0.002661 -0.004755 0.010145 0.000000 0.000000 0.000000
# 4 0.000000 0.000000 0.000000 0.039760 0.000000 0.000000
# 5 0.000000 0.000000 0.000000 0.000000 0.085284 0.000000
# 6 0.000000 0.000000 0.000000 0.000000 0.000000 0.040957
#
#
# Mechanical properties :
#
#
# Convention : Reuss Voigt Hill
#
# Bulk Modulus (GPa) = 40.59758 45.63274 43.11516
# Shear Modulus (GPa) = 20.23204 23.33216 21.78210
#
# Velocity S-wave (km/s) = 2.99630 3.21768 3.10896
# Velocity P-wave (km/s) = 5.47588 5.83556 5.65858
#
# Compressibility (1/GPa) = 0.02463201
#
# Stress axis : x y z
#
# Youngs Moduli (GPa) = 57.12804 47.33234 98.57408
#
# Poissons Ratio (x) = 0.22038 0.26229
# Poissons Ratio (y) = 0.26599 0.46874
# Poissons Ratio (z) = 0.15201 0.22508
#
# Static dielectric constant tensor:
#      x y z
#    x 1.864220 0.000000 0.000000 
#    y 0.000000 1.972480 0.000000 
#    z 0.000000 0.000000 1.863920 
# 
# From -- ./inp_files/24381.got.cif
#   From: 2010.05.17/outbox.cif.g08.bks.cpg/sg52_13_cif.got.tgz:24381.got - 2010.06.03 12:15:38.
