data_PCOD9410398
_publ_section_title
;
Structure prediction by ZEFSAII (Michael W. Deem and Ramdas Pophale) SiO2 
 PCOD9410398
Probable space group: P N N A
;
_chemical_formula_sum "Si O2"
_cell_formula_units_Z 56
_cell_length_a 22.496881
_cell_length_b 22.721017
_cell_length_c 5.229378
_cell_angle_alpha 90.000000
_cell_angle_beta 90.000000
_cell_angle_gamma 90.000000
_cell_volume 2673.007105
_symmetry_space_group_name_H-M "P N N A"
_symmetry_group_IT_number 52
_symmetry_cell_setting 'orthorhombic'
loop_
_space_group_symop_operation_xyz
x,y,z
1/2-x,-y,z
x,1/2-y,1/2-z
1/2-x,1/2+y,1/2-z
-x,-y,-z
1/2+x,y,-z
-x,1/2+y,1/2+z
1/2+x,1/2-y,1/2+z
loop_
_atom_site_type_symbol
_atom_site_label
_atom_site_fract_x
_atom_site_fract_y
_atom_site_fract_z
Si Si1 0.706647 0.750000 0.750000
Si Si2 0.997200 0.668123 0.028613
Si Si3 0.210336 0.312288 0.605049
Si Si4 0.421236 0.853546 0.019659
Si Si5 0.587871 0.750000 0.250000
Si Si6 0.908942 0.438066 0.938165
Si Si7 0.172294 0.841256 0.651796
Si Si8 0.430771 0.992032 0.944961
O O1 0.750801 0.701282 0.641789
O O2 0.671272 0.785892 0.541118
O O3 0.043014 0.720014 0.956586
O O4 0.035418 0.607360 0.051727
O O5 0.950569 0.662266 0.792558
O O6 0.961774 0.673167 0.293295
O O7 0.204471 0.250000 0.750000
O O8 0.146048 0.333256 0.527296
O O9 0.259607 0.349214 0.762924
O O10 0.418342 0.923873 0.988495
O O11 0.624428 0.810133 0.155121
O O12 0.853745 0.398567 0.025859
O O13 0.918012 0.486938 0.157443
O O14 0.900666 0.466672 0.660252
O O15 0.500000 0.000000 0.000000
#
# Coordination Sequence:
#
# PCOD9410398 Si02
#       8
#     4   8   8   8   4   8   8   8
#     4  10  20  41  70  90 125 170 218 262 324 402
#     4  11  24  39  62 100 128 171 206 273 326 398
#     4  10  24  43  64  94 128 177 216 265 328 407
#     4  12  26  41  66  92 137 175 218 262 328 397
#     4  10  22  39  60  98 135 154 216 274 336 382
#     4  11  23  41  71  96 127 167 222 273 327 383
#     4  10  22  42  66  97 125 170 218 274 332 391
#     4  12  22  43  64  97 131 175 220 267 327 388
#
# _framework density 20.950189000000002
#
# number of rings (size 3 to 8) (size 9 to 14) (size 15 to 20)
#    0.000    1.143    5.000    1.286    8.000    2.286 
#    0.000    0.714    0.000    0.000    0.000    0.000 
#    0.000    0.000    0.000    0.000    0.000    0.000 
#
# Total GULP energy -312521.863209 kJ/mol
# GULP energy per Si atom -5580.747557 kJ/mol
# Density = 2.090251 g / cm^3
# Si number density = 20.950189 Si / 1000 Ang^3
#
#
#
# Elastic Constant Matrix: (Units=GPa)
#
#
# Indices 1 2 3 4 5 6 
#
# 1 99.3289 13.4256 -10.9814 0.0000 0.0000 0.0000
# 2 13.4256 47.6085 -14.9705 0.0000 0.0000 0.0000
# 3 -10.9814 -14.9705 50.2273 0.0000 0.0000 0.0000
# 4 0.0000 0.0000 0.0000 13.8666 0.0000 0.0000
# 5 0.0000 0.0000 0.0000 0.0000 -10.4133 0.0000
# 6 0.0000 0.0000 0.0000 0.0000 0.0000 16.1411
#
#
#
# Elastic Compliance Matrix: (Units=1/GPa)
#
#
# Indices 1 2 3 4 5 6 
#
# 1 0.010578 -0.002489 0.001571 0.000000 0.000000 0.000000
# 2 -0.002489 0.023763 0.006538 0.000000 0.000000 0.000000
# 3 0.001571 0.006538 0.022202 0.000000 0.000000 0.000000
# 4 0.000000 0.000000 0.000000 0.072116 0.000000 0.000000
# 5 0.000000 0.000000 0.000000 0.000000 -0.096031 0.000000
# 6 0.000000 0.000000 0.000000 0.000000 0.000000 0.061954
#
#
# Mechanical properties :
#
#
# Convention : Reuss Voigt Hill
#
# Bulk Modulus (GPa) = 14.75313 19.12358 16.93835
# Shear Modulus (GPa) = 47.19925 17.89829 32.54877
#
# Velocity S-wave (km/s) = 4.75165 2.92606 3.94588
# Velocity P-wave (km/s) = 6.09603 4.53472 5.37239
#
# Compressibility (1/GPa) = 0.06778224
#
# Stress axis : x y z
#
# Youngs Moduli (GPa) = 94.53909 42.08308 45.04158
#
# Poissons Ratio (x) = 0.10474 -0.07075
# Poissons Ratio (y) = 0.23530 -0.29450
# Poissons Ratio (z) = -0.14850 -0.27515
#
# Static dielectric constant tensor:
#      x y z
#    x 1.871320 0.000000 0.000000 
#    y 0.000000 1.736250 0.000000 
#    z 0.000000 0.000000 2.877920 
# 
# From -- ./inp_files/5245.got.cif
#   From: 2010.05.17/outbox.cif.g08.bks.cpg/sg52_3_cif.got.tgz:5245.got - 2010.06.03 12:15:38.
