data_PCOD9410066
_publ_section_title
;
Structure prediction by ZEFSAII (Michael W. Deem and Ramdas Pophale) SiO2 
 PCOD9410066
Probable space group: P N N A
;
_chemical_formula_sum "Si O2"
_cell_formula_units_Z 64
_cell_length_a 21.875243
_cell_length_b 12.752191
_cell_length_c 9.651953
_cell_angle_alpha 90.000000
_cell_angle_beta 90.000000
_cell_angle_gamma 90.000000
_cell_volume 2692.482526
_symmetry_space_group_name_H-M "P N N A"
_symmetry_group_IT_number 52
_symmetry_cell_setting 'orthorhombic'
loop_
_space_group_symop_operation_xyz
x,y,z
1/2-x,-y,z
x,1/2-y,1/2-z
1/2-x,1/2+y,1/2-z
-x,-y,-z
1/2+x,y,-z
-x,1/2+y,1/2+z
1/2+x,1/2-y,1/2+z
loop_
_atom_site_type_symbol
_atom_site_label
_atom_site_fract_x
_atom_site_fract_y
_atom_site_fract_z
Si Si1 0.289301 0.235162 0.897426
Si Si2 0.570925 0.306215 0.873141
Si Si3 0.310431 0.836724 0.077991
Si Si4 0.631761 0.942239 0.415722
Si Si5 0.528611 0.847404 0.586713
Si Si6 0.636187 0.981827 0.105104
Si Si7 0.076343 0.881967 0.136025
Si Si8 0.340222 0.981958 0.305050
O O1 0.255278 0.250000 0.750000
O O2 0.243899 0.235297 0.025887
O O3 0.337532 0.328934 0.895793
O O4 0.322717 0.123243 0.903829
O O5 0.533159 0.250000 0.750000
O O6 0.597268 0.413423 0.812598
O O7 0.629977 0.234070 0.899860
O O8 0.534077 0.320901 0.012524
O O9 0.327644 0.921272 0.960320
O O10 0.297138 0.907394 0.213959
O O11 0.566238 0.923522 0.486127
O O12 0.624859 0.996649 0.267762
O O13 0.672722 0.997494 0.534585
O O14 0.525480 0.891034 0.742819
O O15 0.568065 0.739107 0.594347
O O16 0.579861 0.954122 0.000907
O O17 0.138434 0.915032 0.220060
#
# Coordination Sequence:
#
# PCOD9410066 Si02
#       8
#     8   8   8   8   8   8   8   8
#     4  10  21  39  68  95 125 164 211 272 327 380
#     4  10  23  42  62  86 128 178 212 263 326 389
#     4  10  22  44  62  89 129 174 213 263 323 398
#     4  10  21  38  70  99 123 164 214 275 326 386
#     4  10  20  38  62  90 129 160 209 268 317 385
#     4  10  20  39  66  97 127 161 217 268 329 385
#     4   9  19  36  60  90 123 157 203 263 316 378
#     4   9  21  44  61  90 130 165 216 265 323 387
#
# _framework density 23.769884999999999
#
# number of rings (size 3 to 8) (size 9 to 14) (size 15 to 20)
#    0.000    2.250    1.250    0.375    1.750    3.000 
#    9.000   20.000    0.000    0.000    0.000    0.000 
#    0.000    0.000    0.000    0.000    0.000    0.000 
#
# Total GULP energy -357279.663494 kJ/mol
# GULP energy per Si atom -5582.494742 kJ/mol
# Density = 2.371578 g / cm^3
# Si number density = 23.769885 Si / 1000 Ang^3
#
#
#
# Elastic Constant Matrix: (Units=GPa)
#
#
# Indices 1 2 3 4 5 6 
#
# 1 49.8855 7.6773 25.5913 0.0000 0.0000 0.0000
# 2 7.6773 71.2744 14.7284 0.0000 0.0000 0.0000
# 3 25.5913 14.7284 168.7011 0.0000 0.0000 0.0000
# 4 0.0000 0.0000 0.0000 31.4255 0.0000 0.0000
# 5 0.0000 0.0000 0.0000 0.0000 24.1240 0.0000
# 6 0.0000 0.0000 0.0000 0.0000 0.0000 8.8574
#
#
#
# Elastic Compliance Matrix: (Units=1/GPa)
#
#
# Indices 1 2 3 4 5 6 
#
# 1 0.021939 -0.001706 -0.003179 0.000000 0.000000 0.000000
# 2 -0.001706 0.014421 -0.001000 0.000000 0.000000 0.000000
# 3 -0.003179 -0.001000 0.006497 0.000000 0.000000 0.000000
# 4 0.000000 0.000000 0.000000 0.031821 0.000000 0.000000
# 5 0.000000 0.000000 0.000000 0.000000 0.041453 0.000000
# 6 0.000000 0.000000 0.000000 0.000000 0.000000 0.112900
#
#
# Mechanical properties :
#
#
# Convention : Reuss Voigt Hill
#
# Bulk Modulus (GPa) = 32.16856 42.87276 37.52066
# Shear Modulus (GPa) = 19.90730 29.00565 24.45648
#
# Velocity S-wave (km/s) = 2.89710 3.49702 3.21110
# Velocity P-wave (km/s) = 4.97530 5.86356 5.43760
#
# Compressibility (1/GPa) = 0.03108625
#
# Stress axis : x y z
#
# Youngs Moduli (GPa) = 45.58012 69.34451 153.91185
#
# Poissons Ratio (x) = 0.11832 0.48931
# Poissons Ratio (y) = 0.07777 0.15394
# Poissons Ratio (z) = 0.14491 0.06936
#
# Static dielectric constant tensor:
#      x y z
#    x 1.908680 0.000000 0.000000 
#    y 0.000000 1.909720 0.000000 
#    z 0.000000 0.000000 1.973440 
# 
# From -- ./inp_files/14495.got.cif
#   From: 2010.05.17/outbox.cif.g08.bks.cpg/sg52_8_cif.got.tgz:14495.got - 2010.06.03 12:15:38.
