data_PCOD9410309
_publ_section_title
;
Structure prediction by ZEFSAII (Michael W. Deem and Ramdas Pophale) SiO2 
 PCOD9410309
Probable space group: P N N A
;
_chemical_formula_sum "Si O2"
_cell_formula_units_Z 56
_cell_length_a 5.489498
_cell_length_b 28.146106
_cell_length_c 14.399119
_cell_angle_alpha 90.000000
_cell_angle_beta 90.000000
_cell_angle_gamma 90.000000
_cell_volume 2224.778972
_symmetry_space_group_name_H-M "P N N A"
_symmetry_group_IT_number 52
_symmetry_cell_setting 'orthorhombic'
loop_
_space_group_symop_operation_xyz
x,y,z
1/2-x,-y,z
x,1/2-y,1/2-z
1/2-x,1/2+y,1/2-z
-x,-y,-z
1/2+x,y,-z
-x,1/2+y,1/2+z
1/2+x,1/2-y,1/2+z
loop_
_atom_site_type_symbol
_atom_site_label
_atom_site_fract_x
_atom_site_fract_y
_atom_site_fract_z
Si Si1 0.401748 0.750000 0.750000
Si Si2 0.870477 0.110048 0.444273
Si Si3 0.366915 0.564138 0.783948
Si Si4 0.142642 0.652120 0.268112
Si Si5 0.980796 0.841190 0.026371
Si Si6 0.190560 0.720613 0.939835
Si Si7 0.998703 0.910551 0.860945
Si Si8 0.250000 0.000000 0.215884
O O1 0.581005 0.704682 0.763866
O O2 0.235615 0.749149 0.843016
O O3 0.636839 0.103585 0.511731
O O4 0.831923 0.072644 0.361973
O O5 0.840622 0.164743 0.411089
O O6 0.541083 0.610350 0.795693
O O7 0.240105 0.568612 0.683662
O O8 0.528933 0.517602 0.779745
O O9 0.996390 0.649676 0.365744
O O10 0.409958 0.634668 0.298502
O O11 0.232719 0.815948 0.001306
O O12 0.002064 0.888626 0.963097
O O13 0.440808 0.726251 0.000278
O O14 0.813422 0.954054 0.846222
#
# Coordination Sequence:
#
# PCOD9410309 Si02
#       8
#     4   8   8   8   8   8   8   4
#     4  12  24  46  70 108 150 198 244 312 380 430
#     4  10  23  42  70  97 132 184 234 292 356 424
#     4  11  21  44  69  96 137 184 229 291 361 436
#     4  10  23  40  65  98 137 188 240 284 352 422
#     4  10  20  40  65  97 136 184 235 285 344 418
#     4  10  24  45  67 104 146 188 250 305 361 444
#     4  10  22  41  70  97 141 188 232 294 360 433
#     4  10  24  40  70 108 134 180 234 296 362 444
#
# _framework density 25.171039
#
# number of rings (size 3 to 8) (size 9 to 14) (size 15 to 20)
#    0.000    1.714    2.857    0.429    4.000    4.000 
#    2.571    7.143    0.000    0.000    0.000    0.000 
#    0.000    0.000    0.000    0.000    0.000    0.000 
#
# Total GULP energy -313005.456009 kJ/mol
# GULP energy per Si atom -5589.383143 kJ/mol
# Density = 2.511375 g / cm^3
# Si number density = 25.171039 Si / 1000 Ang^3
#
#
#
# Elastic Constant Matrix: (Units=GPa)
#
#
# Indices 1 2 3 4 5 6 
#
# 1 120.0006 29.3360 16.9934 0.0000 0.0000 0.0000
# 2 29.3360 134.3307 33.0794 0.0000 0.0000 0.0000
# 3 16.9934 33.0794 83.6325 0.0000 0.0000 0.0000
# 4 0.0000 0.0000 0.0000 34.7640 0.0000 0.0000
# 5 0.0000 0.0000 0.0000 0.0000 37.7297 0.0000
# 6 0.0000 0.0000 0.0000 0.0000 0.0000 39.6049
#
#
#
# Elastic Compliance Matrix: (Units=1/GPa)
#
#
# Indices 1 2 3 4 5 6 
#
# 1 0.008902 -0.001660 -0.001152 0.000000 0.000000 0.000000
# 2 -0.001660 0.008557 -0.003047 0.000000 0.000000 0.000000
# 3 -0.001152 -0.003047 0.013396 0.000000 0.000000 0.000000
# 4 0.000000 0.000000 0.000000 0.028765 0.000000 0.000000
# 5 0.000000 0.000000 0.000000 0.000000 0.026504 0.000000
# 6 0.000000 0.000000 0.000000 0.000000 0.000000 0.025249
#
#
# Mechanical properties :
#
#
# Convention : Reuss Voigt Hill
#
# Bulk Modulus (GPa) = 52.25637 55.19794 53.72715
# Shear Modulus (GPa) = 38.61782 39.65672 39.13727
#
# Velocity S-wave (km/s) = 3.92116 3.97355 3.94744
# Velocity P-wave (km/s) = 6.42699 6.55964 6.49365
#
# Compressibility (1/GPa) = 0.01913642
#
# Stress axis : x y z
#
# Youngs Moduli (GPa) = 112.32974 116.85865 74.64637
#
# Poissons Ratio (x) = 0.19404 0.08600
# Poissons Ratio (y) = 0.18652 0.22747
# Poissons Ratio (z) = 0.12942 0.35611
#
# Static dielectric constant tensor:
#      x y z
#    x 2.091540 0.000000 0.000000 
#    y 0.000000 2.015490 0.000000 
#    z 0.000000 0.000000 1.981880 
# 
# From -- ./inp_files/23788.got.cif
#   From: 2010.05.17/outbox.cif.g08.bks.cpg/sg52_12_cif.got.tgz:23788.got - 2010.06.03 12:15:38.
