data_PCOD9410093
_publ_section_title
;
Structure prediction by ZEFSAII (Michael W. Deem and Ramdas Pophale) SiO2 
 PCOD9410093
Probable space group: P N N A
;
_chemical_formula_sum "Si O2"
_cell_formula_units_Z 44
_cell_length_a 18.449676
_cell_length_b 12.376337
_cell_length_c 8.309101
_cell_angle_alpha 90.000000
_cell_angle_beta 90.000000
_cell_angle_gamma 90.000000
_cell_volume 1897.295201
_symmetry_space_group_name_H-M "P N N A"
_symmetry_group_IT_number 52
_symmetry_cell_setting 'orthorhombic'
loop_
_space_group_symop_operation_xyz
x,y,z
1/2-x,-y,z
x,1/2-y,1/2-z
1/2-x,1/2+y,1/2-z
-x,-y,-z
1/2+x,y,-z
-x,1/2+y,1/2+z
1/2+x,1/2-y,1/2+z
loop_
_atom_site_type_symbol
_atom_site_label
_atom_site_fract_x
_atom_site_fract_y
_atom_site_fract_z
Si Si1 0.381390 0.387645 0.969715
Si Si2 0.291095 0.122343 0.221790
Si Si3 0.303954 0.908710 0.952649
Si Si4 0.435605 0.153455 0.042985
Si Si5 0.778928 0.250000 0.250000
Si Si6 0.949935 0.978639 0.212788
O O1 0.330713 0.339265 0.828371
O O2 0.426346 0.484928 0.890294
O O3 0.327766 0.420456 0.114857
O O4 0.429017 0.282039 0.020897
O O5 0.284368 0.250000 0.250000
O O6 0.353654 0.115819 0.084226
O O7 0.213867 0.088877 0.144086
O O8 0.272318 0.796836 0.887540
O O9 0.250000 0.000000 0.883067
O O10 0.382853 0.925301 0.882819
O O11 0.484404 0.103895 0.185793
O O12 0.464025 0.090631 0.885316
#
# Coordination Sequence:
#
# PCOD9410093 Si02
#       6
#     8   8   8   8   4   8
#     4  11  19  40  67  91 126 183 223 257 344 420
#     4  10  20  38  64  84 125 175 216 261 335 404
#     4  12  21  41  63  96 129 167 219 282 331 393
#     4  10  20  39  64  93 127 178 217 269 330 408
#     4  12  20  38  68  92 122 178 216 266 334 402
#     4  11  22  38  67  94 131 170 224 280 330 399
#
# _framework density 23.190908
#
# number of rings (size 3 to 8) (size 9 to 14) (size 15 to 20)
#    0.000    1.091    9.091    0.000    0.000    0.727 
#    8.182    3.636    0.000    0.000    0.000    0.000 
#    0.000    0.000    0.000    0.000    0.000    0.000 
#
# Total GULP energy -245599.660800 kJ/mol
# GULP energy per Si atom -5581.810473 kJ/mol
# Density = 2.313812 g / cm^3
# Si number density = 23.190908 Si / 1000 Ang^3
#
#
#
# Elastic Constant Matrix: (Units=GPa)
#
#
# Indices 1 2 3 4 5 6 
#
# 1 108.0720 54.0094 29.7703 0.0000 0.0000 0.0000
# 2 54.0094 59.9863 38.5486 0.0000 0.0000 0.0000
# 3 29.7703 38.5486 126.4237 0.0000 0.0000 0.0000
# 4 0.0000 0.0000 0.0000 30.7677 0.0000 0.0000
# 5 0.0000 0.0000 0.0000 0.0000 37.3254 0.0000
# 6 0.0000 0.0000 0.0000 0.0000 0.0000 37.1785
#
#
#
# Elastic Compliance Matrix: (Units=1/GPa)
#
#
# Indices 1 2 3 4 5 6 
#
# 1 0.016891 -0.015735 0.000820 0.000000 0.000000 0.000000
# 2 -0.015735 0.035391 -0.007086 0.000000 0.000000 0.000000
# 3 0.000820 -0.007086 0.009877 0.000000 0.000000 0.000000
# 4 0.000000 0.000000 0.000000 0.032502 0.000000 0.000000
# 5 0.000000 0.000000 0.000000 0.000000 0.026791 0.000000
# 6 0.000000 0.000000 0.000000 0.000000 0.000000 0.026897
#
#
# Mechanical properties :
#
#
# Convention : Reuss Voigt Hill
#
# Bulk Modulus (GPa) = 55.07184 59.90430 57.48807
# Shear Modulus (GPa) = 25.20117 32.53123 28.86620
#
# Velocity S-wave (km/s) = 3.30006 3.74940 3.53189
# Velocity P-wave (km/s) = 6.19026 6.68065 6.44012
#
# Compressibility (1/GPa) = 0.01815810
#
# Stress axis : x y z
#
# Youngs Moduli (GPa) = 59.20433 28.25558 101.24136
#
# Poissons Ratio (x) = 0.44460 -0.08306
# Poissons Ratio (y) = 0.93157 0.71741
# Poissons Ratio (z) = -0.04857 0.20022
#
# Static dielectric constant tensor:
#      x y z
#    x 1.840400 0.000000 0.000000 
#    y 0.000000 2.041530 0.000000 
#    z 0.000000 0.000000 1.939230 
# 
# From -- ./inp_files/11987.got.cif
#   From: 2010.05.17/outbox.cif.g08.bks.cpg/sg52_6_cif.got.tgz:11987.got - 2010.06.03 12:15:38.
