data_PCOD9410200
_publ_section_title
;
Structure prediction by ZEFSAII (Michael W. Deem and Ramdas Pophale) SiO2 
 PCOD9410200
Probable space group: P N N A
;
_chemical_formula_sum "Si O2"
_cell_formula_units_Z 64
_cell_length_a 9.205176
_cell_length_b 15.227023
_cell_length_c 21.763579
_cell_angle_alpha 90.000000
_cell_angle_beta 90.000000
_cell_angle_gamma 90.000000
_cell_volume 3050.544864
_symmetry_space_group_name_H-M "P N N A"
_symmetry_group_IT_number 52
_symmetry_cell_setting 'orthorhombic'
loop_
_space_group_symop_operation_xyz
x,y,z
1/2-x,-y,z
x,1/2-y,1/2-z
1/2-x,1/2+y,1/2-z
-x,-y,-z
1/2+x,y,-z
-x,1/2+y,1/2+z
1/2+x,1/2-y,1/2+z
loop_
_atom_site_type_symbol
_atom_site_label
_atom_site_fract_x
_atom_site_fract_y
_atom_site_fract_z
Si Si1 0.331217 0.215531 0.038399
Si Si2 0.595533 0.508762 0.842979
Si Si3 0.064624 0.345348 0.913245
Si Si4 0.077079 0.504795 0.721346
Si Si5 0.356385 0.269029 0.910011
Si Si6 0.399498 0.624847 0.044418
Si Si7 0.439072 0.689034 0.308661
Si Si8 0.166571 0.592348 0.349678
O O1 0.479600 0.263171 0.058462
O O2 0.205685 0.289484 0.050365
O O3 0.330973 0.129863 0.080849
O O4 0.326193 0.200261 0.965072
O O5 0.750000 0.500000 0.808396
O O6 0.544881 0.600850 0.871245
O O7 0.472712 0.490177 0.792691
O O8 0.621393 0.443566 0.900634
O O9 0.208700 0.306810 0.881907
O O10 0.111792 0.403038 0.973058
O O11 0.250000 0.500000 0.715480
O O12 0.022283 0.597201 0.695551
O O13 0.985572 0.428451 0.685212
O O14 0.433609 0.347900 0.946355
O O15 0.477424 0.237874 0.863219
O O16 0.455384 0.750000 0.250000
O O17 0.269746 0.664559 0.316950
O O18 0.250000 0.500000 0.348704
#
# Coordination Sequence:
#
# PCOD9410200 Si02
#       8
#     8   8   8   8   8   8   8   8
#     4  10  20  41  67  93 131 166 218 274 327 393
#     4  12  23  40  63  90 134 181 219 263 323 394
#     4  10  23  36  61  99 133 170 215 265 324 390
#     4  11  28  45  61  95 133 165 218 280 331 404
#     4  10  22  38  64  98 130 169 215 275 328 387
#     4  10  20  39  63  94 133 171 214 265 323 396
#     4  11  23  43  71  94 128 176 222 268 331 404
#     4  10  23  46  69  93 123 169 223 271 333 399
#
# _framework density 20.979859000000001
#
# number of rings (size 3 to 8) (size 9 to 14) (size 15 to 20)
#    0.000    1.500    2.500    2.250    5.250    1.000 
#    0.000    3.750    0.000    0.000    0.000    0.000 
#    0.000    0.000    0.000    0.000    0.000    0.000 
#
# Total GULP energy -356674.976609 kJ/mol
# GULP energy per Si atom -5573.046510 kJ/mol
# Density = 2.093211 g / cm^3
# Si number density = 20.979859 Si / 1000 Ang^3
#
#
#
# Elastic Constant Matrix: (Units=GPa)
#
#
# Indices 1 2 3 4 5 6 
#
# 1 156.6135 31.1834 33.3616 0.0000 0.0000 0.0000
# 2 31.1834 37.6031 24.5553 0.0000 0.0000 0.0000
# 3 33.3616 24.5553 87.9504 0.0000 0.0000 0.0000
# 4 0.0000 0.0000 0.0000 27.1102 0.0000 0.0000
# 5 0.0000 0.0000 0.0000 0.0000 42.4834 0.0000
# 6 0.0000 0.0000 0.0000 0.0000 0.0000 7.2443
#
#
#
# Elastic Compliance Matrix: (Units=1/GPa)
#
#
# Indices 1 2 3 4 5 6 
#
# 1 0.007788 -0.005539 -0.001408 0.000000 0.000000 0.000000
# 2 -0.005539 0.036463 -0.008079 0.000000 0.000000 0.000000
# 3 -0.001408 -0.008079 0.014160 0.000000 0.000000 0.000000
# 4 0.000000 0.000000 0.000000 0.036887 0.000000 0.000000
# 5 0.000000 0.000000 0.000000 0.000000 0.023539 0.000000
# 6 0.000000 0.000000 0.000000 0.000000 0.000000 0.138040
#
#
# Mechanical properties :
#
#
# Convention : Reuss Voigt Hill
#
# Bulk Modulus (GPa) = 35.26269 51.15195 43.20732
# Shear Modulus (GPa) = 16.87026 28.23869 22.55448
#
# Velocity S-wave (km/s) = 2.83877 3.67275 3.28236
# Velocity P-wave (km/s) = 5.25254 6.51306 5.91646
#
# Compressibility (1/GPa) = 0.02835858
#
# Stress axis : x y z
#
# Youngs Moduli (GPa) = 128.40436 27.42528 70.62334
#
# Poissons Ratio (x) = 0.15191 0.09941
# Poissons Ratio (y) = 0.71125 0.57057
# Poissons Ratio (z) = 0.18075 0.22157
#
# Static dielectric constant tensor:
#      x y z
#    x 1.808240 0.000000 0.000000 
#    y 0.000000 1.847330 0.000000 
#    z 0.000000 0.000000 1.856220 
# 
# From -- ./inp_files/36170.got.cif
#   From: 2010.05.17/outbox.cif.g08.bks.cpg/sg52_19_cif.got.tgz:36170.got - 2010.06.03 12:15:38.
