data_PCOD9410850
_publ_section_title
;
Structure prediction by ZEFSAII (Michael W. Deem and Ramdas Pophale) SiO2 
 PCOD9410850
Probable space group: P N N A
;
_chemical_formula_sum "Si O2"
_cell_formula_units_Z 32
_cell_length_a 4.958970
_cell_length_b 20.955922
_cell_length_c 15.416068
_cell_angle_alpha 90.000000
_cell_angle_beta 90.000000
_cell_angle_gamma 90.000000
_cell_volume 1602.034526
_symmetry_space_group_name_H-M "P N N A"
_symmetry_group_IT_number 52
_symmetry_cell_setting 'orthorhombic'
loop_
_space_group_symop_operation_xyz
x,y,z
1/2-x,-y,z
x,1/2-y,1/2-z
1/2-x,1/2+y,1/2-z
-x,-y,-z
1/2+x,y,-z
-x,1/2+y,1/2+z
1/2+x,1/2-y,1/2+z
loop_
_atom_site_type_symbol
_atom_site_label
_atom_site_fract_x
_atom_site_fract_y
_atom_site_fract_z
Si Si1 0.593091 0.823962 0.268158
Si Si2 0.921118 0.093977 0.784393
Si Si3 0.551573 0.618703 0.056046
Si Si4 0.750000 0.000000 0.339497
Si Si5 0.750000 0.500000 0.565014
O O1 0.553328 0.750000 0.250000
O O2 0.327260 0.866425 0.253646
O O3 0.650438 0.832766 0.370223
O O4 0.830418 0.856039 0.211095
O O5 0.811194 0.059343 0.870503
O O6 0.043674 0.039004 0.721686
O O7 0.598999 0.549898 0.099318
O O8 0.244977 0.625457 0.026728
O O9 0.500000 0.500000 0.500000
#
# Coordination Sequence:
#
# PCOD9410850 Si02
#       5
#     8   8   8   4   4
#     4  11  24  44  64  85 123 175 215 247 297 377
#     4  11  23  41  65  92 121 165 211 249 313 390
#     4  11  22  36  58  93 123 152 194 252 305 356
#     4  10  21  38  63  92 128 162 194 248 323 396
#     4  12  23  40  63  96 128 154 204 280 329 362
#
# _framework density 19.974599999999999
#
# number of rings (size 3 to 8) (size 9 to 14) (size 15 to 20)
#    0.000    1.000    0.000    9.750    0.000    4.000 
#    0.000    7.500    0.000    0.000    0.000    0.000 
#    0.000    0.000    0.000    0.000    0.000    0.000 
#
# Total GULP energy -178828.539549 kJ/mol
# GULP energy per Si atom -5588.391861 kJ/mol
# Density = 1.992914 g / cm^3
# Si number density = 19.974600 Si / 1000 Ang^3
#
#
#
# Elastic Constant Matrix: (Units=GPa)
#
#
# Indices 1 2 3 4 5 6 
#
# 1 139.3303 34.0592 33.6889 0.0000 0.0000 0.0000
# 2 34.0592 117.4716 57.9557 0.0000 0.0000 0.0000
# 3 33.6889 57.9557 101.1829 0.0000 0.0000 0.0000
# 4 0.0000 0.0000 0.0000 18.8839 0.0000 0.0000
# 5 0.0000 0.0000 0.0000 0.0000 33.9087 0.0000
# 6 0.0000 0.0000 0.0000 0.0000 0.0000 22.9859
#
#
#
# Elastic Compliance Matrix: (Units=1/GPa)
#
#
# Indices 1 2 3 4 5 6 
#
# 1 0.007966 -0.001395 -0.001853 0.000000 0.000000 0.000000
# 2 -0.001395 0.012110 -0.006472 0.000000 0.000000 0.000000
# 3 -0.001853 -0.006472 0.014207 0.000000 0.000000 0.000000
# 4 0.000000 0.000000 0.000000 0.052955 0.000000 0.000000
# 5 0.000000 0.000000 0.000000 0.000000 0.029491 0.000000
# 6 0.000000 0.000000 0.000000 0.000000 0.000000 0.043505
#
#
# Mechanical properties :
#
#
# Convention : Reuss Voigt Hill
#
# Bulk Modulus (GPa) = 67.37309 67.71028 67.54168
# Shear Modulus (GPa) = 27.08215 30.64110 28.86162
#
# Velocity S-wave (km/s) = 3.68615 3.92088 3.80533
# Velocity P-wave (km/s) = 7.20552 7.38035 7.29346
#
# Compressibility (1/GPa) = 0.01484272
#
# Stress axis : x y z
#
# Youngs Moduli (GPa) = 125.52749 82.57454 70.38747
#
# Poissons Ratio (x) = 0.11523 0.13044
# Poissons Ratio (y) = 0.17517 0.45554
# Poissons Ratio (z) = 0.23262 0.53441
#
# Static dielectric constant tensor:
#      x y z
#    x 1.719550 0.000000 0.000000 
#    y 0.000000 1.690400 0.000000 
#    z 0.000000 0.000000 1.747100 
# 
# From -- ./inp_files/15967.got.cif
#   From: 2010.05.17/outbox.cif.g08.bks.cpg/sg52_8_cif.got.tgz:15967.got - 2010.06.03 12:15:38.
