data_PCOD9410558
_publ_section_title
;
Structure prediction by ZEFSAII (Michael W. Deem and Ramdas Pophale) SiO2 
 PCOD9410558
Probable space group: P N N A
;
_chemical_formula_sum "Si O2"
_cell_formula_units_Z 48
_cell_length_a 9.056082
_cell_length_b 9.162917
_cell_length_c 29.860569
_cell_angle_alpha 90.000000
_cell_angle_beta 90.000000
_cell_angle_gamma 90.000000
_cell_volume 2477.833829
_symmetry_space_group_name_H-M "P N N A"
_symmetry_group_IT_number 52
_symmetry_cell_setting 'orthorhombic'
loop_
_space_group_symop_operation_xyz
x,y,z
1/2-x,-y,z
x,1/2-y,1/2-z
1/2-x,1/2+y,1/2-z
-x,-y,-z
1/2+x,y,-z
-x,1/2+y,1/2+z
1/2+x,1/2-y,1/2+z
loop_
_atom_site_type_symbol
_atom_site_label
_atom_site_fract_x
_atom_site_fract_y
_atom_site_fract_z
Si Si1 0.701926 0.163567 0.207076
Si Si2 0.216553 0.339478 0.128119
Si Si3 0.064299 0.856330 0.975103
Si Si4 0.712380 0.162683 0.523514
Si Si5 0.570585 0.835226 0.129590
Si Si6 0.388283 0.411462 0.319500
O O1 0.758061 0.250000 0.250000
O O2 0.785152 0.197551 0.159875
O O3 0.524165 0.165246 0.205651
O O4 0.750000 0.000000 0.215976
O O5 0.250000 0.500000 0.146252
O O6 0.257316 0.337095 0.075646
O O7 0.309117 0.213411 0.151864
O O8 0.043703 0.299375 0.131571
O O9 0.095616 0.876798 0.922235
O O10 0.955783 0.715634 0.978689
O O11 0.207464 0.796184 0.999365
O O12 0.000000 0.000000 0.000000
O O13 0.750000 0.000000 0.505931
O O14 0.477991 0.969262 0.151081
O O15 0.250000 0.500000 0.297031
#
# Coordination Sequence:
#
# PCOD9410558 Si02
#       6
#     8   8   8   8   8   8
#     4  10  22  40  60  83 112 145 185 238 294 347
#     4   9  18  34  55  80 111 149 189 230 281 346
#     4  11  21  34  56  85 112 151 201 241 284 353
#     4  10  21  35  50  76 117 153 185 233 291 345
#     4   9  20  37  56  82 114 148 190 241 294 345
#     4   9  18  36  58  80 108 142 178 229 286 338
#
# _framework density 19.371759999999998
#
# number of rings (size 3 to 8) (size 9 to 14) (size 15 to 20)
#    0.000    2.333    0.000    2.000    0.000    9.333 
#    0.000    9.167    0.000    0.000    0.000    0.000 
#    0.000    0.000    0.000    0.000    0.000    0.000 
#
# Total GULP energy -267215.794153 kJ/mol
# GULP energy per Si atom -5566.995712 kJ/mol
# Density = 1.932767 g / cm^3
# Si number density = 19.371760 Si / 1000 Ang^3
#
#
#
# Elastic Constant Matrix: (Units=GPa)
#
#
# Indices 1 2 3 4 5 6 
#
# 1 95.5710 19.1425 39.8534 0.0000 0.0000 0.0000
# 2 19.1425 72.2532 29.5971 0.0000 0.0000 0.0000
# 3 39.8534 29.5971 85.4955 0.0000 0.0000 0.0000
# 4 0.0000 0.0000 0.0000 18.4810 0.0000 0.0000
# 5 0.0000 0.0000 0.0000 0.0000 6.7268 0.0000
# 6 0.0000 0.0000 0.0000 0.0000 0.0000 22.7066
#
#
#
# Elastic Compliance Matrix: (Units=1/GPa)
#
#
# Indices 1 2 3 4 5 6 
#
# 1 0.013066 -0.001127 -0.005701 0.000000 0.000000 0.000000
# 2 -0.001127 0.016224 -0.005091 0.000000 0.000000 0.000000
# 3 -0.005701 -0.005091 0.016117 0.000000 0.000000 0.000000
# 4 0.000000 0.000000 0.000000 0.054110 0.000000 0.000000
# 5 0.000000 0.000000 0.000000 0.000000 0.148659 0.000000
# 6 0.000000 0.000000 0.000000 0.000000 0.000000 0.044040
#
#
# Mechanical properties :
#
#
# Convention : Reuss Voigt Hill
#
# Bulk Modulus (GPa) = 46.36170 47.83396 47.09783
# Shear Modulus (GPa) = 15.46820 20.56465 18.01642
#
# Velocity S-wave (km/s) = 2.82883 3.26172 3.05296
# Velocity P-wave (km/s) = 5.88679 6.23950 6.06571
#
# Compressibility (1/GPa) = 0.02156953
#
# Stress axis : x y z
#
# Youngs Moduli (GPa) = 76.53261 61.63600 62.04811
#
# Poissons Ratio (x) = 0.06943 0.35373
# Poissons Ratio (y) = 0.08621 0.31592
# Poissons Ratio (z) = 0.43630 0.31382
#
# Static dielectric constant tensor:
#      x y z
#    x 1.595530 0.000000 0.000000 
#    y 0.000000 1.648580 0.000000 
#    z 0.000000 0.000000 1.705930 
# 
# From -- ./inp_files/44356.got.cif
#   From: 2010.05.17/outbox.cif.g08.bks.cpg/sg52_23_cif.got.tgz:44356.got - 2010.06.03 12:15:38.
