data_PCOD9410670
_publ_section_title
;
Structure prediction by ZEFSAII (Michael W. Deem and Ramdas Pophale) SiO2 
 PCOD9410670
Probable space group: P N N A
;
_chemical_formula_sum "Si O2"
_cell_formula_units_Z 64
_cell_length_a 10.488766
_cell_length_b 26.903734
_cell_length_c 11.409328
_cell_angle_alpha 90.000000
_cell_angle_beta 90.000000
_cell_angle_gamma 90.000000
_cell_volume 3219.563703
_symmetry_space_group_name_H-M "P N N A"
_symmetry_group_IT_number 52
_symmetry_cell_setting 'orthorhombic'
loop_
_space_group_symop_operation_xyz
x,y,z
1/2-x,-y,z
x,1/2-y,1/2-z
1/2-x,1/2+y,1/2-z
-x,-y,-z
1/2+x,y,-z
-x,1/2+y,1/2+z
1/2+x,1/2-y,1/2+z
loop_
_atom_site_type_symbol
_atom_site_label
_atom_site_fract_x
_atom_site_fract_y
_atom_site_fract_z
Si Si1 0.245683 0.865370 0.822834
Si Si2 0.131954 0.305489 0.248597
Si Si3 0.467020 0.699691 0.692373
Si Si4 0.371901 0.196730 0.609973
Si Si5 0.742364 0.559409 0.134538
Si Si6 0.929569 0.196597 0.051280
Si Si7 0.505923 0.940472 0.514443
Si Si8 0.144310 0.641511 0.136625
O O1 0.372177 0.839435 0.865749
O O2 0.205108 0.831541 0.710403
O O3 0.264190 0.918204 0.763083
O O4 0.142521 0.854687 0.922092
O O5 0.192462 0.250000 0.250000
O O6 0.058689 0.308057 0.372455
O O7 0.230807 0.348086 0.214090
O O8 0.020188 0.307236 0.150022
O O9 0.416529 0.750000 0.750000
O O10 0.557535 0.711205 0.583265
O O11 0.533825 0.670133 0.795663
O O12 0.352203 0.255977 0.603492
O O13 0.342054 0.170153 0.487394
O O14 0.750000 0.500000 0.135444
O O15 0.859712 0.575683 0.046260
O O16 0.597481 0.574167 0.095743
O O17 0.593993 0.914509 0.614449
O O18 0.500000 0.000000 0.500000
#
# Coordination Sequence:
#
# PCOD9410670 Si02
#       8
#     8   8   8   8   8   8   8   8
#     4  11  22  38  61  84 116 164 201 251 310 370
#     4   9  22  37  53  80 120 167 200 255 296 362
#     4  12  24  36  55  85 121 165 206 246 291 362
#     4  10  21  37  56  83 120 160 208 243 305 369
#     4  10  21  39  63  93 120 157 201 259 326 380
#     4  10  23  40  54  82 126 167 210 251 301 365
#     4  10  22  39  61  92 126 155 200 266 324 383
#     4  12  22  33  61  87 118 156 208 245 313 364
#
# _framework density 19.87847
#
# number of rings (size 3 to 8) (size 9 to 14) (size 15 to 20)
#    0.000    1.500    3.750    2.250    5.250    1.000 
#    0.000    0.000    0.000    0.750    0.000    0.000 
#    0.000    0.000    0.000    0.000    0.000    0.000 
#
# Total GULP energy -356347.138468 kJ/mol
# GULP energy per Si atom -5567.924039 kJ/mol
# Density = 1.983323 g / cm^3
# Si number density = 19.878470 Si / 1000 Ang^3
#
#
#
# Elastic Constant Matrix: (Units=GPa)
#
#
# Indices 1 2 3 4 5 6 
#
# 1 46.0818 13.1351 -5.9410 0.0000 0.0000 0.0000
# 2 13.1351 57.2123 14.1842 0.0000 0.0000 0.0000
# 3 -5.9410 14.1842 56.5923 0.0000 0.0000 0.0000
# 4 0.0000 0.0000 0.0000 31.6117 0.0000 0.0000
# 5 0.0000 0.0000 0.0000 0.0000 7.3128 0.0000
# 6 0.0000 0.0000 0.0000 0.0000 0.0000 22.8291
#
#
#
# Elastic Compliance Matrix: (Units=1/GPa)
#
#
# Indices 1 2 3 4 5 6 
#
# 1 0.024112 -0.006572 0.004178 0.000000 0.000000 0.000000
# 2 -0.006572 0.020428 -0.005810 0.000000 0.000000 0.000000
# 3 0.004178 -0.005810 0.019565 0.000000 0.000000 0.000000
# 4 0.000000 0.000000 0.000000 0.031634 0.000000 0.000000
# 5 0.000000 0.000000 0.000000 0.000000 0.136746 0.000000
# 6 0.000000 0.000000 0.000000 0.000000 0.000000 0.043804
#
#
# Mechanical properties :
#
#
# Convention : Reuss Voigt Hill
#
# Bulk Modulus (GPa) = 20.96482 22.51587 21.74034
# Shear Modulus (GPa) = 16.20247 21.58460 18.89354
#
# Velocity S-wave (km/s) = 2.85805 3.29877 3.08629
# Velocity P-wave (km/s) = 4.63257 5.08532 4.86421
#
# Compressibility (1/GPa) = 0.04769896
#
# Stress axis : x y z
#
# Youngs Moduli (GPa) = 41.47234 48.95253 51.11144
#
# Poissons Ratio (x) = 0.32170 -0.21356
# Poissons Ratio (y) = 0.27255 0.29695
# Poissons Ratio (z) = -0.17329 0.28441
#
# Static dielectric constant tensor:
#      x y z
#    x 1.813650 0.000000 0.000000 
#    y 0.000000 1.719300 0.000000 
#    z 0.000000 0.000000 1.706490 
# 
# From -- ./inp_files/18509.got.cif
#   From: 2010.05.17/outbox.cif.g08.bks.cpg/sg52_10_cif.got.tgz:18509.got - 2010.06.03 12:15:38.
