data_PCOD9410135
_publ_section_title
;
Structure prediction by ZEFSAII (Michael W. Deem and Ramdas Pophale) SiO2 
 PCOD9410135
Probable space group: P N N A
;
_chemical_formula_sum "Si O2"
_cell_formula_units_Z 44
_cell_length_a 9.267646
_cell_length_b 27.309610
_cell_length_c 7.145263
_cell_angle_alpha 90.000000
_cell_angle_beta 90.000000
_cell_angle_gamma 90.000000
_cell_volume 1808.436040
_symmetry_space_group_name_H-M "P N N A"
_symmetry_group_IT_number 52
_symmetry_cell_setting 'orthorhombic'
loop_
_space_group_symop_operation_xyz
x,y,z
1/2-x,-y,z
x,1/2-y,1/2-z
1/2-x,1/2+y,1/2-z
-x,-y,-z
1/2+x,y,-z
-x,1/2+y,1/2+z
1/2+x,1/2-y,1/2+z
loop_
_atom_site_type_symbol
_atom_site_label
_atom_site_fract_x
_atom_site_fract_y
_atom_site_fract_z
Si Si1 0.985043 0.336885 0.431950
Si Si2 0.572076 0.600375 0.955176
Si Si3 0.538684 0.200926 0.317241
Si Si4 0.233855 0.400624 0.383951
Si Si5 0.212787 0.443743 0.776781
Si Si6 0.189853 0.750000 0.750000
O O1 0.076079 0.323696 0.618604
O O2 0.855941 0.367737 0.519060
O O3 0.915369 0.289598 0.339967
O O4 0.100165 0.367774 0.315982
O O5 0.542518 0.658930 0.930480
O O6 0.685272 0.580326 0.798573
O O7 0.423985 0.574286 0.896378
O O8 0.650512 0.587181 0.147579
O O9 0.453437 0.250000 0.250000
O O10 0.693272 0.222022 0.385463
O O11 0.184671 0.435339 0.554482
O O12 0.250000 0.500000 0.808185
#
# Coordination Sequence:
#
# PCOD9410135 Si02
#       6
#     8   8   8   8   8   4
#     4  11  20  43  65  98 139 193 239 299 355 437
#     4  11  26  47  72 109 151 193 248 313 374 451
#     4   9  20  41  62  99 141 183 241 291 355 445
#     4  11  23  47  72  97 147 193 243 297 372 437
#     4  12  27  48  77 111 146 192 253 318 388 449
#     4  10  20  38  66  98 140 188 252 298 350 434
#
# _framework density 24.330414000000001
#
# number of rings (size 3 to 8) (size 9 to 14) (size 15 to 20)
#    0.545    0.727    5.455    0.545    2.545    4.364 
#    6.545    0.000    0.000    0.000    0.000    0.000 
#    0.000    0.000    0.000    0.000    0.000    0.000 
#
# Total GULP energy -245714.034477 kJ/mol
# GULP energy per Si atom -5584.409874 kJ/mol
# Density = 2.427504 g / cm^3
# Si number density = 24.330414 Si / 1000 Ang^3
#
#
#
# Elastic Constant Matrix: (Units=GPa)
#
#
# Indices 1 2 3 4 5 6 
#
# 1 131.4355 35.8660 26.3469 0.0000 0.0000 0.0000
# 2 35.8660 78.7600 22.7586 0.0000 0.0000 0.0000
# 3 26.3469 22.7586 87.5876 0.0000 0.0000 0.0000
# 4 0.0000 0.0000 0.0000 21.9518 0.0000 0.0000
# 5 0.0000 0.0000 0.0000 0.0000 56.4164 0.0000
# 6 0.0000 0.0000 0.0000 0.0000 0.0000 23.2796
#
#
#
# Elastic Compliance Matrix: (Units=1/GPa)
#
#
# Indices 1 2 3 4 5 6 
#
# 1 0.008933 -0.003559 -0.001762 0.000000 0.000000 0.000000
# 2 -0.003559 0.015145 -0.002865 0.000000 0.000000 0.000000
# 3 -0.001762 -0.002865 0.012692 0.000000 0.000000 0.000000
# 4 0.000000 0.000000 0.000000 0.045554 0.000000 0.000000
# 5 0.000000 0.000000 0.000000 0.000000 0.017725 0.000000
# 6 0.000000 0.000000 0.000000 0.000000 0.000000 0.042956
#
#
# Mechanical properties :
#
#
# Convention : Reuss Voigt Hill
#
# Bulk Modulus (GPa) = 49.02451 51.96957 50.49704
# Shear Modulus (GPa) = 30.08859 34.51700 32.30280
#
# Velocity S-wave (km/s) = 3.52044 3.77062 3.64768
# Velocity P-wave (km/s) = 6.05953 6.35319 6.20810
#
# Compressibility (1/GPa) = 0.02039796
#
# Stress axis : x y z
#
# Youngs Moduli (GPa) = 111.94935 66.02787 78.79190
#
# Poissons Ratio (x) = 0.23496 0.13886
# Poissons Ratio (y) = 0.39837 0.22573
# Poissons Ratio (z) = 0.19729 0.18916
#
# Static dielectric constant tensor:
#      x y z
#    x 1.899240 0.000000 0.000000 
#    y 0.000000 1.995170 0.000000 
#    z 0.000000 0.000000 2.036130 
# 
# From -- ./inp_files/7623.got.cif
#   From: 2010.05.17/outbox.cif.g08.bks.cpg/sg52_4_cif.got.tgz:7623.got - 2010.06.03 12:15:38.
