data_PCOD9410287
_publ_section_title
;
Structure prediction by ZEFSAII (Michael W. Deem and Ramdas Pophale) SiO2 
 PCOD9410287
Probable space group: P N N A
;
_chemical_formula_sum "Si O2"
_cell_formula_units_Z 40
_cell_length_a 16.803210
_cell_length_b 5.381633
_cell_length_c 18.306949
_cell_angle_alpha 90.000000
_cell_angle_beta 90.000000
_cell_angle_gamma 90.000000
_cell_volume 1655.473772
_symmetry_space_group_name_H-M "P N N A"
_symmetry_group_IT_number 52
_symmetry_cell_setting 'orthorhombic'
loop_
_space_group_symop_operation_xyz
x,y,z
1/2-x,-y,z
x,1/2-y,1/2-z
1/2-x,1/2+y,1/2-z
-x,-y,-z
1/2+x,y,-z
-x,1/2+y,1/2+z
1/2+x,1/2-y,1/2+z
loop_
_atom_site_type_symbol
_atom_site_label
_atom_site_fract_x
_atom_site_fract_y
_atom_site_fract_z
Si Si1 0.342582 0.433860 0.965150
Si Si2 0.340386 0.568245 0.475968
Si Si3 0.435094 0.240371 0.662151
Si Si4 0.514632 0.745465 0.667037
Si Si5 0.661386 0.063992 0.810499
O O1 0.250000 0.500000 0.979508
O O2 0.357020 0.334270 0.883292
O O3 0.379160 0.705767 0.980152
O O4 0.376953 0.207892 0.014440
O O5 0.250000 0.500000 0.501273
O O6 0.332825 0.664842 0.392883
O O7 0.423902 0.250000 0.750000
O O8 0.472561 0.499951 0.635695
O O9 0.495228 0.018082 0.639839
O O10 0.481678 0.750000 0.750000
O O11 0.606646 0.675243 0.676845
O O12 0.625566 0.250000 0.750000
O O13 0.750000 0.000000 0.785834
#
# Coordination Sequence:
#
# PCOD9410287 Si02
#       5
#     8   8   8   8   8
#     4  10  20  40  63  87 121 161 198 244 300 357
#     4   9  21  38  59  87 124 158 192 246 310 350
#     4  10  21  39  62  87 119 158 198 242 297 355
#     4  10  21  38  58  86 123 157 190 244 308 348
#     4  11  23  39  64  93 118 156 209 252 288 354
#
# _framework density 24.162265999999999
#
# number of rings (size 3 to 8) (size 9 to 14) (size 15 to 20)
#    0.000    2.000    0.000    3.600    0.000    7.200 
#    0.000   12.000    0.000    0.000    0.000    0.000 
#    0.000    0.000    0.000    0.000    0.000    0.000 
#
# Total GULP energy -223014.159002 kJ/mol
# GULP energy per Si atom -5575.353975 kJ/mol
# Density = 2.410727 g / cm^3
# Si number density = 24.162266 Si / 1000 Ang^3
#
#
#
# Elastic Constant Matrix: (Units=GPa)
#
#
# Indices 1 2 3 4 5 6 
#
# 1 20.2508 33.4948 22.7253 0.0000 0.0000 0.0000
# 2 33.4948 203.4708 62.6500 0.0000 0.0000 0.0000
# 3 22.7253 62.6500 92.7551 0.0000 0.0000 0.0000
# 4 0.0000 0.0000 0.0000 35.5469 0.0000 0.0000
# 5 0.0000 0.0000 0.0000 0.0000 -11.1504 0.0000
# 6 0.0000 0.0000 0.0000 0.0000 0.0000 31.9265
#
#
#
# Elastic Compliance Matrix: (Units=1/GPa)
#
#
# Indices 1 2 3 4 5 6 
#
# 1 0.079115 -0.008908 -0.013367 0.000000 0.000000 0.000000
# 2 -0.008908 0.007208 -0.002686 0.000000 0.000000 0.000000
# 3 -0.013367 -0.002686 0.015870 0.000000 0.000000 0.000000
# 4 0.000000 0.000000 0.000000 0.028132 0.000000 0.000000
# 5 0.000000 0.000000 0.000000 0.000000 -0.089683 0.000000
# 6 0.000000 0.000000 0.000000 0.000000 0.000000 0.031322
#
#
# Mechanical properties :
#
#
# Convention : Reuss Voigt Hill
#
# Bulk Modulus (GPa) = 19.13086 61.57965 40.35525
# Shear Modulus (GPa) = 35.89135 24.43838 30.16486
#
# Velocity S-wave (km/s) = 3.85831 3.18374 3.53714
# Velocity P-wave (km/s) = 5.27101 6.24949 5.78099
#
# Compressibility (1/GPa) = 0.05227158
#
# Stress axis : x y z
#
# Youngs Moduli (GPa) = 12.63989 138.73081 63.01080
#
# Poissons Ratio (x) = 1.23581 0.84224
# Poissons Ratio (y) = 0.11260 0.16926
# Poissons Ratio (z) = 0.16895 0.37266
#
# Static dielectric constant tensor:
#      x y z
#    x 1.955320 0.000000 0.000000 
#    y 0.000000 2.050740 0.000000 
#    z 0.000000 0.000000 2.003800 
# 
# From -- ./inp_files/33440.got.cif
#   From: 2010.05.17/outbox.cif.g08.bks.cpg/sg52_17_cif.got.tgz:33440.got - 2010.06.03 12:15:38.
