data_PCOD9410198
_publ_section_title
;
Structure prediction by ZEFSAII (Michael W. Deem and Ramdas Pophale) SiO2 
 PCOD9410198
Probable space group: P N N A
;
_chemical_formula_sum "Si O2"
_cell_formula_units_Z 40
_cell_length_a 13.304170
_cell_length_b 20.606216
_cell_length_c 6.189739
_cell_angle_alpha 90.000000
_cell_angle_beta 90.000000
_cell_angle_gamma 90.000000
_cell_volume 1696.908286
_symmetry_space_group_name_H-M "P N N A"
_symmetry_group_IT_number 52
_symmetry_cell_setting 'orthorhombic'
loop_
_space_group_symop_operation_xyz
x,y,z
1/2-x,-y,z
x,1/2-y,1/2-z
1/2-x,1/2+y,1/2-z
-x,-y,-z
1/2+x,y,-z
-x,1/2+y,1/2+z
1/2+x,1/2-y,1/2+z
loop_
_atom_site_type_symbol
_atom_site_label
_atom_site_fract_x
_atom_site_fract_y
_atom_site_fract_z
Si Si1 0.133330 0.101616 0.139127
Si Si2 0.052936 0.910080 0.535814
Si Si3 0.585958 0.259048 0.494912
Si Si4 0.750990 0.644952 0.005782
Si Si5 0.389812 0.543088 0.761018
O O1 0.234783 0.113446 0.268915
O O2 0.041958 0.099813 0.308073
O O3 0.117214 0.166152 0.999542
O O4 0.127357 0.038602 0.992488
O O5 0.132923 0.852564 0.548127
O O6 0.997907 0.923619 0.309831
O O7 0.106847 0.975945 0.612384
O O8 0.537182 0.250000 0.250000
O O9 0.682268 0.210060 0.489320
O O10 0.545573 0.250000 0.750000
O O11 0.803773 0.591170 0.155161
#
# Coordination Sequence:
#
# PCOD9410198 Si02
#       5
#     8   8   8   8   8
#     4  10  21  39  67  90 131 179 217 285 340 401
#     4  10  22  38  62 100 127 172 228 273 339 413
#     4  10  20  40  70  88 129 178 219 273 342 397
#     4  10  21  39  64  91 132 175 222 279 342 401
#     4  10  20  39  63  90 136 170 216 283 335 402
#
# _framework density 23.572282999999999
#
# number of rings (size 3 to 8) (size 9 to 14) (size 15 to 20)
#    0.000    2.000    2.000    1.200    0.000    1.600 
#    0.000   11.000   17.600    0.000    0.000    0.000 
#    0.000    0.000    0.000    0.000    0.000    0.000 
#
# Total GULP energy -222805.519663 kJ/mol
# GULP energy per Si atom -5570.137992 kJ/mol
# Density = 2.351863 g / cm^3
# Si number density = 23.572283 Si / 1000 Ang^3
#
#
#
# Elastic Constant Matrix: (Units=GPa)
#
#
# Indices 1 2 3 4 5 6 
#
# 1 68.8757 19.7392 15.1796 0.0000 0.0000 0.0000
# 2 19.7392 52.9827 3.9971 0.0000 0.0000 0.0000
# 3 15.1796 3.9971 120.2115 0.0000 0.0000 0.0000
# 4 0.0000 0.0000 0.0000 40.8076 0.0000 0.0000
# 5 0.0000 0.0000 0.0000 0.0000 3.6067 0.0000
# 6 0.0000 0.0000 0.0000 0.0000 0.0000 26.1946
#
#
#
# Elastic Compliance Matrix: (Units=1/GPa)
#
#
# Indices 1 2 3 4 5 6 
#
# 1 0.016678 -0.006070 -0.001904 0.000000 0.000000 0.000000
# 2 -0.006070 0.021131 0.000064 0.000000 0.000000 0.000000
# 3 -0.001904 0.000064 0.008557 0.000000 0.000000 0.000000
# 4 0.000000 0.000000 0.000000 0.024505 0.000000 0.000000
# 5 0.000000 0.000000 0.000000 0.000000 0.277259 0.000000
# 6 0.000000 0.000000 0.000000 0.000000 0.000000 0.038176
#
#
# Mechanical properties :
#
#
# Convention : Reuss Voigt Hill
#
# Bulk Modulus (GPa) = 32.73822 35.54460 34.14141
# Shear Modulus (GPa) = 12.12684 27.66538 19.89611
#
# Velocity S-wave (km/s) = 2.27062 3.42956 2.90840
# Velocity P-wave (km/s) = 4.55992 5.54925 5.07873
#
# Compressibility (1/GPa) = 0.03054533
#
# Stress axis : x y z
#
# Youngs Moduli (GPa) = 59.95863 47.32455 116.86338
#
# Poissons Ratio (x) = 0.28726 0.22253
# Poissons Ratio (y) = 0.36395 -0.00746
# Poissons Ratio (z) = 0.11417 -0.00302
#
# Static dielectric constant tensor:
#      x y z
#    x 1.869240 0.000000 0.000000 
#    y 0.000000 1.905270 0.000000 
#    z 0.000000 0.000000 2.050390 
# 
# From -- ./inp_files/2261.got.cif
#   From: 2010.05.17/outbox.cif.g08.bks.cpg/sg52_2_cif.got.tgz:2261.got - 2010.06.03 12:15:38.
