data_PCOD9410904
_publ_section_title
;
Structure prediction by ZEFSAII (Michael W. Deem and Ramdas Pophale) SiO2 
 PCOD9410904
Probable space group: P N N A
;
_chemical_formula_sum "Si O2"
_cell_formula_units_Z 48
_cell_length_a 16.020552
_cell_length_b 14.323528
_cell_length_c 9.117271
_cell_angle_alpha 90.000000
_cell_angle_beta 90.000000
_cell_angle_gamma 90.000000
_cell_volume 2092.147699
_symmetry_space_group_name_H-M "P N N A"
_symmetry_group_IT_number 52
_symmetry_cell_setting 'orthorhombic'
loop_
_space_group_symop_operation_xyz
x,y,z
1/2-x,-y,z
x,1/2-y,1/2-z
1/2-x,1/2+y,1/2-z
-x,-y,-z
1/2+x,y,-z
-x,1/2+y,1/2+z
1/2+x,1/2-y,1/2+z
loop_
_atom_site_type_symbol
_atom_site_label
_atom_site_fract_x
_atom_site_fract_y
_atom_site_fract_z
Si Si1 0.075098 0.750000 0.250000
Si Si2 0.429571 0.595099 0.121349
Si Si3 0.449757 0.250000 0.750000
Si Si4 0.974802 0.572241 0.205668
Si Si5 0.823794 0.287957 0.492857
Si Si6 0.765968 0.890167 0.494769
Si Si7 0.694917 0.093766 0.161452
O O1 0.130935 0.687401 0.357901
O O2 0.013887 0.673560 0.181944
O O3 0.492781 0.677876 0.161073
O O4 0.456902 0.508880 0.223256
O O5 0.335149 0.631816 0.117770
O O6 0.433288 0.554148 0.954201
O O7 0.387703 0.304289 0.640092
O O8 0.904060 0.574006 0.331900
O O9 0.812538 0.176633 0.514345
O O10 0.735892 0.335480 0.454433
O O11 0.790162 0.867162 0.325964
O O12 0.750000 0.000000 0.503240
O O13 0.750000 0.000000 0.148153
#
# Coordination Sequence:
#
# PCOD9410904 Si02
#       7
#     4   8   4   8   8   8   8
#     4  12  26  42  64  98 138 176 218 282 342 392
#     4  10  22  40  68  96 131 172 227 275 323 407
#     4  12  22  40  66  98 134 170 224 274 332 396
#     4  10  22  41  67  96 131 177 225 270 336 399
#     4  12  24  41  64  99 135 174 221 275 335 399
#     4  10  21  38  67  98 129 172 226 275 327 401
#     4  10  21  39  68  98 128 171 228 276 331 402
#
# _framework density 22.942931000000002
#
# number of rings (size 3 to 8) (size 9 to 14) (size 15 to 20)
#    0.000    1.333    3.333    2.000    9.333    0.667 
#    0.000    7.500    0.000    0.000    0.000    0.000 
#    0.000    0.000    0.000    0.000    0.000    0.000 
#
# Total GULP energy -267723.604547 kJ/mol
# GULP energy per Si atom -5577.575095 kJ/mol
# Density = 2.289071 g / cm^3
# Si number density = 22.942931 Si / 1000 Ang^3
#
#
#
# Elastic Constant Matrix: (Units=GPa)
#
#
# Indices 1 2 3 4 5 6 
#
# 1 105.3336 27.0801 34.9902 0.0000 0.0000 0.0000
# 2 27.0801 83.3685 4.0695 0.0000 0.0000 0.0000
# 3 34.9902 4.0695 59.1480 0.0000 0.0000 0.0000
# 4 0.0000 0.0000 0.0000 11.6465 0.0000 0.0000
# 5 0.0000 0.0000 0.0000 0.0000 20.3164 0.0000
# 6 0.0000 0.0000 0.0000 0.0000 0.0000 36.4921
#
#
#
# Elastic Compliance Matrix: (Units=1/GPa)
#
#
# Indices 1 2 3 4 5 6 
#
# 1 0.012935 -0.003841 -0.007388 0.000000 0.000000 0.000000
# 2 -0.003841 0.013176 0.001366 0.000000 0.000000 0.000000
# 3 -0.007388 0.001366 0.021183 0.000000 0.000000 0.000000
# 4 0.000000 0.000000 0.000000 0.085863 0.000000 0.000000
# 5 0.000000 0.000000 0.000000 0.000000 0.049221 0.000000
# 6 0.000000 0.000000 0.000000 0.000000 0.000000 0.027403
#
#
# Mechanical properties :
#
#
# Convention : Reuss Voigt Hill
#
# Bulk Modulus (GPa) = 36.27386 42.23663 39.25524
# Shear Modulus (GPa) = 20.94702 25.80501 23.37602
#
# Velocity S-wave (km/s) = 3.02488 3.35736 3.19545
# Velocity P-wave (km/s) = 5.29572 5.78607 5.54632
#
# Compressibility (1/GPa) = 0.02756806
#
# Stress axis : x y z
#
# Youngs Moduli (GPa) = 77.30793 75.89596 47.20715
#
# Poissons Ratio (x) = 0.29152 0.34876
# Poissons Ratio (y) = 0.29694 -0.06447
# Poissons Ratio (z) = 0.57114 -0.10365
#
# Static dielectric constant tensor:
#      x y z
#    x 1.952630 0.000000 0.000000 
#    y 0.000000 1.860200 0.000000 
#    z 0.000000 0.000000 1.864670 
# 
# From -- ./inp_files/12173.got.cif
#   From: 2010.05.17/outbox.cif.g08.bks.cpg/sg52_7_cif.got.tgz:12173.got - 2010.06.03 12:15:38.
