data_PCOD9410647
_publ_section_title
;
Structure prediction by ZEFSAII (Michael W. Deem and Ramdas Pophale) SiO2 
 PCOD9410647
Probable space group: P N N A
;
_chemical_formula_sum "Si O2"
_cell_formula_units_Z 32
_cell_length_a 11.245910
_cell_length_b 7.924326
_cell_length_c 14.478745
_cell_angle_alpha 90.000000
_cell_angle_beta 90.000000
_cell_angle_gamma 90.000000
_cell_volume 1290.291561
_symmetry_space_group_name_H-M "P N N A"
_symmetry_group_IT_number 52
_symmetry_cell_setting 'orthorhombic'
loop_
_space_group_symop_operation_xyz
x,y,z
1/2-x,-y,z
x,1/2-y,1/2-z
1/2-x,1/2+y,1/2-z
-x,-y,-z
1/2+x,y,-z
-x,1/2+y,1/2+z
1/2+x,1/2-y,1/2+z
loop_
_atom_site_type_symbol
_atom_site_label
_atom_site_fract_x
_atom_site_fract_y
_atom_site_fract_z
Si Si1 0.375555 0.722355 0.852362
Si Si2 0.514100 0.377472 0.816276
Si Si3 0.386675 0.107294 0.173185
Si Si4 0.788520 0.805220 0.548341
O O1 0.326058 0.750000 0.750000
O O2 0.439660 0.538651 0.849397
O O3 0.479854 0.861945 0.864444
O O4 0.291468 0.726345 0.939546
O O5 0.443709 0.250000 0.750000
O O6 0.611360 0.443849 0.739402
O O7 0.581178 0.299485 0.904236
O O8 0.371508 0.250000 0.250000
O O9 0.295436 0.167065 0.095761
O O10 0.750000 0.000000 0.564496
#
# Coordination Sequence:
#
# PCOD9410647 Si02
#       4
#     8   8   8   8
#     4   9  21  41  60  85 122 169 209 251 308 376
#     4  10  21  36  64  92 123 155 206 264 317 361
#     4   9  19  37  59  92 122 150 206 260 305 365
#     4  12  20  33  69  91 116 164 214 256 313 374
#
# _framework density 24.800595000000001
#
# number of rings (size 3 to 8) (size 9 to 14) (size 15 to 20)
#    0.000    2.500    5.000    1.500    0.000    0.000 
#    0.000    6.250   16.500    0.000    0.000    0.000 
#    0.000    0.000    0.000    0.000    0.000    0.000 
#
# Total GULP energy -178697.542624 kJ/mol
# GULP energy per Si atom -5584.298207 kJ/mol
# Density = 2.474415 g / cm^3
# Si number density = 24.800595 Si / 1000 Ang^3
#
#
#
# Elastic Constant Matrix: (Units=GPa)
#
#
# Indices 1 2 3 4 5 6 
#
# 1 58.3398 0.4895 29.3813 0.0000 0.0000 0.0000
# 2 0.4895 42.0490 8.2551 0.0000 0.0000 0.0000
# 3 29.3813 8.2551 158.8708 0.0000 0.0000 0.0000
# 4 0.0000 0.0000 0.0000 34.5355 0.0000 0.0000
# 5 0.0000 0.0000 0.0000 0.0000 31.9099 0.0000
# 6 0.0000 0.0000 0.0000 0.0000 0.0000 4.7500
#
#
#
# Elastic Compliance Matrix: (Units=1/GPa)
#
#
# Indices 1 2 3 4 5 6 
#
# 1 0.018911 0.000471 -0.003522 0.000000 0.000000 0.000000
# 2 0.000471 0.024039 -0.001336 0.000000 0.000000 0.000000
# 3 -0.003522 -0.001336 0.007015 0.000000 0.000000 0.000000
# 4 0.000000 0.000000 0.000000 0.028956 0.000000 0.000000
# 5 0.000000 0.000000 0.000000 0.000000 0.031338 0.000000
# 6 0.000000 0.000000 0.000000 0.000000 0.000000 0.210527
#
#
# Mechanical properties :
#
#
# Convention : Reuss Voigt Hill
#
# Bulk Modulus (GPa) = 24.27719 37.27906 30.77812
# Shear Modulus (GPa) = 14.56498 28.98133 21.77315
#
# Velocity S-wave (km/s) = 2.42602 3.42215 2.96620
# Velocity P-wave (km/s) = 4.20210 5.53886 4.91613
#
# Compressibility (1/GPa) = 0.04119094
#
# Stress axis : x y z
#
# Youngs Moduli (GPa) = 52.88022 41.59971 142.54820
#
# Poissons Ratio (x) = -0.01960 0.50203
# Poissons Ratio (y) = -0.02492 0.19048
# Poissons Ratio (z) = 0.18623 0.05559
#
# Static dielectric constant tensor:
#      x y z
#    x 2.085650 0.000000 0.000000 
#    y 0.000000 2.309380 0.000000 
#    z 0.000000 0.000000 1.915870 
# 
# From -- ./inp_files/18850.got.cif
#   From: 2010.05.17/outbox.cif.g08.bks.cpg/sg52_10_cif.got.tgz:18850.got - 2010.06.03 12:15:38.
