data_PCOD9410664
_publ_section_title
;
Structure prediction by ZEFSAII (Michael W. Deem and Ramdas Pophale) SiO2 
 PCOD9410664
Probable space group: P N N A
;
_chemical_formula_sum "Si O2"
_cell_formula_units_Z 32
_cell_length_a 9.823196
_cell_length_b 7.409351
_cell_length_c 19.154724
_cell_angle_alpha 90.000000
_cell_angle_beta 90.000000
_cell_angle_gamma 90.000000
_cell_volume 1394.147990
_symmetry_space_group_name_H-M "P N N A"
_symmetry_group_IT_number 52
_symmetry_cell_setting 'orthorhombic'
loop_
_space_group_symop_operation_xyz
x,y,z
1/2-x,-y,z
x,1/2-y,1/2-z
1/2-x,1/2+y,1/2-z
-x,-y,-z
1/2+x,y,-z
-x,1/2+y,1/2+z
1/2+x,1/2-y,1/2+z
loop_
_atom_site_type_symbol
_atom_site_label
_atom_site_fract_x
_atom_site_fract_y
_atom_site_fract_z
Si Si1 0.600155 0.947202 0.166132
Si Si2 0.013530 0.196697 0.580717
Si Si3 0.407968 0.048732 0.282111
Si Si4 0.207999 0.787970 0.967136
O O1 0.632961 0.796494 0.108244
O O2 0.750000 0.000000 0.195379
O O3 0.542686 0.113807 0.120399
O O4 0.494221 0.928867 0.228221
O O5 0.973544 0.058542 0.641278
O O6 0.892222 0.224019 0.526828
O O7 0.155172 0.171401 0.540237
O O8 0.416573 0.250000 0.250000
O O9 0.250000 0.000000 0.285963
O O10 0.250000 0.000000 0.981436
#
# Coordination Sequence:
#
# PCOD9410664 Si02
#       4
#     8   8   8   8
#     4   8  16  32  54  78 105 144 194 240 278 328
#     4   9  18  31  51  80 112 143 185 238 280 327
#     4  10  21  37  55  82 117 151 188 236 285 339
#     4   9  16  30  54  80 107 146 190 234 277 336
#
# _framework density 22.953088999999999
#
# number of rings (size 3 to 8) (size 9 to 14) (size 15 to 20)
#    0.000    3.500    0.000    3.000    0.000    8.000 
#    0.000   10.000    0.000    0.000    0.000    0.000 
#    0.000    0.000    0.000    0.000    0.000    0.000 
#
# Total GULP energy -178757.134340 kJ/mol
# GULP energy per Si atom -5586.160448 kJ/mol
# Density = 2.290085 g / cm^3
# Si number density = 22.953089 Si / 1000 Ang^3
#
#
#
# Elastic Constant Matrix: (Units=GPa)
#
#
# Indices 1 2 3 4 5 6 
#
# 1 181.7270 23.8796 117.6647 0.0000 0.0000 0.0000
# 2 23.8796 56.8827 26.2580 0.0000 0.0000 0.0000
# 3 117.6647 26.2580 123.1142 0.0000 0.0000 0.0000
# 4 0.0000 0.0000 0.0000 -14.4718 0.0000 0.0000
# 5 0.0000 0.0000 0.0000 0.0000 160.0165 0.0000
# 6 0.0000 0.0000 0.0000 0.0000 0.0000 29.2930
#
#
#
# Elastic Compliance Matrix: (Units=1/GPa)
#
#
# Indices 1 2 3 4 5 6 
#
# 1 0.014442 0.000342 -0.013876 0.000000 0.000000 0.000000
# 2 0.000342 0.019508 -0.004488 0.000000 0.000000 0.000000
# 3 -0.013876 -0.004488 0.022341 0.000000 0.000000 0.000000
# 4 0.000000 0.000000 0.000000 -0.069100 0.000000 0.000000
# 5 0.000000 0.000000 0.000000 0.000000 0.006249 0.000000
# 6 0.000000 0.000000 0.000000 0.000000 0.000000 0.034138
#
#
# Mechanical properties :
#
#
# Convention : Reuss Voigt Hill
#
# Bulk Modulus (GPa) = 49.38589 77.48093 63.43341
# Shear Modulus (GPa) = 71.05147 47.89565 59.47356
#
# Velocity S-wave (km/s) = 5.56976 4.57297 5.09580
# Velocity P-wave (km/s) = 7.93258 7.85571 7.89424
#
# Compressibility (1/GPa) = 0.02024870
#
# Stress axis : x y z
#
# Youngs Moduli (GPa) = 69.24183 51.26103 44.75983
#
# Poissons Ratio (x) = -0.01756 0.62108
# Poissons Ratio (y) = -0.02371 0.20088
# Poissons Ratio (z) = 0.96079 0.23006
#
# Static dielectric constant tensor:
#      x y z
#    x 1.820470 0.000000 0.000000 
#    y 0.000000 1.709850 0.000000 
#    z 0.000000 0.000000 1.832730 
# 
# From -- ./inp_files/30781.got.cif
#   From: 2010.05.17/outbox.cif.g08.bks.cpg/sg52_16_cif.got.tgz:30781.got - 2010.06.03 12:15:38.
