data_PCOD9410584
_publ_section_title
;
Structure prediction by ZEFSAII (Michael W. Deem and Ramdas Pophale) SiO2 
 PCOD9410584
Probable space group: P N N A
;
_chemical_formula_sum "Si O2"
_cell_formula_units_Z 40
_cell_length_a 10.338603
_cell_length_b 26.060687
_cell_length_c 6.655620
_cell_angle_alpha 90.000000
_cell_angle_beta 90.000000
_cell_angle_gamma 90.000000
_cell_volume 1793.230996
_symmetry_space_group_name_H-M "P N N A"
_symmetry_group_IT_number 52
_symmetry_cell_setting 'orthorhombic'
loop_
_space_group_symop_operation_xyz
x,y,z
1/2-x,-y,z
x,1/2-y,1/2-z
1/2-x,1/2+y,1/2-z
-x,-y,-z
1/2+x,y,-z
-x,1/2+y,1/2+z
1/2+x,1/2-y,1/2+z
loop_
_atom_site_type_symbol
_atom_site_label
_atom_site_fract_x
_atom_site_fract_y
_atom_site_fract_z
Si Si1 0.349655 0.545708 0.352095
Si Si2 0.041697 0.381599 0.059759
Si Si3 0.113018 0.190407 0.801155
Si Si4 0.121527 0.855887 0.945781
Si Si5 0.516997 0.947104 0.808385
O O1 0.250000 0.500000 0.331791
O O2 0.348800 0.590295 0.191450
O O3 0.382150 0.564175 0.575866
O O4 0.474181 0.508605 0.302357
O O5 0.938967 0.362486 0.223610
O O6 0.097907 0.339155 0.910959
O O7 0.981255 0.423534 0.910439
O O8 0.124793 0.250000 0.750000
O O9 0.239250 0.170281 0.921664
O O10 0.982639 0.177335 0.926887
O O11 0.116335 0.911933 0.057628
#
# Coordination Sequence:
#
# PCOD9410584 Si02
#       5
#     8   8   8   8   8
#     4  10  21  35  62  94 134 179 225 278 338 414
#     4  10  23  41  66 100 130 181 235 279 342 415
#     4  11  27  47  73 101 138 182 231 297 353 409
#     4  10  25  46  71 101 138 176 233 288 349 418
#     4   9  21  40  60  93 137 175 223 280 340 407
#
# _framework density 22.306106
#
# number of rings (size 3 to 8) (size 9 to 14) (size 15 to 20)
#    0.000    2.000    0.000    0.600   14.000    2.400 
#    0.000    0.000    0.000    0.000    0.000    0.000 
#    0.000    0.000    0.000    0.000    0.000    0.000 
#
# Total GULP energy -223211.506997 kJ/mol
# GULP energy per Si atom -5580.287675 kJ/mol
# Density = 2.225534 g / cm^3
# Si number density = 22.306106 Si / 1000 Ang^3
#
#
#
# Elastic Constant Matrix: (Units=GPa)
#
#
# Indices 1 2 3 4 5 6 
#
# 1 57.1738 11.4720 25.8018 0.0000 0.0000 0.0000
# 2 11.4720 119.4393 41.4800 0.0000 0.0000 0.0000
# 3 25.8018 41.4800 137.1644 0.0000 0.0000 0.0000
# 4 0.0000 0.0000 0.0000 32.5116 0.0000 0.0000
# 5 0.0000 0.0000 0.0000 0.0000 27.9366 0.0000
# 6 0.0000 0.0000 0.0000 0.0000 0.0000 26.9884
#
#
#
# Elastic Compliance Matrix: (Units=1/GPa)
#
#
# Indices 1 2 3 4 5 6 
#
# 1 0.019159 -0.000658 -0.003405 0.000000 0.000000 0.000000
# 2 -0.000658 0.009378 -0.002712 0.000000 0.000000 0.000000
# 3 -0.003405 -0.002712 0.008751 0.000000 0.000000 0.000000
# 4 0.000000 0.000000 0.000000 0.030758 0.000000 0.000000
# 5 0.000000 0.000000 0.000000 0.000000 0.035795 0.000000
# 6 0.000000 0.000000 0.000000 0.000000 0.000000 0.037053
#
#
# Mechanical properties :
#
#
# Convention : Reuss Voigt Hill
#
# Bulk Modulus (GPa) = 42.12642 52.36501 47.24571
# Shear Modulus (GPa) = 30.79633 33.15558 31.97595
#
# Velocity S-wave (km/s) = 3.71971 3.85956 3.79028
# Velocity P-wave (km/s) = 6.11350 6.58697 6.35465
#
# Compressibility (1/GPa) = 0.02373807
#
# Stress axis : x y z
#
# Youngs Moduli (GPa) = 52.19436 106.63798 114.26960
#
# Poissons Ratio (x) = 0.07013 0.38910
# Poissons Ratio (y) = 0.03433 0.30992
# Poissons Ratio (z) = 0.17773 0.28922
#
# Static dielectric constant tensor:
#      x y z
#    x 2.112960 0.000000 0.000000 
#    y 0.000000 1.855220 0.000000 
#    z 0.000000 0.000000 1.803430 
# 
# From -- ./inp_files/1352.got.cif
#   From: 2010.05.17/outbox.cif.g08.bks.cpg/sg52_1_cif.got.tgz:1352.got - 2010.06.03 12:15:38.
