data_PCOD9410403
_publ_section_title
;
Structure prediction by ZEFSAII (Michael W. Deem and Ramdas Pophale) SiO2 
 PCOD9410403
Probable space group: P N N A
;
_chemical_formula_sum "Si O2"
_cell_formula_units_Z 20
_cell_length_a 5.174778
_cell_length_b 10.576744
_cell_length_c 13.623735
_cell_angle_alpha 90.000000
_cell_angle_beta 90.000000
_cell_angle_gamma 90.000000
_cell_volume 745.658381
_symmetry_space_group_name_H-M "P N N A"
_symmetry_group_IT_number 52
_symmetry_cell_setting 'orthorhombic'
loop_
_space_group_symop_operation_xyz
x,y,z
1/2-x,-y,z
x,1/2-y,1/2-z
1/2-x,1/2+y,1/2-z
-x,-y,-z
1/2+x,y,-z
-x,1/2+y,1/2+z
1/2+x,1/2-y,1/2+z
loop_
_atom_site_type_symbol
_atom_site_label
_atom_site_fract_x
_atom_site_fract_y
_atom_site_fract_z
Si Si1 0.951342 0.884605 0.760331
Si Si2 0.750000 0.500000 0.429581
Si Si3 0.940958 0.359659 0.042763
O O1 0.807344 0.750000 0.750000
O O2 0.788278 0.705694 0.983760
O O3 0.100003 0.882342 0.656840
O O4 0.154315 0.894467 0.849427
O O5 0.500000 0.500000 0.500000
O O6 0.250000 0.500000 0.266048
O O7 0.000000 0.500000 0.000000
#
# Coordination Sequence:
#
# PCOD9410403 Si02
#       3
#     8   4   8
#     4  12  28  51  86 125 171 222 290 354 434 514
#     4  12  28  56  78 118 178 234 278 348 436 510
#     4  10  20  41  73 109 148 195 268 331 400 476
#
# _framework density 26.821933999999999
#
# number of rings (size 3 to 8) (size 9 to 14) (size 15 to 20)
#    0.000    0.800    6.000    2.400    0.000    4.800 
#    0.000    0.000    0.000    0.000    0.000    0.000 
#    0.000    0.000    0.000    0.000    0.000    0.000 
#
# Total GULP energy -111713.658199 kJ/mol
# GULP energy per Si atom -5585.682910 kJ/mol
# Density = 2.676089 g / cm^3
# Si number density = 26.821934 Si / 1000 Ang^3
#
#
#
# Elastic Constant Matrix: (Units=GPa)
#
#
# Indices 1 2 3 4 5 6 
#
# 1 215.7283 36.9932 75.9767 0.0000 0.0000 0.0000
# 2 36.9932 173.4670 19.3776 0.0000 0.0000 0.0000
# 3 75.9767 19.3776 281.9938 0.0000 0.0000 0.0000
# 4 0.0000 0.0000 0.0000 23.9798 0.0000 0.0000
# 5 0.0000 0.0000 0.0000 0.0000 40.9228 0.0000
# 6 0.0000 0.0000 0.0000 0.0000 0.0000 39.6765
#
#
#
# Elastic Compliance Matrix: (Units=1/GPa)
#
#
# Indices 1 2 3 4 5 6 
#
# 1 0.005280 -0.000975 -0.001356 0.000000 0.000000 0.000000
# 2 -0.000975 0.005989 -0.000149 0.000000 0.000000 0.000000
# 3 -0.001356 -0.000149 0.003922 0.000000 0.000000 0.000000
# 4 0.000000 0.000000 0.000000 0.041702 0.000000 0.000000
# 5 0.000000 0.000000 0.000000 0.000000 0.024436 0.000000
# 6 0.000000 0.000000 0.000000 0.000000 0.000000 0.025204
#
#
# Mechanical properties :
#
#
# Convention : Reuss Voigt Hill
#
# Bulk Modulus (GPa) = 97.72691 103.98712 100.85702
# Shear Modulus (GPa) = 43.51534 56.83860 50.17697
#
# Velocity S-wave (km/s) = 4.03225 4.60837 4.32990
# Velocity P-wave (km/s) = 7.62845 8.19571 7.91716
#
# Compressibility (1/GPa) = 0.01023260
#
# Stress axis : x y z
#
# Youngs Moduli (GPa) = 189.39363 166.96542 254.99462
#
# Poissons Ratio (x) = 0.16272 0.34567
# Poissons Ratio (y) = 0.18458 0.03799
# Poissons Ratio (z) = 0.25674 0.02488
#
# Static dielectric constant tensor:
#      x y z
#    x 0.306870 0.000000 0.000000 
#    y 0.000000 2.389920 0.000000 
#    z 0.000000 0.000000 2.072640 
# 
# From -- ./inp_files/23337.got.cif
#   From: 2010.05.17/outbox.cif.g08.bks.cpg/sg52_12_cif.got.tgz:23337.got - 2010.06.03 12:15:38.
