data_PCOD9411381
_publ_section_title
;
Structure prediction by ZEFSAII (Michael W. Deem and Ramdas Pophale) SiO2 
 PCOD9411381
Probable space group: P N N A
;
_chemical_formula_sum "Si O2"
_cell_formula_units_Z 40
_cell_length_a 9.313433
_cell_length_b 17.579206
_cell_length_c 13.100588
_cell_angle_alpha 90.000000
_cell_angle_beta 90.000000
_cell_angle_gamma 90.000000
_cell_volume 2144.864389
_symmetry_space_group_name_H-M "P N N A"
_symmetry_group_IT_number 52
_symmetry_cell_setting 'orthorhombic'
loop_
_space_group_symop_operation_xyz
x,y,z
1/2-x,-y,z
x,1/2-y,1/2-z
1/2-x,1/2+y,1/2-z
-x,-y,-z
1/2+x,y,-z
-x,1/2+y,1/2+z
1/2+x,1/2-y,1/2+z
loop_
_atom_site_type_symbol
_atom_site_label
_atom_site_fract_x
_atom_site_fract_y
_atom_site_fract_z
Si Si1 0.036512 0.750000 0.750000
Si Si2 0.527207 0.023444 0.116406
Si Si3 0.724503 0.613297 0.302648
Si Si4 0.612112 0.372362 0.889149
Si Si5 0.250000 0.500000 0.255626
Si Si6 0.707910 0.913526 0.432518
O O1 0.140713 0.692555 0.688172
O O2 0.937957 0.700432 0.824804
O O3 0.633737 0.095122 0.131919
O O4 0.612085 0.953390 0.169279
O O5 0.377205 0.032633 0.174063
O O6 0.500000 0.000000 0.000000
O O7 0.759557 0.604760 0.182324
O O8 0.684440 0.433633 0.814189
O O9 0.463043 0.405848 0.932290
O O10 0.718778 0.360464 0.983367
O O11 0.750000 0.000000 0.456516
#
# Coordination Sequence:
#
# PCOD9411381 Si02
#       6
#     4   8   8   8   4   8
#     4  10  22  48  58  94 142 172 204 284 342 392
#     4  11  22  40  67  97 123 182 235 274 320 397
#     4  10  21  43  66  88 139 170 214 281 329 391
#     4  11  24  36  67  92 136 166 210 270 334 400
#     4  12  20  38  64 100 126 166 218 282 316 384
#     4  11  19  37  64  99 122 165 215 268 331 390
#
# _framework density 18.649198999999999
#
# number of rings (size 3 to 8) (size 9 to 14) (size 15 to 20)
#    0.000    1.200    7.000    1.800    2.800    0.000 
#    7.200    1.000    0.000    0.000    0.000    0.000 
#    0.000    0.000    0.000    0.000    0.000    0.000 
#
# Total GULP energy -223296.171471 kJ/mol
# GULP energy per Si atom -5582.404287 kJ/mol
# Density = 1.860675 g / cm^3
# Si number density = 18.649199 Si / 1000 Ang^3
#
#
#
# Elastic Constant Matrix: (Units=GPa)
#
#
# Indices 1 2 3 4 5 6 
#
# 1 148.7660 48.5016 72.8512 0.0000 0.0000 0.0000
# 2 48.5016 103.8287 40.3418 0.0000 0.0000 0.0000
# 3 72.8512 40.3418 138.9532 0.0000 0.0000 0.0000
# 4 0.0000 0.0000 0.0000 10.3967 0.0000 0.0000
# 5 0.0000 0.0000 0.0000 0.0000 31.2879 0.0000
# 6 0.0000 0.0000 0.0000 0.0000 0.0000 32.6106
#
#
#
# Elastic Compliance Matrix: (Units=1/GPa)
#
#
# Indices 1 2 3 4 5 6 
#
# 1 0.009761 -0.002898 -0.004276 0.000000 0.000000 0.000000
# 2 -0.002898 0.011716 -0.001882 0.000000 0.000000 0.000000
# 3 -0.004276 -0.001882 0.009985 0.000000 0.000000 0.000000
# 4 0.000000 0.000000 0.000000 0.096185 0.000000 0.000000
# 5 0.000000 0.000000 0.000000 0.000000 0.031961 0.000000
# 6 0.000000 0.000000 0.000000 0.000000 0.000000 0.030665
#
#
# Mechanical properties :
#
#
# Convention : Reuss Voigt Hill
#
# Bulk Modulus (GPa) = 74.90911 79.43747 77.17329
# Shear Modulus (GPa) = 23.49234 30.18260 26.83747
#
# Velocity S-wave (km/s) = 3.55307 4.02735 3.79762
# Velocity P-wave (km/s) = 7.55560 8.01961 7.79106
#
# Compressibility (1/GPa) = 0.01334951
#
# Stress axis : x y z
#
# Youngs Moduli (GPa) = 102.45016 85.35084 100.15056
#
# Poissons Ratio (x) = 0.24736 0.42825
# Poissons Ratio (y) = 0.29692 0.18849
# Poissons Ratio (z) = 0.43808 0.16064
#
# Static dielectric constant tensor:
#      x y z
#    x 1.651270 0.000000 0.000000 
#    y 0.000000 1.651600 0.000000 
#    z 0.000000 0.000000 1.654990 
# 
# From -- ./inp_files/16719.got.cif
#   From: 2010.05.17/outbox.cif.g08.bks.cpg/sg52_9_cif.got.tgz:16719.got - 2010.06.03 12:15:38.
