data_PCOD9411756
_publ_section_title
;
Structure prediction by ZEFSAII (Michael W. Deem and Ramdas Pophale) SiO2 
 PCOD9411756
Probable space group: P N N A
;
_chemical_formula_sum "Si O2"
_cell_formula_units_Z 52
_cell_length_a 8.965859
_cell_length_b 24.668058
_cell_length_c 10.715356
_cell_angle_alpha 90.000000
_cell_angle_beta 90.000000
_cell_angle_gamma 90.000000
_cell_volume 2369.918821
_symmetry_space_group_name_H-M "P N N A"
_symmetry_group_IT_number 52
_symmetry_cell_setting 'orthorhombic'
loop_
_space_group_symop_operation_xyz
x,y,z
1/2-x,-y,z
x,1/2-y,1/2-z
1/2-x,1/2+y,1/2-z
-x,-y,-z
1/2+x,y,-z
-x,1/2+y,1/2+z
1/2+x,1/2-y,1/2+z
loop_
_atom_site_type_symbol
_atom_site_label
_atom_site_fract_x
_atom_site_fract_y
_atom_site_fract_z
Si Si1 0.722896 0.811534 0.240328
Si Si2 0.373385 0.688028 0.240016
Si Si3 0.265715 0.369817 0.474790
Si Si4 0.750000 0.500000 0.673398
Si Si5 0.235569 0.910749 0.388435
Si Si6 0.112333 0.089361 0.635342
Si Si7 0.035593 0.440957 0.600302
O O1 0.779264 0.750000 0.250000
O O2 0.550356 0.811982 0.281283
O O3 0.816029 0.853602 0.322833
O O4 0.722497 0.833599 0.098455
O O5 0.321231 0.750000 0.250000
O O6 0.327797 0.660749 0.370426
O O7 0.301308 0.648851 0.137585
O O8 0.175664 0.423852 0.515276
O O9 0.425894 0.388334 0.420399
O O10 0.728682 0.449269 0.769832
O O11 0.592539 0.512718 0.602782
O O12 0.302049 0.933224 0.516431
O O13 0.059546 0.905270 0.400145
O O14 0.108141 0.054849 0.762391
#
# Coordination Sequence:
#
# PCOD9411756 Si02
#       7
#     8   8   8   4   8   8   8
#     4  10  23  40  64  94 129 172 220 262 322 390
#     4  11  23  40  62  93 127 171 212 263 329 386
#     4  11  20  42  61  91 132 166 209 270 314 388
#     4  10  22  42  66  98 124 170 218 274 324 390
#     4  11  23  42  65  91 134 166 221 271 323 392
#     4  10  22  41  60  92 125 168 210 268 322 382
#     4  10  22  40  66  89 127 164 212 266 325 376
#
# _framework density 21.941679000000001
#
# number of rings (size 3 to 8) (size 9 to 14) (size 15 to 20)
#    0.000    1.538    4.615    0.923    2.154    3.692 
#    0.000    0.000    0.000    9.231    0.000    0.000 
#    0.000    0.000    0.000    0.000    0.000    0.000 
#
# Total GULP energy -290323.048198 kJ/mol
# GULP energy per Si atom -5583.135542 kJ/mol
# Density = 2.189174 g / cm^3
# Si number density = 21.941679 Si / 1000 Ang^3
#
#
#
# Elastic Constant Matrix: (Units=GPa)
#
#
# Indices 1 2 3 4 5 6 
#
# 1 70.8318 -14.7668 10.6223 0.0000 0.0000 0.0000
# 2 -14.7668 51.0848 -12.4313 0.0000 0.0000 0.0000
# 3 10.6223 -12.4313 81.4571 0.0000 0.0000 0.0000
# 4 0.0000 0.0000 0.0000 10.5982 0.0000 0.0000
# 5 0.0000 0.0000 0.0000 0.0000 72.6492 0.0000
# 6 0.0000 0.0000 0.0000 0.0000 0.0000 20.2195
#
#
#
# Elastic Compliance Matrix: (Units=1/GPa)
#
#
# Indices 1 2 3 4 5 6 
#
# 1 0.015167 0.004053 -0.001359 0.000000 0.000000 0.000000
# 2 0.004053 0.021414 0.002739 0.000000 0.000000 0.000000
# 3 -0.001359 0.002739 0.012872 0.000000 0.000000 0.000000
# 4 0.000000 0.000000 0.000000 0.094356 0.000000 0.000000
# 5 0.000000 0.000000 0.000000 0.000000 0.013765 0.000000
# 6 0.000000 0.000000 0.000000 0.000000 0.000000 0.049457
#
#
# Mechanical properties :
#
#
# Convention : Reuss Voigt Hill
#
# Bulk Modulus (GPa) = 16.57841 18.91356 17.74599
# Shear Modulus (GPa) = 23.11930 35.35667 29.23799
#
# Velocity S-wave (km/s) = 3.24955 4.01857 3.65435
# Velocity P-wave (km/s) = 4.65312 5.49277 5.09029
#
# Compressibility (1/GPa) = 0.06031941
#
# Stress axis : x y z
#
# Youngs Moduli (GPa) = 65.93332 46.69925 77.68980
#
# Poissons Ratio (x) = -0.18929 0.10560
# Poissons Ratio (y) = -0.26726 -0.21282
# Poissons Ratio (z) = 0.08962 -0.12793
#
# Static dielectric constant tensor:
#      x y z
#    x 1.760700 0.000000 0.000000 
#    y 0.000000 1.841560 0.000000 
#    z 0.000000 0.000000 1.831900 
# 
# From -- ./inp_files/17100.got.cif
#   From: 2010.05.17/outbox.cif.g08.bks.cpg/sg52_9_cif.got.tgz:17100.got - 2010.06.03 12:15:38.
