data_PCOD9411453
_publ_section_title
;
Structure prediction by ZEFSAII (Michael W. Deem and Ramdas Pophale) SiO2 
 PCOD9411453
Probable space group: P N N A
;
_chemical_formula_sum "Si O2"
_cell_formula_units_Z 44
_cell_length_a 20.632208
_cell_length_b 5.410330
_cell_length_c 19.292491
_cell_angle_alpha 90.000000
_cell_angle_beta 90.000000
_cell_angle_gamma 90.000000
_cell_volume 2153.563933
_symmetry_space_group_name_H-M "P N N A"
_symmetry_group_IT_number 52
_symmetry_cell_setting 'orthorhombic'
loop_
_space_group_symop_operation_xyz
x,y,z
1/2-x,-y,z
x,1/2-y,1/2-z
1/2-x,1/2+y,1/2-z
-x,-y,-z
1/2+x,y,-z
-x,1/2+y,1/2+z
1/2+x,1/2-y,1/2+z
loop_
_atom_site_type_symbol
_atom_site_label
_atom_site_fract_x
_atom_site_fract_y
_atom_site_fract_z
Si Si1 0.116986 0.394045 0.861266
Si Si2 0.012188 0.857680 0.179095
Si Si3 0.709018 0.250000 0.250000
Si Si4 0.250000 0.500000 0.294649
Si Si5 0.363817 0.011025 0.094007
Si Si6 0.918920 0.250000 0.250000
Si Si7 0.828242 0.991105 0.513140
O O1 0.162854 0.209553 0.817518
O O2 0.121184 0.628059 0.810882
O O3 0.040874 0.318837 0.858299
O O4 0.143535 0.446795 0.936668
O O5 0.044173 0.750000 0.250000
O O6 0.065217 0.959561 0.126988
O O7 0.966049 0.061748 0.211796
O O8 0.750000 0.500000 0.240642
O O9 0.257020 0.750000 0.250000
O O10 0.311913 0.470144 0.344185
O O11 0.351880 0.246361 0.043912
O O12 0.351733 0.746040 0.057897
O O13 0.750000 0.000000 0.512394
#
# Coordination Sequence:
#
# PCOD9411453 Si02
#       7
#     8   8   4   4   8   4   8
#     4  11  25  44  71 102 143 188 236 300 356 414
#     4  10  24  44  73 104 139 183 237 308 355 420
#     4  12  25  42  70 106 137 180 252 290 350 419
#     4  12  24  44  76 102 136 178 244 294 346 414
#     4  12  27  47  70 106 145 185 239 290 364 427
#     4  10  21  46  70 106 143 172 246 300 348 421
#     4  12  27  48  68 100 151 193 232 291 356 439
#
# _framework density 20.431249000000001
#
# number of rings (size 3 to 8) (size 9 to 14) (size 15 to 20)
#    0.000    0.727    4.545    2.727    8.909    2.909 
#    0.000    0.000    0.000    0.000    0.000    0.000 
#    0.000    0.000    0.000    0.000    0.000    0.000 
#
# Total GULP energy -245744.960381 kJ/mol
# GULP energy per Si atom -5585.112736 kJ/mol
# Density = 2.038475 g / cm^3
# Si number density = 20.431249 Si / 1000 Ang^3
#
#
#
# Elastic Constant Matrix: (Units=GPa)
#
#
# Indices 1 2 3 4 5 6 
#
# 1 102.4490 29.3678 59.2091 0.0000 0.0000 0.0000
# 2 29.3678 109.0491 47.5637 0.0000 0.0000 0.0000
# 3 59.2091 47.5637 134.8829 0.0000 0.0000 0.0000
# 4 0.0000 0.0000 0.0000 34.0680 0.0000 0.0000
# 5 0.0000 0.0000 0.0000 0.0000 14.6209 0.0000
# 6 0.0000 0.0000 0.0000 0.0000 0.0000 116.4487
#
#
#
# Elastic Compliance Matrix: (Units=1/GPa)
#
#
# Indices 1 2 3 4 5 6 
#
# 1 0.013214 -0.001216 -0.005372 0.000000 0.000000 0.000000
# 2 -0.001216 0.010949 -0.003327 0.000000 0.000000 0.000000
# 3 -0.005372 -0.003327 0.010945 0.000000 0.000000 0.000000
# 4 0.000000 0.000000 0.000000 0.029353 0.000000 0.000000
# 5 0.000000 0.000000 0.000000 0.000000 0.068395 0.000000
# 6 0.000000 0.000000 0.000000 0.000000 0.000000 0.008587
#
#
# Mechanical properties :
#
#
# Convention : Reuss Voigt Hill
#
# Bulk Modulus (GPa) = 65.45121 68.74027 67.09574
# Shear Modulus (GPa) = 30.05418 47.04352 38.54885
#
# Velocity S-wave (km/s) = 3.83951 4.80367 4.34840
# Velocity P-wave (km/s) = 7.19446 8.03024 7.62381
#
# Compressibility (1/GPa) = 0.01527856
#
# Stress axis : x y z
#
# Youngs Moduli (GPa) = 75.67724 91.33419 91.36432
#
# Poissons Ratio (x) = 0.11103 0.49080
# Poissons Ratio (y) = 0.09199 0.30399
# Poissons Ratio (z) = 0.40653 0.30389
#
# Static dielectric constant tensor:
#      x y z
#    x 1.797680 0.000000 0.000000 
#    y 0.000000 1.798440 0.000000 
#    z 0.000000 0.000000 1.688230 
# 
# From -- ./inp_files/34214.got.cif
#   From: 2010.05.17/outbox.cif.g08.bks.cpg/sg52_18_cif.got.tgz:34214.got - 2010.06.03 12:15:38.
