data_PCOD9411235
_publ_section_title
;
Structure prediction by ZEFSAII (Michael W. Deem and Ramdas Pophale) SiO2 
 PCOD9411235
Probable space group: P N N A
;
_chemical_formula_sum "Si O2"
_cell_formula_units_Z 64
_cell_length_a 9.440315
_cell_length_b 25.644199
_cell_length_c 12.183127
_cell_angle_alpha 90.000000
_cell_angle_beta 90.000000
_cell_angle_gamma 90.000000
_cell_volume 2949.404888
_symmetry_space_group_name_H-M "P N N A"
_symmetry_group_IT_number 52
_symmetry_cell_setting 'orthorhombic'
loop_
_space_group_symop_operation_xyz
x,y,z
1/2-x,-y,z
x,1/2-y,1/2-z
1/2-x,1/2+y,1/2-z
-x,-y,-z
1/2+x,y,-z
-x,1/2+y,1/2+z
1/2+x,1/2-y,1/2+z
loop_
_atom_site_type_symbol
_atom_site_label
_atom_site_fract_x
_atom_site_fract_y
_atom_site_fract_z
Si Si1 0.027439 0.618584 0.515401
Si Si2 0.834838 0.245980 0.618205
Si Si3 0.349073 0.075941 0.187074
Si Si4 0.208469 0.624657 0.085871
Si Si5 0.029169 0.032925 0.181469
Si Si6 0.638122 0.297307 0.437224
Si Si7 0.541338 0.896141 0.376902
Si Si8 0.894010 0.304913 0.286365
O O1 0.029690 0.563157 0.575841
O O2 0.889738 0.640956 0.453687
O O3 0.135186 0.614359 0.414883
O O4 0.044431 0.661624 0.611414
O O5 0.814744 0.250000 0.750000
O O6 0.823122 0.185920 0.582391
O O7 0.717489 0.274762 0.543831
O O8 0.988539 0.269293 0.586038
O O9 0.361973 0.104417 0.302206
O O10 0.191768 0.052471 0.186204
O O11 0.462025 0.029113 0.176306
O O12 0.377019 0.614383 0.091963
O O13 0.136707 0.596338 0.983249
O O14 0.956403 0.056417 0.290025
O O15 0.740161 0.290928 0.333461
O O16 0.597737 0.844693 0.314121
O O17 0.962766 0.250000 0.250000
#
# Coordination Sequence:
#
# PCOD9411235 Si02
#       8
#     8   8   8   8   8   8   8   8
#     4  11  22  38  67  97 130 169 219 276 331 407
#     4  12  27  40  64  96 137 180 229 274 335 400
#     4  10  21  41  64  97 127 171 219 284 340 396
#     4  11  24  41  66  92 136 174 227 272 329 405
#     4   9  21  40  67  92 131 168 220 278 346 401
#     4  12  25  43  63  98 134 176 224 275 328 407
#     4  10  24  42  65  96 127 178 220 273 338 397
#     4  11  24  41  64  90 134 174 219 267 327 392
#
# _framework density 21.699292
#
# number of rings (size 3 to 8) (size 9 to 14) (size 15 to 20)
#    0.000    1.250    1.250    3.750    7.000    2.500 
#    0.000    0.000    0.000    4.500    0.000    0.000 
#    0.000    0.000    0.000    0.000    0.000    0.000 
#
# Total GULP energy -357594.916286 kJ/mol
# GULP energy per Si atom -5587.420567 kJ/mol
# Density = 2.164990 g / cm^3
# Si number density = 21.699292 Si / 1000 Ang^3
#
#
#
# Elastic Constant Matrix: (Units=GPa)
#
#
# Indices 1 2 3 4 5 6 
#
# 1 71.0583 12.8213 44.8857 0.0000 0.0000 0.0000
# 2 12.8213 64.2009 16.0705 0.0000 0.0000 0.0000
# 3 44.8857 16.0705 118.0671 0.0000 0.0000 0.0000
# 4 0.0000 0.0000 0.0000 23.8861 0.0000 0.0000
# 5 0.0000 0.0000 0.0000 0.0000 23.3268 0.0000
# 6 0.0000 0.0000 0.0000 0.0000 0.0000 9.7919
#
#
#
# Elastic Compliance Matrix: (Units=1/GPa)
#
#
# Indices 1 2 3 4 5 6 
#
# 1 0.018773 -0.002032 -0.006860 0.000000 0.000000 0.000000
# 2 -0.002032 0.016345 -0.001452 0.000000 0.000000 0.000000
# 3 -0.006860 -0.001452 0.011276 0.000000 0.000000 0.000000
# 4 0.000000 0.000000 0.000000 0.041865 0.000000 0.000000
# 5 0.000000 0.000000 0.000000 0.000000 0.042869 0.000000
# 6 0.000000 0.000000 0.000000 0.000000 0.000000 0.102125
#
#
# Mechanical properties :
#
#
# Convention : Reuss Voigt Hill
#
# Bulk Modulus (GPa) = 38.90320 44.54238 41.72279
# Shear Modulus (GPa) = 19.04679 23.37087 21.20883
#
# Velocity S-wave (km/s) = 2.96592 3.28538 3.12973
# Velocity P-wave (km/s) = 5.44942 5.91298 5.68592
#
# Compressibility (1/GPa) = 0.02570482
#
# Stress axis : x y z
#
# Youngs Moduli (GPa) = 53.26765 61.17917 88.68714
#
# Poissons Ratio (x) = 0.12431 0.60843
# Poissons Ratio (y) = 0.10823 0.12881
# Poissons Ratio (z) = 0.36544 0.08886
#
# Static dielectric constant tensor:
#      x y z
#    x 1.813780 0.000000 0.000000 
#    y 0.000000 1.823020 0.000000 
#    z 0.000000 0.000000 1.780260 
# 
# From -- ./inp_files/17243.got.cif
#   From: 2010.05.17/outbox.cif.g08.bks.cpg/sg52_9_cif.got.tgz:17243.got - 2010.06.03 12:15:38.
