data_PCOD9411951
_publ_section_title
;
Structure prediction by ZEFSAII (Michael W. Deem and Ramdas Pophale) SiO2 
 PCOD9411951
Probable space group: P N N A
;
_chemical_formula_sum "Si O2"
_cell_formula_units_Z 64
_cell_length_a 8.595025
_cell_length_b 15.389284
_cell_length_c 23.318614
_cell_angle_alpha 90.000000
_cell_angle_beta 90.000000
_cell_angle_gamma 90.000000
_cell_volume 3084.382938
_symmetry_space_group_name_H-M "P N N A"
_symmetry_group_IT_number 52
_symmetry_cell_setting 'orthorhombic'
loop_
_space_group_symop_operation_xyz
x,y,z
1/2-x,-y,z
x,1/2-y,1/2-z
1/2-x,1/2+y,1/2-z
-x,-y,-z
1/2+x,y,-z
-x,1/2+y,1/2+z
1/2+x,1/2-y,1/2+z
loop_
_atom_site_type_symbol
_atom_site_label
_atom_site_fract_x
_atom_site_fract_y
_atom_site_fract_z
Si Si1 0.062792 0.810934 0.084471
Si Si2 0.387560 0.193451 0.305788
Si Si3 0.419115 0.137986 0.587765
Si Si4 0.926622 0.511008 0.438225
Si Si5 0.544686 0.251601 0.811847
Si Si6 0.922972 0.848254 0.471089
Si Si7 0.430088 0.031113 0.375222
Si Si8 0.338840 0.590734 0.372253
O O1 0.061225 0.753079 0.141080
O O2 0.234649 0.853835 0.082580
O O3 0.958040 0.895225 0.088082
O O4 0.998887 0.747279 0.036336
O O5 0.430510 0.250000 0.250000
O O6 0.199106 0.188203 0.307641
O O7 0.449448 0.097529 0.321379
O O8 0.447839 0.215411 0.633407
O O9 0.552458 0.133485 0.538250
O O10 0.252132 0.145376 0.555162
O O11 0.450319 0.049430 0.623198
O O12 0.750000 0.500000 0.446129
O O13 0.000000 0.500000 0.500000
O O14 0.001158 0.438250 0.399118
O O15 0.463008 0.250000 0.750000
O O16 0.620893 0.156914 0.822236
O O17 0.026748 0.913655 0.432499
O O18 0.250000 0.000000 0.376558
O O19 0.250000 0.500000 0.358394
#
# Coordination Sequence:
#
# PCOD9411951 Si02
#       8
#     8   8   8   8   8   8   8   8
#     4   9  21  40  61  92 125 169 217 270 338 393
#     4   9  19  41  70  96 124 167 227 276 321 397
#     4  12  25  41  65 100 135 183 222 285 342 419
#     4  11  23  37  60  91 127 165 214 268 338 401
#     4  10  22  42  66  99 133 175 226 276 339 402
#     4  11  26  40  68  94 140 177 226 277 347 422
#     4  11  21  43  65  98 136 172 223 274 339 413
#     4   9  20  41  65  92 130 170 223 280 326 402
#
# _framework density 20.749693000000001
#
# number of rings (size 3 to 8) (size 9 to 14) (size 15 to 20)
#    0.000    1.750    1.250    2.625    7.000    0.000 
#    9.000    2.500    0.000    0.000    0.000    0.000 
#    0.000    0.000    0.000    0.000    0.000    0.000 
#
# Total GULP energy -356890.970214 kJ/mol
# GULP energy per Si atom -5576.421410 kJ/mol
# Density = 2.070247 g / cm^3
# Si number density = 20.749693 Si / 1000 Ang^3
#
#
#
# Elastic Constant Matrix: (Units=GPa)
#
#
# Indices 1 2 3 4 5 6 
#
# 1 105.7479 45.4090 33.3021 0.0000 0.0000 0.0000
# 2 45.4090 111.2501 29.4149 0.0000 0.0000 0.0000
# 3 33.3021 29.4149 91.5438 0.0000 0.0000 0.0000
# 4 0.0000 0.0000 0.0000 26.0295 0.0000 0.0000
# 5 0.0000 0.0000 0.0000 0.0000 18.3182 0.0000
# 6 0.0000 0.0000 0.0000 0.0000 0.0000 6.0915
#
#
#
# Elastic Compliance Matrix: (Units=1/GPa)
#
#
# Indices 1 2 3 4 5 6 
#
# 1 0.012225 -0.004168 -0.003108 0.000000 0.000000 0.000000
# 2 -0.004168 0.011244 -0.002097 0.000000 0.000000 0.000000
# 3 -0.003108 -0.002097 0.012728 0.000000 0.000000 0.000000
# 4 0.000000 0.000000 0.000000 0.038418 0.000000 0.000000
# 5 0.000000 0.000000 0.000000 0.000000 0.054591 0.000000
# 6 0.000000 0.000000 0.000000 0.000000 0.000000 0.164162
#
#
# Mechanical properties :
#
#
# Convention : Reuss Voigt Hill
#
# Bulk Modulus (GPa) = 57.30053 58.31043 57.80548
# Shear Modulus (GPa) = 15.72666 23.44890 19.58778
#
# Velocity S-wave (km/s) = 2.75603 3.36532 3.07580
# Velocity P-wave (km/s) = 6.14839 6.57749 6.36655
#
# Compressibility (1/GPa) = 0.01745185
#
# Stress axis : x y z
#
# Youngs Moduli (GPa) = 81.79925 88.93259 78.56635
#
# Poissons Ratio (x) = 0.37068 0.24418
# Poissons Ratio (y) = 0.34095 0.16474
# Poissons Ratio (z) = 0.25423 0.18647
#
# Static dielectric constant tensor:
#      x y z
#    x 1.657810 0.000000 0.000000 
#    y 0.000000 1.771140 0.000000 
#    z 0.000000 0.000000 1.771010 
# 
# From -- ./inp_files/39670.got.cif
#   From: 2010.05.17/outbox.cif.g08.bks.cpg/sg52_20_cif.got.tgz:39670.got - 2010.06.03 12:15:38.
