data_PCOD9411992
_publ_section_title
;
Structure prediction by ZEFSAII (Michael W. Deem and Ramdas Pophale) SiO2 
 PCOD9411992
Probable space group: P N N A
;
_chemical_formula_sum "Si O2"
_cell_formula_units_Z 48
_cell_length_a 24.949208
_cell_length_b 11.685292
_cell_length_c 7.851105
_cell_angle_alpha 90.000000
_cell_angle_beta 90.000000
_cell_angle_gamma 90.000000
_cell_volume 2288.901578
_symmetry_space_group_name_H-M "P N N A"
_symmetry_group_IT_number 52
_symmetry_cell_setting 'orthorhombic'
loop_
_space_group_symop_operation_xyz
x,y,z
1/2-x,-y,z
x,1/2-y,1/2-z
1/2-x,1/2+y,1/2-z
-x,-y,-z
1/2+x,y,-z
-x,1/2+y,1/2+z
1/2+x,1/2-y,1/2+z
loop_
_atom_site_type_symbol
_atom_site_label
_atom_site_fract_x
_atom_site_fract_y
_atom_site_fract_z
Si Si1 0.975071 0.847537 0.472868
Si Si2 0.250000 0.500000 0.365671
Si Si3 0.167403 0.713623 0.927840
Si Si4 0.256441 0.250000 0.250000
Si Si5 0.368594 0.064013 0.050456
Si Si6 0.041556 0.091698 0.925068
Si Si7 0.590112 0.948605 0.564948
O O1 0.966408 0.882526 0.274395
O O2 0.967091 0.714953 0.508207
O O3 0.036536 0.884088 0.499507
O O4 0.930559 0.921808 0.569404
O O5 0.231984 0.378219 0.276792
O O6 0.305382 0.464393 0.455744
O O7 0.192964 0.750000 0.750000
O O8 0.207638 0.725361 0.084040
O O9 0.123578 0.813547 0.960908
O O10 0.138066 0.591721 0.941923
O O11 0.389516 0.080040 0.244641
O O12 0.401373 0.963719 0.962773
O O13 0.000000 0.000000 0.000000
#
# Coordination Sequence:
#
# PCOD9411992 Si02
#       7
#     8   4   8   4   8   8   8
#     4  10  24  35  58  93 133 168 215 269 339 401
#     4  10  22  42  70  94 130 176 232 274 342 394
#     4  11  21  39  70  93 125 174 226 274 333 398
#     4  10  22  44  66 100 128 178 228 286 332 414
#     4  11  22  40  68  91 130 177 220 279 331 405
#     4  11  21  39  60  90 130 179 214 272 336 394
#     4  11  20  39  58  94 128 167 220 271 323 403
#
# _framework density 20.970758
#
# number of rings (size 3 to 8) (size 9 to 14) (size 15 to 20)
#    0.000    1.333    5.000    2.000    2.333    2.000 
#    0.000    3.333   14.667    0.000    0.000    0.000 
#    0.000    0.000    0.000    0.000    0.000    0.000 
#
# Total GULP energy -267508.919252 kJ/mol
# GULP energy per Si atom -5573.102484 kJ/mol
# Density = 2.092303 g / cm^3
# Si number density = 20.970758 Si / 1000 Ang^3
#
#
#
# Elastic Constant Matrix: (Units=GPa)
#
#
# Indices 1 2 3 4 5 6 
#
# 1 70.6043 25.6779 0.7957 0.0000 0.0000 0.0000
# 2 25.6779 149.8108 -7.9156 0.0000 0.0000 0.0000
# 3 0.7957 -7.9156 55.9013 0.0000 0.0000 0.0000
# 4 0.0000 0.0000 0.0000 27.9375 0.0000 0.0000
# 5 0.0000 0.0000 0.0000 0.0000 6.6233 0.0000
# 6 0.0000 0.0000 0.0000 0.0000 0.0000 34.4902
#
#
#
# Elastic Compliance Matrix: (Units=1/GPa)
#
#
# Indices 1 2 3 4 5 6 
#
# 1 0.015124 -0.002623 -0.000587 0.000000 0.000000 0.000000
# 2 -0.002623 0.007180 0.001054 0.000000 0.000000 0.000000
# 3 -0.000587 0.001054 0.018046 0.000000 0.000000 0.000000
# 4 0.000000 0.000000 0.000000 0.035794 0.000000 0.000000
# 5 0.000000 0.000000 0.000000 0.000000 0.150983 0.000000
# 6 0.000000 0.000000 0.000000 0.000000 0.000000 0.028994
#
#
# Mechanical properties :
#
#
# Convention : Reuss Voigt Hill
#
# Bulk Modulus (GPa) = 27.74779 34.82582 31.28680
# Shear Modulus (GPa) = 18.35223 30.99409 24.67316
#
# Velocity S-wave (km/s) = 2.96148 3.84860 3.43381
# Velocity P-wave (km/s) = 4.99542 6.03257 5.53832
#
# Compressibility (1/GPa) = 0.03603891
#
# Stress axis : x y z
#
# Youngs Moduli (GPa) = 66.11954 139.26754 55.41311
#
# Poissons Ratio (x) = 0.36534 0.03251
# Poissons Ratio (y) = 0.17345 -0.05841
# Poissons Ratio (z) = 0.03879 -0.14680
#
# Static dielectric constant tensor:
#      x y z
#    x 1.745090 0.000000 0.000000 
#    y 0.000000 1.842200 0.000000 
#    z 0.000000 0.000000 1.813600 
# 
# From -- ./inp_files/14965.got.cif
#   From: 2010.05.17/outbox.cif.g08.bks.cpg/sg52_8_cif.got.tgz:14965.got - 2010.06.03 12:15:38.
