data_PCOD9411197
_publ_section_title
;
Structure prediction by ZEFSAII (Michael W. Deem and Ramdas Pophale) SiO2 
 PCOD9411197
Probable space group: P N N A
;
_chemical_formula_sum "Si O2"
_cell_formula_units_Z 60
_cell_length_a 10.424438
_cell_length_b 28.857978
_cell_length_c 9.268213
_cell_angle_alpha 90.000000
_cell_angle_beta 90.000000
_cell_angle_gamma 90.000000
_cell_volume 2788.139857
_symmetry_space_group_name_H-M "P N N A"
_symmetry_group_IT_number 52
_symmetry_cell_setting 'orthorhombic'
loop_
_space_group_symop_operation_xyz
x,y,z
1/2-x,-y,z
x,1/2-y,1/2-z
1/2-x,1/2+y,1/2-z
-x,-y,-z
1/2+x,y,-z
-x,1/2+y,1/2+z
1/2+x,1/2-y,1/2+z
loop_
_atom_site_type_symbol
_atom_site_label
_atom_site_fract_x
_atom_site_fract_y
_atom_site_fract_z
Si Si1 0.827078 0.126183 0.329242
Si Si2 0.630112 0.534028 0.346697
Si Si3 0.662870 0.879568 0.670215
Si Si4 0.408216 0.651567 0.295977
Si Si5 0.674362 0.330728 0.407021
Si Si6 0.881077 0.028815 0.822581
Si Si7 0.775197 0.750000 0.750000
Si Si8 0.591964 0.799661 0.901742
O O1 0.843519 0.074837 0.264823
O O2 0.835042 0.129083 0.500553
O O3 0.702951 0.147908 0.248684
O O4 0.953467 0.150715 0.269250
O O5 0.750000 0.500000 0.339463
O O6 0.623528 0.549798 0.514419
O O7 0.499701 0.506418 0.315680
O O8 0.812500 0.882280 0.714441
O O9 0.601714 0.928329 0.714496
O O10 0.608938 0.838009 0.772800
O O11 0.391626 0.638655 0.465260
O O12 0.356030 0.703940 0.270759
O O13 0.560814 0.292186 0.408149
O O14 0.815657 0.319641 0.471765
O O15 0.750000 0.000000 0.798416
O O16 0.670255 0.752078 0.877497
#
# Coordination Sequence:
#
# PCOD9411197 Si02
#       8
#     8   8   8   8   8   8   4   8
#     4  12  24  39  66  99 130 180 221 263 348 403
#     4  10  23  37  61  94 127 167 231 275 311 392
#     4  10  24  38  62  90 138 169 209 274 339 395
#     4  10  22  45  63  96 131 174 217 283 316 398
#     4  10  21  40  69  91 121 173 229 255 317 391
#     4  10  21  41  61  88 126 176 218 274 328 379
#     4   8  20  44  66  92 136 160 212 274 328 372
#     4  10  21  44  66  96 126 172 213 276 317 391
#
# _framework density 21.519724
#
# number of rings (size 3 to 8) (size 9 to 14) (size 15 to 20)
#    0.000    2.133    1.333    2.400    3.733    2.133 
#    9.600    0.667    0.000    0.000    0.000    0.000 
#    0.000    0.000    0.000    0.000    0.000    0.000 
#
# Total GULP energy -334057.498545 kJ/mol
# GULP energy per Si atom -5567.624976 kJ/mol
# Density = 2.147074 g / cm^3
# Si number density = 21.519724 Si / 1000 Ang^3
#
#
#
# Elastic Constant Matrix: (Units=GPa)
#
#
# Indices 1 2 3 4 5 6 
#
# 1 104.9504 7.7132 5.2785 0.0000 0.0000 0.0000
# 2 7.7132 46.0459 3.9317 0.0000 0.0000 0.0000
# 3 5.2785 3.9317 79.5318 0.0000 0.0000 0.0000
# 4 0.0000 0.0000 0.0000 24.9252 0.0000 0.0000
# 5 0.0000 0.0000 0.0000 0.0000 18.5613 0.0000
# 6 0.0000 0.0000 0.0000 0.0000 0.0000 26.4629
#
#
#
# Elastic Compliance Matrix: (Units=1/GPa)
#
#
# Indices 1 2 3 4 5 6 
#
# 1 0.009672 -0.001572 -0.000564 0.000000 0.000000 0.000000
# 2 -0.001572 0.022065 -0.000986 0.000000 0.000000 0.000000
# 3 -0.000564 -0.000986 0.012660 0.000000 0.000000 0.000000
# 4 0.000000 0.000000 0.000000 0.040120 0.000000 0.000000
# 5 0.000000 0.000000 0.000000 0.000000 0.053876 0.000000
# 6 0.000000 0.000000 0.000000 0.000000 0.000000 0.037789
#
#
# Mechanical properties :
#
#
# Convention : Reuss Voigt Hill
#
# Bulk Modulus (GPa) = 26.21121 29.37498 27.79310
# Shear Modulus (GPa) = 25.62212 28.23022 26.92617
#
# Velocity S-wave (km/s) = 3.45430 3.62585 3.54111
# Velocity P-wave (km/s) = 5.30246 5.58650 5.44633
#
# Compressibility (1/GPa) = 0.03815162
#
# Stress axis : x y z
#
# Youngs Moduli (GPa) = 103.38885 45.32060 78.99024
#
# Poissons Ratio (x) = 0.07125 0.04457
# Poissons Ratio (y) = 0.16253 0.07792
# Poissons Ratio (z) = 0.05833 0.04471
#
# Static dielectric constant tensor:
#      x y z
#    x 1.839400 0.000000 0.000000 
#    y 0.000000 1.787680 0.000000 
#    z 0.000000 0.000000 1.889840 
# 
# From -- ./inp_files/9112.got.cif
#   From: 2010.05.17/outbox.cif.g08.bks.cpg/sg52_5_cif.got.tgz:9112.got - 2010.06.03 12:15:38.
