data_PCOD9411985
_publ_section_title
;
Structure prediction by ZEFSAII (Michael W. Deem and Ramdas Pophale) SiO2 
 PCOD9411985
Probable space group: P N N A
;
_chemical_formula_sum "Si O2"
_cell_formula_units_Z 64
_cell_length_a 16.511861
_cell_length_b 14.135511
_cell_length_c 12.121246
_cell_angle_alpha 90.000000
_cell_angle_beta 90.000000
_cell_angle_gamma 90.000000
_cell_volume 2829.142366
_symmetry_space_group_name_H-M "P N N A"
_symmetry_group_IT_number 52
_symmetry_cell_setting 'orthorhombic'
loop_
_space_group_symop_operation_xyz
x,y,z
1/2-x,-y,z
x,1/2-y,1/2-z
1/2-x,1/2+y,1/2-z
-x,-y,-z
1/2+x,y,-z
-x,1/2+y,1/2+z
1/2+x,1/2-y,1/2+z
loop_
_atom_site_type_symbol
_atom_site_label
_atom_site_fract_x
_atom_site_fract_y
_atom_site_fract_z
Si Si1 0.428425 0.302581 0.861339
Si Si2 0.821834 0.831703 0.011910
Si Si3 0.112020 0.158597 0.399096
Si Si4 0.325671 0.564666 0.285543
Si Si5 0.651407 0.741518 0.562055
Si Si6 0.410342 0.504746 0.939579
Si Si7 0.092958 0.357528 0.728928
Si Si8 0.594514 0.617323 0.749530
O O1 0.402144 0.250000 0.750000
O O2 0.521508 0.333872 0.851485
O O3 0.385169 0.400375 0.899935
O O4 0.415339 0.235385 0.966341
O O5 0.882278 0.746810 0.980427
O O6 0.826302 0.904916 0.911317
O O7 0.735824 0.776005 0.002600
O O8 0.852495 0.882267 0.122766
O O9 0.170584 0.154237 0.294581
O O10 0.135580 0.065039 0.468025
O O11 0.250000 0.500000 0.259100
O O12 0.400111 0.495500 0.254156
O O13 0.649373 0.658850 0.652099
O O14 0.625788 0.833467 0.637173
O O15 0.403233 0.571055 0.831826
O O16 0.500000 0.500000 0.000000
O O17 0.120419 0.250000 0.750000
O O18 0.995785 0.353034 0.714428
#
# Coordination Sequence:
#
# PCOD9411985 Si02
#       8
#     8   8   8   8   8   8   8   8
#     4  11  23  42  67 100 137 180 233 305 362 428
#     4  12  26  41  67 101 146 189 230 302 380 450
#     4  11  22  41  70  99 137 178 250 299 359 436
#     4  12  24  41  65 105 148 185 237 313 377 441
#     4  11  23  42  67  95 138 186 238 292 370 437
#     4  10  22  42  70 104 136 179 241 305 354 430
#     4  12  23  44  73 104 139 190 245 309 375 446
#     4  11  22  41  72  98 130 189 248 297 357 442
#
# _framework density 22.621697000000001
#
# number of rings (size 3 to 8) (size 9 to 14) (size 15 to 20)
#    0.000    0.750    3.750    6.375    1.750    2.000 
#    0.000    0.000    0.000    0.000    0.000    0.000 
#    0.000    0.000    0.000    0.000    0.000    0.000 
#
# Total GULP energy -356893.067464 kJ/mol
# GULP energy per Si atom -5576.454179 kJ/mol
# Density = 2.257021 g / cm^3
# Si number density = 22.621697 Si / 1000 Ang^3
#
#
#
# Elastic Constant Matrix: (Units=GPa)
#
#
# Indices 1 2 3 4 5 6 
#
# 1 63.6896 3.8895 44.3820 0.0000 0.0000 0.0000
# 2 3.8895 88.8173 45.0844 0.0000 0.0000 0.0000
# 3 44.3820 45.0844 180.7099 0.0000 0.0000 0.0000
# 4 0.0000 0.0000 0.0000 47.0915 0.0000 0.0000
# 5 0.0000 0.0000 0.0000 0.0000 24.5488 0.0000
# 6 0.0000 0.0000 0.0000 0.0000 0.0000 18.4070
#
#
#
# Elastic Compliance Matrix: (Units=1/GPa)
#
#
# Indices 1 2 3 4 5 6 
#
# 1 0.019185 0.001777 -0.005155 0.000000 0.000000 0.000000
# 2 0.001777 0.013056 -0.003694 0.000000 0.000000 0.000000
# 3 -0.005155 -0.003694 0.007721 0.000000 0.000000 0.000000
# 4 0.000000 0.000000 0.000000 0.021235 0.000000 0.000000
# 5 0.000000 0.000000 0.000000 0.000000 0.040735 0.000000
# 6 0.000000 0.000000 0.000000 0.000000 0.000000 0.054327
#
#
# Mechanical properties :
#
#
# Convention : Reuss Voigt Hill
#
# Bulk Modulus (GPa) = 38.73232 57.76985 48.25108
# Shear Modulus (GPa) = 27.93139 34.00021 30.96580
#
# Velocity S-wave (km/s) = 3.51767 3.88105 3.70382
# Velocity P-wave (km/s) = 5.80151 6.75842 6.29816
#
# Compressibility (1/GPa) = 0.02581823
#
# Stress axis : x y z
#
# Youngs Moduli (GPa) = 52.12433 76.59207 129.51198
#
# Poissons Ratio (x) = -0.13607 0.66763
# Poissons Ratio (y) = -0.09260 0.47837
# Poissons Ratio (z) = 0.26870 0.28290
#
# Static dielectric constant tensor:
#      x y z
#    x 1.938080 0.000000 0.000000 
#    y 0.000000 1.905230 0.000000 
#    z 0.000000 0.000000 1.849680 
# 
# From -- ./inp_files/20901.got.cif
#   From: 2010.05.17/outbox.cif.g08.bks.cpg/sg52_11_cif.got.tgz:20901.got - 2010.06.03 12:15:38.
