data_PCOD9411691
_publ_section_title
;
Structure prediction by ZEFSAII (Michael W. Deem and Ramdas Pophale) SiO2 
 PCOD9411691
Probable space group: P N N A
;
_chemical_formula_sum "Si O2"
_cell_formula_units_Z 36
_cell_length_a 7.224759
_cell_length_b 15.984697
_cell_length_c 13.490226
_cell_angle_alpha 90.000000
_cell_angle_beta 90.000000
_cell_angle_gamma 90.000000
_cell_volume 1557.926621
_symmetry_space_group_name_H-M "P N N A"
_symmetry_group_IT_number 52
_symmetry_cell_setting 'orthorhombic'
loop_
_space_group_symop_operation_xyz
x,y,z
1/2-x,-y,z
x,1/2-y,1/2-z
1/2-x,1/2+y,1/2-z
-x,-y,-z
1/2+x,y,-z
-x,1/2+y,1/2+z
1/2+x,1/2-y,1/2+z
loop_
_atom_site_type_symbol
_atom_site_label
_atom_site_fract_x
_atom_site_fract_y
_atom_site_fract_z
Si Si1 0.908398 0.448220 0.831728
Si Si2 0.251865 0.362023 0.366588
Si Si3 0.326544 0.138735 0.921339
Si Si4 0.250000 0.500000 0.728037
Si Si5 0.060803 0.227986 0.639635
O O1 0.750000 0.500000 0.888158
O O2 0.807710 0.411147 0.732569
O O3 0.070006 0.509211 0.794766
O O4 0.014928 0.368647 0.877990
O O5 0.325819 0.401943 0.469553
O O6 0.365556 0.275937 0.363563
O O7 0.033353 0.350957 0.380806
O O8 0.223783 0.078924 0.843651
O O9 0.209818 0.224714 0.928351
O O10 0.134155 0.250000 0.750000
#
# Coordination Sequence:
#
# PCOD9411691 Si02
#       5
#     8   8   8   4   8
#     4  11  23  39  59  89 124 161 200 246 301 359
#     4  11  22  37  61  88 121 161 191 243 303 368
#     4  12  22  36  61  89 122 158 193 245 305 365
#     4  12  22  34  58  90 128 152 194 238 306 372
#     4  10  22  40  56  89 122 151 207 241 291 366
#
# _framework density 23.107635999999999
#
# number of rings (size 3 to 8) (size 9 to 14) (size 15 to 20)
#    0.000    0.889    8.889    0.000    1.556    6.222 
#    0.000    0.000    0.000    1.333    0.000    0.000 
#    0.000    0.000    0.000    0.000    0.000    0.000 
#
# Total GULP energy -201084.280809 kJ/mol
# GULP energy per Si atom -5585.674467 kJ/mol
# Density = 2.305504 g / cm^3
# Si number density = 23.107636 Si / 1000 Ang^3
#
#
#
# Elastic Constant Matrix: (Units=GPa)
#
#
# Indices 1 2 3 4 5 6 
#
# 1 129.4843 12.6420 0.9199 0.0000 0.0000 0.0000
# 2 12.6420 87.4401 -2.4803 0.0000 0.0000 0.0000
# 3 0.9199 -2.4803 15.9743 0.0000 0.0000 0.0000
# 4 0.0000 0.0000 0.0000 15.7700 0.0000 0.0000
# 5 0.0000 0.0000 0.0000 0.0000 16.8591 0.0000
# 6 0.0000 0.0000 0.0000 0.0000 0.0000 38.8634
#
#
#
# Elastic Compliance Matrix: (Units=1/GPa)
#
#
# Indices 1 2 3 4 5 6 
#
# 1 0.007840 -0.001151 -0.000630 0.000000 0.000000 0.000000
# 2 -0.001151 0.011656 0.001876 0.000000 0.000000 0.000000
# 3 -0.000630 0.001876 0.062928 0.000000 0.000000 0.000000
# 4 0.000000 0.000000 0.000000 0.063411 0.000000 0.000000
# 5 0.000000 0.000000 0.000000 0.000000 0.059315 0.000000
# 6 0.000000 0.000000 0.000000 0.000000 0.000000 0.025731
#
#
# Mechanical properties :
#
#
# Convention : Reuss Voigt Hill
#
# Bulk Modulus (GPa) = 12.10462 28.34022 20.22242
# Shear Modulus (GPa) = 19.36256 29.08630 24.22443
#
# Velocity S-wave (km/s) = 2.89784 3.55171 3.24131
# Velocity P-wave (km/s) = 4.05541 5.39542 4.77268
#
# Compressibility (1/GPa) = 0.08261307
#
# Stress axis : x y z
#
# Youngs Moduli (GPa) = 127.55373 85.79216 15.89116
#
# Poissons Ratio (x) = 0.09878 0.01002
# Poissons Ratio (y) = 0.14686 -0.02981
# Poissons Ratio (z) = 0.08039 -0.16096
#
# Static dielectric constant tensor:
#      x y z
#    x 1.853690 0.000000 0.000000 
#    y 0.000000 1.943070 0.000000 
#    z 0.000000 0.000000 1.931860 
# 
# From -- ./inp_files/24341.got.cif
#   From: 2010.05.17/outbox.cif.g08.bks.cpg/sg52_13_cif.got.tgz:24341.got - 2010.06.03 12:15:38.
