data_PCOD9411432
_publ_section_title
;
Structure prediction by ZEFSAII (Michael W. Deem and Ramdas Pophale) SiO2 
 PCOD9411432
Probable space group: P N N A
;
_chemical_formula_sum "Si O2"
_cell_formula_units_Z 32
_cell_length_a 11.373605
_cell_length_b 22.148659
_cell_length_c 4.797533
_cell_angle_alpha 90.000000
_cell_angle_beta 90.000000
_cell_angle_gamma 90.000000
_cell_volume 1208.547012
_symmetry_space_group_name_H-M "P N N A"
_symmetry_group_IT_number 52
_symmetry_cell_setting 'orthorhombic'
loop_
_space_group_symop_operation_xyz
x,y,z
1/2-x,-y,z
x,1/2-y,1/2-z
1/2-x,1/2+y,1/2-z
-x,-y,-z
1/2+x,y,-z
-x,1/2+y,1/2+z
1/2+x,1/2-y,1/2+z
loop_
_atom_site_type_symbol
_atom_site_label
_atom_site_fract_x
_atom_site_fract_y
_atom_site_fract_z
Si Si1 0.976396 0.870098 0.653815
Si Si2 0.366979 0.104710 0.140007
Si Si3 0.860303 0.514744 0.973223
Si Si4 0.694727 0.209059 0.976437
O O1 0.065549 0.861976 0.397923
O O2 0.871175 0.912768 0.548124
O O3 0.922332 0.813080 0.813644
O O4 0.038526 0.906807 0.899994
O O5 0.271771 0.148548 0.996525
O O6 0.330043 0.040093 0.258325
O O7 0.750000 0.500000 0.178642
O O8 0.000000 0.500000 0.000000
O O9 0.760568 0.250000 0.750000
O O10 0.676522 0.250000 0.250000
#
# Coordination Sequence:
#
# PCOD9411432 Si02
#       4
#     8   8   8   8
#     4  11  24  45  71 106 146 196 245 316 389 467
#     4  11  24  45  71 106 146 196 245 316 389 467
#     4  10  21  44  75 116 154 194 246 308 396 470
#     4  12  26  45  70 103 142 198 260 322 375 452
#
# _framework density 26.478076999999999
#
# number of rings (size 3 to 8) (size 9 to 14) (size 15 to 20)
#    0.000    1.000    2.500    3.750    0.000    4.000 
#    4.500    2.500    0.000    0.000    0.000    0.000 
#    0.000    0.000    0.000    0.000    0.000    0.000 
#
# Total GULP energy -178393.488669 kJ/mol
# GULP energy per Si atom -5574.796521 kJ/mol
# Density = 2.641781 g / cm^3
# Si number density = 26.478077 Si / 1000 Ang^3
#
#
#
# Elastic Constant Matrix: (Units=GPa)
#
#
# Indices 1 2 3 4 5 6 
#
# 1 90.7539 59.8906 40.0107 0.0000 0.0000 0.0000
# 2 59.8906 167.1988 54.5920 0.0000 0.0000 0.0000
# 3 40.0107 54.5920 164.0381 0.0000 0.0000 0.0000
# 4 0.0000 0.0000 0.0000 45.9166 0.0000 0.0000
# 5 0.0000 0.0000 0.0000 0.0000 17.8274 0.0000
# 6 0.0000 0.0000 0.0000 0.0000 0.0000 39.3890
#
#
#
# Elastic Compliance Matrix: (Units=1/GPa)
#
#
# Indices 1 2 3 4 5 6 
#
# 1 0.015051 -0.004704 -0.002106 0.000000 0.000000 0.000000
# 2 -0.004704 0.008180 -0.001575 0.000000 0.000000 0.000000
# 3 -0.002106 -0.001575 0.007134 0.000000 0.000000 0.000000
# 4 0.000000 0.000000 0.000000 0.021779 0.000000 0.000000
# 5 0.000000 0.000000 0.000000 0.000000 0.056093 0.000000
# 6 0.000000 0.000000 0.000000 0.000000 0.000000 0.025388
#
#
# Mechanical properties :
#
#
# Convention : Reuss Voigt Hill
#
# Bulk Modulus (GPa) = 73.55032 81.21973 77.38503
# Shear Modulus (GPa) = 32.27338 38.45976 35.36657
#
# Velocity S-wave (km/s) = 3.49502 3.81532 3.65868
# Velocity P-wave (km/s) = 6.64267 7.08165 6.86567
#
# Compressibility (1/GPa) = 0.01359613
#
# Stress axis : x y z
#
# Youngs Moduli (GPa) = 66.43925 122.24817 140.17529
#
# Poissons Ratio (x) = 0.57504 0.29517
# Poissons Ratio (y) = 0.31252 0.22078
# Poissons Ratio (z) = 0.13990 0.19254
#
# Static dielectric constant tensor:
#      x y z
#    x 2.584270 0.000000 0.000000 
#    y 0.000000 2.200880 0.000000 
#    z 0.000000 0.000000 1.115550 
# 
# From -- ./inp_files/1064.got.cif
#   From: 2010.05.17/outbox.cif.g08.bks.cpg/sg52_1_cif.got.tgz:1064.got - 2010.06.03 12:15:38.
