data_PCOD9411843
_publ_section_title
;
Structure prediction by ZEFSAII (Michael W. Deem and Ramdas Pophale) SiO2 
 PCOD9411843
Probable space group: P N N A
;
_chemical_formula_sum "Si O2"
_cell_formula_units_Z 36
_cell_length_a 21.556420
_cell_length_b 11.752792
_cell_length_c 6.938633
_cell_angle_alpha 90.000000
_cell_angle_beta 90.000000
_cell_angle_gamma 90.000000
_cell_volume 1757.889630
_symmetry_space_group_name_H-M "P N N A"
_symmetry_group_IT_number 52
_symmetry_cell_setting 'orthorhombic'
loop_
_space_group_symop_operation_xyz
x,y,z
1/2-x,-y,z
x,1/2-y,1/2-z
1/2-x,1/2+y,1/2-z
-x,-y,-z
1/2+x,y,-z
-x,1/2+y,1/2+z
1/2+x,1/2-y,1/2+z
loop_
_atom_site_type_symbol
_atom_site_label
_atom_site_fract_x
_atom_site_fract_y
_atom_site_fract_z
Si Si1 0.331813 0.125111 0.296991
Si Si2 0.865250 0.925791 0.985739
Si Si3 0.287449 0.750000 0.250000
Si Si4 0.521806 0.377834 0.772337
Si Si5 0.595997 0.022532 0.394171
O O1 0.360370 0.250000 0.250000
O O2 0.260204 0.157132 0.338277
O O3 0.365018 0.063891 0.473722
O O4 0.338266 0.040226 0.115093
O O5 0.828246 0.818346 0.901750
O O6 0.935435 0.914712 0.905855
O O7 0.865547 0.931335 0.214980
O O8 0.499723 0.250000 0.750000
O O9 0.463734 0.458200 0.808003
O O10 0.567655 0.386353 0.957187
#
# Coordination Sequence:
#
# PCOD9411843 Si02
#       5
#     8   8   4   8   8
#     4   9  23  42  65  92 134 169 215 275 323 382
#     4  11  21  43  66  94 132 173 223 266 333 394
#     4  10  22  44  68  92 140 172 206 288 324 380
#     4  10  22  41  64  97 137 167 213 284 330 381
#     4  10  23  42  67 100 127 176 224 264 332 404
#
# _framework density 20.479102000000001
#
# number of rings (size 3 to 8) (size 9 to 14) (size 15 to 20)
#    0.667    1.333    1.111    1.333    3.111    0.889 
#    0.000   13.333    0.000    0.000    0.000    0.000 
#    0.000    0.000    0.000    0.000    0.000    0.000 
#
# Total GULP energy -200987.795648 kJ/mol
# GULP energy per Si atom -5582.994324 kJ/mol
# Density = 2.043249 g / cm^3
# Si number density = 20.479102 Si / 1000 Ang^3
#
#
#
# Elastic Constant Matrix: (Units=GPa)
#
#
# Indices 1 2 3 4 5 6 
#
# 1 66.0482 -7.3114 10.0054 0.0000 0.0000 0.0000
# 2 -7.3114 43.6025 2.2363 0.0000 0.0000 0.0000
# 3 10.0054 2.2363 96.8605 0.0000 0.0000 0.0000
# 4 0.0000 0.0000 0.0000 14.4606 0.0000 0.0000
# 5 0.0000 0.0000 0.0000 0.0000 -1.2285 0.0000
# 6 0.0000 0.0000 0.0000 0.0000 0.0000 26.4400
#
#
#
# Elastic Compliance Matrix: (Units=1/GPa)
#
#
# Indices 1 2 3 4 5 6 
#
# 1 0.015697 0.002718 -0.001684 0.000000 0.000000 0.000000
# 2 0.002718 0.023432 -0.000822 0.000000 0.000000 0.000000
# 3 -0.001684 -0.000822 0.010517 0.000000 0.000000 0.000000
# 4 0.000000 0.000000 0.000000 0.069153 0.000000 0.000000
# 5 0.000000 0.000000 0.000000 0.000000 -0.814003 0.000000
# 6 0.000000 0.000000 0.000000 0.000000 0.000000 0.037821
#
#
# Mechanical properties :
#
#
# Convention : Reuss Voigt Hill
#
# Bulk Modulus (GPa) = 19.97166 24.04130 22.00648
# Shear Modulus (GPa) = -7.79888 21.37317 6.78714
#
# Velocity S-wave (km/s) = -1.95358 3.23407 1.82246
# Velocity P-wave (km/s) = 2.16443 5.07056 3.89842
#
# Compressibility (1/GPa) = 0.05007094
#
# Stress axis : x y z
#
# Youngs Moduli (GPa) = 63.70845 42.67584 95.08351
#
# Poissons Ratio (x) = -0.11601 0.16014
# Poissons Ratio (y) = -0.17319 0.07814
# Poissons Ratio (z) = 0.10730 0.03507
#
# Static dielectric constant tensor:
#      x y z
#    x 1.742150 0.000000 0.000000 
#    y 0.000000 1.730070 0.000000 
#    z 0.000000 0.000000 1.707810 
# 
# From -- ./inp_files/4901.got.cif
#   From: 2010.05.17/outbox.cif.g08.bks.cpg/sg52_3_cif.got.tgz:4901.got - 2010.06.03 12:15:38.
