data_PCOD9411569
_publ_section_title
;
Structure prediction by ZEFSAII (Michael W. Deem and Ramdas Pophale) SiO2 
 PCOD9411569
Probable space group: P N N A
;
_chemical_formula_sum "Si O2"
_cell_formula_units_Z 60
_cell_length_a 26.819816
_cell_length_b 8.915408
_cell_length_c 12.482734
_cell_angle_alpha 90.000000
_cell_angle_beta 90.000000
_cell_angle_gamma 90.000000
_cell_volume 2984.741560
_symmetry_space_group_name_H-M "P N N A"
_symmetry_group_IT_number 52
_symmetry_cell_setting 'orthorhombic'
loop_
_space_group_symop_operation_xyz
x,y,z
1/2-x,-y,z
x,1/2-y,1/2-z
1/2-x,1/2+y,1/2-z
-x,-y,-z
1/2+x,y,-z
-x,1/2+y,1/2+z
1/2+x,1/2-y,1/2+z
loop_
_atom_site_type_symbol
_atom_site_label
_atom_site_fract_x
_atom_site_fract_y
_atom_site_fract_z
Si Si1 0.385618 0.038083 0.480259
Si Si2 0.202545 0.109614 0.412290
Si Si3 0.004837 0.829575 0.041391
Si Si4 0.304890 0.566731 0.336196
Si Si5 0.961925 0.858092 0.659850
Si Si6 0.560496 0.250000 0.250000
Si Si7 0.882748 0.184387 0.869809
Si Si8 0.569627 0.579336 0.209168
O O1 0.357301 0.184304 0.437712
O O2 0.415143 0.075157 0.586006
O O3 0.341468 0.921732 0.495474
O O4 0.423854 0.974692 0.391453
O O5 0.206725 0.287475 0.406541
O O6 0.182802 0.084481 0.290199
O O7 0.250000 0.000000 0.428124
O O8 0.062069 0.822840 0.080667
O O9 0.972333 0.768161 0.141420
O O10 0.986159 0.732434 0.939496
O O11 0.000000 0.000000 0.000000
O O12 0.250000 0.500000 0.330825
O O13 0.349856 0.464102 0.378096
O O14 0.938049 0.750000 0.750000
O O15 0.009425 0.930721 0.719339
O O16 0.587821 0.414536 0.249973
O O17 0.884935 0.250000 0.750000
O O18 0.582690 0.750000 0.250000
#
# Coordination Sequence:
#
# PCOD9411569 Si02
#       8
#     8   8   8   8   8   4   8   8
#     4  12  23  39  64  90 128 174 217 272 328 398
#     4  10  22  39  62  92 127 169 209 264 332 396
#     4  12  25  39  62  92 132 181 226 280 327 394
#     4  10  22  38  60  90 133 168 209 263 325 409
#     4  11  24  40  60  91 135 176 222 269 334 393
#     4  12  24  42  64  88 130 176 236 274 324 386
#     4  12  24  36  58  93 128 171 220 262 325 395
#     4  11  24  44  62  91 128 178 219 278 328 384
#
# _framework density 20.102243000000001
#
# number of rings (size 3 to 8) (size 9 to 14) (size 15 to 20)
#    0.000    0.800    4.667    3.600    7.467    0.000 
#    0.000    0.000    0.000    0.000    1.733    0.000 
#    0.000    0.000    0.000    0.000    0.000    0.000 
#
# Total GULP energy -334297.168675 kJ/mol
# GULP energy per Si atom -5571.619478 kJ/mol
# Density = 2.005649 g / cm^3
# Si number density = 20.102243 Si / 1000 Ang^3
#
#
#
# Elastic Constant Matrix: (Units=GPa)
#
#
# Indices 1 2 3 4 5 6 
#
# 1 52.7590 20.1486 15.4530 0.0000 0.0000 0.0000
# 2 20.1486 120.7639 29.6646 0.0000 0.0000 0.0000
# 3 15.4530 29.6646 77.4700 0.0000 0.0000 0.0000
# 4 0.0000 0.0000 0.0000 30.7712 0.0000 0.0000
# 5 0.0000 0.0000 0.0000 0.0000 4.1704 0.0000
# 6 0.0000 0.0000 0.0000 0.0000 0.0000 31.2423
#
#
#
# Elastic Compliance Matrix: (Units=1/GPa)
#
#
# Indices 1 2 3 4 5 6 
#
# 1 0.020909 -0.002720 -0.003129 0.000000 0.000000 0.000000
# 2 -0.002720 0.009494 -0.003093 0.000000 0.000000 0.000000
# 3 -0.003129 -0.003093 0.014717 0.000000 0.000000 0.000000
# 4 0.000000 0.000000 0.000000 0.032498 0.000000 0.000000
# 5 0.000000 0.000000 0.000000 0.000000 0.239783 0.000000
# 6 0.000000 0.000000 0.000000 0.000000 0.000000 0.032008
#
#
# Mechanical properties :
#
#
# Convention : Reuss Voigt Hill
#
# Bulk Modulus (GPa) = 36.71608 42.39171 39.55389
# Shear Modulus (GPa) = 13.28471 25.61855 19.45163
#
# Velocity S-wave (km/s) = 2.57350 3.57376 3.11406
# Velocity P-wave (km/s) = 5.20911 6.17761 5.71392
#
# Compressibility (1/GPa) = 0.02723602
#
# Stress axis : x y z
#
# Youngs Moduli (GPa) = 47.82536 105.32776 67.94961
#
# Poissons Ratio (x) = 0.28648 0.21264
# Poissons Ratio (y) = 0.13008 0.21016
# Poissons Ratio (z) = 0.14966 0.32577
#
# Static dielectric constant tensor:
#      x y z
#    x 1.701970 0.000000 0.000000 
#    y 0.000000 1.863470 0.000000 
#    z 0.000000 0.000000 1.724860 
# 
# From -- ./inp_files/22891.got.cif
#   From: 2010.05.17/outbox.cif.g08.bks.cpg/sg52_12_cif.got.tgz:22891.got - 2010.06.03 12:15:38.
