data_PCOD9411399
_publ_section_title
;
Structure prediction by ZEFSAII (Michael W. Deem and Ramdas Pophale) SiO2 
 PCOD9411399
Probable space group: P N N A
;
_chemical_formula_sum "Si O2"
_cell_formula_units_Z 60
_cell_length_a 5.555594
_cell_length_b 16.345023
_cell_length_c 26.813760
_cell_angle_alpha 90.000000
_cell_angle_beta 90.000000
_cell_angle_gamma 90.000000
_cell_volume 2434.858649
_symmetry_space_group_name_H-M "P N N A"
_symmetry_group_IT_number 52
_symmetry_cell_setting 'orthorhombic'
loop_
_space_group_symop_operation_xyz
x,y,z
1/2-x,-y,z
x,1/2-y,1/2-z
1/2-x,1/2+y,1/2-z
-x,-y,-z
1/2+x,y,-z
-x,1/2+y,1/2+z
1/2+x,1/2-y,1/2+z
loop_
_atom_site_type_symbol
_atom_site_label
_atom_site_fract_x
_atom_site_fract_y
_atom_site_fract_z
Si Si1 0.515489 0.843466 0.618724
Si Si2 0.055327 0.935875 0.798886
Si Si3 0.780452 0.758750 0.196236
Si Si4 0.503261 0.458974 0.587406
Si Si5 0.250000 0.000000 0.641149
Si Si6 0.396649 0.610788 0.201179
Si Si7 0.368273 0.314059 0.525759
Si Si8 0.845071 0.365970 0.990214
O O1 0.398555 0.763807 0.643230
O O2 0.680202 0.870153 0.665022
O O3 0.648006 0.833420 0.566695
O O4 0.339203 0.920960 0.611121
O O5 0.189322 0.850107 0.806447
O O6 0.982568 0.966118 0.853030
O O7 0.852001 0.915211 0.758095
O O8 0.250000 0.000000 0.778145
O O9 0.919297 0.750000 0.250000
O O10 0.569407 0.690686 0.201537
O O11 0.750000 0.500000 0.566795
O O12 0.465188 0.364139 0.572857
O O13 0.250000 0.500000 0.570923
O O14 0.458274 0.037416 0.675295
O O15 0.590285 0.335782 0.487644
O O16 0.355455 0.215242 0.525427
O O17 0.094412 0.410046 0.001602
#
# Coordination Sequence:
#
# PCOD9411399 Si02
#       8
#     8   8   8   8   4   8   8   8
#     4  11  24  42  76 101 141 184 245 297 370 445
#     4  10  22  44  68 101 152 190 239 292 363 428
#     4   9  22  41  65 103 143 182 239 298 351 431
#     4  11  25  43  65 101 139 188 241 297 356 427
#     4  10  22  42  70 102 140 172 236 292 368 440
#     4  10  21  43  71 103 136 195 230 291 357 445
#     4  10  22  41  67  92 130 181 241 296 358 422
#     4  10  25  45  70 104 135 183 241 299 371 432
#
# _framework density 24.642087
#
# number of rings (size 3 to 8) (size 9 to 14) (size 15 to 20)
#    0.000    1.867    0.667    1.200    7.467    5.333 
#   12.000    0.667    0.000    0.000    0.000    0.000 
#    0.000    0.000    0.000    0.000    0.000    0.000 
#
# Total GULP energy -335040.020075 kJ/mol
# GULP energy per Si atom -5584.000335 kJ/mol
# Density = 2.458600 g / cm^3
# Si number density = 24.642087 Si / 1000 Ang^3
#
#
#
# Elastic Constant Matrix: (Units=GPa)
#
#
# Indices 1 2 3 4 5 6 
#
# 1 111.3426 30.0840 24.1305 0.0000 0.0000 0.0000
# 2 30.0840 110.3346 10.7362 0.0000 0.0000 0.0000
# 3 24.1305 10.7362 64.0337 0.0000 0.0000 0.0000
# 4 0.0000 0.0000 0.0000 19.4258 0.0000 0.0000
# 5 0.0000 0.0000 0.0000 0.0000 31.1155 0.0000
# 6 0.0000 0.0000 0.0000 0.0000 0.0000 24.4252
#
#
#
# Elastic Compliance Matrix: (Units=1/GPa)
#
#
# Indices 1 2 3 4 5 6 
#
# 1 0.010416 -0.002499 -0.003506 0.000000 0.000000 0.000000
# 2 -0.002499 0.009813 -0.000704 0.000000 0.000000 0.000000
# 3 -0.003506 -0.000704 0.017056 0.000000 0.000000 0.000000
# 4 0.000000 0.000000 0.000000 0.051478 0.000000 0.000000
# 5 0.000000 0.000000 0.000000 0.000000 0.032138 0.000000
# 6 0.000000 0.000000 0.000000 0.000000 0.000000 0.040941
#
#
# Mechanical properties :
#
#
# Convention : Reuss Voigt Hill
#
# Bulk Modulus (GPa) = 41.89742 46.17916 44.03829
# Shear Modulus (GPa) = 27.29006 29.71065 28.50036
#
# Velocity S-wave (km/s) = 3.33146 3.47607 3.40453
# Velocity P-wave (km/s) = 5.64247 5.90689 5.77619
#
# Compressibility (1/GPa) = 0.02386782
#
# Stress axis : x y z
#
# Youngs Moduli (GPa) = 96.00256 101.90378 58.63017
#
# Poissons Ratio (x) = 0.25465 0.20558
# Poissons Ratio (y) = 0.23991 0.04125
# Poissons Ratio (z) = 0.33662 0.07170
#
# Static dielectric constant tensor:
#      x y z
#    x 2.028410 0.000000 0.000000 
#    y 0.000000 1.933890 0.000000 
#    z 0.000000 0.000000 1.971230 
# 
# From -- ./inp_files/41818.got.cif
#   From: 2010.05.17/outbox.cif.g08.bks.cpg/sg52_21_cif.got.tgz:41818.got - 2010.06.03 12:15:38.
