data_PCOD9411856
_publ_section_title
;
Structure prediction by ZEFSAII (Michael W. Deem and Ramdas Pophale) SiO2 
 PCOD9411856
Probable space group: P N N A
;
_chemical_formula_sum "Si O2"
_cell_formula_units_Z 60
_cell_length_a 8.830914
_cell_length_b 22.188065
_cell_length_c 14.014615
_cell_angle_alpha 90.000000
_cell_angle_beta 90.000000
_cell_angle_gamma 90.000000
_cell_volume 2746.036190
_symmetry_space_group_name_H-M "P N N A"
_symmetry_group_IT_number 52
_symmetry_cell_setting 'orthorhombic'
loop_
_space_group_symop_operation_xyz
x,y,z
1/2-x,-y,z
x,1/2-y,1/2-z
1/2-x,1/2+y,1/2-z
-x,-y,-z
1/2+x,y,-z
-x,1/2+y,1/2+z
1/2+x,1/2-y,1/2+z
loop_
_atom_site_type_symbol
_atom_site_label
_atom_site_fract_x
_atom_site_fract_y
_atom_site_fract_z
Si Si1 0.528812 0.270124 0.644906
Si Si2 0.890532 0.242597 0.858946
Si Si3 0.750000 0.500000 0.844625
Si Si4 0.660086 0.436204 0.408263
Si Si5 0.588610 0.035992 0.299307
Si Si6 0.381235 0.907264 0.492472
Si Si7 0.930560 0.365941 0.491473
Si Si8 0.377389 0.326847 0.984033
O O1 0.484853 0.250000 0.750000
O O2 0.707639 0.258731 0.638488
O O3 0.505747 0.336567 0.602663
O O4 0.421736 0.228079 0.581443
O O5 0.942087 0.250000 0.750000
O O6 0.937246 0.184267 0.922919
O O7 0.929431 0.304595 0.912372
O O8 0.586535 0.509768 0.791357
O O9 0.713425 0.445033 0.916582
O O10 0.750000 0.500000 0.413601
O O11 0.613702 0.425839 0.297580
O O12 0.766030 0.384676 0.454181
O O13 0.509691 0.426413 0.470371
O O14 0.589625 0.062247 0.406405
O O15 0.750000 0.000000 0.299613
O O16 0.295157 0.844702 0.508910
O O17 0.541270 0.887578 0.448879
#
# Coordination Sequence:
#
# PCOD9411856 Si02
#       8
#     8   8   4   8   8   8   8   8
#     4  10  22  42  65 101 133 178 231 286 361 429
#     4  10  22  41  65  98 132 175 235 288 358 435
#     4  12  24  46  70 100 148 190 232 296 366 422
#     4  11  26  48  71 102 139 185 247 293 358 434
#     4  11  25  45  67 104 139 185 241 289 351 432
#     4  12  22  40  65  96 139 181 227 289 359 421
#     4  11  23  47  71  99 140 185 224 307 362 412
#     4  11  23  38  63  97 133 177 224 286 351 431
#
# _framework density 21.849675999999999
#
# number of rings (size 3 to 8) (size 9 to 14) (size 15 to 20)
#    0.000    1.067    4.667    1.600    3.733    0.000 
#    6.000    1.333    0.000    0.000    0.000    0.000 
#    0.000    0.000    0.000    0.000    0.000    0.000 
#
# Total GULP energy -334003.644220 kJ/mol
# GULP energy per Si atom -5566.727404 kJ/mol
# Density = 2.179994 g / cm^3
# Si number density = 21.849676 Si / 1000 Ang^3
#
#
#
# Elastic Constant Matrix: (Units=GPa)
#
#
# Indices 1 2 3 4 5 6 
#
# 1 84.6741 15.4884 29.8508 0.0000 0.0000 0.0000
# 2 15.4884 37.5084 16.7761 0.0000 0.0000 0.0000
# 3 29.8508 16.7761 86.7565 0.0000 0.0000 0.0000
# 4 0.0000 0.0000 0.0000 15.7536 0.0000 0.0000
# 5 0.0000 0.0000 0.0000 0.0000 24.4631 0.0000
# 6 0.0000 0.0000 0.0000 0.0000 0.0000 25.5812
#
#
#
# Elastic Compliance Matrix: (Units=1/GPa)
#
#
# Indices 1 2 3 4 5 6 
#
# 1 0.013957 -0.003958 -0.004037 0.000000 0.000000 0.000000
# 2 -0.003958 0.030307 -0.004499 0.000000 0.000000 0.000000
# 3 -0.004037 -0.004499 0.013785 0.000000 0.000000 0.000000
# 4 0.000000 0.000000 0.000000 0.063478 0.000000 0.000000
# 5 0.000000 0.000000 0.000000 0.000000 0.040878 0.000000
# 6 0.000000 0.000000 0.000000 0.000000 0.000000 0.039091
#
#
# Mechanical properties :
#
#
# Convention : Reuss Voigt Hill
#
# Bulk Modulus (GPa) = 30.24547 37.01882 33.63215
# Shear Modulus (GPa) = 21.05226 22.94783 22.00004
#
# Velocity S-wave (km/s) = 3.10740 3.24429 3.17658
# Velocity P-wave (km/s) = 5.17177 5.56894 5.37403
#
# Compressibility (1/GPa) = 0.03306280
#
# Stress axis : x y z
#
# Youngs Moduli (GPa) = 71.64805 32.99557 72.54023
#
# Poissons Ratio (x) = 0.13059 0.29284
# Poissons Ratio (y) = 0.28356 0.32634
# Poissons Ratio (z) = 0.28924 0.14844
#
# Static dielectric constant tensor:
#      x y z
#    x 1.836330 0.000000 0.000000 
#    y 0.000000 1.893370 0.000000 
#    z 0.000000 0.000000 1.834580 
# 
# From -- ./inp_files/25101.got.cif
#   From: 2010.05.17/outbox.cif.g08.bks.cpg/sg52_13_cif.got.tgz:25101.got - 2010.06.03 12:15:38.
