data_PCOD9411164
_publ_section_title
;
Structure prediction by ZEFSAII (Michael W. Deem and Ramdas Pophale) SiO2 
 PCOD9411164
Probable space group: P N N A
;
_chemical_formula_sum "Si O2"
_cell_formula_units_Z 24
_cell_length_a 15.148733
_cell_length_b 4.947398
_cell_length_c 12.964512
_cell_angle_alpha 90.000000
_cell_angle_beta 90.000000
_cell_angle_gamma 90.000000
_cell_volume 971.648835
_symmetry_space_group_name_H-M "P N N A"
_symmetry_group_IT_number 52
_symmetry_cell_setting 'orthorhombic'
loop_
_space_group_symop_operation_xyz
x,y,z
1/2-x,-y,z
x,1/2-y,1/2-z
1/2-x,1/2+y,1/2-z
-x,-y,-z
1/2+x,y,-z
-x,1/2+y,1/2+z
1/2+x,1/2-y,1/2+z
loop_
_atom_site_type_symbol
_atom_site_label
_atom_site_fract_x
_atom_site_fract_y
_atom_site_fract_z
Si Si1 0.984357 0.017635 0.681971
Si Si2 0.660437 0.825910 0.370922
Si Si3 0.308815 0.267860 0.413540
O O1 0.029185 0.250000 0.750000
O O2 0.898706 0.167275 0.638065
O O3 0.961488 0.750000 0.750000
O O4 0.063757 0.947954 0.605284
O O5 0.653499 0.750000 0.250000
O O6 0.669780 0.630209 0.469698
O O7 0.750000 0.000000 0.372359
O O8 0.250000 0.500000 0.360637
O O9 0.250000 0.000000 0.418581
#
# Coordination Sequence:
#
# PCOD9411164 Si02
#       3
#     8   8   8
#     4  11  24  42  66  96 132 176 223 276 333 394
#     4  10  21  40  66  98 133 174 222 278 336 398
#     4  11  24  42  66  96 132 176 222 274 332 394
#
# _framework density 24.700282999999999
#
# number of rings (size 3 to 8) (size 9 to 14) (size 15 to 20)
#    0.000    1.333    0.000    5.000    0.000   10.667 
#    0.000   16.667    0.000    0.000    0.000    0.000 
#    0.000    0.000    0.000    0.000    0.000    0.000 
#
# Total GULP energy -133752.495720 kJ/mol
# GULP energy per Si atom -5573.020655 kJ/mol
# Density = 2.464406 g / cm^3
# Si number density = 24.700283 Si / 1000 Ang^3
#
#
#
# Elastic Constant Matrix: (Units=GPa)
#
#
# Indices 1 2 3 4 5 6 
#
# 1 210.4857 49.3542 36.7911 0.0000 0.0000 0.0000
# 2 49.3542 117.1931 17.2417 0.0000 0.0000 0.0000
# 3 36.7911 17.2417 82.3071 0.0000 0.0000 0.0000
# 4 0.0000 0.0000 0.0000 -305.8392 0.0000 0.0000
# 5 0.0000 0.0000 0.0000 0.0000 14.2664 0.0000
# 6 0.0000 0.0000 0.0000 0.0000 0.0000 46.4940
#
#
#
# Elastic Compliance Matrix: (Units=1/GPa)
#
#
# Indices 1 2 3 4 5 6 
#
# 1 0.005594 -0.002051 -0.002071 0.000000 0.000000 0.000000
# 2 -0.002051 0.009556 -0.001085 0.000000 0.000000 0.000000
# 3 -0.002071 -0.001085 0.013303 0.000000 0.000000 0.000000
# 4 0.000000 0.000000 0.000000 -0.003270 0.000000 0.000000
# 5 0.000000 0.000000 0.000000 0.000000 0.070095 0.000000
# 6 0.000000 0.000000 0.000000 0.000000 0.000000 0.021508
#
#
# Mechanical properties :
#
#
# Convention : Reuss Voigt Hill
#
# Bulk Modulus (GPa) = 55.43568 68.52889 61.98228
# Shear Modulus (GPa) = 37.53402 -28.57583 4.47909
#
# Velocity S-wave (km/s) = 3.90241 -3.40502 1.34808
# Velocity P-wave (km/s) = 6.54195 3.51362 5.25084
#
# Compressibility (1/GPa) = 0.01803892
#
# Stress axis : x y z
#
# Youngs Moduli (GPa) = 178.76925 104.64246 75.17368
#
# Poissons Ratio (x) = 0.21463 0.15567
# Poissons Ratio (y) = 0.36667 0.08157
# Poissons Ratio (z) = 0.37019 0.11354
#
# Static dielectric constant tensor:
#      x y z
#    x 2.005770 0.000000 0.000000 
#    y 0.000000 1.985940 0.000000 
#    z 0.000000 0.000000 2.083860 
# 
# From -- ./inp_files/26461.got.cif
#   From: 2010.05.17/outbox.cif.g08.bks.cpg/sg52_14_cif.got.tgz:26461.got - 2010.06.03 12:15:38.
