data_PCOD9411711
_publ_section_title
;
Structure prediction by ZEFSAII (Michael W. Deem and Ramdas Pophale) SiO2 
 PCOD9411711
Probable space group: P N N A
;
_chemical_formula_sum "Si O2"
_cell_formula_units_Z 60
_cell_length_a 28.455248
_cell_length_b 8.657848
_cell_length_c 11.676688
_cell_angle_alpha 90.000000
_cell_angle_beta 90.000000
_cell_angle_gamma 90.000000
_cell_volume 2876.683008
_symmetry_space_group_name_H-M "P N N A"
_symmetry_group_IT_number 52
_symmetry_cell_setting 'orthorhombic'
loop_
_space_group_symop_operation_xyz
x,y,z
1/2-x,-y,z
x,1/2-y,1/2-z
1/2-x,1/2+y,1/2-z
-x,-y,-z
1/2+x,y,-z
-x,1/2+y,1/2+z
1/2+x,1/2-y,1/2+z
loop_
_atom_site_type_symbol
_atom_site_label
_atom_site_fract_x
_atom_site_fract_y
_atom_site_fract_z
Si Si1 0.111544 0.342493 0.037441
Si Si2 0.425229 0.919909 0.705016
Si Si3 0.488678 0.865010 0.356950
Si Si4 0.295899 0.104788 0.087069
Si Si5 0.420864 0.250000 0.250000
Si Si6 0.832369 0.077209 0.659480
Si Si7 0.121539 0.999022 0.937408
Si Si8 0.967983 0.354694 0.533540
O O1 0.157725 0.419127 0.092760
O O2 0.066463 0.382371 0.116318
O O3 0.102094 0.416716 0.914103
O O4 0.113982 0.159547 0.008665
O O5 0.437837 0.750000 0.750000
O O6 0.389950 0.978103 0.804146
O O7 0.473704 0.007541 0.680673
O O8 0.491149 0.750000 0.250000
O O9 0.507767 0.792316 0.476369
O O10 0.317151 0.049413 0.209623
O O11 0.297710 0.292604 0.105039
O O12 0.250000 0.000000 0.072062
O O13 0.329493 0.066656 0.980604
O O14 0.383834 0.157803 0.329235
O O15 0.454342 0.344937 0.334178
O O16 0.081504 0.880256 0.973611
O O17 0.000000 0.500000 0.500000
#
# Coordination Sequence:
#
# PCOD9411711 Si02
#       8
#     8   8   8   8   4   8   8   8
#     4  11  25  39  59  94 134 179 226 268 334 393
#     4  10  24  44  58  88 131 184 227 277 325 386
#     4  12  25  37  60  92 131 183 237 275 317 391
#     4  10  23  45  71 100 124 160 211 275 347 413
#     4  10  22  40  62  84 136 176 220 280 324 392
#     4  10  22  41  68  96 132 168 207 272 350 407
#     4  11  22  43  64  90 132 174 218 287 332 394
#     4  12  23  40  61  93 135 180 237 277 332 393
#
# _framework density 20.857354000000001
#
# number of rings (size 3 to 8) (size 9 to 14) (size 15 to 20)
#    0.000    1.333    5.333    1.200    3.733    3.200 
#    3.600    0.000    0.000    5.600    0.000    0.000 
#    0.000    0.000    0.000    0.000    0.000    0.000 
#
# Total GULP energy -334938.288099 kJ/mol
# GULP energy per Si atom -5582.304802 kJ/mol
# Density = 2.080988 g / cm^3
# Si number density = 20.857354 Si / 1000 Ang^3
#
#
#
# Elastic Constant Matrix: (Units=GPa)
#
#
# Indices 1 2 3 4 5 6 
#
# 1 69.4952 13.2948 11.3731 0.0000 0.0000 0.0000
# 2 13.2948 33.3907 6.2055 0.0000 0.0000 0.0000
# 3 11.3731 6.2055 61.4383 0.0000 0.0000 0.0000
# 4 0.0000 0.0000 0.0000 33.4892 0.0000 0.0000
# 5 0.0000 0.0000 0.0000 0.0000 17.7661 0.0000
# 6 0.0000 0.0000 0.0000 0.0000 0.0000 33.6125
#
#
#
# Elastic Compliance Matrix: (Units=1/GPa)
#
#
# Indices 1 2 3 4 5 6 
#
# 1 0.015901 -0.005895 -0.002348 0.000000 0.000000 0.000000
# 2 -0.005895 0.032707 -0.002212 0.000000 0.000000 0.000000
# 3 -0.002348 -0.002212 0.016935 0.000000 0.000000 0.000000
# 4 0.000000 0.000000 0.000000 0.029860 0.000000 0.000000
# 5 0.000000 0.000000 0.000000 0.000000 0.056287 0.000000
# 6 0.000000 0.000000 0.000000 0.000000 0.000000 0.029751
#
#
# Mechanical properties :
#
#
# Convention : Reuss Voigt Hill
#
# Bulk Modulus (GPa) = 22.40542 25.11901 23.76222
# Shear Modulus (GPa) = 23.01718 25.87029 24.44373
#
# Velocity S-wave (km/s) = 3.32558 3.52567 3.42709
# Velocity P-wave (km/s) = 5.05089 5.35193 5.20359
#
# Compressibility (1/GPa) = 0.04463206
#
# Stress axis : x y z
#
# Youngs Moduli (GPa) = 62.88715 30.57478 59.05065
#
# Poissons Ratio (x) = 0.18024 0.13866
# Poissons Ratio (y) = 0.37071 0.13064
# Poissons Ratio (z) = 0.14767 0.06764
#
# Static dielectric constant tensor:
#      x y z
#    x 1.756310 0.000000 0.000000 
#    y 0.000000 1.846870 0.000000 
#    z 0.000000 0.000000 3.850020 
# 
# From -- ./inp_files/22907.got.cif
#   From: 2010.05.17/outbox.cif.g08.bks.cpg/sg52_12_cif.got.tgz:22907.got - 2010.06.03 12:15:38.
