data_PCOD9411019
_publ_section_title
;
Structure prediction by ZEFSAII (Michael W. Deem and Ramdas Pophale) SiO2 
 PCOD9411019
Probable space group: P N N A
;
_chemical_formula_sum "Si O2"
_cell_formula_units_Z 56
_cell_length_a 15.038677
_cell_length_b 7.871122
_cell_length_c 19.549340
_cell_angle_alpha 90.000000
_cell_angle_beta 90.000000
_cell_angle_gamma 90.000000
_cell_volume 2314.080035
_symmetry_space_group_name_H-M "P N N A"
_symmetry_group_IT_number 52
_symmetry_cell_setting 'orthorhombic'
loop_
_space_group_symop_operation_xyz
x,y,z
1/2-x,-y,z
x,1/2-y,1/2-z
1/2-x,1/2+y,1/2-z
-x,-y,-z
1/2+x,y,-z
-x,1/2+y,1/2+z
1/2+x,1/2-y,1/2+z
loop_
_atom_site_type_symbol
_atom_site_label
_atom_site_fract_x
_atom_site_fract_y
_atom_site_fract_z
Si Si1 0.991052 0.437785 0.078987
Si Si2 0.677492 0.111297 0.357143
Si Si3 0.912205 0.251574 0.573839
Si Si4 0.236295 0.793176 0.325045
Si Si5 0.306415 0.155948 0.943500
Si Si6 0.066619 0.080484 0.860541
Si Si7 0.936425 0.828955 0.822064
O O1 0.063081 0.571385 0.108046
O O2 0.022834 0.260390 0.109931
O O3 0.896300 0.488383 0.110359
O O4 0.000000 0.500000 0.000000
O O5 0.736577 0.206603 0.415304
O O6 0.621633 0.267004 0.327319
O O7 0.750000 0.000000 0.316356
O O8 0.826856 0.294806 0.619236
O O9 0.874339 0.263351 0.497305
O O10 0.007625 0.347049 0.575937
O O11 0.199618 0.750000 0.250000
O O12 0.332075 0.700611 0.327928
O O13 0.250000 0.000000 0.333132
O O14 0.250000 0.000000 0.975382
O O15 0.362605 0.061296 0.883924
O O16 0.984933 0.009065 0.817761
O O17 0.964333 0.750000 0.750000
#
# Coordination Sequence:
#
# PCOD9411019 Si02
#       7
#     8   8   8   8   8   8   8
#     4  11  23  40  66  97 132 173 228 284 339 418
#     4  10  21  39  65  94 130 168 216 285 346 404
#     4  11  23  37  62  93 132 176 223 271 341 410
#     4  11  26  43  65  95 136 178 230 274 339 424
#     4  10  22  38  63  96 133 173 223 282 351 410
#     4  10  23  40  62  95 129 175 224 276 337 414
#     4  11  25  44  67  95 139 179 225 283 348 419
#
# _framework density 24.199681000000002
#
# number of rings (size 3 to 8) (size 9 to 14) (size 15 to 20)
#    0.000    1.429    1.429    3.000    8.000    1.714 
#    0.000    2.143    0.000   12.857    0.000    1.000 
#    0.000    0.000    0.000    0.000    0.000    0.000 
#
# Total GULP energy -312220.826589 kJ/mol
# GULP energy per Si atom -5575.371903 kJ/mol
# Density = 2.414460 g / cm^3
# Si number density = 24.199681 Si / 1000 Ang^3
#
#
#
# Elastic Constant Matrix: (Units=GPa)
#
#
# Indices 1 2 3 4 5 6 
#
# 1 110.1206 35.1413 13.0607 0.0000 0.0000 0.0000
# 2 35.1413 66.7290 -9.8792 0.0000 0.0000 0.0000
# 3 13.0607 -9.8792 62.9833 0.0000 0.0000 0.0000
# 4 0.0000 0.0000 0.0000 15.5847 0.0000 0.0000
# 5 0.0000 0.0000 0.0000 0.0000 12.4289 0.0000
# 6 0.0000 0.0000 0.0000 0.0000 0.0000 52.1477
#
#
#
# Elastic Compliance Matrix: (Units=1/GPa)
#
#
# Indices 1 2 3 4 5 6 
#
# 1 0.011602 -0.006620 -0.003444 0.000000 0.000000 0.000000
# 2 -0.006620 0.019119 0.004372 0.000000 0.000000 0.000000
# 3 -0.003444 0.004372 0.017277 0.000000 0.000000 0.000000
# 4 0.000000 0.000000 0.000000 0.064166 0.000000 0.000000
# 5 0.000000 0.000000 0.000000 0.000000 0.080458 0.000000
# 6 0.000000 0.000000 0.000000 0.000000 0.000000 0.019176
#
#
# Mechanical properties :
#
#
# Convention : Reuss Voigt Hill
#
# Bulk Modulus (GPa) = 27.31207 35.16427 31.23817
# Shear Modulus (GPa) = 21.24160 29.46627 25.35393
#
# Velocity S-wave (km/s) = 2.96592 3.49324 3.24033
# Velocity P-wave (km/s) = 4.79995 5.55272 5.19000
#
# Compressibility (1/GPa) = 0.03661385
#
# Stress axis : x y z
#
# Youngs Moduli (GPa) = 86.19249 52.30296 57.87983
#
# Poissons Ratio (x) = 0.34624 0.19935
# Poissons Ratio (y) = 0.57058 -0.25303
# Poissons Ratio (z) = 0.29687 -0.22865
#
# Static dielectric constant tensor:
#      x y z
#    x 1.956980 0.000000 0.000000 
#    y 0.000000 2.057840 0.000000 
#    z 0.000000 0.000000 2.026580 
# 
# From -- ./inp_files/37324.got.cif
#   From: 2010.05.17/outbox.cif.g08.bks.cpg/sg52_19_cif.got.tgz:37324.got - 2010.06.03 12:15:38.
