data_PCOD9411009
_publ_section_title
;
Structure prediction by ZEFSAII (Michael W. Deem and Ramdas Pophale) SiO2 
 PCOD9411009
Probable space group: P N N A
;
_chemical_formula_sum "Si O2"
_cell_formula_units_Z 56
_cell_length_a 12.363770
_cell_length_b 13.111855
_cell_length_c 14.590562
_cell_angle_alpha 90.000000
_cell_angle_beta 90.000000
_cell_angle_gamma 90.000000
_cell_volume 2365.304596
_symmetry_space_group_name_H-M "P N N A"
_symmetry_group_IT_number 52
_symmetry_cell_setting 'orthorhombic'
loop_
_space_group_symop_operation_xyz
x,y,z
1/2-x,-y,z
x,1/2-y,1/2-z
1/2-x,1/2+y,1/2-z
-x,-y,-z
1/2+x,y,-z
-x,1/2+y,1/2+z
1/2+x,1/2-y,1/2+z
loop_
_atom_site_type_symbol
_atom_site_label
_atom_site_fract_x
_atom_site_fract_y
_atom_site_fract_z
Si Si1 0.365079 0.053391 0.334567
Si Si2 0.239681 0.750000 0.250000
Si Si3 0.075821 0.552665 0.576033
Si Si4 0.580070 0.236408 0.908624
Si Si5 0.421832 0.460537 0.772956
Si Si6 0.596949 0.898738 0.457527
Si Si7 0.699136 0.750000 0.250000
Si Si8 0.254915 0.792916 0.942855
O O1 0.337958 0.157278 0.280073
O O2 0.408872 0.064375 0.438258
O O3 0.250000 0.000000 0.341904
O O4 0.452172 0.987859 0.278996
O O5 0.323354 0.761957 0.164910
O O6 0.109674 0.497108 0.671588
O O7 0.180972 0.608721 0.534608
O O8 0.000000 0.500000 0.500000
O O9 0.004687 0.647997 0.613382
O O10 0.512946 0.339630 0.926402
O O11 0.635411 0.205820 0.003366
O O12 0.379487 0.483275 0.877774
O O13 0.377043 0.345161 0.772431
O O14 0.687656 0.809746 0.465420
O O15 0.769598 0.783643 0.165003
#
# Coordination Sequence:
#
# PCOD9411009 Si02
#       8
#     8   4   8   8   8   8   4   8
#     4  12  25  39  65 100 133 167 218 281 340 393
#     4  12  26  43  65 102 132 168 227 270 335 400
#     4  10  22  37  60  90 125 164 223 265 320 397
#     4  11  21  39  66  86 126 174 209 267 336 385
#     4  10  21  39  65  90 127 172 209 268 326 390
#     4  10  21  41  63  93 126 165 215 266 334 396
#     4   8  18  41  65  86 122 172 231 246 321 406
#     4   9  19  37  62  86 116 173 211 265 313 395
#
# _framework density 23.675597
#
# number of rings (size 3 to 8) (size 9 to 14) (size 15 to 20)
#    0.000    1.714    1.429    3.857    2.000    2.286 
#    0.000    2.143    6.286    0.000    0.000    0.000 
#    0.000    0.000    0.000    0.000    0.000    0.000 
#
# Total GULP energy -312488.566513 kJ/mol
# GULP energy per Si atom -5580.152973 kJ/mol
# Density = 2.362171 g / cm^3
# Si number density = 23.675597 Si / 1000 Ang^3
#
#
#
# Elastic Constant Matrix: (Units=GPa)
#
#
# Indices 1 2 3 4 5 6 
#
# 1 68.8032 11.1840 35.3892 0.0000 0.0000 0.0000
# 2 11.1840 65.7874 43.4408 0.0000 0.0000 0.0000
# 3 35.3892 43.4408 129.0565 0.0000 0.0000 0.0000
# 4 0.0000 0.0000 0.0000 28.4916 0.0000 0.0000
# 5 0.0000 0.0000 0.0000 0.0000 37.0392 0.0000
# 6 0.0000 0.0000 0.0000 0.0000 0.0000 23.4993
#
#
#
# Elastic Compliance Matrix: (Units=1/GPa)
#
#
# Indices 1 2 3 4 5 6 
#
# 1 0.016924 0.000241 -0.004722 0.000000 0.000000 0.000000
# 2 0.000241 0.019548 -0.006646 0.000000 0.000000 0.000000
# 3 -0.004722 -0.006646 0.011280 0.000000 0.000000 0.000000
# 4 0.000000 0.000000 0.000000 0.035098 0.000000 0.000000
# 5 0.000000 0.000000 0.000000 0.000000 0.026998 0.000000
# 6 0.000000 0.000000 0.000000 0.000000 0.000000 0.042554
#
#
# Mechanical properties :
#
#
# Convention : Reuss Voigt Hill
#
# Bulk Modulus (GPa) = 39.21837 49.29723 44.25780
# Shear Modulus (GPa) = 27.29911 29.38158 28.34034
#
# Velocity S-wave (km/s) = 3.39934 3.52661 3.46356
# Velocity P-wave (km/s) = 5.65758 6.11963 5.89313
#
# Compressibility (1/GPa) = 0.02549826
#
# Stress axis : x y z
#
# Youngs Moduli (GPa) = 59.08866 51.15614 88.64952
#
# Poissons Ratio (x) = -0.01232 0.41858
# Poissons Ratio (y) = -0.01423 0.58916
# Poissons Ratio (z) = 0.27900 0.33998
#
# Static dielectric constant tensor:
#      x y z
#    x 1.853850 0.000000 0.000000 
#    y 0.000000 1.994150 0.000000 
#    z 0.000000 0.000000 2.021880 
# 
# From -- ./inp_files/26212.got.cif
#   From: 2010.05.17/outbox.cif.g08.bks.cpg/sg52_14_cif.got.tgz:26212.got - 2010.06.03 12:15:38.
