data_PCOD9412764
_publ_section_title
;
Structure prediction by ZEFSAII (Michael W. Deem and Ramdas Pophale) SiO2 
 PCOD9412764
Probable space group: P N N A
;
_chemical_formula_sum "Si O2"
_cell_formula_units_Z 32
_cell_length_a 12.871127
_cell_length_b 8.892815
_cell_length_c 13.154774
_cell_angle_alpha 90.000000
_cell_angle_beta 90.000000
_cell_angle_gamma 90.000000
_cell_volume 1505.702684
_symmetry_space_group_name_H-M "P N N A"
_symmetry_group_IT_number 52
_symmetry_cell_setting 'orthorhombic'
loop_
_space_group_symop_operation_xyz
x,y,z
1/2-x,-y,z
x,1/2-y,1/2-z
1/2-x,1/2+y,1/2-z
-x,-y,-z
1/2+x,y,-z
-x,1/2+y,1/2+z
1/2+x,1/2-y,1/2+z
loop_
_atom_site_type_symbol
_atom_site_label
_atom_site_fract_x
_atom_site_fract_y
_atom_site_fract_z
Si Si1 0.750000 0.000000 0.066659
Si Si2 0.058240 0.413686 0.703219
Si Si3 0.651760 0.818492 0.891330
Si Si4 0.048453 0.012421 0.386487
Si Si5 0.827261 0.750000 0.750000
O O1 0.655690 0.055604 0.134696
O O2 0.801738 0.130625 0.998300
O O3 0.067554 0.250000 0.750000
O O4 0.950164 0.414613 0.639718
O O5 0.044414 0.512262 0.803855
O O6 0.615392 0.643512 0.881445
O O7 0.746495 0.845480 0.815653
O O8 0.113431 0.152120 0.337647
O O9 0.000000 0.000000 0.500000
#
# Coordination Sequence:
#
# PCOD9412764 Si02
#       5
#     4   8   8   8   4
#     4  12  26  40  80  96 150 198 240 318 404 426
#     4  10  24  47  62 103 144 181 248 308 362 463
#     4  11  24  45  69 104 136 194 261 302 373 469
#     4  11  26  44  73 106 149 191 257 317 377 460
#     4  12  24  46  78 100 144 204 242 316 378 454
#
# _framework density 21.252535999999999
#
# number of rings (size 3 to 8) (size 9 to 14) (size 15 to 20)
#    0.000    1.000    3.750    3.000   10.500    2.000 
#    0.000    0.000    0.000    0.000    0.000    0.000 
#    0.000    0.000    0.000    0.000    0.000    0.000 
#
# Total GULP energy -178275.783483 kJ/mol
# GULP energy per Si atom -5571.118234 kJ/mol
# Density = 2.120416 g / cm^3
# Si number density = 21.252536 Si / 1000 Ang^3
#
#
#
# Elastic Constant Matrix: (Units=GPa)
#
#
# Indices 1 2 3 4 5 6 
#
# 1 158.2204 47.5026 120.7178 0.0000 0.0000 0.0000
# 2 47.5026 71.2226 47.2864 0.0000 0.0000 0.0000
# 3 120.7178 47.2864 175.8848 0.0000 0.0000 0.0000
# 4 0.0000 0.0000 0.0000 29.9417 0.0000 0.0000
# 5 0.0000 0.0000 0.0000 0.0000 45.6418 0.0000
# 6 0.0000 0.0000 0.0000 0.0000 0.0000 16.7720
#
#
#
# Elastic Compliance Matrix: (Units=1/GPa)
#
#
# Indices 1 2 3 4 5 6 
#
# 1 0.013987 -0.003597 -0.008633 0.000000 0.000000 0.000000
# 2 -0.003597 0.018016 -0.002375 0.000000 0.000000 0.000000
# 3 -0.008633 -0.002375 0.012249 0.000000 0.000000 0.000000
# 4 0.000000 0.000000 0.000000 0.033398 0.000000 0.000000
# 5 0.000000 0.000000 0.000000 0.000000 0.021910 0.000000
# 6 0.000000 0.000000 0.000000 0.000000 0.000000 0.059623
#
#
# Mechanical properties :
#
#
# Convention : Reuss Voigt Hill
#
# Bulk Modulus (GPa) = 66.47667 92.92683 79.70175
# Shear Modulus (GPa) = 25.85224 31.12582 28.48903
#
# Velocity S-wave (km/s) = 3.49152 3.83112 3.66526
# Velocity P-wave (km/s) = 6.89939 7.96178 7.44955
#
# Compressibility (1/GPa) = 0.01504287
#
# Stress axis : x y z
#
# Youngs Moduli (GPa) = 71.49619 55.50529 81.63947
#
# Poissons Ratio (x) = 0.19966 0.70477
# Poissons Ratio (y) = 0.25718 0.19387
# Poissons Ratio (z) = 0.61720 0.13181
#
# Static dielectric constant tensor:
#      x y z
#    x 1.791090 0.000000 0.000000 
#    y 0.000000 2.215430 0.000000 
#    z 0.000000 0.000000 1.927670 
# 
# From -- ./inp_files/19025.got.cif
#   From: 2010.05.17/outbox.cif.g08.bks.cpg/sg52_10_cif.got.tgz:19025.got - 2010.06.03 12:15:38.
