data_PCOD9412886
_publ_section_title
;
Structure prediction by ZEFSAII (Michael W. Deem and Ramdas Pophale) SiO2 
 PCOD9412886
Probable space group: P N N A
;
_chemical_formula_sum "Si O2"
_cell_formula_units_Z 32
_cell_length_a 9.323873
_cell_length_b 8.580068
_cell_length_c 20.592735
_cell_angle_alpha 90.000000
_cell_angle_beta 90.000000
_cell_angle_gamma 90.000000
_cell_volume 1647.407770
_symmetry_space_group_name_H-M "P N N A"
_symmetry_group_IT_number 52
_symmetry_cell_setting 'orthorhombic'
loop_
_space_group_symop_operation_xyz
x,y,z
1/2-x,-y,z
x,1/2-y,1/2-z
1/2-x,1/2+y,1/2-z
-x,-y,-z
1/2+x,y,-z
-x,1/2+y,1/2+z
1/2+x,1/2-y,1/2+z
loop_
_atom_site_type_symbol
_atom_site_label
_atom_site_fract_x
_atom_site_fract_y
_atom_site_fract_z
Si Si1 0.732778 0.186665 0.549754
Si Si2 0.110149 0.250000 0.750000
Si Si3 0.939387 0.362949 0.454345
Si Si4 0.250000 0.000000 0.842479
Si Si5 0.332422 0.339318 0.187422
O O1 0.809875 0.276200 0.491269
O O2 0.568369 0.240489 0.555396
O O3 0.809699 0.236696 0.617272
O O4 0.750000 0.000000 0.541443
O O5 0.198929 0.139655 0.796606
O O6 0.999899 0.350489 0.794549
O O7 0.877306 0.438597 0.388910
O O8 0.000000 0.500000 0.500000
O O9 0.250000 0.500000 0.183340
O O10 0.270317 0.250000 0.250000
#
# Coordination Sequence:
#
# PCOD9412886 Si02
#       5
#     8   4   8   4   8
#     4  11  24  42  67 103 134 179 227 288 347 413
#     4  10  26  42  66  96 138 176 236 276 352 410
#     4  12  24  44  72  99 139 181 235 281 356 416
#     4  12  26  46  68 102 138 190 230 292 352 428
#     4   9  22  40  65  93 130 173 225 275 337 403
#
# _framework density 19.424457
#
# number of rings (size 3 to 8) (size 9 to 14) (size 15 to 20)
#    0.750    0.500    2.500    2.250    3.500    4.000 
#    2.250    0.000    0.000    0.000    0.000    0.000 
#    0.000    0.000    0.000    0.000    0.000    0.000 
#
# Total GULP energy -178570.419289 kJ/mol
# GULP energy per Si atom -5580.325603 kJ/mol
# Density = 1.938025 g / cm^3
# Si number density = 19.424457 Si / 1000 Ang^3
#
#
#
# Elastic Constant Matrix: (Units=GPa)
#
#
# Indices 1 2 3 4 5 6 
#
# 1 115.4564 50.4970 48.0721 0.0000 0.0000 0.0000
# 2 50.4970 100.9139 48.6154 0.0000 0.0000 0.0000
# 3 48.0721 48.6154 126.4218 0.0000 0.0000 0.0000
# 4 0.0000 0.0000 0.0000 40.7060 0.0000 0.0000
# 5 0.0000 0.0000 0.0000 0.0000 71.0670 0.0000
# 6 0.0000 0.0000 0.0000 0.0000 0.0000 43.7528
#
#
#
# Elastic Compliance Matrix: (Units=1/GPa)
#
#
# Indices 1 2 3 4 5 6 
#
# 1 0.011804 -0.004596 -0.002721 0.000000 0.000000 0.000000
# 2 -0.004596 0.013952 -0.003618 0.000000 0.000000 0.000000
# 3 -0.002721 -0.003618 0.010336 0.000000 0.000000 0.000000
# 4 0.000000 0.000000 0.000000 0.024566 0.000000 0.000000
# 5 0.000000 0.000000 0.000000 0.000000 0.014071 0.000000
# 6 0.000000 0.000000 0.000000 0.000000 0.000000 0.022856
#
#
# Mechanical properties :
#
#
# Convention : Reuss Voigt Hill
#
# Bulk Modulus (GPa) = 70.31002 70.79569 70.55286
# Shear Modulus (GPa) = 40.25883 44.14566 42.20225
#
# Velocity S-wave (km/s) = 4.55750 4.77244 4.66621
# Velocity P-wave (km/s) = 7.99810 8.17888 8.08900
#
# Compressibility (1/GPa) = 0.01422272
#
# Stress axis : x y z
#
# Youngs Moduli (GPa) = 84.71386 71.67420 96.74953
#
# Poissons Ratio (x) = 0.32941 0.26329
# Poissons Ratio (y) = 0.38934 0.35000
# Poissons Ratio (z) = 0.23053 0.25929
#
# Static dielectric constant tensor:
#      x y z
#    x 1.674490 0.000000 0.000000 
#    y 0.000000 1.629720 0.000000 
#    z 0.000000 0.000000 1.708250 
# 
# From -- ./inp_files/35501.got.cif
#   From: 2010.05.17/outbox.cif.g08.bks.cpg/sg52_18_cif.got.tgz:35501.got - 2010.06.03 12:15:38.
