data_PCOD9412443
_publ_section_title
;
Structure prediction by ZEFSAII (Michael W. Deem and Ramdas Pophale) SiO2 
 PCOD9412443
Probable space group: P N N A
;
_chemical_formula_sum "Si O2"
_cell_formula_units_Z 36
_cell_length_a 21.725495
_cell_length_b 9.810848
_cell_length_c 7.517007
_cell_angle_alpha 90.000000
_cell_angle_beta 90.000000
_cell_angle_gamma 90.000000
_cell_volume 1602.216435
_symmetry_space_group_name_H-M "P N N A"
_symmetry_group_IT_number 52
_symmetry_cell_setting 'orthorhombic'
loop_
_space_group_symop_operation_xyz
x,y,z
1/2-x,-y,z
x,1/2-y,1/2-z
1/2-x,1/2+y,1/2-z
-x,-y,-z
1/2+x,y,-z
-x,1/2+y,1/2+z
1/2+x,1/2-y,1/2+z
loop_
_atom_site_type_symbol
_atom_site_label
_atom_site_fract_x
_atom_site_fract_y
_atom_site_fract_z
Si Si1 0.999120 0.250000 0.250000
Si Si2 0.590842 0.760185 0.950978
Si Si3 0.200211 0.110822 0.823838
Si Si4 0.893020 0.931261 0.889195
Si Si5 0.677847 0.978975 0.541161
O O1 0.043265 0.141739 0.153637
O O2 0.954534 0.195820 0.404831
O O3 0.565860 0.750000 0.750000
O O4 0.654557 0.677064 0.957254
O O5 0.599052 0.920631 0.979519
O O6 0.229789 0.250000 0.750000
O O7 0.250000 0.000000 0.888156
O O8 0.167499 0.041764 0.653611
O O9 0.152298 0.146833 0.977695
O O10 0.860126 0.952253 0.699566
O O11 0.750000 0.000000 0.576036
#
# Coordination Sequence:
#
# PCOD9412443 Si02
#       5
#     4   8   8   8   8
#     4  12  24  42  68 102 148 188 248 284 354 424
#     4  10  24  43  69 103 134 191 233 297 354 418
#     4  11  25  41  66 101 140 186 232 292 357 423
#     4  11  24  43  69 101 141 189 235 296 352 428
#     4  10  23  44  69 101 138 179 241 294 362 420
#
# _framework density 22.468872999999999
#
# number of rings (size 3 to 8) (size 9 to 14) (size 15 to 20)
#    0.000    1.333    0.000    4.000    6.222    6.222 
#   14.000    0.000    0.000    0.000    0.000    0.000 
#    0.000    0.000    0.000    0.000    0.000    0.000 
#
# Total GULP energy -201306.248190 kJ/mol
# GULP energy per Si atom -5591.840228 kJ/mol
# Density = 2.241773 g / cm^3
# Si number density = 22.468873 Si / 1000 Ang^3
#
#
#
# Elastic Constant Matrix: (Units=GPa)
#
#
# Indices 1 2 3 4 5 6 
#
# 1 125.8091 33.9299 36.9312 0.0000 0.0000 0.0000
# 2 33.9299 89.3925 -9.3588 0.0000 0.0000 0.0000
# 3 36.9312 -9.3588 90.6316 0.0000 0.0000 0.0000
# 4 0.0000 0.0000 0.0000 25.5156 0.0000 0.0000
# 5 0.0000 0.0000 0.0000 0.0000 -265.3339 0.0000
# 6 0.0000 0.0000 0.0000 0.0000 0.0000 18.5372
#
#
#
# Elastic Compliance Matrix: (Units=1/GPa)
#
#
# Indices 1 2 3 4 5 6 
#
# 1 0.010565 -0.004510 -0.004771 0.000000 0.000000 0.000000
# 2 -0.004510 0.013234 0.003204 0.000000 0.000000 0.000000
# 3 -0.004771 0.003204 0.013309 0.000000 0.000000 0.000000
# 4 0.000000 0.000000 0.000000 0.039192 0.000000 0.000000
# 5 0.000000 0.000000 0.000000 0.000000 -0.003769 0.000000
# 6 0.000000 0.000000 0.000000 0.000000 0.000000 0.053946
#
#
# Mechanical properties :
#
#
# Convention : Reuss Voigt Hill
#
# Bulk Modulus (GPa) = 40.07223 47.64863 43.86043
# Shear Modulus (GPa) = 34.02585 -27.96748 3.02918
#
# Velocity S-wave (km/s) = 3.89569 -3.53189 1.16237
# Velocity P-wave (km/s) = 6.17321 2.14947 4.62216
#
# Compressibility (1/GPa) = 0.02495494
#
# Stress axis : x y z
#
# Youngs Moduli (GPa) = 94.64976 75.56429 75.13927
#
# Poissons Ratio (x) = 0.34077 0.35848
# Poissons Ratio (y) = 0.42684 -0.24076
# Poissons Ratio (z) = 0.45156 -0.24212
#
# Static dielectric constant tensor:
#      x y z
#    x 1.806200 0.000000 0.000000 
#    y 0.000000 1.944690 0.000000 
#    z 0.000000 0.000000 1.818200 
# 
# From -- ./inp_files/13076.got.cif
#   From: 2010.05.17/outbox.cif.g08.bks.cpg/sg52_7_cif.got.tgz:13076.got - 2010.06.03 12:15:38.
