data_PCOD9412109
_publ_section_title
;
Structure prediction by ZEFSAII (Michael W. Deem and Ramdas Pophale) SiO2 
 PCOD9412109
Probable space group: P N N A
;
_chemical_formula_sum "Si O2"
_cell_formula_units_Z 52
_cell_length_a 19.333281
_cell_length_b 20.044097
_cell_length_c 5.655324
_cell_angle_alpha 90.000000
_cell_angle_beta 90.000000
_cell_angle_gamma 90.000000
_cell_volume 2191.540749
_symmetry_space_group_name_H-M "P N N A"
_symmetry_group_IT_number 52
_symmetry_cell_setting 'orthorhombic'
loop_
_space_group_symop_operation_xyz
x,y,z
1/2-x,-y,z
x,1/2-y,1/2-z
1/2-x,1/2+y,1/2-z
-x,-y,-z
1/2+x,y,-z
-x,1/2+y,1/2+z
1/2+x,1/2-y,1/2+z
loop_
_atom_site_type_symbol
_atom_site_label
_atom_site_fract_x
_atom_site_fract_y
_atom_site_fract_z
Si Si1 0.782114 0.439260 0.731327
Si Si2 0.165454 0.750000 0.750000
Si Si3 0.106653 0.976540 0.568926
Si Si4 0.722084 0.189628 0.568693
Si Si5 0.405190 0.367467 0.547547
Si Si6 0.438345 0.786959 0.503187
Si Si7 0.987588 0.918009 0.289938
O O1 0.750000 0.500000 0.581659
O O2 0.729496 0.381928 0.808856
O O3 0.844498 0.399124 0.611630
O O4 0.819626 0.478010 0.946997
O O5 0.217933 0.801841 0.626191
O O6 0.115306 0.709218 0.577950
O O7 0.101536 0.908245 0.711920
O O8 0.048013 0.969336 0.366558
O O9 0.081988 0.038437 0.728689
O O10 0.735931 0.250000 0.750000
O O11 0.644421 0.200477 0.480447
O O12 0.479843 0.382752 0.437898
O O13 0.457519 0.750000 0.750000
O O14 0.473929 0.859288 0.522174
O O15 0.450930 0.750000 0.250000
#
# Coordination Sequence:
#
# PCOD9412109 Si02
#       7
#     8   4   8   8   8   8   8
#     4  11  23  41  66 103 133 178 238 291 361 440
#     4  12  22  42  70  98 140 184 232 300 362 440
#     4  10  22  44  66  94 136 180 229 292 364 428
#     4  11  22  44  67  94 142 182 231 296 365 432
#     4  11  24  41  69 102 135 187 234 294 372 427
#     4  11  26  46  70 104 139 189 240 295 362 429
#     4  10  24  45  66  96 137 181 235 295 353 434
#
# _framework density 23.727602000000001
#
# number of rings (size 3 to 8) (size 9 to 14) (size 15 to 20)
#    0.000    1.231    3.846    1.385    2.154    1.846 
#    8.308    0.000    0.000    0.000    0.000    0.000 
#    0.000    0.000    0.000    0.000    0.000    0.000 
#
# Total GULP energy -290484.404981 kJ/mol
# GULP energy per Si atom -5586.238557 kJ/mol
# Density = 2.367360 g / cm^3
# Si number density = 23.727602 Si / 1000 Ang^3
#
#
#
# Elastic Constant Matrix: (Units=GPa)
#
#
# Indices 1 2 3 4 5 6 
#
# 1 71.1629 36.9285 26.2937 0.0000 0.0000 0.0000
# 2 36.9285 120.0526 7.3502 0.0000 0.0000 0.0000
# 3 26.2937 7.3502 42.5713 0.0000 0.0000 0.0000
# 4 0.0000 0.0000 0.0000 27.5399 0.0000 0.0000
# 5 0.0000 0.0000 0.0000 0.0000 151.2396 0.0000
# 6 0.0000 0.0000 0.0000 0.0000 0.0000 29.2914
#
#
#
# Elastic Compliance Matrix: (Units=1/GPa)
#
#
# Indices 1 2 3 4 5 6 
#
# 1 0.021696 -0.005916 -0.012379 0.000000 0.000000 0.000000
# 2 -0.005916 0.010032 0.001922 0.000000 0.000000 0.000000
# 3 -0.012379 0.001922 0.030804 0.000000 0.000000 0.000000
# 4 0.000000 0.000000 0.000000 0.036311 0.000000 0.000000
# 5 0.000000 0.000000 0.000000 0.000000 0.006612 0.000000
# 6 0.000000 0.000000 0.000000 0.000000 0.000000 0.034140
#
#
# Mechanical properties :
#
#
# Convention : Reuss Voigt Hill
#
# Bulk Modulus (GPa) = 33.57304 41.65905 37.61605
# Shear Modulus (GPa) = 27.43199 52.49514 39.96357
#
# Velocity S-wave (km/s) = 3.40387 4.70873 4.10843
# Velocity P-wave (km/s) = 5.44321 6.86718 6.19623
#
# Compressibility (1/GPa) = 0.02978580
#
# Stress axis : x y z
#
# Youngs Moduli (GPa) = 46.09137 99.68345 32.46337
#
# Poissons Ratio (x) = 0.58971 0.40186
# Poissons Ratio (y) = 0.27267 -0.06239
# Poissons Ratio (z) = 0.57056 -0.19158
#
# Static dielectric constant tensor:
#      x y z
#    x 1.919450 0.000000 0.000000 
#    y 0.000000 1.931430 0.000000 
#    z 0.000000 0.000000 1.967570 
# 
# From -- ./inp_files/4434.got.cif
#   From: 2010.05.17/outbox.cif.g08.bks.cpg/sg52_3_cif.got.tgz:4434.got - 2010.06.03 12:15:38.
