data_PCOD9412041
_publ_section_title
;
Structure prediction by ZEFSAII (Michael W. Deem and Ramdas Pophale) SiO2 
 PCOD9412041
Probable space group: P N N A
;
_chemical_formula_sum "Si O2"
_cell_formula_units_Z 64
_cell_length_a 31.148108
_cell_length_b 5.267574
_cell_length_c 16.723076
_cell_angle_alpha 90.000000
_cell_angle_beta 90.000000
_cell_angle_gamma 90.000000
_cell_volume 2743.838090
_symmetry_space_group_name_H-M "P N N A"
_symmetry_group_IT_number 52
_symmetry_cell_setting 'orthorhombic'
loop_
_space_group_symop_operation_xyz
x,y,z
1/2-x,-y,z
x,1/2-y,1/2-z
1/2-x,1/2+y,1/2-z
-x,-y,-z
1/2+x,y,-z
-x,1/2+y,1/2+z
1/2+x,1/2-y,1/2+z
loop_
_atom_site_type_symbol
_atom_site_label
_atom_site_fract_x
_atom_site_fract_y
_atom_site_fract_z
Si Si1 0.723133 0.749867 0.937059
Si Si2 0.450755 0.032948 0.516684
Si Si3 0.225331 0.750626 0.870385
Si Si4 0.064717 0.498744 0.305740
Si Si5 0.101035 0.340476 0.588491
Si Si6 0.643569 0.522135 0.203539
Si Si7 0.968825 0.110100 0.166463
Si Si8 0.375547 0.349846 0.442786
O O1 0.750000 0.500000 0.911752
O O2 0.672021 0.754827 0.917603
O O3 0.750000 0.000000 0.910985
O O4 0.723427 0.752618 0.033955
O O5 0.453012 0.199252 0.597463
O O6 0.414604 0.152693 0.459702
O O7 0.500000 0.000000 0.500000
O O8 0.435006 0.747685 0.527143
O O9 0.250000 0.500000 0.845939
O O10 0.250000 0.000000 0.843814
O O11 0.180408 0.709995 0.829142
O O12 0.067104 0.250000 0.250000
O O13 0.103148 0.492266 0.370348
O O14 0.016895 0.500416 0.346691
O O15 0.067698 0.750000 0.250000
O O16 0.126005 0.097730 0.621056
O O17 0.070203 0.411733 0.662739
O O18 0.129700 0.513613 0.530497
O O19 0.653026 0.250000 0.250000
O O20 0.618308 0.750000 0.250000
O O21 0.972764 0.250000 0.250000
#
# Coordination Sequence:
#
# PCOD9412041 Si02
#       8
#     8   8   8   8   8   8   8   8
#     4  10  24  43  74 108 138 181 242 306 369 438
#     4  11  24  41  71 104 146 193 252 301 365 435
#     4  10  22  43  68  90 129 174 232 294 356 424
#     4  11  27  47  75 112 151 194 242 299 378 464
#     4  11  27  42  70 101 143 200 253 301 364 423
#     4  12  29  43  65  96 141 187 244 297 363 425
#     4  10  25  43  64 102 150 204 251 302 362 438
#     4  11  26  46  77 108 150 194 248 317 374 453
#
# _framework density 23.32499
#
# number of rings (size 3 to 8) (size 9 to 14) (size 15 to 20)
#    0.000    1.250    0.000    3.000   22.750    3.000 
#    0.000    0.000    0.000    1.500    0.000    0.000 
#    0.000    0.000    0.000    0.000    0.000    0.000 
#
# Total GULP energy -356804.591699 kJ/mol
# GULP energy per Si atom -5575.071745 kJ/mol
# Density = 2.327190 g / cm^3
# Si number density = 23.324990 Si / 1000 Ang^3
#
#
#
# Elastic Constant Matrix: (Units=GPa)
#
#
# Indices 1 2 3 4 5 6 
#
# 1 171.1929 60.4634 31.7109 0.0000 0.0000 0.0000
# 2 60.4634 144.0245 27.7784 0.0000 0.0000 0.0000
# 3 31.7109 27.7784 52.2243 0.0000 0.0000 0.0000
# 4 0.0000 0.0000 0.0000 27.3746 0.0000 0.0000
# 5 0.0000 0.0000 0.0000 0.0000 109.6700 0.0000
# 6 0.0000 0.0000 0.0000 0.0000 0.0000 45.7531
#
#
#
# Elastic Compliance Matrix: (Units=1/GPa)
#
#
# Indices 1 2 3 4 5 6 
#
# 1 0.007287 -0.002458 -0.003117 0.000000 0.000000 0.000000
# 2 -0.002458 0.008566 -0.003064 0.000000 0.000000 0.000000
# 3 -0.003117 -0.003064 0.022671 0.000000 0.000000 0.000000
# 4 0.000000 0.000000 0.000000 0.036530 0.000000 0.000000
# 5 0.000000 0.000000 0.000000 0.000000 0.009118 0.000000
# 6 0.000000 0.000000 0.000000 0.000000 0.000000 0.021856
#
#
# Mechanical properties :
#
#
# Convention : Reuss Voigt Hill
#
# Bulk Modulus (GPa) = 47.06874 67.48301 57.27587
# Shear Modulus (GPa) = 38.34695 53.05881 45.70288
#
# Velocity S-wave (km/s) = 4.05906 4.77462 4.43131
# Velocity P-wave (km/s) = 6.49548 7.70652 7.12677
#
# Compressibility (1/GPa) = 0.02124553
#
# Stress axis : x y z
#
# Youngs Moduli (GPa) = 137.23270 116.73975 44.10984
#
# Poissons Ratio (x) = 0.28693 0.13750
# Poissons Ratio (y) = 0.33730 0.13515
# Poissons Ratio (z) = 0.42779 0.35768
#
# Static dielectric constant tensor:
#      x y z
#    x 2.237400 0.000000 0.000000 
#    y 0.000000 2.066610 0.000000 
#    z 0.000000 0.000000 2.014590 
# 
# From -- ./inp_files/34593.got.cif
#   From: 2010.05.17/outbox.cif.g08.bks.cpg/sg52_18_cif.got.tgz:34593.got - 2010.06.03 12:15:38.
