data_PCOD9412649
_publ_section_title
;
Structure prediction by ZEFSAII (Michael W. Deem and Ramdas Pophale) SiO2 
 PCOD9412649
Probable space group: P N N A
;
_chemical_formula_sum "Si O2"
_cell_formula_units_Z 56
_cell_length_a 15.008987
_cell_length_b 12.470440
_cell_length_c 15.292232
_cell_angle_alpha 90.000000
_cell_angle_beta 90.000000
_cell_angle_gamma 90.000000
_cell_volume 2862.226753
_symmetry_space_group_name_H-M "P N N A"
_symmetry_group_IT_number 52
_symmetry_cell_setting 'orthorhombic'
loop_
_space_group_symop_operation_xyz
x,y,z
1/2-x,-y,z
x,1/2-y,1/2-z
1/2-x,1/2+y,1/2-z
-x,-y,-z
1/2+x,y,-z
-x,1/2+y,1/2+z
1/2+x,1/2-y,1/2+z
loop_
_atom_site_type_symbol
_atom_site_label
_atom_site_fract_x
_atom_site_fract_y
_atom_site_fract_z
Si Si1 0.026101 0.340593 0.984380
Si Si2 0.750000 0.500000 0.202651
Si Si3 0.604371 0.823846 0.034341
Si Si4 0.283525 0.750000 0.750000
Si Si5 0.485109 0.640770 0.302536
Si Si6 0.698309 0.240733 0.050235
Si Si7 0.156064 0.461682 0.434938
Si Si8 0.052899 0.983227 0.639354
O O1 0.131547 0.322742 0.997698
O O2 0.013518 0.406656 0.896473
O O3 0.974719 0.230075 0.980181
O O4 0.979613 0.400108 0.065445
O O5 0.752479 0.378686 0.248163
O O6 0.841022 0.495619 0.147510
O O7 0.567447 0.834655 0.132659
O O8 0.694976 0.753389 0.037905
O O9 0.619692 0.936708 0.987825
O O10 0.324337 0.752550 0.847052
O O11 0.461144 0.750000 0.250000
O O12 0.408326 0.591502 0.363595
O O13 0.515870 0.555204 0.231249
O O14 0.675919 0.126656 0.008437
O O15 0.250000 0.500000 0.394428
#
# Coordination Sequence:
#
# PCOD9412649 Si02
#       8
#     8   4   8   4   8   8   8   8
#     4  11  23  43  62  95 134 178 220 277 361 411
#     4  12  26  44  66 106 142 174 230 294 362 434
#     4  11  23  40  70  96 133 173 231 284 359 417
#     4  12  26  38  68 104 144 176 224 294 370 422
#     4  12  23  42  68  96 129 179 233 282 348 431
#     4  11  23  42  64 102 133 177 225 290 344 432
#     4  10  24  43  67  95 133 180 233 286 347 422
#     4  11  25  41  65  96 136 174 226 288 348 424
#
# _framework density 19.565185
#
# number of rings (size 3 to 8) (size 9 to 14) (size 15 to 20)
#    0.000    0.857    4.286    2.143    7.000    0.000 
#    0.000    4.286    0.000    0.000    0.000    0.000 
#    0.000    0.000    0.000    0.000    0.000    0.000 
#
# Total GULP energy -311869.187418 kJ/mol
# GULP energy per Si atom -5569.092632 kJ/mol
# Density = 1.952065 g / cm^3
# Si number density = 19.565185 Si / 1000 Ang^3
#
#
#
# Elastic Constant Matrix: (Units=GPa)
#
#
# Indices 1 2 3 4 5 6 
#
# 1 118.7207 37.2636 60.6864 0.0000 0.0000 0.0000
# 2 37.2636 99.1605 45.2862 0.0000 0.0000 0.0000
# 3 60.6864 45.2862 101.7328 0.0000 0.0000 0.0000
# 4 0.0000 0.0000 0.0000 46.7173 0.0000 0.0000
# 5 0.0000 0.0000 0.0000 0.0000 20.9869 0.0000
# 6 0.0000 0.0000 0.0000 0.0000 0.0000 30.4643
#
#
#
# Elastic Compliance Matrix: (Units=1/GPa)
#
#
# Indices 1 2 3 4 5 6 
#
# 1 0.012317 -0.001598 -0.006636 0.000000 0.000000 0.000000
# 2 -0.001598 0.012865 -0.004774 0.000000 0.000000 0.000000
# 3 -0.006636 -0.004774 0.015913 0.000000 0.000000 0.000000
# 4 0.000000 0.000000 0.000000 0.021405 0.000000 0.000000
# 5 0.000000 0.000000 0.000000 0.000000 0.047649 0.000000
# 6 0.000000 0.000000 0.000000 0.000000 0.000000 0.032825
#
#
# Mechanical properties :
#
#
# Convention : Reuss Voigt Hill
#
# Bulk Modulus (GPa) = 66.31299 67.34294 66.82797
# Shear Modulus (GPa) = 28.73285 31.39221 30.06253
#
# Velocity S-wave (km/s) = 3.83635 4.00996 3.92411
# Velocity P-wave (km/s) = 7.32055 7.47892 7.40015
#
# Compressibility (1/GPa) = 0.01508000
#
# Stress axis : x y z
#
# Youngs Moduli (GPa) = 81.18994 77.72840 62.84058
#
# Poissons Ratio (x) = 0.12420 0.41701
# Poissons Ratio (y) = 0.12973 0.29999
# Poissons Ratio (z) = 0.53878 0.37106
#
# Static dielectric constant tensor:
#      x y z
#    x 1.727290 0.000000 0.000000 
#    y 0.000000 1.781910 0.000000 
#    z 0.000000 0.000000 1.650560 
# 
# From -- ./inp_files/27325.got.cif
#   From: 2010.05.17/outbox.cif.g08.bks.cpg/sg52_14_cif.got.tgz:27325.got - 2010.06.03 12:15:38.
