data_PCOD9412321
_publ_section_title
;
Structure prediction by ZEFSAII (Michael W. Deem and Ramdas Pophale) SiO2 
 PCOD9412321
Probable space group: P N N A
;
_chemical_formula_sum "Si O2"
_cell_formula_units_Z 48
_cell_length_a 8.689030
_cell_length_b 15.201519
_cell_length_c 15.824985
_cell_angle_alpha 90.000000
_cell_angle_beta 90.000000
_cell_angle_gamma 90.000000
_cell_volume 2090.266163
_symmetry_space_group_name_H-M "P N N A"
_symmetry_group_IT_number 52
_symmetry_cell_setting 'orthorhombic'
loop_
_space_group_symop_operation_xyz
x,y,z
1/2-x,-y,z
x,1/2-y,1/2-z
1/2-x,1/2+y,1/2-z
-x,-y,-z
1/2+x,y,-z
-x,1/2+y,1/2+z
1/2+x,1/2-y,1/2+z
loop_
_atom_site_type_symbol
_atom_site_label
_atom_site_fract_x
_atom_site_fract_y
_atom_site_fract_z
Si Si1 0.657936 0.652206 0.422807
Si Si2 0.341440 0.353856 0.899901
Si Si3 0.672110 0.095006 0.559788
Si Si4 0.698253 0.601562 0.767688
Si Si5 0.818237 0.598466 0.591024
Si Si6 0.151880 0.143991 0.760442
O O1 0.611615 0.751604 0.397429
O O2 0.736992 0.648750 0.514052
O O3 0.501184 0.597369 0.421143
O O4 0.780109 0.622389 0.352053
O O5 0.490638 0.408815 0.925380
O O6 0.271855 0.384198 0.811503
O O7 0.211961 0.358859 0.972041
O O8 0.747058 0.140170 0.642717
O O9 0.750000 0.000000 0.552495
O O10 0.750000 0.500000 0.771791
O O11 0.776955 0.638048 0.682927
O O12 0.516093 0.606256 0.756142
O O13 0.750000 0.500000 0.588832
O O14 0.137971 0.250000 0.750000
#
# Coordination Sequence:
#
# PCOD9412321 Si02
#       6
#     8   8   8   8   8   8
#     4  11  23  41  65  94 125 164 210 260 312 370
#     4  11  23  41  65  94 125 164 210 260 312 370
#     4  11  23  41  62  92 128 166 208 255 312 372
#     4  10  23  42  62  89 123 163 206 248 307 370
#     4  11  23  41  62  92 128 166 208 255 312 372
#     4  10  23  42  66  93 125 163 206 256 312 368
#
# _framework density 22.963583
#
# number of rings (size 3 to 8) (size 9 to 14) (size 15 to 20)
#    0.000    1.333    0.000    5.000    0.000    8.000 
#    0.000    7.500    0.000    0.000    0.000    0.000 
#    0.000    0.000    0.000    0.000    0.000    0.000 
#
# Total GULP energy -268728.266751 kJ/mol
# GULP energy per Si atom -5598.505557 kJ/mol
# Density = 2.291132 g / cm^3
# Si number density = 22.963583 Si / 1000 Ang^3
#
#
#
# Elastic Constant Matrix: (Units=GPa)
#
#
# Indices 1 2 3 4 5 6 
#
# 1 88.3307 4.3717 -27.2823 0.0000 0.0000 0.0000
# 2 4.3717 50.5312 -11.9439 0.0000 0.0000 0.0000
# 3 -27.2823 -11.9439 89.2467 0.0000 0.0000 0.0000
# 4 0.0000 0.0000 0.0000 18.7011 0.0000 0.0000
# 5 0.0000 0.0000 0.0000 0.0000 50.9157 0.0000
# 6 0.0000 0.0000 0.0000 0.0000 0.0000 68.4498
#
#
#
# Elastic Compliance Matrix: (Units=1/GPa)
#
#
# Indices 1 2 3 4 5 6 
#
# 1 0.012503 -0.000184 0.003798 0.000000 0.000000 0.000000
# 2 -0.000184 0.020439 0.002679 0.000000 0.000000 0.000000
# 3 0.003798 0.002679 0.012724 0.000000 0.000000 0.000000
# 4 0.000000 0.000000 0.000000 0.053473 0.000000 0.000000
# 5 0.000000 0.000000 0.000000 0.000000 0.019640 0.000000
# 6 0.000000 0.000000 0.000000 0.000000 0.000000 0.014609
#
#
# Mechanical properties :
#
#
# Convention : Reuss Voigt Hill
#
# Bulk Modulus (GPa) = 17.16699 17.59995 17.38347
# Shear Modulus (GPa) = 35.65805 45.14420 40.40113
#
# Velocity S-wave (km/s) = 3.94484 4.43866 4.19902
# Velocity P-wave (km/s) = 5.31423 5.82665 5.57633
#
# Compressibility (1/GPa) = 0.05825133
#
# Stress axis : x y z
#
# Youngs Moduli (GPa) = 79.98004 48.92621 78.58966
#
# Poissons Ratio (x) = 0.00901 -0.29844
# Poissons Ratio (y) = 0.01472 -0.21055
# Poissons Ratio (z) = -0.30372 -0.13108
#
# Static dielectric constant tensor:
#      x y z
#    x 1.794610 0.000000 0.000000 
#    y 0.000000 1.775800 0.000000 
#    z 0.000000 0.000000 1.877770 
# 
# From -- ./inp_files/24692.got.cif
#   From: 2010.05.17/outbox.cif.g08.bks.cpg/sg52_13_cif.got.tgz:24692.got - 2010.06.03 12:15:38.
