data_PCOD9412050
_publ_section_title
;
Structure prediction by ZEFSAII (Michael W. Deem and Ramdas Pophale) SiO2 
 PCOD9412050
Probable space group: P N N A
;
_chemical_formula_sum "Si O2"
_cell_formula_units_Z 36
_cell_length_a 10.743134
_cell_length_b 12.393609
_cell_length_c 11.513560
_cell_angle_alpha 90.000000
_cell_angle_beta 90.000000
_cell_angle_gamma 90.000000
_cell_volume 1532.986788
_symmetry_space_group_name_H-M "P N N A"
_symmetry_group_IT_number 52
_symmetry_cell_setting 'orthorhombic'
loop_
_space_group_symop_operation_xyz
x,y,z
1/2-x,-y,z
x,1/2-y,1/2-z
1/2-x,1/2+y,1/2-z
-x,-y,-z
1/2+x,y,-z
-x,1/2+y,1/2+z
1/2+x,1/2-y,1/2+z
loop_
_atom_site_type_symbol
_atom_site_label
_atom_site_fract_x
_atom_site_fract_y
_atom_site_fract_z
Si Si1 0.250000 0.000000 0.776554
Si Si2 0.106865 0.315805 0.629093
Si Si3 0.488339 0.044632 0.627059
Si Si4 0.085595 0.269940 0.375781
Si Si5 0.607129 0.511751 0.657207
O O1 0.278402 0.897228 0.854616
O O2 0.132783 0.993121 0.693448
O O3 0.096891 0.250000 0.750000
O O4 0.133951 0.254193 0.508078
O O5 0.978913 0.388092 0.619495
O O6 0.486727 0.174231 0.631613
O O7 0.600378 0.994571 0.703099
O O8 0.500000 0.000000 0.500000
O O9 0.157213 0.250000 0.250000
O O10 0.047594 0.395319 0.374995
O O11 0.750000 0.500000 0.618485
#
# Coordination Sequence:
#
# PCOD9412050 Si02
#       5
#     4   8   8   8   8
#     4  10  24  42  70 100 142 188 238 302 362 442
#     4  11  24  45  70 105 139 188 242 296 367 437
#     4  10  22  44  67 102 141 182 239 304 364 428
#     4  10  22  43  68  99 141 180 235 294 362 429
#     4  10  23  42  66  99 142 185 235 294 359 435
#
# _framework density 23.483568000000002
#
# number of rings (size 3 to 8) (size 9 to 14) (size 15 to 20)
#    0.000    1.778    0.000    3.333    3.111    7.111 
#    8.000    0.000    0.000    0.000    0.000    0.000 
#    0.000    0.000    0.000    0.000    0.000    0.000 
#
# Total GULP energy -200541.416786 kJ/mol
# GULP energy per Si atom -5570.594911 kJ/mol
# Density = 2.343012 g / cm^3
# Si number density = 23.483568 Si / 1000 Ang^3
#
#
#
# Elastic Constant Matrix: (Units=GPa)
#
#
# Indices 1 2 3 4 5 6 
#
# 1 80.1089 12.1162 24.7904 0.0000 0.0000 0.0000
# 2 12.1162 85.6858 30.8168 0.0000 0.0000 0.0000
# 3 24.7904 30.8168 220.5019 0.0000 0.0000 0.0000
# 4 0.0000 0.0000 0.0000 34.6837 0.0000 0.0000
# 5 0.0000 0.0000 0.0000 0.0000 -1.8412 0.0000
# 6 0.0000 0.0000 0.0000 0.0000 0.0000 25.4658
#
#
#
# Elastic Compliance Matrix: (Units=1/GPa)
#
#
# Indices 1 2 3 4 5 6 
#
# 1 0.013089 -0.001391 -0.001277 0.000000 0.000000 0.000000
# 2 -0.001391 0.012436 -0.001582 0.000000 0.000000 0.000000
# 3 -0.001277 -0.001582 0.004900 0.000000 0.000000 0.000000
# 4 0.000000 0.000000 0.000000 0.028832 0.000000 0.000000
# 5 0.000000 0.000000 0.000000 0.000000 -0.543123 0.000000
# 6 0.000000 0.000000 0.000000 0.000000 0.000000 0.039268
#
#
# Mechanical properties :
#
#
# Convention : Reuss Voigt Hill
#
# Bulk Modulus (GPa) = 45.61162 57.97147 51.79154
# Shear Modulus (GPa) = -11.66072 32.89988 10.61958
#
# Velocity S-wave (km/s) = -2.23075 3.74702 2.12884
# Velocity P-wave (km/s) = 3.58189 6.59240 5.30517
#
# Compressibility (1/GPa) = 0.02192424
#
# Stress axis : x y z
#
# Youngs Moduli (GPa) = 76.40204 80.41091 204.09314
#
# Poissons Ratio (x) = 0.11189 0.26064
# Poissons Ratio (y) = 0.10631 0.32279
# Poissons Ratio (z) = 0.09757 0.12718
#
# Static dielectric constant tensor:
#      x y z
#    x 1.918900 0.000000 0.000000 
#    y 0.000000 1.953120 0.000000 
#    z 0.000000 0.000000 2.023450 
# 
# From -- ./inp_files/17762.got.cif
#   From: 2010.05.17/outbox.cif.g08.bks.cpg/sg52_9_cif.got.tgz:17762.got - 2010.06.03 12:15:38.
