data_PCOD9412544
_publ_section_title
;
Structure prediction by ZEFSAII (Michael W. Deem and Ramdas Pophale) SiO2 
 PCOD9412544
Probable space group: P N N A
;
_chemical_formula_sum "Si O2"
_cell_formula_units_Z 64
_cell_length_a 26.596476
_cell_length_b 11.464940
_cell_length_c 9.044224
_cell_angle_alpha 90.000000
_cell_angle_beta 90.000000
_cell_angle_gamma 90.000000
_cell_volume 2757.828106
_symmetry_space_group_name_H-M "P N N A"
_symmetry_group_IT_number 52
_symmetry_cell_setting 'orthorhombic'
loop_
_space_group_symop_operation_xyz
x,y,z
1/2-x,-y,z
x,1/2-y,1/2-z
1/2-x,1/2+y,1/2-z
-x,-y,-z
1/2+x,y,-z
-x,1/2+y,1/2+z
1/2+x,1/2-y,1/2+z
loop_
_atom_site_type_symbol
_atom_site_label
_atom_site_fract_x
_atom_site_fract_y
_atom_site_fract_z
Si Si1 0.874083 0.036507 0.554140
Si Si2 0.916937 0.427767 0.395545
Si Si3 0.666869 0.991041 0.883500
Si Si4 0.246868 0.303151 0.411463
Si Si5 0.069414 0.369464 0.841720
Si Si6 0.177142 0.602523 0.787710
Si Si7 0.214726 0.150428 0.676220
Si Si8 0.963984 0.217245 0.577091
O O1 0.849360 0.011994 0.711683
O O2 0.890910 0.921035 0.461834
O O3 0.835196 0.116114 0.459973
O O4 0.923363 0.116205 0.555207
O O5 0.884901 0.490372 0.524491
O O6 0.938502 0.525032 0.280516
O O7 0.871498 0.366650 0.304314
O O8 0.952192 0.328979 0.470866
O O9 0.702037 0.101316 0.918659
O O10 0.701162 0.877937 0.925645
O O11 0.249265 0.250000 0.250000
O O12 0.230250 0.194404 0.515679
O O13 0.079006 0.250000 0.750000
O O14 0.019291 0.337436 0.934430
O O15 0.186922 0.465559 0.786284
O O16 0.231678 0.642724 0.738609
O O17 0.183174 0.250000 0.750000
O O18 0.958657 0.250000 0.750000
#
# Coordination Sequence:
#
# PCOD9412544 Si02
#       8
#     8   8   8   8   8   8   8   8
#     4  11  23  43  70  99 138 178 235 286 348 432
#     4  11  24  44  73 102 136 180 241 287 353 453
#     4  11  24  41  65 107 135 185 239 275 341 408
#     4  11  24  39  64  95 150 185 223 278 330 399
#     4  10  26  48  72  99 139 177 227 295 377 423
#     4  10  24  38  62 100 129 182 235 273 339 409
#     4  11  22  39  61  90 142 181 223 283 329 386
#     4  11  24  45  75 103 135 173 226 311 370 421
#
# _framework density 23.206666999999999
#
# number of rings (size 3 to 8) (size 9 to 14) (size 15 to 20)
#    0.000    1.250    1.250    3.375    5.250   12.500 
#    0.000    0.000    0.000    0.000    0.000    0.000 
#    0.000    0.000    0.000    0.000    0.000    0.000 
#
# Total GULP energy -356967.360960 kJ/mol
# GULP energy per Si atom -5577.615015 kJ/mol
# Density = 2.315385 g / cm^3
# Si number density = 23.206667 Si / 1000 Ang^3
#
#
#
# Elastic Constant Matrix: (Units=GPa)
#
#
# Indices 1 2 3 4 5 6 
#
# 1 112.3729 26.4393 9.7743 0.0000 0.0000 0.0000
# 2 26.4393 136.5391 24.4914 0.0000 0.0000 0.0000
# 3 9.7743 24.4914 114.8995 0.0000 0.0000 0.0000
# 4 0.0000 0.0000 0.0000 35.1828 0.0000 0.0000
# 5 0.0000 0.0000 0.0000 0.0000 84.8553 0.0000
# 6 0.0000 0.0000 0.0000 0.0000 0.0000 34.4459
#
#
#
# Elastic Compliance Matrix: (Units=1/GPa)
#
#
# Indices 1 2 3 4 5 6 
#
# 1 0.009344 -0.001733 -0.000425 0.000000 0.000000 0.000000
# 2 -0.001733 0.007936 -0.001544 0.000000 0.000000 0.000000
# 3 -0.000425 -0.001544 0.009069 0.000000 0.000000 0.000000
# 4 0.000000 0.000000 0.000000 0.028423 0.000000 0.000000
# 5 0.000000 0.000000 0.000000 0.000000 0.011785 0.000000
# 6 0.000000 0.000000 0.000000 0.000000 0.000000 0.029031
#
#
# Mechanical properties :
#
#
# Convention : Reuss Voigt Hill
#
# Bulk Modulus (GPa) = 52.78897 53.91350 53.35124
# Shear Modulus (GPa) = 45.74253 51.10390 48.42321
#
# Velocity S-wave (km/s) = 4.44452 4.69777 4.57290
# Velocity P-wave (km/s) = 7.00964 7.26001 7.13592
#
# Compressibility (1/GPa) = 0.01894335
#
# Stress axis : x y z
#
# Youngs Moduli (GPa) = 107.02404 126.00032 110.27032
#
# Poissons Ratio (x) = 0.21836 0.04692
# Poissons Ratio (y) = 0.18547 0.17029
# Poissons Ratio (z) = 0.04553 0.19458
#
# Static dielectric constant tensor:
#      x y z
#    x 1.904880 0.000000 0.000000 
#    y 0.000000 1.811930 0.000000 
#    z 0.000000 0.000000 1.925090 
# 
# From -- ./inp_files/15738.got.cif
#   From: 2010.05.17/outbox.cif.g08.bks.cpg/sg52_8_cif.got.tgz:15738.got - 2010.06.03 12:15:38.
