data_PCOD9412548
_publ_section_title
;
Structure prediction by ZEFSAII (Michael W. Deem and Ramdas Pophale) SiO2 
 PCOD9412548
Probable space group: P N N A
;
_chemical_formula_sum "Si O2"
_cell_formula_units_Z 52
_cell_length_a 26.735333
_cell_length_b 9.255067
_cell_length_c 9.643060
_cell_angle_alpha 90.000000
_cell_angle_beta 90.000000
_cell_angle_gamma 90.000000
_cell_volume 2386.052713
_symmetry_space_group_name_H-M "P N N A"
_symmetry_group_IT_number 52
_symmetry_cell_setting 'orthorhombic'
loop_
_space_group_symop_operation_xyz
x,y,z
1/2-x,-y,z
x,1/2-y,1/2-z
1/2-x,1/2+y,1/2-z
-x,-y,-z
1/2+x,y,-z
-x,1/2+y,1/2+z
1/2+x,1/2-y,1/2+z
loop_
_atom_site_type_symbol
_atom_site_label
_atom_site_fract_x
_atom_site_fract_y
_atom_site_fract_z
Si Si1 0.458417 0.916358 0.696755
Si Si2 0.663347 0.303949 0.391842
Si Si3 0.553597 0.424680 0.761869
Si Si4 0.250000 0.000000 0.913906
Si Si5 0.634707 0.462709 0.980612
Si Si6 0.828987 0.238910 0.080803
Si Si7 0.915409 0.030936 0.025042
O O1 0.466016 0.750000 0.750000
O O2 0.510412 0.991897 0.653613
O O3 0.413353 0.938213 0.585491
O O4 0.443869 0.008778 0.832236
O O5 0.639608 0.250000 0.250000
O O6 0.709410 0.400014 0.340332
O O7 0.625529 0.403586 0.473594
O O8 0.672143 0.169800 0.490095
O O9 0.546114 0.250000 0.750000
O O10 0.553775 0.502754 0.612319
O O11 0.607355 0.454278 0.833262
O O12 0.286539 0.126695 0.975335
O O13 0.666741 0.603058 0.016971
O O14 0.823971 0.250000 0.250000
O O15 0.882933 0.173916 0.039461
#
# Coordination Sequence:
#
# PCOD9412548 Si02
#       7
#     8   8   8   4   8   8   8
#     4  12  23  42  64  95 135 179 233 281 325 375
#     4  11  19  41  66  92 130 165 214 273 337 390
#     4  12  27  41  64  97 132 186 233 270 315 396
#     4  10  24  38  68 108 130 156 216 280 344 396
#     4  12  23  41  67  96 137 177 220 273 333 392
#     4  11  23  41  69 100 133 170 213 274 338 404
#     4  11  22  42  64  89 138 178 216 274 332 376
#
# _framework density 21.793315
#
# number of rings (size 3 to 8) (size 9 to 14) (size 15 to 20)
#    0.000    0.615    6.154    2.308    4.308    0.615 
#    0.000    0.000    0.000   14.769    0.000    1.077 
#    0.000    0.000    0.000    0.000    0.000    0.000 
#
# Total GULP energy -289716.984254 kJ/mol
# GULP energy per Si atom -5571.480466 kJ/mol
# Density = 2.174371 g / cm^3
# Si number density = 21.793315 Si / 1000 Ang^3
#
#
#
# Elastic Constant Matrix: (Units=GPa)
#
#
# Indices 1 2 3 4 5 6 
#
# 1 62.5833 25.6192 -2.9733 0.0000 0.0000 0.0000
# 2 25.6192 106.7711 -25.0990 0.0000 0.0000 0.0000
# 3 -2.9733 -25.0990 45.1293 0.0000 0.0000 0.0000
# 4 0.0000 0.0000 0.0000 14.7681 0.0000 0.0000
# 5 0.0000 0.0000 0.0000 0.0000 -20.7595 0.0000
# 6 0.0000 0.0000 0.0000 0.0000 0.0000 19.9454
#
#
#
# Elastic Compliance Matrix: (Units=1/GPa)
#
#
# Indices 1 2 3 4 5 6 
#
# 1 0.017794 -0.004595 -0.001383 0.000000 0.000000 0.000000
# 2 -0.004595 0.011961 0.006349 0.000000 0.000000 0.000000
# 3 -0.001383 0.006349 0.025599 0.000000 0.000000 0.000000
# 4 0.000000 0.000000 0.000000 0.067714 0.000000 0.000000
# 5 0.000000 0.000000 0.000000 0.000000 -0.048171 0.000000
# 6 0.000000 0.000000 0.000000 0.000000 0.000000 0.050137
#
#
# Mechanical properties :
#
#
# Convention : Reuss Voigt Hill
#
# Bulk Modulus (GPa) = 17.82630 23.28641 20.55635
# Shear Modulus (GPa) = 34.96780 17.25325 26.11052
#
# Velocity S-wave (km/s) = 4.00999 2.81673 3.46511
# Velocity P-wave (km/s) = 5.44403 4.61377 5.04601
#
# Compressibility (1/GPa) = 0.05609688
#
# Stress axis : x y z
#
# Youngs Moduli (GPa) = 56.19912 83.60591 39.06447
#
# Poissons Ratio (x) = 0.38414 0.05403
# Poissons Ratio (y) = 0.25822 -0.24804
# Poissons Ratio (z) = 0.07772 -0.53085
#
# Static dielectric constant tensor:
#      x y z
#    x 1.848640 0.000000 0.000000 
#    y 0.000000 1.884210 0.000000 
#    z 0.000000 0.000000 1.808700 
# 
# From -- ./inp_files/22830.got.cif
#   From: 2010.05.17/outbox.cif.g08.bks.cpg/sg52_12_cif.got.tgz:22830.got - 2010.06.03 12:15:38.
