data_PCOD9412651
_publ_section_title
;
Structure prediction by ZEFSAII (Michael W. Deem and Ramdas Pophale) SiO2 
 PCOD9412651
Probable space group: P N N A
;
_chemical_formula_sum "Si O2"
_cell_formula_units_Z 60
_cell_length_a 12.792892
_cell_length_b 8.976168
_cell_length_c 24.756121
_cell_angle_alpha 90.000000
_cell_angle_beta 90.000000
_cell_angle_gamma 90.000000
_cell_volume 2842.773789
_symmetry_space_group_name_H-M "P N N A"
_symmetry_group_IT_number 52
_symmetry_cell_setting 'orthorhombic'
loop_
_space_group_symop_operation_xyz
x,y,z
1/2-x,-y,z
x,1/2-y,1/2-z
1/2-x,1/2+y,1/2-z
-x,-y,-z
1/2+x,y,-z
-x,1/2+y,1/2+z
1/2+x,1/2-y,1/2+z
loop_
_atom_site_type_symbol
_atom_site_label
_atom_site_fract_x
_atom_site_fract_y
_atom_site_fract_z
Si Si1 0.342022 0.107075 0.849566
Si Si2 0.450325 0.418540 0.338945
Si Si3 0.100208 0.394294 0.935929
Si Si4 0.445475 0.375309 0.462912
Si Si5 0.962499 0.903835 0.313064
Si Si6 0.835782 0.292424 0.047591
Si Si7 0.146177 0.425757 0.241254
Si Si8 0.281845 0.750000 0.750000
O O1 0.376219 0.215608 0.897654
O O2 0.290086 0.188955 0.798369
O O3 0.250000 0.000000 0.871663
O O4 0.439883 0.005860 0.834307
O O5 0.420489 0.422909 0.401889
O O6 0.472760 0.251335 0.318014
O O7 0.370286 0.496317 0.299171
O O8 0.077027 0.430245 0.873426
O O9 0.103333 0.554259 0.964403
O O10 0.216478 0.330728 0.940816
O O11 0.023650 0.265057 0.955473
O O12 0.500000 0.500000 0.500000
O O13 0.348318 0.316317 0.497233
O O14 0.861338 0.872155 0.275668
O O15 0.041400 0.028816 0.291517
O O16 0.250000 0.500000 0.216003
O O17 0.156183 0.250000 0.250000
#
# Coordination Sequence:
#
# PCOD9412651 Si02
#       8
#     8   8   8   8   8   8   8   4
#     4  12  22  37  63 101 140 183 231 273 352 429
#     4  11  23  43  65 101 136 180 236 289 339 420
#     4  10  24  43  68 102 140 178 229 288 352 422
#     4  11  23  42  70  93 133 183 234 290 340 402
#     4  11  21  45  71 100 146 185 216 289 351 424
#     4  11  23  41  67  96 136 183 228 287 348 410
#     4  12  27  47  74  99 136 183 236 292 355 424
#     4  12  22  36  66 104 150 186 218 278 354 444
#
# _framework density 21.106145999999999
#
# number of rings (size 3 to 8) (size 9 to 14) (size 15 to 20)
#    0.000    0.800    5.333    2.000    2.800    1.067 
#    2.400    0.000   23.467    0.000    0.000    0.000 
#    0.000    0.000    0.000    0.000    0.000    0.000 
#
# Total GULP energy -335575.775448 kJ/mol
# GULP energy per Si atom -5592.929591 kJ/mol
# Density = 2.105811 g / cm^3
# Si number density = 21.106146 Si / 1000 Ang^3
#
#
#
# Elastic Constant Matrix: (Units=GPa)
#
#
# Indices 1 2 3 4 5 6 
#
# 1 75.3467 15.2179 24.0642 0.0000 0.0000 0.0000
# 2 15.2179 72.9286 23.1456 0.0000 0.0000 0.0000
# 3 24.0642 23.1456 122.9085 0.0000 0.0000 0.0000
# 4 0.0000 0.0000 0.0000 38.4109 0.0000 0.0000
# 5 0.0000 0.0000 0.0000 0.0000 1.6196 0.0000
# 6 0.0000 0.0000 0.0000 0.0000 0.0000 29.8850
#
#
#
# Elastic Compliance Matrix: (Units=1/GPa)
#
#
# Indices 1 2 3 4 5 6 
#
# 1 0.014499 -0.002260 -0.002413 0.000000 0.000000 0.000000
# 2 -0.002260 0.014936 -0.002370 0.000000 0.000000 0.000000
# 3 -0.002413 -0.002370 0.009055 0.000000 0.000000 0.000000
# 4 0.000000 0.000000 0.000000 0.026034 0.000000 0.000000
# 5 0.000000 0.000000 0.000000 0.000000 0.617450 0.000000
# 6 0.000000 0.000000 0.000000 0.000000 0.000000 0.033462
#
#
# Mechanical properties :
#
#
# Convention : Reuss Voigt Hill
#
# Bulk Modulus (GPa) = 40.97740 44.00434 42.49087
# Shear Modulus (GPa) = 6.77823 27.90018 17.33921
#
# Velocity S-wave (km/s) = 1.79401 3.63974 2.86933
# Velocity P-wave (km/s) = 4.87323 6.20950 5.58150
#
# Compressibility (1/GPa) = 0.02440369
#
# Stress axis : x y z
#
# Youngs Moduli (GPa) = 68.96981 66.95323 110.43654
#
# Poissons Ratio (x) = 0.15129 0.26651
# Poissons Ratio (y) = 0.15584 0.26176
# Poissons Ratio (z) = 0.16644 0.15869
#
# Static dielectric constant tensor:
#      x y z
#    x 1.774000 0.000000 0.000000 
#    y 0.000000 1.836790 0.000000 
#    z 0.000000 0.000000 1.756160 
# 
# From -- ./inp_files/42794.got.cif
#   From: 2010.05.17/outbox.cif.g08.bks.cpg/sg52_22_cif.got.tgz:42794.got - 2010.06.03 12:15:38.
