data_PCOD9412697
_publ_section_title
;
Structure prediction by ZEFSAII (Michael W. Deem and Ramdas Pophale) SiO2 
 PCOD9412697
Probable space group: P N N A
;
_chemical_formula_sum "Si O2"
_cell_formula_units_Z 40
_cell_length_a 8.303650
_cell_length_b 9.405369
_cell_length_c 20.575541
_cell_angle_alpha 90.000000
_cell_angle_beta 90.000000
_cell_angle_gamma 90.000000
_cell_volume 1606.926961
_symmetry_space_group_name_H-M "P N N A"
_symmetry_group_IT_number 52
_symmetry_cell_setting 'orthorhombic'
loop_
_space_group_symop_operation_xyz
x,y,z
1/2-x,-y,z
x,1/2-y,1/2-z
1/2-x,1/2+y,1/2-z
-x,-y,-z
1/2+x,y,-z
-x,1/2+y,1/2+z
1/2+x,1/2-y,1/2+z
loop_
_atom_site_type_symbol
_atom_site_label
_atom_site_fract_x
_atom_site_fract_y
_atom_site_fract_z
Si Si1 0.750000 0.500000 0.473198
Si Si2 0.152654 0.250000 0.750000
Si Si3 0.556251 0.007720 0.425379
Si Si4 0.035464 0.738725 0.825081
Si Si5 0.086239 0.526337 0.300065
Si Si6 0.451034 0.326390 0.422436
O O1 0.619933 0.408546 0.433721
O O2 0.657540 0.617347 0.517894
O O3 0.274235 0.271787 0.809926
O O4 0.048008 0.391424 0.740760
O O5 0.493491 0.882664 0.376652
O O6 0.750000 0.000000 0.423625
O O7 0.500000 0.000000 0.500000
O O8 0.489887 0.162991 0.410040
O O9 0.967371 0.750000 0.750000
O O10 0.990717 0.898487 0.841919
O O11 0.250000 0.500000 0.261126
O O12 0.139662 0.631866 0.356773
#
# Coordination Sequence:
#
# PCOD9412697 Si02
#       6
#     4   4   8   8   8   8
#     4  10  24  44  72 108 154 214 260 334 406 502
#     4  10  26  46  80 104 148 218 276 334 406 516
#     4  12  28  47  78 119 160 208 272 343 417 497
#     4  10  28  50  77 110 157 212 279 330 416 506
#     4  12  27  46  74 112 154 201 271 347 418 481
#     4  11  25  44  74 106 155 204 270 324 417 495
#
# _framework density 24.892230999999999
#
# number of rings (size 3 to 8) (size 9 to 14) (size 15 to 20)
#    0.600    0.400    1.000    3.000   18.200    1.600 
#    0.000    1.000    0.000    0.000    0.000    0.000 
#    0.000    0.000    0.000    0.000    0.000    0.000 
#
# Total GULP energy -223346.723882 kJ/mol
# GULP energy per Si atom -5583.668097 kJ/mol
# Density = 2.483558 g / cm^3
# Si number density = 24.892231 Si / 1000 Ang^3
#
#
#
# Elastic Constant Matrix: (Units=GPa)
#
#
# Indices 1 2 3 4 5 6 
#
# 1 108.8523 71.0164 31.0507 0.0000 0.0000 0.0000
# 2 71.0164 208.9935 66.2322 0.0000 0.0000 0.0000
# 3 31.0507 66.2322 98.9855 0.0000 0.0000 0.0000
# 4 0.0000 0.0000 0.0000 34.3658 0.0000 0.0000
# 5 0.0000 0.0000 0.0000 0.0000 -0.8722 0.0000
# 6 0.0000 0.0000 0.0000 0.0000 0.0000 55.0754
#
#
#
# Elastic Compliance Matrix: (Units=1/GPa)
#
#
# Indices 1 2 3 4 5 6 
#
# 1 0.011935 -0.003641 -0.001308 0.000000 0.000000 0.000000
# 2 -0.003641 0.007183 -0.003664 0.000000 0.000000 0.000000
# 3 -0.001308 -0.003664 0.012964 0.000000 0.000000 0.000000
# 4 0.000000 0.000000 0.000000 0.029099 0.000000 0.000000
# 5 0.000000 0.000000 0.000000 0.000000 -1.146498 0.000000
# 6 0.000000 0.000000 0.000000 0.000000 0.000000 0.018157
#
#
# Mechanical properties :
#
#
# Convention : Reuss Voigt Hill
#
# Bulk Modulus (GPa) = 67.30838 83.71444 75.51141
# Shear Modulus (GPa) = -4.78478 34.28259 14.74891
#
# Velocity S-wave (km/s) = -1.38794 3.71515 2.43679
# Velocity P-wave (km/s) = 4.95279 7.21851 6.19019
#
# Compressibility (1/GPa) = 0.01485699
#
# Stress axis : x y z
#
# Youngs Moduli (GPa) = 83.78464 139.21007 77.13402
#
# Poissons Ratio (x) = 0.50690 0.10086
# Poissons Ratio (y) = 0.30508 0.28264
# Poissons Ratio (z) = 0.10955 0.51010
#
# Static dielectric constant tensor:
#      x y z
#    x 3.366830 0.000000 0.000000 
#    y 0.000000 0.308550 0.000000 
#    z 0.000000 0.000000 0.499370 
# 
# From -- ./inp_files/39254.got.cif
#   From: 2010.05.17/outbox.cif.g08.bks.cpg/sg52_20_cif.got.tgz:39254.got - 2010.06.03 12:15:38.
