data_PCOD9412061
_publ_section_title
;
Structure prediction by ZEFSAII (Michael W. Deem and Ramdas Pophale) SiO2 
 PCOD9412061
Probable space group: P N N A
;
_chemical_formula_sum "Si O2"
_cell_formula_units_Z 24
_cell_length_a 9.130755
_cell_length_b 10.950091
_cell_length_c 9.162246
_cell_angle_alpha 90.000000
_cell_angle_beta 90.000000
_cell_angle_gamma 90.000000
_cell_volume 916.065160
_symmetry_space_group_name_H-M "P N N A"
_symmetry_group_IT_number 52
_symmetry_cell_setting 'orthorhombic'
loop_
_space_group_symop_operation_xyz
x,y,z
1/2-x,-y,z
x,1/2-y,1/2-z
1/2-x,1/2+y,1/2-z
-x,-y,-z
1/2+x,y,-z
-x,1/2+y,1/2+z
1/2+x,1/2-y,1/2+z
loop_
_atom_site_type_symbol
_atom_site_label
_atom_site_fract_x
_atom_site_fract_y
_atom_site_fract_z
Si Si1 0.078094 0.601296 0.400788
Si Si2 0.658784 0.118711 0.324897
Si Si3 0.870221 0.756981 0.914873
O O1 0.004117 0.593708 0.241576
O O2 0.005467 0.716622 0.480655
O O3 0.000000 0.500000 0.500000
O O4 0.248303 0.634557 0.407191
O O5 0.704454 0.250000 0.250000
O O6 0.686420 0.139346 0.497173
O O7 0.750000 0.000000 0.275346
O O8 0.919679 0.750000 0.750000
#
# Coordination Sequence:
#
# PCOD9412061 Si02
#       3
#     8   8   8
#     4  11  23  43  67  95 134 180 227 283 347 413
#     4  10  22  43  69  99 137 182 231 286 351 420
#     4  11  24  42  64  98 135 176 225 283 343 413
#
# _framework density 26.199013000000001
#
# number of rings (size 3 to 8) (size 9 to 14) (size 15 to 20)
#    0.000    1.333    0.000    8.000    0.000    9.333 
#    0.000   13.333    0.000    0.000    0.000    0.000 
#    0.000    0.000    0.000    0.000    0.000    0.000 
#
# Total GULP energy -133806.613375 kJ/mol
# GULP energy per Si atom -5575.275557 kJ/mol
# Density = 2.613938 g / cm^3
# Si number density = 26.199013 Si / 1000 Ang^3
#
#
#
# Elastic Constant Matrix: (Units=GPa)
#
#
# Indices 1 2 3 4 5 6 
#
# 1 85.0589 -29.6242 3.1138 0.0000 0.0000 0.0000
# 2 -29.6242 74.5184 -1.0302 0.0000 0.0000 0.0000
# 3 3.1138 -1.0302 165.6284 0.0000 0.0000 0.0000
# 4 0.0000 0.0000 0.0000 31.8418 0.0000 0.0000
# 5 0.0000 0.0000 0.0000 0.0000 24.7241 0.0000
# 6 0.0000 0.0000 0.0000 0.0000 0.0000 8.1978
#
#
#
# Elastic Compliance Matrix: (Units=1/GPa)
#
#
# Indices 1 2 3 4 5 6 
#
# 1 0.013654 0.005425 -0.000223 0.000000 0.000000 0.000000
# 2 0.005425 0.015576 -0.000005 0.000000 0.000000 0.000000
# 3 -0.000223 -0.000005 0.006042 0.000000 0.000000 0.000000
# 4 0.000000 0.000000 0.000000 0.031405 0.000000 0.000000
# 5 0.000000 0.000000 0.000000 0.000000 0.040446 0.000000
# 6 0.000000 0.000000 0.000000 0.000000 0.000000 0.121985
#
#
# Mechanical properties :
#
#
# Convention : Reuss Voigt Hill
#
# Bulk Modulus (GPa) = 21.89817 30.01383 25.95600
# Shear Modulus (GPa) = 21.37335 36.46916 28.92125
#
# Velocity S-wave (km/s) = 2.85933 3.73501 3.32611
# Velocity P-wave (km/s) = 4.39062 5.48464 4.96784
#
# Compressibility (1/GPa) = 0.04566592
#
# Stress axis : x y z
#
# Youngs Moduli (GPa) = 73.23791 64.20087 165.51436
#
# Poissons Ratio (x) = -0.34829 0.03690
# Poissons Ratio (y) = -0.39732 0.00085
# Poissons Ratio (z) = 0.01633 0.00033
#
# Static dielectric constant tensor:
#      x y z
#    x 2.241770 0.000000 0.000000 
#    y 0.000000 2.545160 0.000000 
#    z 0.000000 0.000000 2.069900 
# 
# From -- ./inp_files/7969.got.cif
#   From: 2010.05.17/outbox.cif.g08.bks.cpg/sg52_4_cif.got.tgz:7969.got - 2010.06.03 12:15:38.
