data_PCOD9412891
_publ_section_title
;
Structure prediction by ZEFSAII (Michael W. Deem and Ramdas Pophale) SiO2 
 PCOD9412891
Probable space group: P N N A
;
_chemical_formula_sum "Si O2"
_cell_formula_units_Z 40
_cell_length_a 8.792951
_cell_length_b 11.267695
_cell_length_c 19.115913
_cell_angle_alpha 90.000000
_cell_angle_beta 90.000000
_cell_angle_gamma 90.000000
_cell_volume 1893.933740
_symmetry_space_group_name_H-M "P N N A"
_symmetry_group_IT_number 52
_symmetry_cell_setting 'orthorhombic'
loop_
_space_group_symop_operation_xyz
x,y,z
1/2-x,-y,z
x,1/2-y,1/2-z
1/2-x,1/2+y,1/2-z
-x,-y,-z
1/2+x,y,-z
-x,1/2+y,1/2+z
1/2+x,1/2-y,1/2+z
loop_
_atom_site_type_symbol
_atom_site_label
_atom_site_fract_x
_atom_site_fract_y
_atom_site_fract_z
Si Si1 0.669200 0.123657 0.629226
Si Si2 0.597880 0.570985 0.057551
Si Si3 0.922197 0.057288 0.857855
Si Si4 0.250000 0.500000 0.595229
Si Si5 0.151759 0.750000 0.250000
Si Si6 0.708394 0.697577 0.516362
O O1 0.494194 0.088738 0.628884
O O2 0.743086 0.171777 0.699139
O O3 0.689345 0.227325 0.571365
O O4 0.750000 0.000000 0.608548
O O5 0.750000 0.500000 0.069552
O O6 0.500000 0.500000 0.000000
O O7 0.626784 0.697794 0.024233
O O8 0.939576 0.159898 0.799530
O O9 0.894383 0.117360 0.933290
O O10 0.750000 0.000000 0.844252
O O11 0.085441 0.988706 0.864217
O O12 0.228361 0.388081 0.543265
#
# Coordination Sequence:
#
# PCOD9412891 Si02
#       6
#     8   8   8   4   4   8
#     4  11  22  43  68  93 135 180 228 285 335 423
#     4  12  22  37  66 105 137 170 220 284 358 415
#     4  11  25  45  69  98 139 186 227 289 338 420
#     4  12  26  40  72 112 142 170 232 286 368 422
#     4  10  26  44  72  86 132 192 248 270 344 402
#     4  11  22  39  67 106 143 169 218 287 360 426
#
# _framework density 21.120062999999998
#
# number of rings (size 3 to 8) (size 9 to 14) (size 15 to 20)
#    0.000    0.800    5.000    2.400    5.600    0.000 
#    0.000    1.000   13.200    0.000    0.000    0.000 
#    0.000    0.000    0.000    0.000    0.000    0.000 
#
# Total GULP energy -222922.721304 kJ/mol
# GULP energy per Si atom -5573.068033 kJ/mol
# Density = 2.107199 g / cm^3
# Si number density = 21.120063 Si / 1000 Ang^3
#
#
#
# Elastic Constant Matrix: (Units=GPa)
#
#
# Indices 1 2 3 4 5 6 
#
# 1 142.0912 30.4741 33.4415 0.0000 0.0000 0.0000
# 2 30.4741 79.5644 9.2797 0.0000 0.0000 0.0000
# 3 33.4415 9.2797 64.8125 0.0000 0.0000 0.0000
# 4 0.0000 0.0000 0.0000 23.6473 0.0000 0.0000
# 5 0.0000 0.0000 0.0000 0.0000 -20.4704 0.0000
# 6 0.0000 0.0000 0.0000 0.0000 0.0000 28.4919
#
#
#
# Elastic Compliance Matrix: (Units=1/GPa)
#
#
# Indices 1 2 3 4 5 6 
#
# 1 0.008591 -0.002821 -0.004029 0.000000 0.000000 0.000000
# 2 -0.002821 0.013708 -0.000507 0.000000 0.000000 0.000000
# 3 -0.004029 -0.000507 0.017581 0.000000 0.000000 0.000000
# 4 0.000000 0.000000 0.000000 0.042288 0.000000 0.000000
# 5 0.000000 0.000000 0.000000 0.000000 -0.048851 0.000000
# 6 0.000000 0.000000 0.000000 0.000000 0.000000 0.035098
#
#
# Mechanical properties :
#
#
# Convention : Reuss Voigt Hill
#
# Bulk Modulus (GPa) = 39.73630 48.09542 43.91586
# Shear Modulus (GPa) = 54.63518 20.55193 37.59356
#
# Velocity S-wave (km/s) = 5.09166 3.12284 4.22357
# Velocity P-wave (km/s) = 7.30904 5.98537 6.68007
#
# Compressibility (1/GPa) = 0.02516591
#
# Stress axis : x y z
#
# Youngs Moduli (GPa) = 116.40317 72.95060 56.88113
#
# Poissons Ratio (x) = 0.20576 0.22916
# Poissons Ratio (y) = 0.32832 0.02886
# Poissons Ratio (z) = 0.46897 0.03701
#
# Static dielectric constant tensor:
#      x y z
#    x 1.404840 0.000000 0.000000 
#    y 0.000000 1.779200 0.000000 
#    z 0.000000 0.000000 1.759280 
# 
# From -- ./inp_files/35801.got.cif
#   From: 2010.05.17/outbox.cif.g08.bks.cpg/sg52_18_cif.got.tgz:35801.got - 2010.06.03 12:15:38.
