data_PCOD9412882
_publ_section_title
;
Structure prediction by ZEFSAII (Michael W. Deem and Ramdas Pophale) SiO2 
 PCOD9412882
Probable space group: P N N A
;
_chemical_formula_sum "Si O2"
_cell_formula_units_Z 32
_cell_length_a 14.984961
_cell_length_b 5.311183
_cell_length_c 16.280062
_cell_angle_alpha 90.000000
_cell_angle_beta 90.000000
_cell_angle_gamma 90.000000
_cell_volume 1295.695460
_symmetry_space_group_name_H-M "P N N A"
_symmetry_group_IT_number 52
_symmetry_cell_setting 'orthorhombic'
loop_
_space_group_symop_operation_xyz
x,y,z
1/2-x,-y,z
x,1/2-y,1/2-z
1/2-x,1/2+y,1/2-z
-x,-y,-z
1/2+x,y,-z
-x,1/2+y,1/2+z
1/2+x,1/2-y,1/2+z
loop_
_atom_site_type_symbol
_atom_site_label
_atom_site_fract_x
_atom_site_fract_y
_atom_site_fract_z
Si Si1 0.143090 0.501384 0.704511
Si Si2 0.895533 0.559182 0.900422
Si Si3 0.750000 0.500000 0.612674
Si Si4 0.931326 0.307604 0.460776
Si Si5 0.867707 0.250000 0.750000
O O1 0.250000 0.500000 0.712706
O O2 0.109491 0.750000 0.750000
O O3 0.121843 0.541572 0.608824
O O4 0.108792 0.250000 0.750000
O O5 0.822915 0.784147 0.918893
O O6 0.904589 0.482933 0.803749
O O7 0.999048 0.618563 0.919102
O O8 0.875974 0.339227 0.969188
O O9 0.811012 0.351345 0.675706
O O10 0.000000 0.500000 0.500000
#
# Coordination Sequence:
#
# PCOD9412882 Si02
#       5
#     8   8   4   8   4
#     4  10  25  53  82 109 148 206 267 325 395 469
#     4  11  26  46  74 110 164 207 261 326 410 489
#     4  12  22  46  70 112 156 212 262 316 402 488
#     4  11  27  51  74 116 157 201 263 335 408 479
#     4  12  22  46  70 110 158 210 256 310 390 498
#
# _framework density 24.69716
#
# number of rings (size 3 to 8) (size 9 to 14) (size 15 to 20)
#    0.000    1.000    2.500    1.500    7.000    4.000 
#   15.750    0.000    0.000    0.000    0.000    0.000 
#    0.000    0.000    0.000    0.000    0.000    0.000 
#
# Total GULP energy -178144.114164 kJ/mol
# GULP energy per Si atom -5567.003568 kJ/mol
# Density = 2.464095 g / cm^3
# Si number density = 24.697160 Si / 1000 Ang^3
#
#
#
# Elastic Constant Matrix: (Units=GPa)
#
#
# Indices 1 2 3 4 5 6 
#
# 1 64.5774 41.5060 49.2474 0.0000 0.0000 0.0000
# 2 41.5060 149.3479 76.7274 0.0000 0.0000 0.0000
# 3 49.2474 76.7274 150.6114 0.0000 0.0000 0.0000
# 4 0.0000 0.0000 0.0000 53.5759 0.0000 0.0000
# 5 0.0000 0.0000 0.0000 0.0000 14.3560 0.0000
# 6 0.0000 0.0000 0.0000 0.0000 0.0000 61.4180
#
#
#
# Elastic Compliance Matrix: (Units=1/GPa)
#
#
# Indices 1 2 3 4 5 6 
#
# 1 0.021725 -0.003235 -0.005456 0.000000 0.000000 0.000000
# 2 -0.003235 0.009551 -0.003808 0.000000 0.000000 0.000000
# 3 -0.005456 -0.003808 0.010364 0.000000 0.000000 0.000000
# 4 0.000000 0.000000 0.000000 0.018665 0.000000 0.000000
# 5 0.000000 0.000000 0.000000 0.000000 0.069657 0.000000
# 6 0.000000 0.000000 0.000000 0.000000 0.000000 0.016282
#
#
# Mechanical properties :
#
#
# Convention : Reuss Voigt Hill
#
# Bulk Modulus (GPa) = 60.08710 77.72203 68.90457
# Shear Modulus (GPa) = 28.28233 39.00704 33.64468
#
# Velocity S-wave (km/s) = 3.38770 3.97850 3.69492
# Velocity P-wave (km/s) = 6.29956 7.25554 6.79438
#
# Compressibility (1/GPa) = 0.01664251
#
# Stress axis : x y z
#
# Youngs Moduli (GPa) = 46.02978 104.69971 96.49245
#
# Poissons Ratio (x) = 0.33868 0.52644
# Poissons Ratio (y) = 0.14890 0.36744
# Poissons Ratio (z) = 0.25113 0.39870
#
# Static dielectric constant tensor:
#      x y z
#    x 2.030170 0.000000 0.000000 
#    y 0.000000 202.557760 0.000000 
#    z 0.000000 0.000000 1.960560 
# 
# From -- ./inp_files/32636.got.cif
#   From: 2010.05.17/outbox.cif.g08.bks.cpg/sg52_17_cif.got.tgz:32636.got - 2010.06.03 12:15:38.
