data_PCOD9412293
_publ_section_title
;
Structure prediction by ZEFSAII (Michael W. Deem and Ramdas Pophale) SiO2 
 PCOD9412293
Probable space group: P N N A
;
_chemical_formula_sum "Si O2"
_cell_formula_units_Z 48
_cell_length_a 14.240006
_cell_length_b 25.381192
_cell_length_c 4.950409
_cell_angle_alpha 90.000000
_cell_angle_beta 90.000000
_cell_angle_gamma 90.000000
_cell_volume 1789.218040
_symmetry_space_group_name_H-M "P N N A"
_symmetry_group_IT_number 52
_symmetry_cell_setting 'orthorhombic'
loop_
_space_group_symop_operation_xyz
x,y,z
1/2-x,-y,z
x,1/2-y,1/2-z
1/2-x,1/2+y,1/2-z
-x,-y,-z
1/2+x,y,-z
-x,1/2+y,1/2+z
1/2+x,1/2-y,1/2+z
loop_
_atom_site_type_symbol
_atom_site_label
_atom_site_fract_x
_atom_site_fract_y
_atom_site_fract_z
Si Si1 0.328087 0.300756 0.060937
Si Si2 0.376886 0.784805 0.517176
Si Si3 0.679423 0.452009 0.173067
Si Si4 0.015851 0.859964 0.731474
Si Si5 0.773229 0.090646 0.843305
Si Si6 0.526691 0.572055 0.743731
O O1 0.346912 0.250000 0.250000
O O2 0.230082 0.294514 0.907772
O O3 0.308966 0.352063 0.248847
O O4 0.407946 0.315417 0.844287
O O5 0.376419 0.750000 0.250000
O O6 0.424521 0.838024 0.418747
O O7 0.424453 0.750000 0.750000
O O8 0.750000 0.500000 0.222137
O O9 0.721215 0.407786 0.373098
O O10 0.569671 0.460702 0.240525
O O11 0.700444 0.433741 0.869273
O O12 0.043983 0.910056 0.551992
O O13 0.004996 0.879107 0.036368
O O14 0.869022 0.055399 0.847910
#
# Coordination Sequence:
#
# PCOD9412293 Si02
#       6
#     8   8   8   8   8   8
#     4  10  23  41  65  96 134 181 232 282 339 404
#     4  11  23  36  56  87 124 171 227 280 325 385
#     4  12  26  46  74 104 138 181 230 290 358 421
#     4  11  23  41  64  92 135 180 221 274 335 402
#     4  11  25  45  69 101 140 180 229 287 344 414
#     4  11  24  43  69  99 134 177 221 278 343 408
#
# _framework density 26.827363999999999
#
# number of rings (size 3 to 8) (size 9 to 14) (size 15 to 20)
#    0.000    1.000    0.000    7.000    0.000   12.667 
#    0.000    0.000    0.000    0.000    0.000    0.000 
#    0.000    0.000    0.000    0.000    0.000    0.000 
#
# Total GULP energy -268825.474576 kJ/mol
# GULP energy per Si atom -5600.530720 kJ/mol
# Density = 2.676630 g / cm^3
# Si number density = 26.827364 Si / 1000 Ang^3
#
#
#
# Elastic Constant Matrix: (Units=GPa)
#
#
# Indices 1 2 3 4 5 6 
#
# 1 130.9629 0.5405 23.4977 0.0000 0.0000 0.0000
# 2 0.5405 81.5445 33.1916 0.0000 0.0000 0.0000
# 3 23.4977 33.1916 103.7256 0.0000 0.0000 0.0000
# 4 0.0000 0.0000 0.0000 25.5904 0.0000 0.0000
# 5 0.0000 0.0000 0.0000 0.0000 40.5353 0.0000
# 6 0.0000 0.0000 0.0000 0.0000 0.0000 45.5511
#
#
#
# Elastic Compliance Matrix: (Units=1/GPa)
#
#
# Indices 1 2 3 4 5 6 
#
# 1 0.008003 0.000787 -0.002065 0.000000 0.000000 0.000000
# 2 0.000787 0.014177 -0.004715 0.000000 0.000000 0.000000
# 3 -0.002065 -0.004715 0.011617 0.000000 0.000000 0.000000
# 4 0.000000 0.000000 0.000000 0.039077 0.000000 0.000000
# 5 0.000000 0.000000 0.000000 0.000000 0.024670 0.000000
# 6 0.000000 0.000000 0.000000 0.000000 0.000000 0.021953
#
#
# Mechanical properties :
#
#
# Convention : Reuss Voigt Hill
#
# Bulk Modulus (GPa) = 45.84512 47.85474 46.84993
# Shear Modulus (GPa) = 36.03502 39.60223 37.81862
#
# Velocity S-wave (km/s) = 3.66897 3.84629 3.75867
# Velocity P-wave (km/s) = 5.92237 6.13205 6.02812
#
# Compressibility (1/GPa) = 0.02181257
#
# Stress axis : x y z
#
# Youngs Moduli (GPa) = 124.95313 70.53575 86.07778
#
# Poissons Ratio (x) = -0.05555 0.17775
# Poissons Ratio (y) = -0.09840 0.40586
# Poissons Ratio (z) = 0.25802 0.33258
#
# Static dielectric constant tensor:
#      x y z
#    x 2.132890 0.000000 0.000000 
#    y 0.000000 2.266370 0.000000 
#    z 0.000000 0.000000 2.015010 
# 
# From -- ./inp_files/2463.got.cif
#   From: 2010.05.17/outbox.cif.g08.bks.cpg/sg52_2_cif.got.tgz:2463.got - 2010.06.03 12:15:38.
