data_PCOD9413642
_publ_section_title
;
Structure prediction by ZEFSAII (Michael W. Deem and Ramdas Pophale) SiO2 
 PCOD9413642
Probable space group: P N N A
;
_chemical_formula_sum "Si O2"
_cell_formula_units_Z 20
_cell_length_a 5.333369
_cell_length_b 4.894676
_cell_length_c 25.066963
_cell_angle_alpha 90.000000
_cell_angle_beta 90.000000
_cell_angle_gamma 90.000000
_cell_volume 654.375908
_symmetry_space_group_name_H-M "P N N A"
_symmetry_group_IT_number 52
_symmetry_cell_setting 'orthorhombic'
loop_
_space_group_symop_operation_xyz
x,y,z
1/2-x,-y,z
x,1/2-y,1/2-z
1/2-x,1/2+y,1/2-z
-x,-y,-z
1/2+x,y,-z
-x,1/2+y,1/2+z
1/2+x,1/2-y,1/2+z
loop_
_atom_site_type_symbol
_atom_site_label
_atom_site_fract_x
_atom_site_fract_y
_atom_site_fract_z
Si Si1 0.250000 0.000000 0.982999
Si Si2 0.437273 0.249468 0.306276
Si Si3 0.031792 0.393397 0.922273
O O1 0.330929 0.294274 0.941667
O O2 0.454938 0.153692 0.030835
O O3 0.250000 0.500000 0.313661
O O4 0.584464 0.250000 0.250000
O O5 0.579751 0.213818 0.361414
O O6 0.250000 0.000000 0.299166
O O7 0.750000 0.500000 0.916572
#
# Coordination Sequence:
#
# PCOD9413642 Si02
#       3
#     4   8   8
#     4  12  28  46  74 106 140 194 252 314 378 442
#     4   9  20  41  71 108 149 194 242 297 368 447
#     4  11  26  46  72 105 146 192 243 312 375 450
#
# _framework density 30.563472999999998
#
# number of rings (size 3 to 8) (size 9 to 14) (size 15 to 20)
#    0.000    1.600    0.000    2.400   14.000    4.800 
#    3.600    2.000    0.000    0.000    0.000    0.000 
#    0.000    0.000    0.000    0.000    0.000    0.000 
#
# Total GULP energy -111496.977539 kJ/mol
# GULP energy per Si atom -5574.848877 kJ/mol
# Density = 3.049391 g / cm^3
# Si number density = 30.563473 Si / 1000 Ang^3
#
#
#
# Elastic Constant Matrix: (Units=GPa)
#
#
# Indices 1 2 3 4 5 6 
#
# 1 277.6376 63.3436 84.3458 0.0000 0.0000 0.0000
# 2 63.3436 177.9407 102.4668 0.0000 0.0000 0.0000
# 3 84.3458 102.4668 384.9248 0.0000 0.0000 0.0000
# 4 0.0000 0.0000 0.0000 28.7162 0.0000 0.0000
# 5 0.0000 0.0000 0.0000 0.0000 -0.8267 0.0000
# 6 0.0000 0.0000 0.0000 0.0000 0.0000 108.6568
#
#
#
# Elastic Compliance Matrix: (Units=1/GPa)
#
#
# Indices 1 2 3 4 5 6 
#
# 1 0.004031 -0.001094 -0.000592 0.000000 0.000000 0.000000
# 2 -0.001094 0.006934 -0.001606 0.000000 0.000000 0.000000
# 3 -0.000592 -0.001606 0.003155 0.000000 0.000000 0.000000
# 4 0.000000 0.000000 0.000000 0.034824 0.000000 0.000000
# 5 0.000000 0.000000 0.000000 0.000000 -1.209646 0.000000
# 6 0.000000 0.000000 0.000000 0.000000 0.000000 0.009203
#
#
# Mechanical properties :
#
#
# Convention : Reuss Voigt Hill
#
# Bulk Modulus (GPa) = 132.69570 148.97949 140.83759
# Shear Modulus (GPa) = -4.37675 66.66573 31.14449
#
# Velocity S-wave (km/s) = -1.19797 4.67542 3.19566
# Velocity P-wave (km/s) = 6.44959 8.83155 7.73283
#
# Compressibility (1/GPa) = 0.00753604
#
# Stress axis : x y z
#
# Youngs Moduli (GPa) = 248.05758 144.21212 316.93638
#
# Poissons Ratio (x) = 0.15778 0.18766
# Poissons Ratio (y) = 0.27140 0.50905
# Poissons Ratio (z) = 0.14688 0.23163
#
# Static dielectric constant tensor:
#      x y z
#    x 2.383080 0.000000 0.000000 
#    y 0.000000 2.654220 0.000000 
#    z 0.000000 0.000000 2.416400 
# 
# From -- ./inp_files/38986.got.cif
#   From: 2010.05.17/outbox.cif.g08.bks.cpg/sg52_20_cif.got.tgz:38986.got - 2010.06.03 12:15:38.
