data_PCOD9413620
_publ_section_title
;
Structure prediction by ZEFSAII (Michael W. Deem and Ramdas Pophale) SiO2 
 PCOD9413620
Probable space group: P N N A
;
_chemical_formula_sum "Si O2"
_cell_formula_units_Z 60
_cell_length_a 17.633571
_cell_length_b 8.684949
_cell_length_c 17.483588
_cell_angle_alpha 90.000000
_cell_angle_beta 90.000000
_cell_angle_gamma 90.000000
_cell_volume 2677.553191
_symmetry_space_group_name_H-M "P N N A"
_symmetry_group_IT_number 52
_symmetry_cell_setting 'orthorhombic'
loop_
_space_group_symop_operation_xyz
x,y,z
1/2-x,-y,z
x,1/2-y,1/2-z
1/2-x,1/2+y,1/2-z
-x,-y,-z
1/2+x,y,-z
-x,1/2+y,1/2+z
1/2+x,1/2-y,1/2+z
loop_
_atom_site_type_symbol
_atom_site_label
_atom_site_fract_x
_atom_site_fract_y
_atom_site_fract_z
Si Si1 0.122161 0.196933 0.623506
Si Si2 0.185310 0.280999 0.470016
Si Si3 0.159058 0.014506 0.771061
Si Si4 0.533611 0.635189 0.948517
Si Si5 0.142178 0.622278 0.457598
Si Si6 0.043908 0.750000 0.750000
Si Si7 0.095548 0.107261 0.339513
Si Si8 0.172567 0.916425 0.209008
O O1 0.167246 0.179441 0.544257
O O2 0.138313 0.063956 0.684472
O O3 0.142021 0.350585 0.669351
O O4 0.035228 0.203559 0.599145
O O5 0.150617 0.449918 0.488028
O O6 0.275128 0.299699 0.461657
O O7 0.145251 0.219196 0.393137
O O8 0.250000 0.000000 0.774204
O O9 0.102383 0.872998 0.786653
O O10 0.579069 0.767123 0.992631
O O11 0.587220 0.545296 0.890515
O O12 0.500000 0.500000 0.000000
O O13 0.123906 0.608392 0.367188
O O14 0.985299 0.823688 0.687737
O O15 0.136301 0.043259 0.264424
O O16 0.183881 0.750000 0.250000
O O17 0.250000 0.000000 0.183171
#
# Coordination Sequence:
#
# PCOD9413620 Si02
#       8
#     8   8   8   8   8   4   8   8
#     4  11  26  48  74  98 147 181 240 309 370 427
#     4  11  25  49  70 113 145 194 243 298 366 446
#     4  11  27  51  75 106 134 188 246 310 379 430
#     4  12  26  48  68 104 146 195 241 297 367 436
#     4  11  26  44  72 106 149 194 244 289 370 435
#     4  12  26  44  76 108 144 182 250 306 364 448
#     4  12  26  42  72 109 147 195 239 292 359 438
#     4  12  24  42  70 108 157 201 241 294 350 438
#
# _framework density 22.408518999999998
#
# number of rings (size 3 to 8) (size 9 to 14) (size 15 to 20)
#    0.000    0.533    5.333    2.400    6.533    2.667 
#    0.000    0.000    0.000    0.000    0.000    0.000 
#    0.000    0.000    0.000    0.000    0.000    0.000 
#
# Total GULP energy -335496.011060 kJ/mol
# GULP energy per Si atom -5591.600184 kJ/mol
# Density = 2.235752 g / cm^3
# Si number density = 22.408519 Si / 1000 Ang^3
#
#
#
# Elastic Constant Matrix: (Units=GPa)
#
#
# Indices 1 2 3 4 5 6 
#
# 1 110.3748 59.9841 6.1513 0.0000 0.0000 0.0000
# 2 59.9841 79.1031 15.6575 0.0000 0.0000 0.0000
# 3 6.1513 15.6575 72.1132 0.0000 0.0000 0.0000
# 4 0.0000 0.0000 0.0000 26.9653 0.0000 0.0000
# 5 0.0000 0.0000 0.0000 0.0000 13.7438 0.0000
# 6 0.0000 0.0000 0.0000 0.0000 0.0000 42.3271
#
#
#
# Elastic Compliance Matrix: (Units=1/GPa)
#
#
# Indices 1 2 3 4 5 6 
#
# 1 0.015524 -0.012027 0.001287 0.000000 0.000000 0.000000
# 2 -0.012027 0.022527 -0.003865 0.000000 0.000000 0.000000
# 3 0.001287 -0.003865 0.014597 0.000000 0.000000 0.000000
# 4 0.000000 0.000000 0.000000 0.037085 0.000000 0.000000
# 5 0.000000 0.000000 0.000000 0.000000 0.072760 0.000000
# 6 0.000000 0.000000 0.000000 0.000000 0.000000 0.023626
#
#
# Mechanical properties :
#
#
# Convention : Reuss Voigt Hill
#
# Bulk Modulus (GPa) = 42.66638 47.24189 44.95413
# Shear Modulus (GPa) = 22.40733 28.59379 25.50056
#
# Velocity S-wave (km/s) = 3.16562 3.57602 3.37706
# Velocity P-wave (km/s) = 5.69589 6.17887 5.94229
#
# Compressibility (1/GPa) = 0.02343766
#
# Stress axis : x y z
#
# Youngs Moduli (GPa) = 64.41432 44.39128 68.50939
#
# Poissons Ratio (x) = 0.53390 -0.08818
# Poissons Ratio (y) = 0.77471 0.26481
# Poissons Ratio (z) = -0.08291 0.17158
#
# Static dielectric constant tensor:
#      x y z
#    x 1.845280 0.000000 0.000000 
#    y 0.000000 1.845360 0.000000 
#    z 0.000000 0.000000 1.909930 
# 
# From -- ./inp_files/33766.got.cif
#   From: 2010.05.17/outbox.cif.g08.bks.cpg/sg52_17_cif.got.tgz:33766.got - 2010.06.03 12:15:38.
