data_PCOD9413132
_publ_section_title
;
Structure prediction by ZEFSAII (Michael W. Deem and Ramdas Pophale) SiO2 
 PCOD9413132
Probable space group: P N N A
;
_chemical_formula_sum "Si O2"
_cell_formula_units_Z 40
_cell_length_a 23.679488
_cell_length_b 10.079292
_cell_length_c 8.617670
_cell_angle_alpha 90.000000
_cell_angle_beta 90.000000
_cell_angle_gamma 90.000000
_cell_volume 2056.800619
_symmetry_space_group_name_H-M "P N N A"
_symmetry_group_IT_number 52
_symmetry_cell_setting 'orthorhombic'
loop_
_space_group_symop_operation_xyz
x,y,z
1/2-x,-y,z
x,1/2-y,1/2-z
1/2-x,1/2+y,1/2-z
-x,-y,-z
1/2+x,y,-z
-x,1/2+y,1/2+z
1/2+x,1/2-y,1/2+z
loop_
_atom_site_type_symbol
_atom_site_label
_atom_site_fract_x
_atom_site_fract_y
_atom_site_fract_z
Si Si1 0.632824 0.268123 0.938027
Si Si2 0.435068 0.991862 0.055029
Si Si3 0.939303 0.019772 0.573677
Si Si4 0.128945 0.744864 0.565316
Si Si5 0.755912 0.162648 0.591889
O O1 0.634590 0.250000 0.750000
O O2 0.601894 0.403126 0.981519
O O3 0.697971 0.283738 0.984767
O O4 0.594157 0.146789 0.991137
O O5 0.438629 0.009354 0.240676
O O6 0.391904 0.101419 0.990280
O O7 0.500000 0.000000 0.000000
O O8 0.915504 0.157469 0.514737
O O9 0.000000 0.000000 0.500000
O O10 0.125770 0.750000 0.750000
O O11 0.189724 0.797049 0.507987
O O12 0.762236 0.250000 0.750000
O O13 0.750000 0.000000 0.616108
#
# Coordination Sequence:
#
# PCOD9413132 Si02
#       5
#     8   8   8   8   8
#     4   9  21  39  64  93 125 161 213 273 332 395
#     4  11  23  42  66  99 130 171 220 272 337 401
#     4  11  21  40  68  95 129 172 215 275 334 397
#     4  12  26  43  62  95 137 178 220 270 325 395
#     4  11  23  44  72  98 125 169 225 275 337 403
#
# _framework density 19.447679000000001
#
# number of rings (size 3 to 8) (size 9 to 14) (size 15 to 20)
#    0.000    1.200    2.000    4.200    5.600    1.600 
#    3.600    3.000    0.000    0.000    0.000    0.000 
#    0.000    0.000    0.000    0.000    0.000    0.000 
#
# Total GULP energy -223258.906598 kJ/mol
# GULP energy per Si atom -5581.472665 kJ/mol
# Density = 1.940342 g / cm^3
# Si number density = 19.447679 Si / 1000 Ang^3
#
#
#
# Elastic Constant Matrix: (Units=GPa)
#
#
# Indices 1 2 3 4 5 6 
#
# 1 105.1876 -17.4680 8.9046 0.0000 0.0000 0.0000
# 2 -17.4680 62.0549 0.0535 0.0000 0.0000 0.0000
# 3 8.9046 0.0535 65.5710 0.0000 0.0000 0.0000
# 4 0.0000 0.0000 0.0000 15.2119 0.0000 0.0000
# 5 0.0000 0.0000 0.0000 0.0000 -13.6745 0.0000
# 6 0.0000 0.0000 0.0000 0.0000 0.0000 33.7585
#
#
#
# Elastic Compliance Matrix: (Units=1/GPa)
#
#
# Indices 1 2 3 4 5 6 
#
# 1 0.010095 0.002843 -0.001373 0.000000 0.000000 0.000000
# 2 0.002843 0.016915 -0.000400 0.000000 0.000000 0.000000
# 3 -0.001373 -0.000400 0.015437 0.000000 0.000000 0.000000
# 4 0.000000 0.000000 0.000000 0.065738 0.000000 0.000000
# 5 0.000000 0.000000 0.000000 0.000000 -0.073129 0.000000
# 6 0.000000 0.000000 0.000000 0.000000 0.000000 0.029622
#
#
# Mechanical properties :
#
#
# Convention : Reuss Voigt Hill
#
# Bulk Modulus (GPa) = 22.42775 23.97705 23.20240
# Shear Modulus (GPa) = 64.59771 23.14742 43.87256
#
# Velocity S-wave (km/s) = 5.76960 3.45373 4.75481
# Velocity P-wave (km/s) = 7.47942 5.31602 6.48852
#
# Compressibility (1/GPa) = 0.04458761
#
# Stress axis : x y z
#
# Youngs Moduli (GPa) = 99.05709 59.11785 64.77748
#
# Poissons Ratio (x) = -0.16807 0.08896
# Poissons Ratio (y) = -0.28161 0.02590
# Poissons Ratio (z) = 0.13603 0.02364
#
# Static dielectric constant tensor:
#      x y z
#    x 1.620810 0.000000 0.000000 
#    y 0.000000 1.697430 0.000000 
#    z 0.000000 0.000000 1.534530 
# 
# From -- ./inp_files/13946.got.cif
#   From: 2010.05.17/outbox.cif.g08.bks.cpg/sg52_7_cif.got.tgz:13946.got - 2010.06.03 12:15:38.
