data_PCOD9413651
_publ_section_title
;
Structure prediction by ZEFSAII (Michael W. Deem and Ramdas Pophale) SiO2 
 PCOD9413651
Probable space group: P N N A
;
_chemical_formula_sum "Si O2"
_cell_formula_units_Z 24
_cell_length_a 10.881305
_cell_length_b 9.651524
_cell_length_c 8.035096
_cell_angle_alpha 90.000000
_cell_angle_beta 90.000000
_cell_angle_gamma 90.000000
_cell_volume 843.855234
_symmetry_space_group_name_H-M "P N N A"
_symmetry_group_IT_number 52
_symmetry_cell_setting 'orthorhombic'
loop_
_space_group_symop_operation_xyz
x,y,z
1/2-x,-y,z
x,1/2-y,1/2-z
1/2-x,1/2+y,1/2-z
-x,-y,-z
1/2+x,y,-z
-x,1/2+y,1/2+z
1/2+x,1/2-y,1/2+z
loop_
_atom_site_type_symbol
_atom_site_label
_atom_site_fract_x
_atom_site_fract_y
_atom_site_fract_z
Si Si1 0.401605 0.436859 0.049900
Si Si2 0.625502 0.452675 0.579532
Si Si3 0.193036 0.181735 0.567423
O O1 0.250000 0.500000 0.970836
O O2 0.375284 0.478856 0.238439
O O3 0.557440 0.419225 0.058817
O O4 0.343713 0.298675 0.978098
O O5 0.750000 0.500000 0.487451
O O6 0.500000 0.500000 0.500000
O O7 0.638999 0.288311 0.571259
O O8 0.180010 0.250000 0.750000
#
# Coordination Sequence:
#
# PCOD9413651 Si02
#       3
#     8   8   8
#     4  11  26  49  76 115 159 213 268 329 405 481
#     4  12  28  50  81 115 161 207 268 330 406 472
#     4  11  26  47  77 113 158 207 268 327 400 482
#
# _framework density 28.440899000000002
#
# number of rings (size 3 to 8) (size 9 to 14) (size 15 to 20)
#    0.000    0.667    3.333    3.000   14.000    0.000 
#    0.000    0.000    0.000    0.000    0.000    0.000 
#    0.000    0.000    0.000    0.000    0.000    0.000 
#
# Total GULP energy -133716.601191 kJ/mol
# GULP energy per Si atom -5571.525050 kJ/mol
# Density = 2.837617 g / cm^3
# Si number density = 28.440899 Si / 1000 Ang^3
#
#
#
# Elastic Constant Matrix: (Units=GPa)
#
#
# Indices 1 2 3 4 5 6 
#
# 1 356.3785 116.7789 96.8857 0.0000 0.0000 0.0000
# 2 116.7789 95.9892 52.9170 0.0000 0.0000 0.0000
# 3 96.8857 52.9170 192.7125 0.0000 0.0000 0.0000
# 4 0.0000 0.0000 0.0000 51.7089 0.0000 0.0000
# 5 0.0000 0.0000 0.0000 0.0000 53.1442 0.0000
# 6 0.0000 0.0000 0.0000 0.0000 0.0000 74.9553
#
#
#
# Elastic Compliance Matrix: (Units=1/GPa)
#
#
# Indices 1 2 3 4 5 6 
#
# 1 0.004811 -0.005326 -0.000956 0.000000 0.000000 0.000000
# 2 -0.005326 0.018172 -0.002312 0.000000 0.000000 0.000000
# 3 -0.000956 -0.002312 0.006305 0.000000 0.000000 0.000000
# 4 0.000000 0.000000 0.000000 0.019339 0.000000 0.000000
# 5 0.000000 0.000000 0.000000 0.000000 0.018817 0.000000
# 6 0.000000 0.000000 0.000000 0.000000 0.000000 0.013341
#
#
# Mechanical properties :
#
#
# Convention : Reuss Voigt Hill
#
# Bulk Modulus (GPa) = 82.65228 130.91594 106.78411
# Shear Modulus (GPa) = 49.01597 61.19491 55.10544
#
# Velocity S-wave (km/s) = 4.15593 4.64362 4.40653
# Velocity P-wave (km/s) = 7.22171 8.65343 7.96978
#
# Compressibility (1/GPa) = 0.01209888
#
# Stress axis : x y z
#
# Youngs Moduli (GPa) = 207.84550 55.02925 158.60936
#
# Poissons Ratio (x) = 0.29309 0.15169
# Poissons Ratio (y) = 1.10700 0.36674
# Poissons Ratio (z) = 0.19878 0.12724
#
# Static dielectric constant tensor:
#      x y z
#    x 2.620900 0.000000 0.000000 
#    y 0.000000 2.864200 0.000000 
#    z 0.000000 0.000000 2.167420 
# 
# From -- ./inp_files/8025.got.cif
#   From: 2010.05.17/outbox.cif.g08.bks.cpg/sg52_5_cif.got.tgz:8025.got - 2010.06.03 12:15:38.
