data_PCOD9413616
_publ_section_title
;
Structure prediction by ZEFSAII (Michael W. Deem and Ramdas Pophale) SiO2 
 PCOD9413616
Probable space group: P N N A
;
_chemical_formula_sum "Si O2"
_cell_formula_units_Z 32
_cell_length_a 12.586174
_cell_length_b 11.050905
_cell_length_c 10.736139
_cell_angle_alpha 90.000000
_cell_angle_beta 90.000000
_cell_angle_gamma 90.000000
_cell_volume 1493.274684
_symmetry_space_group_name_H-M "P N N A"
_symmetry_group_IT_number 52
_symmetry_cell_setting 'orthorhombic'
loop_
_space_group_symop_operation_xyz
x,y,z
1/2-x,-y,z
x,1/2-y,1/2-z
1/2-x,1/2+y,1/2-z
-x,-y,-z
1/2+x,y,-z
-x,1/2+y,1/2+z
1/2+x,1/2-y,1/2+z
loop_
_atom_site_type_symbol
_atom_site_label
_atom_site_fract_x
_atom_site_fract_y
_atom_site_fract_z
Si Si1 0.624174 0.001745 0.642327
Si Si2 0.250000 0.500000 0.731225
Si Si3 0.652020 0.750000 0.250000
Si Si4 0.025030 0.070728 0.874671
Si Si5 0.015990 0.698950 0.978390
O O1 0.555212 0.968632 0.764780
O O2 0.591362 0.902872 0.538838
O O3 0.750000 0.000000 0.665432
O O4 0.581698 0.128882 0.586839
O O5 0.283493 0.370336 0.788904
O O6 0.144589 0.461329 0.660001
O O7 0.577675 0.770688 0.130096
O O8 0.016170 0.211394 0.911385
O O9 0.000000 0.000000 0.000000
#
# Coordination Sequence:
#
# PCOD9413616 Si02
#       5
#     8   4   4   8   8
#     4  11  27  46  75 110 151 196 254 316 382 455
#     4  12  28  44  78 106 150 196 252 306 376 456
#     4  12  26  48  76 108 152 200 250 314 374 462
#     4  12  26  48  71 107 144 195 250 309 382 453
#     4  11  25  48  71 109 149 195 251 311 383 453
#
# _framework density 21.429411999999999
#
# number of rings (size 3 to 8) (size 9 to 14) (size 15 to 20)
#    0.000    0.500    5.000    0.750   10.500    0.000 
#    9.000    0.000    0.000    0.000    0.000    0.000 
#    0.000    0.000    0.000    0.000    0.000    0.000 
#
# Total GULP energy -178769.155232 kJ/mol
# GULP energy per Si atom -5586.536101 kJ/mol
# Density = 2.138064 g / cm^3
# Si number density = 21.429412 Si / 1000 Ang^3
#
#
#
# Elastic Constant Matrix: (Units=GPa)
#
#
# Indices 1 2 3 4 5 6 
#
# 1 192.4633 45.1677 67.0879 0.0000 0.0000 0.0000
# 2 45.1677 128.5573 18.0543 0.0000 0.0000 0.0000
# 3 67.0879 18.0543 114.5327 0.0000 0.0000 0.0000
# 4 0.0000 0.0000 0.0000 38.3341 0.0000 0.0000
# 5 0.0000 0.0000 0.0000 0.0000 -54.3453 0.0000
# 6 0.0000 0.0000 0.0000 0.0000 0.0000 28.3147
#
#
#
# Elastic Compliance Matrix: (Units=1/GPa)
#
#
# Indices 1 2 3 4 5 6 
#
# 1 0.006961 -0.001916 -0.003776 0.000000 0.000000 0.000000
# 2 -0.001916 0.008482 -0.000215 0.000000 0.000000 0.000000
# 3 -0.003776 -0.000215 0.010977 0.000000 0.000000 0.000000
# 4 0.000000 0.000000 0.000000 0.026086 0.000000 0.000000
# 5 0.000000 0.000000 0.000000 0.000000 -0.018401 0.000000
# 6 0.000000 0.000000 0.000000 0.000000 0.000000 0.035317
#
#
# Mechanical properties :
#
#
# Convention : Reuss Voigt Hill
#
# Bulk Modulus (GPa) = 68.45852 77.35255 72.90553
# Shear Modulus (GPa) = 58.06884 22.81026 40.43955
#
# Velocity S-wave (km/s) = 5.21120 3.26611 4.34879
# Velocity P-wave (km/s) = 8.25979 7.09916 7.70137
#
# Compressibility (1/GPa) = 0.01460739
#
# Stress axis : x y z
#
# Youngs Moduli (GPa) = 143.64745 117.89874 91.10227
#
# Poissons Ratio (x) = 0.22585 0.34398
# Poissons Ratio (y) = 0.27517 0.01958
# Poissons Ratio (z) = 0.54238 0.02534
#
# Static dielectric constant tensor:
#      x y z
#    x 1.658030 0.000000 0.000000 
#    y 0.000000 1.870760 0.000000 
#    z 0.000000 0.000000 1.758020 
# 
# From -- ./inp_files/17701.got.cif
#   From: 2010.05.17/outbox.cif.g08.bks.cpg/sg52_9_cif.got.tgz:17701.got - 2010.06.03 12:15:38.
