data_PCOD9413163
_publ_section_title
;
Structure prediction by ZEFSAII (Michael W. Deem and Ramdas Pophale) SiO2 
 PCOD9413163
Probable space group: P N N A
;
_chemical_formula_sum "Si O2"
_cell_formula_units_Z 40
_cell_length_a 9.631011
_cell_length_b 12.924576
_cell_length_c 15.689772
_cell_angle_alpha 90.000000
_cell_angle_beta 90.000000
_cell_angle_gamma 90.000000
_cell_volume 1953.011570
_symmetry_space_group_name_H-M "P N N A"
_symmetry_group_IT_number 52
_symmetry_cell_setting 'orthorhombic'
loop_
_space_group_symop_operation_xyz
x,y,z
1/2-x,-y,z
x,1/2-y,1/2-z
1/2-x,1/2+y,1/2-z
-x,-y,-z
1/2+x,y,-z
-x,1/2+y,1/2+z
1/2+x,1/2-y,1/2+z
loop_
_atom_site_type_symbol
_atom_site_label
_atom_site_fract_x
_atom_site_fract_y
_atom_site_fract_z
Si Si1 0.589173 0.032538 0.416494
Si Si2 0.622148 0.419259 0.806247
Si Si3 0.125075 0.071773 0.969024
Si Si4 0.477181 0.744003 0.652578
Si Si5 0.804156 0.798472 0.864745
O O1 0.568931 0.154146 0.398559
O O2 0.750000 0.000000 0.426271
O O3 0.500000 0.000000 0.500000
O O4 0.516691 0.977642 0.334663
O O5 0.750000 0.500000 0.820302
O O6 0.627619 0.314897 0.862723
O O7 0.638985 0.372725 0.710974
O O8 0.081920 0.144239 0.892740
O O9 0.250000 0.000000 0.942096
O O10 0.173598 0.142692 0.047700
O O11 0.000000 0.000000 0.000000
O O12 0.431174 0.750000 0.750000
O O13 0.643220 0.727806 0.651422
#
# Coordination Sequence:
#
# PCOD9413163 Si02
#       5
#     8   8   8   8   8
#     4  12  28  46  74 107 151 195 247 308 373 437
#     4  11  21  43  77 106 138 192 250 300 361 440
#     4  12  27  45  74 106 147 188 246 305 371 432
#     4  12  26  48  75 108 146 194 245 304 366 447
#     4  11  23  44  76 107 141 194 250 292 366 451
#
# _framework density 20.481189000000001
#
# number of rings (size 3 to 8) (size 9 to 14) (size 15 to 20)
#    0.000    0.400    6.000    2.400    5.600    2.400 
#    3.600    0.000    0.000    0.000    0.000    0.000 
#    0.000    0.000    0.000    0.000    0.000    0.000 
#
# Total GULP energy -223772.737076 kJ/mol
# GULP energy per Si atom -5594.318427 kJ/mol
# Density = 2.043457 g / cm^3
# Si number density = 20.481189 Si / 1000 Ang^3
#
#
#
# Elastic Constant Matrix: (Units=GPa)
#
#
# Indices 1 2 3 4 5 6 
#
# 1 129.2635 46.8787 33.1979 0.0000 0.0000 0.0000
# 2 46.8787 138.6231 48.0327 0.0000 0.0000 0.0000
# 3 33.1979 48.0327 94.1959 0.0000 0.0000 0.0000
# 4 0.0000 0.0000 0.0000 33.8610 0.0000 0.0000
# 5 0.0000 0.0000 0.0000 0.0000 37.6339 0.0000
# 6 0.0000 0.0000 0.0000 0.0000 0.0000 27.6305
#
#
#
# Elastic Compliance Matrix: (Units=1/GPa)
#
#
# Indices 1 2 3 4 5 6 
#
# 1 0.009115 -0.002392 -0.001993 0.000000 0.000000 0.000000
# 2 -0.002392 0.009390 -0.003945 0.000000 0.000000 0.000000
# 3 -0.001993 -0.003945 0.013330 0.000000 0.000000 0.000000
# 4 0.000000 0.000000 0.000000 0.029532 0.000000 0.000000
# 5 0.000000 0.000000 0.000000 0.000000 0.026572 0.000000
# 6 0.000000 0.000000 0.000000 0.000000 0.000000 0.036192
#
#
# Mechanical properties :
#
#
# Convention : Reuss Voigt Hill
#
# Bulk Modulus (GPa) = 65.89559 68.70012 67.29785
# Shear Modulus (GPa) = 34.28187 35.42329 34.85258
#
# Velocity S-wave (km/s) = 4.09568 4.16330 4.12963
# Velocity P-wave (km/s) = 7.38983 7.53171 7.46111
#
# Compressibility (1/GPa) = 0.01517552
#
# Stress axis : x y z
#
# Youngs Moduli (GPa) = 109.70380 106.50004 75.01803
#
# Poissons Ratio (x) = 0.25476 0.14950
# Poissons Ratio (y) = 0.26242 0.29594
# Poissons Ratio (z) = 0.21862 0.42014
#
# Static dielectric constant tensor:
#      x y z
#    x 1.809180 0.000000 0.000000 
#    y 0.000000 1.716670 0.000000 
#    z 0.000000 0.000000 1.732290 
# 
# From -- ./inp_files/30884.got.cif
#   From: 2010.05.17/outbox.cif.g08.bks.cpg/sg52_16_cif.got.tgz:30884.got - 2010.06.03 12:15:38.
