data_PCOD9413112
_publ_section_title
;
Structure prediction by ZEFSAII (Michael W. Deem and Ramdas Pophale) SiO2 
 PCOD9413112
Probable space group: P N N A
;
_chemical_formula_sum "Si O2"
_cell_formula_units_Z 48
_cell_length_a 27.834480
_cell_length_b 6.430241
_cell_length_c 12.736565
_cell_angle_alpha 90.000000
_cell_angle_beta 90.000000
_cell_angle_gamma 90.000000
_cell_volume 2279.621156
_symmetry_space_group_name_H-M "P N N A"
_symmetry_group_IT_number 52
_symmetry_cell_setting 'orthorhombic'
loop_
_space_group_symop_operation_xyz
x,y,z
1/2-x,-y,z
x,1/2-y,1/2-z
1/2-x,1/2+y,1/2-z
-x,-y,-z
1/2+x,y,-z
-x,1/2+y,1/2+z
1/2+x,1/2-y,1/2+z
loop_
_atom_site_type_symbol
_atom_site_label
_atom_site_fract_x
_atom_site_fract_y
_atom_site_fract_z
Si Si1 0.125892 0.220910 0.982671
Si Si2 0.196401 0.569424 0.031984
Si Si3 0.082736 0.042711 0.186210
Si Si4 0.543556 0.966612 0.417053
Si Si5 0.496744 0.250000 0.250000
Si Si6 0.666218 0.750000 0.750000
Si Si7 0.127251 0.817909 0.870256
O O1 0.087083 0.390623 0.953225
O O2 0.135652 0.062963 0.888206
O O3 0.169080 0.347914 0.034202
O O4 0.101083 0.086783 0.071628
O O5 0.250000 0.500000 0.003162
O O6 0.194784 0.696768 0.142856
O O7 0.166029 0.703928 0.946810
O O8 0.068186 0.250000 0.250000
O O9 0.039743 0.879184 0.177443
O O10 0.128831 0.941526 0.242156
O O11 0.525820 0.074434 0.310417
O O12 0.500000 0.000000 0.500000
O O13 0.571870 0.749338 0.399881
O O14 0.134385 0.750000 0.750000
#
# Coordination Sequence:
#
# PCOD9413112 Si02
#       7
#     8   8   8   8   4   4   8
#     4  11  23  42  67  92 133 179 221 278 345 403
#     4  11  26  46  70 104 134 169 226 290 352 425
#     4  11  21  37  65  95 131 178 213 274 346 409
#     4  11  24  39  61  98 136 178 232 287 330 403
#     4  11  24  36  58  96 136 174 230 276 323 408
#     4  11  22  42  68  98 134 164 214 278 347 424
#     4  11  25  47  69  95 138 188 235 286 346 412
#
# _framework density 21.05613
#
# number of rings (size 3 to 8) (size 9 to 14) (size 15 to 20)
#    0.000    1.000    3.333    3.000    4.667   10.000 
#    3.000    0.000    0.000    0.000    0.000    0.000 
#    0.000    0.000    0.000    0.000    0.000    0.000 
#
# Total GULP energy -267808.579380 kJ/mol
# GULP energy per Si atom -5579.345404 kJ/mol
# Density = 2.100821 g / cm^3
# Si number density = 21.056130 Si / 1000 Ang^3
#
#
#
# Elastic Constant Matrix: (Units=GPa)
#
#
# Indices 1 2 3 4 5 6 
#
# 1 99.4516 29.3283 24.6909 0.0000 0.0000 0.0000
# 2 29.3283 76.4114 11.2742 0.0000 0.0000 0.0000
# 3 24.6909 11.2742 94.5930 0.0000 0.0000 0.0000
# 4 0.0000 0.0000 0.0000 36.6565 0.0000 0.0000
# 5 0.0000 0.0000 0.0000 0.0000 15.2118 0.0000
# 6 0.0000 0.0000 0.0000 0.0000 0.0000 33.7584
#
#
#
# Elastic Compliance Matrix: (Units=1/GPa)
#
#
# Indices 1 2 3 4 5 6 
#
# 1 0.011943 -0.004198 -0.002617 0.000000 0.000000 0.000000
# 2 -0.004198 0.014797 -0.000668 0.000000 0.000000 0.000000
# 3 -0.002617 -0.000668 0.011334 0.000000 0.000000 0.000000
# 4 0.000000 0.000000 0.000000 0.027280 0.000000 0.000000
# 5 0.000000 0.000000 0.000000 0.000000 0.065739 0.000000
# 6 0.000000 0.000000 0.000000 0.000000 0.000000 0.029622
#
#
# Mechanical properties :
#
#
# Convention : Reuss Voigt Hill
#
# Bulk Modulus (GPa) = 43.27396 44.56031 43.91713
# Shear Modulus (GPa) = 27.26533 30.80286 29.03409
#
# Velocity S-wave (km/s) = 3.60236 3.82893 3.71737
# Velocity P-wave (km/s) = 6.15622 6.38405 6.27117
#
# Compressibility (1/GPa) = 0.02310859
#
# Stress axis : x y z
#
# Youngs Moduli (GPa) = 83.73247 67.58227 88.22767
#
# Poissons Ratio (x) = 0.28369 0.23089
# Poissons Ratio (y) = 0.35149 0.05892
# Poissons Ratio (z) = 0.21913 0.04514
#
# Static dielectric constant tensor:
#      x y z
#    x 1.721660 0.000000 0.000000 
#    y 0.000000 2.662530 0.000000 
#    z 0.000000 0.000000 1.767150 
# 
# From -- ./inp_files/29482.got.cif
#   From: 2010.05.17/outbox.cif.g08.bks.cpg/sg52_15_cif.got.tgz:29482.got - 2010.06.03 12:15:38.
