data_PCOD9413051
_publ_section_title
;
Structure prediction by ZEFSAII (Michael W. Deem and Ramdas Pophale) SiO2 
 PCOD9413051
Probable space group: P N N A
;
_chemical_formula_sum "Si O2"
_cell_formula_units_Z 64
_cell_length_a 21.066357
_cell_length_b 9.278575
_cell_length_c 16.301672
_cell_angle_alpha 90.000000
_cell_angle_beta 90.000000
_cell_angle_gamma 90.000000
_cell_volume 3186.418925
_symmetry_space_group_name_H-M "P N N A"
_symmetry_group_IT_number 52
_symmetry_cell_setting 'orthorhombic'
loop_
_space_group_symop_operation_xyz
x,y,z
1/2-x,-y,z
x,1/2-y,1/2-z
1/2-x,1/2+y,1/2-z
-x,-y,-z
1/2+x,y,-z
-x,1/2+y,1/2+z
1/2+x,1/2-y,1/2+z
loop_
_atom_site_type_symbol
_atom_site_label
_atom_site_fract_x
_atom_site_fract_y
_atom_site_fract_z
Si Si1 0.491945 0.453267 0.711368
Si Si2 0.534421 0.236862 0.121694
Si Si3 0.361776 0.382995 0.001344
Si Si4 0.938246 0.998418 0.633693
Si Si5 0.346316 0.413519 0.732038
Si Si6 0.995916 0.254154 0.447932
Si Si7 0.327132 0.633652 0.872696
Si Si8 0.220953 0.857486 0.932675
O O1 0.488134 0.618936 0.685480
O O2 0.549168 0.435667 0.775777
O O3 0.422171 0.418942 0.747617
O O4 0.496018 0.356733 0.630315
O O5 0.492562 0.380165 0.127346
O O6 0.607152 0.278890 0.133802
O O7 0.519650 0.174074 0.031508
O O8 0.428100 0.323558 0.962535
O O9 0.335823 0.514077 0.945127
O O10 0.316389 0.246387 0.993511
O O11 0.375715 0.431375 0.094645
O O12 0.954908 0.873021 0.570383
O O13 0.325875 0.250000 0.750000
O O14 0.318609 0.538172 0.790228
O O15 0.325425 0.424800 0.637559
O O16 0.272536 0.749293 0.891805
O O17 0.250000 0.000000 0.972814
#
# Coordination Sequence:
#
# PCOD9413051 Si02
#       8
#     8   8   8   8   8   8   8   8
#     4  12  22  36  59  93 133 164 205 259 327 381
#     4  11  22  37  58  91 128 167 208 257 319 382
#     4  11  21  41  60  85 119 172 216 263 311 388
#     4  11  21  38  62  86 125 168 211 254 320 386
#     4  12  24  38  56  88 127 173 213 261 306 378
#     4  11  20  39  62  87 128 165 210 260 321 383
#     4  12  23  41  63  82 127 173 221 254 314 381
#     4  12  28  40  59  86 124 169 224 270 318 377
#
# _framework density 20.085242999999998
#
# number of rings (size 3 to 8) (size 9 to 14) (size 15 to 20)
#    0.000    0.500    6.250    3.750    1.750    1.000 
#    0.000    0.000    0.000    0.000    0.000    0.000 
#   30.000    0.000    0.000    0.000    0.000    0.000 
#
# Total GULP energy -357636.613297 kJ/mol
# GULP energy per Si atom -5588.072083 kJ/mol
# Density = 2.003953 g / cm^3
# Si number density = 20.085243 Si / 1000 Ang^3
#
#
#
# Elastic Constant Matrix: (Units=GPa)
#
#
# Indices 1 2 3 4 5 6 
#
# 1 51.0015 31.0630 22.9184 0.0000 0.0000 0.0000
# 2 31.0630 98.6375 31.6751 0.0000 0.0000 0.0000
# 3 22.9184 31.6751 86.5198 0.0000 0.0000 0.0000
# 4 0.0000 0.0000 0.0000 26.1679 0.0000 0.0000
# 5 0.0000 0.0000 0.0000 0.0000 10.0666 0.0000
# 6 0.0000 0.0000 0.0000 0.0000 0.0000 25.4086
#
#
#
# Elastic Compliance Matrix: (Units=1/GPa)
#
#
# Indices 1 2 3 4 5 6 
#
# 1 0.025625 -0.006675 -0.004344 0.000000 0.000000 0.000000
# 2 -0.006675 0.013227 -0.003075 0.000000 0.000000 0.000000
# 3 -0.004344 -0.003075 0.013834 0.000000 0.000000 0.000000
# 4 0.000000 0.000000 0.000000 0.038215 0.000000 0.000000
# 5 0.000000 0.000000 0.000000 0.000000 0.099339 0.000000
# 6 0.000000 0.000000 0.000000 0.000000 0.000000 0.039357
#
#
# Mechanical properties :
#
#
# Convention : Reuss Voigt Hill
#
# Bulk Modulus (GPa) = 40.81678 45.27466 43.04572
# Shear Modulus (GPa) = 18.80051 22.36209 20.58130
#
# Velocity S-wave (km/s) = 3.06279 3.34032 3.20456
# Velocity P-wave (km/s) = 5.73354 6.12105 5.93046
#
# Compressibility (1/GPa) = 0.02449973
#
# Stress axis : x y z
#
# Youngs Moduli (GPa) = 39.02478 75.60030 72.28373
#
# Poissons Ratio (x) = 0.50461 0.31401
# Poissons Ratio (y) = 0.26048 0.22224
# Poissons Ratio (z) = 0.16953 0.23243
#
# Static dielectric constant tensor:
#      x y z
#    x 1.716460 0.000000 0.000000 
#    y 0.000000 1.728900 0.000000 
#    z 0.000000 0.000000 1.767360 
# 
# From -- ./inp_files/34109.got.cif
#   From: 2010.05.17/outbox.cif.g08.bks.cpg/sg52_18_cif.got.tgz:34109.got - 2010.06.03 12:15:38.
