data_PCOD9413038
_publ_section_title
;
Structure prediction by ZEFSAII (Michael W. Deem and Ramdas Pophale) SiO2 
 PCOD9413038
Probable space group: P N N A
;
_chemical_formula_sum "Si O2"
_cell_formula_units_Z 64
_cell_length_a 9.261804
_cell_length_b 21.230117
_cell_length_c 17.416080
_cell_angle_alpha 90.000000
_cell_angle_beta 90.000000
_cell_angle_gamma 90.000000
_cell_volume 3424.509574
_symmetry_space_group_name_H-M "P N N A"
_symmetry_group_IT_number 52
_symmetry_cell_setting 'orthorhombic'
loop_
_space_group_symop_operation_xyz
x,y,z
1/2-x,-y,z
x,1/2-y,1/2-z
1/2-x,1/2+y,1/2-z
-x,-y,-z
1/2+x,y,-z
-x,1/2+y,1/2+z
1/2+x,1/2-y,1/2+z
loop_
_atom_site_type_symbol
_atom_site_label
_atom_site_fract_x
_atom_site_fract_y
_atom_site_fract_z
Si Si1 0.613647 0.042491 0.956480
Si Si2 0.078616 0.129810 0.910248
Si Si3 0.411784 0.929574 0.213666
Si Si4 0.926713 0.794128 0.814872
Si Si5 0.009284 0.303122 0.817258
Si Si6 0.064591 0.931996 0.232975
Si Si7 0.774913 0.243087 0.112087
Si Si8 0.176843 0.726288 0.433788
O O1 0.551709 0.065177 0.876499
O O2 0.750000 0.000000 0.937996
O O3 0.650311 0.096652 0.016991
O O4 0.500000 0.000000 0.000000
O O5 0.191701 0.177257 0.872528
O O6 0.015905 0.082271 0.847333
O O7 0.943960 0.171748 0.938644
O O8 0.463750 0.859109 0.229304
O O9 0.237651 0.927567 0.222265
O O10 0.464397 0.994382 0.253195
O O11 0.859474 0.750000 0.750000
O O12 0.810561 0.799541 0.883495
O O13 0.069070 0.762519 0.850146
O O14 0.993516 0.250000 0.750000
O O15 0.979465 0.373357 0.786762
O O16 0.899227 0.281579 0.884308
O O17 0.170758 0.295071 0.850795
O O18 0.782829 0.247627 0.019484
#
# Coordination Sequence:
#
# PCOD9413038 Si02
#       8
#     8   8   8   8   8   8   8   8
#     4  12  23  35  52  84 127 170 197 237 282 354
#     4  11  22  34  56  79 120 167 200 227 292 357
#     4  11  21  37  56  88 117 153 212 246 284 358
#     4  12  24  38  60  88 120 154 196 260 304 351
#     4  11  20  39  63  82 116 164 207 244 302 360
#     4  11  20  37  58  83 112 163 204 246 281 360
#     4  11  24  36  58  87 122 152 200 252 306 361
#     4  11  21  39  60  86 115 162 204 251 299 360
#
# _framework density 18.688808000000002
#
# number of rings (size 3 to 8) (size 9 to 14) (size 15 to 20)
#    0.000    0.750    6.250    4.500    3.500    0.000 
#    0.000    0.000    0.000    0.000    0.000   15.750 
#    0.000    0.000    0.000    0.000    0.000    0.000 
#
# Total GULP energy -357386.190684 kJ/mol
# GULP energy per Si atom -5584.159229 kJ/mol
# Density = 1.864627 g / cm^3
# Si number density = 18.688808 Si / 1000 Ang^3
#
#
#
# Elastic Constant Matrix: (Units=GPa)
#
#
# Indices 1 2 3 4 5 6 
#
# 1 54.6871 3.2301 14.0275 0.0000 0.0000 0.0000
# 2 3.2301 112.6985 39.6958 0.0000 0.0000 0.0000
# 3 14.0275 39.6958 64.8273 0.0000 0.0000 0.0000
# 4 0.0000 0.0000 0.0000 26.3582 0.0000 0.0000
# 5 0.0000 0.0000 0.0000 0.0000 27.6928 0.0000
# 6 0.0000 0.0000 0.0000 0.0000 0.0000 23.5949
#
#
#
# Elastic Compliance Matrix: (Units=1/GPa)
#
#
# Indices 1 2 3 4 5 6 
#
# 1 0.019483 0.001181 -0.004939 0.000000 0.000000 0.000000
# 2 0.001181 0.011385 -0.007227 0.000000 0.000000 0.000000
# 3 -0.004939 -0.007227 0.020920 0.000000 0.000000 0.000000
# 4 0.000000 0.000000 0.000000 0.037939 0.000000 0.000000
# 5 0.000000 0.000000 0.000000 0.000000 0.036111 0.000000
# 6 0.000000 0.000000 0.000000 0.000000 0.000000 0.042382
#
#
# Mechanical properties :
#
#
# Convention : Reuss Voigt Hill
#
# Bulk Modulus (GPa) = 33.53684 38.45777 35.99730
# Shear Modulus (GPa) = 24.98403 27.21314 26.09858
#
# Velocity S-wave (km/s) = 3.66025 3.82005 3.74101
# Velocity P-wave (km/s) = 5.98725 6.33085 6.16145
#
# Compressibility (1/GPa) = 0.02981796
#
# Stress axis : x y z
#
# Youngs Moduli (GPa) = 51.32681 87.83541 47.80199
#
# Poissons Ratio (x) = -0.10376 0.23610
# Poissons Ratio (y) = -0.06063 0.34546
# Poissons Ratio (z) = 0.25351 0.63478
#
# Static dielectric constant tensor:
#      x y z
#    x 1.663370 0.000000 0.000000 
#    y 0.000000 1.701280 0.000000 
#    z 0.000000 0.000000 1.656110 
# 
# From -- ./inp_files/31600.got.cif
#   From: 2010.05.17/outbox.cif.g08.bks.cpg/sg52_16_cif.got.tgz:31600.got - 2010.06.03 12:15:38.
