data_PCOD9413864
_publ_section_title
;
Structure prediction by ZEFSAII (Michael W. Deem and Ramdas Pophale) SiO2 
 PCOD9413864
Probable space group: P N N A
;
_chemical_formula_sum "Si O2"
_cell_formula_units_Z 24
_cell_length_a 7.816193
_cell_length_b 9.506773
_cell_length_c 11.344588
_cell_angle_alpha 90.000000
_cell_angle_beta 90.000000
_cell_angle_gamma 90.000000
_cell_volume 842.979720
_symmetry_space_group_name_H-M "P N N A"
_symmetry_group_IT_number 52
_symmetry_cell_setting 'orthorhombic'
loop_
_space_group_symop_operation_xyz
x,y,z
1/2-x,-y,z
x,1/2-y,1/2-z
1/2-x,1/2+y,1/2-z
-x,-y,-z
1/2+x,y,-z
-x,1/2+y,1/2+z
1/2+x,1/2-y,1/2+z
loop_
_atom_site_type_symbol
_atom_site_label
_atom_site_fract_x
_atom_site_fract_y
_atom_site_fract_z
Si Si1 0.942042 0.557394 0.628990
Si Si2 0.603534 0.364616 0.173389
Si Si3 0.238479 0.160831 0.415084
O O1 0.750000 0.500000 0.638468
O O2 0.056403 0.493669 0.737462
O O3 0.903873 0.726127 0.623432
O O4 0.000000 0.500000 0.500000
O O5 0.697241 0.250000 0.250000
O O6 0.709256 0.365375 0.053180
O O7 0.425350 0.293177 0.127773
O O8 0.250000 0.000000 0.371676
#
# Coordination Sequence:
#
# PCOD9413864 Si02
#       3
#     8   8   8
#     4  12  25  48  81 115 166 219 278 356 429 501
#     4  12  26  50  80 121 170 223 290 352 429 520
#     4  12  27  50  78 119 166 226 288 351 435 505
#
# _framework density 28.470433
#
# number of rings (size 3 to 8) (size 9 to 14) (size 15 to 20)
#    0.000    0.000    6.667    2.000    0.000    1.333 
#    6.000    0.000    0.000    0.000    0.000    0.000 
#    0.000    0.000    0.000    0.000    0.000    0.000 
#
# Total GULP energy -133982.871359 kJ/mol
# GULP energy per Si atom -5582.619640 kJ/mol
# Density = 2.840563 g / cm^3
# Si number density = 28.470433 Si / 1000 Ang^3
#
#
#
# Elastic Constant Matrix: (Units=GPa)
#
#
# Indices 1 2 3 4 5 6 
#
# 1 98.1011 40.4523 70.8232 0.0000 0.0000 0.0000
# 2 40.4523 229.2857 84.6582 0.0000 0.0000 0.0000
# 3 70.8232 84.6582 312.8780 0.0000 0.0000 0.0000
# 4 0.0000 0.0000 0.0000 40.7532 0.0000 0.0000
# 5 0.0000 0.0000 0.0000 0.0000 51.7107 0.0000
# 6 0.0000 0.0000 0.0000 0.0000 0.0000 -48.2842
#
#
#
# Elastic Compliance Matrix: (Units=1/GPa)
#
#
# Indices 1 2 3 4 5 6 
#
# 1 0.012520 -0.001291 -0.002485 0.000000 0.000000 0.000000
# 2 -0.001291 0.004979 -0.001055 0.000000 0.000000 0.000000
# 3 -0.002485 -0.001055 0.004044 0.000000 0.000000 0.000000
# 4 0.000000 0.000000 0.000000 0.024538 0.000000 0.000000
# 5 0.000000 0.000000 0.000000 0.000000 0.019338 0.000000
# 6 0.000000 0.000000 0.000000 0.000000 0.000000 -0.020711
#
#
# Mechanical properties :
#
#
# Convention : Reuss Voigt Hill
#
# Bulk Modulus (GPa) = 84.16941 114.68139 99.42540
# Shear Modulus (GPa) = 85.71936 38.45802 62.08869
#
# Velocity S-wave (km/s) = 5.49305 3.67932 4.67498
# Velocity P-wave (km/s) = 8.35819 7.64318 8.00867
#
# Compressibility (1/GPa) = 0.01188080
#
# Stress axis : x y z
#
# Youngs Moduli (GPa) = 79.87348 200.85655 247.28373
#
# Poissons Ratio (x) = 0.25940 0.61439
# Poissons Ratio (y) = 0.10316 0.26083
# Poissons Ratio (z) = 0.19845 0.21186
#
# Static dielectric constant tensor:
#      x y z
#    x 2.335910 0.000000 0.000000 
#    y 0.000000 2.751280 0.000000 
#    z 0.000000 0.000000 2.222900 
# 
# From -- ./inp_files/8016.got.cif
#   From: 2010.05.17/outbox.cif.g08.bks.cpg/sg52_5_cif.got.tgz:8016.got - 2010.06.03 12:15:38.
