data_PCOD9413295
_publ_section_title
;
Structure prediction by ZEFSAII (Michael W. Deem and Ramdas Pophale) SiO2 
 PCOD9413295
Probable space group: P N N A
;
_chemical_formula_sum "Si O2"
_cell_formula_units_Z 44
_cell_length_a 18.317715
_cell_length_b 13.569219
_cell_length_c 8.491311
_cell_angle_alpha 90.000000
_cell_angle_beta 90.000000
_cell_angle_gamma 90.000000
_cell_volume 2110.575522
_symmetry_space_group_name_H-M "P N N A"
_symmetry_group_IT_number 52
_symmetry_cell_setting 'orthorhombic'
loop_
_space_group_symop_operation_xyz
x,y,z
1/2-x,-y,z
x,1/2-y,1/2-z
1/2-x,1/2+y,1/2-z
-x,-y,-z
1/2+x,y,-z
-x,1/2+y,1/2+z
1/2+x,1/2-y,1/2+z
loop_
_atom_site_type_symbol
_atom_site_label
_atom_site_fract_x
_atom_site_fract_y
_atom_site_fract_z
Si Si1 0.625718 0.119572 0.412867
Si Si2 0.859187 0.861247 0.767131
Si Si3 0.761117 0.750000 0.250000
Si Si4 0.150952 0.928426 0.801696
Si Si5 0.250000 0.500000 0.423865
Si Si6 0.005339 0.250000 0.750000
Si Si7 0.507282 0.884691 0.043020
O O1 0.616040 0.099027 0.596590
O O2 0.684517 0.208115 0.384462
O O3 0.553947 0.165650 0.333953
O O4 0.648283 0.020048 0.319624
O O5 0.836779 0.750000 0.750000
O O6 0.928054 0.859397 0.886067
O O7 0.787184 0.917667 0.819839
O O8 0.708697 0.842893 0.230291
O O9 0.071307 0.882605 0.827892
O O10 0.182467 0.969963 0.965462
O O11 0.971487 0.312777 0.603605
O O12 0.500000 0.000000 0.000000
#
# Coordination Sequence:
#
# PCOD9413295 Si02
#       7
#     8   8   4   8   4   4   8
#     4  11  23  44  75  99 138 192 233 287 368 429
#     4  12  26  45  73 106 142 182 239 292 353 428
#     4  11  24  42  72 104 137 184 240 296 349 426
#     4  12  25  46  71 101 142 186 240 293 360 428
#     4  12  24  46  68 100 140 184 228 296 346 414
#     4  11  22  46  74  96 141 192 232 282 367 436
#     4  12  25  48  69 103 142 192 235 293 361 425
#
# _framework density 20.847396
#
# number of rings (size 3 to 8) (size 9 to 14) (size 15 to 20)
#    0.000    0.364    7.273    1.091    3.818    0.727 
#    8.182    0.000    0.000    0.000    0.000    0.000 
#    0.000    0.000    0.000    0.000    0.000    0.000 
#
# Total GULP energy -245481.773258 kJ/mol
# GULP energy per Si atom -5579.131210 kJ/mol
# Density = 2.079995 g / cm^3
# Si number density = 20.847396 Si / 1000 Ang^3
#
#
#
# Elastic Constant Matrix: (Units=GPa)
#
#
# Indices 1 2 3 4 5 6 
#
# 1 62.4933 16.6733 6.3453 0.0000 0.0000 0.0000
# 2 16.6733 115.6124 36.6642 0.0000 0.0000 0.0000
# 3 6.3453 36.6642 90.5920 0.0000 0.0000 0.0000
# 4 0.0000 0.0000 0.0000 28.5891 0.0000 0.0000
# 5 0.0000 0.0000 0.0000 0.0000 9.1482 0.0000
# 6 0.0000 0.0000 0.0000 0.0000 0.0000 6.0103
#
#
#
# Elastic Compliance Matrix: (Units=1/GPa)
#
#
# Indices 1 2 3 4 5 6 
#
# 1 0.016646 -0.002330 -0.000223 0.000000 0.000000 0.000000
# 2 -0.002330 0.010249 -0.003985 0.000000 0.000000 0.000000
# 3 -0.000223 -0.003985 0.012667 0.000000 0.000000 0.000000
# 4 0.000000 0.000000 0.000000 0.034978 0.000000 0.000000
# 5 0.000000 0.000000 0.000000 0.000000 0.109311 0.000000
# 6 0.000000 0.000000 0.000000 0.000000 0.000000 0.166380
#
#
# Mechanical properties :
#
#
# Convention : Reuss Voigt Hill
#
# Bulk Modulus (GPa) = 37.75493 43.11815 40.43654
# Shear Modulus (GPa) = 13.43597 22.68386 18.05991
#
# Velocity S-wave (km/s) = 2.54144 3.30220 2.94648
# Velocity P-wave (km/s) = 5.17314 5.93860 5.56904
#
# Compressibility (1/GPa) = 0.02648661
#
# Stress axis : x y z
#
# Youngs Moduli (GPa) = 60.07460 97.56726 78.94601
#
# Poissons Ratio (x) = 0.22732 0.01760
# Poissons Ratio (y) = 0.13997 0.31459
# Poissons Ratio (z) = 0.01340 0.38880
#
# Static dielectric constant tensor:
#      x y z
#    x 1.767910 0.000000 0.000000 
#    y 0.000000 1.466920 0.000000 
#    z 0.000000 0.000000 -0.163020 
# 
# From -- ./inp_files/12009.got.cif
#   From: 2010.05.17/outbox.cif.g08.bks.cpg/sg52_7_cif.got.tgz:12009.got - 2010.06.03 12:15:38.
