data_PCOD9413030
_publ_section_title
;
Structure prediction by ZEFSAII (Michael W. Deem and Ramdas Pophale) SiO2 
 PCOD9413030
Probable space group: P N N A
;
_chemical_formula_sum "Si O2"
_cell_formula_units_Z 64
_cell_length_a 20.967350
_cell_length_b 8.774471
_cell_length_c 16.472569
_cell_angle_alpha 90.000000
_cell_angle_beta 90.000000
_cell_angle_gamma 90.000000
_cell_volume 3030.580490
_symmetry_space_group_name_H-M "P N N A"
_symmetry_group_IT_number 52
_symmetry_cell_setting 'orthorhombic'
loop_
_space_group_symop_operation_xyz
x,y,z
1/2-x,-y,z
x,1/2-y,1/2-z
1/2-x,1/2+y,1/2-z
-x,-y,-z
1/2+x,y,-z
-x,1/2+y,1/2+z
1/2+x,1/2-y,1/2+z
loop_
_atom_site_type_symbol
_atom_site_label
_atom_site_fract_x
_atom_site_fract_y
_atom_site_fract_z
Si Si1 0.684627 0.432518 0.575864
Si Si2 0.429078 0.372193 0.470900
Si Si3 0.047552 0.504414 0.627809
Si Si4 0.094029 0.554716 0.099026
Si Si5 0.979250 0.912290 0.293967
Si Si6 0.149083 0.255517 0.838389
Si Si7 0.691677 0.383018 0.996760
Si Si8 0.683235 0.432602 0.760569
O O1 0.750000 0.500000 0.540697
O O2 0.619771 0.486513 0.534246
O O3 0.695312 0.253106 0.568018
O O4 0.676675 0.488740 0.668022
O O5 0.441125 0.354818 0.567297
O O6 0.494108 0.409350 0.422737
O O7 0.397148 0.228693 0.428219
O O8 0.110631 0.400768 0.641645
O O9 0.021120 0.529250 0.718496
O O10 0.021750 0.542296 0.129777
O O11 0.131652 0.501386 0.179122
O O12 0.123927 0.459598 0.025400
O O13 0.000502 0.750000 0.250000
O O14 0.908321 0.875785 0.324032
O O15 0.182244 0.250000 0.750000
O O16 0.190116 0.307754 0.914433
O O17 0.750000 0.500000 0.989483
O O18 0.750000 0.500000 0.790565
O O19 0.681399 0.250000 0.750000
#
# Coordination Sequence:
#
# PCOD9413030 Si02
#       8
#     8   8   8   8   8   8   8   8
#     4  11  24  39  59  87 125 175 225 260 315 396
#     4  11  20  35  63  95 121 169 216 273 319 386
#     4   9  18  36  64  91 125 160 225 261 322 393
#     4  12  23  37  63  97 137 166 213 270 332 385
#     4   9  18  37  61  93 123 172 210 259 332 388
#     4   9  19  42  70  90 120 167 216 271 338 397
#     4  12  25  43  63  94 133 167 211 275 331 386
#     4  11  25  38  55  85 130 183 224 264 320 387
#
# _framework density 21.118065000000001
#
# number of rings (size 3 to 8) (size 9 to 14) (size 15 to 20)
#    0.000    1.750    5.000    1.875    3.500    0.500 
#    0.000    0.625    2.750    0.000    0.000    0.000 
#    0.000    0.000    0.000    0.000    0.000    0.000 
#
# Total GULP energy -356802.237201 kJ/mol
# GULP energy per Si atom -5575.034956 kJ/mol
# Density = 2.107000 g / cm^3
# Si number density = 21.118065 Si / 1000 Ang^3
#
#
#
# Elastic Constant Matrix: (Units=GPa)
#
#
# Indices 1 2 3 4 5 6 
#
# 1 20.9993 17.5072 8.2917 0.0000 0.0000 0.0000
# 2 17.5072 74.5657 13.1069 0.0000 0.0000 0.0000
# 3 8.2917 13.1069 115.2494 0.0000 0.0000 0.0000
# 4 0.0000 0.0000 0.0000 11.6506 0.0000 0.0000
# 5 0.0000 0.0000 0.0000 0.0000 21.5975 0.0000
# 6 0.0000 0.0000 0.0000 0.0000 0.0000 15.1460
#
#
#
# Elastic Compliance Matrix: (Units=1/GPa)
#
#
# Indices 1 2 3 4 5 6 
#
# 1 0.060067 -0.013616 -0.002773 0.000000 0.000000 0.000000
# 2 -0.013616 0.016771 -0.000928 0.000000 0.000000 0.000000
# 3 -0.002773 -0.000928 0.008982 0.000000 0.000000 0.000000
# 4 0.000000 0.000000 0.000000 0.085833 0.000000 0.000000
# 5 0.000000 0.000000 0.000000 0.000000 0.046302 0.000000
# 6 0.000000 0.000000 0.000000 0.000000 0.000000 0.066024
#
#
# Mechanical properties :
#
#
# Convention : Reuss Voigt Hill
#
# Bulk Modulus (GPa) = 19.53625 32.06956 25.80291
# Shear Modulus (GPa) = 14.89543 21.13939 18.01741
#
# Velocity S-wave (km/s) = 2.65871 3.16731 2.92408
# Velocity P-wave (km/s) = 4.32389 5.34739 4.86264
#
# Compressibility (1/GPa) = 0.05118689
#
# Stress axis : x y z
#
# Youngs Moduli (GPa) = 16.64804 59.62725 111.33557
#
# Poissons Ratio (x) = 0.81186 0.30875
# Poissons Ratio (y) = 0.22667 0.10329
# Poissons Ratio (z) = 0.04617 0.05532
#
# Static dielectric constant tensor:
#      x y z
#    x 1.808420 0.000000 0.000000 
#    y 0.000000 1.802720 0.000000 
#    z 0.000000 0.000000 1.818510 
# 
# From -- ./inp_files/34381.got.cif
#   From: 2010.05.17/outbox.cif.g08.bks.cpg/sg52_18_cif.got.tgz:34381.got - 2010.06.03 12:15:38.
