data_PCOD9413019
_publ_section_title
;
Structure prediction by ZEFSAII (Michael W. Deem and Ramdas Pophale) SiO2 
 PCOD9413019
Probable space group: P N N A
;
_chemical_formula_sum "Si O2"
_cell_formula_units_Z 40
_cell_length_a 17.932352
_cell_length_b 13.549428
_cell_length_c 7.901070
_cell_angle_alpha 90.000000
_cell_angle_beta 90.000000
_cell_angle_gamma 90.000000
_cell_volume 1919.747568
_symmetry_space_group_name_H-M "P N N A"
_symmetry_group_IT_number 52
_symmetry_cell_setting 'orthorhombic'
loop_
_space_group_symop_operation_xyz
x,y,z
1/2-x,-y,z
x,1/2-y,1/2-z
1/2-x,1/2+y,1/2-z
-x,-y,-z
1/2+x,y,-z
-x,1/2+y,1/2+z
1/2+x,1/2-y,1/2+z
loop_
_atom_site_type_symbol
_atom_site_label
_atom_site_fract_x
_atom_site_fract_y
_atom_site_fract_z
Si Si1 0.796046 0.157381 0.123465
Si Si2 0.625977 0.361998 0.315298
Si Si3 0.466018 0.836733 0.145803
Si Si4 0.082827 0.951587 0.660950
Si Si5 0.405915 0.229381 0.435632
O O1 0.798946 0.250000 0.250000
O O2 0.712077 0.120409 0.132208
O O3 0.855003 0.081260 0.200682
O O4 0.829688 0.207066 0.954944
O O5 0.620452 0.250000 0.250000
O O6 0.578878 0.377034 0.486527
O O7 0.594856 0.431815 0.165193
O O8 0.424207 0.750000 0.250000
O O9 0.502171 0.919999 0.265745
O O10 0.536589 0.777919 0.067145
O O11 0.099322 0.884417 0.496097
O O12 0.435349 0.250000 0.250000
#
# Coordination Sequence:
#
# PCOD9413019 Si02
#       5
#     8   8   8   8   8
#     4   8  17  32  53  76 103 137 173 214 264 317
#     4  11  20  32  52  80 108 137 175 223 267 314
#     4   9  19  35  52  73 104 139 176 218 266 320
#     4   9  18  35  55  74 103 145 177 208 266 330
#     4   9  17  34  57  79 102 136 181 223 264 321
#
# _framework density 20.836072999999999
#
# number of rings (size 3 to 8) (size 9 to 14) (size 15 to 20)
#    0.000    2.800    0.000    4.200    0.000    0.800 
#    0.000   13.000    0.000   14.400    0.000    0.000 
#    0.000    0.000    0.000    0.000    0.000    0.000 
#
# Total GULP energy -222901.120216 kJ/mol
# GULP energy per Si atom -5572.528005 kJ/mol
# Density = 2.078865 g / cm^3
# Si number density = 20.836073 Si / 1000 Ang^3
#
#
#
# Elastic Constant Matrix: (Units=GPa)
#
#
# Indices 1 2 3 4 5 6 
#
# 1 64.1146 5.0892 3.9721 0.0000 0.0000 0.0000
# 2 5.0892 93.9522 18.5165 0.0000 0.0000 0.0000
# 3 3.9721 18.5165 72.9364 0.0000 0.0000 0.0000
# 4 0.0000 0.0000 0.0000 23.6594 0.0000 0.0000
# 5 0.0000 0.0000 0.0000 0.0000 20.4955 0.0000
# 6 0.0000 0.0000 0.0000 0.0000 0.0000 8.2391
#
#
#
# Elastic Compliance Matrix: (Units=1/GPa)
#
#
# Indices 1 2 3 4 5 6 
#
# 1 0.015696 -0.000718 -0.000673 0.000000 0.000000 0.000000
# 2 -0.000718 0.011237 -0.002814 0.000000 0.000000 0.000000
# 3 -0.000673 -0.002814 0.014462 0.000000 0.000000 0.000000
# 4 0.000000 0.000000 0.000000 0.042267 0.000000 0.000000
# 5 0.000000 0.000000 0.000000 0.000000 0.048791 0.000000
# 6 0.000000 0.000000 0.000000 0.000000 0.000000 0.121373
#
#
# Mechanical properties :
#
#
# Convention : Reuss Voigt Hill
#
# Bulk Modulus (GPa) = 30.31546 31.79541 31.05543
# Shear Modulus (GPa) = 18.29970 24.04049 21.17010
#
# Velocity S-wave (km/s) = 2.96678 3.40044 3.19098
# Velocity P-wave (km/s) = 5.12999 5.54168 5.33980
#
# Compressibility (1/GPa) = 0.03298647
#
# Stress axis : x y z
#
# Youngs Moduli (GPa) = 63.71173 88.99073 69.14900
#
# Poissons Ratio (x) = 0.06386 0.04651
# Poissons Ratio (y) = 0.04572 0.19456
# Poissons Ratio (z) = 0.04285 0.25039
#
# Static dielectric constant tensor:
#      x y z
#    x 1.769560 0.000000 0.000000 
#    y 0.000000 1.856150 0.000000 
#    z 0.000000 0.000000 1.757900 
# 
# From -- ./inp_files/11629.got.cif
#   From: 2010.05.17/outbox.cif.g08.bks.cpg/sg52_6_cif.got.tgz:11629.got - 2010.06.03 12:15:38.
