data_PCOD9413868
_publ_section_title
;
Structure prediction by ZEFSAII (Michael W. Deem and Ramdas Pophale) SiO2 
 PCOD9413868
Probable space group: P N N A
;
_chemical_formula_sum "Si O2"
_cell_formula_units_Z 20
_cell_length_a 11.526152
_cell_length_b 14.153767
_cell_length_c 4.782398
_cell_angle_alpha 90.000000
_cell_angle_beta 90.000000
_cell_angle_gamma 90.000000
_cell_volume 780.193092
_symmetry_space_group_name_H-M "P N N A"
_symmetry_group_IT_number 52
_symmetry_cell_setting 'orthorhombic'
loop_
_space_group_symop_operation_xyz
x,y,z
1/2-x,-y,z
x,1/2-y,1/2-z
1/2-x,1/2+y,1/2-z
-x,-y,-z
1/2+x,y,-z
-x,1/2+y,1/2+z
1/2+x,1/2-y,1/2+z
loop_
_atom_site_type_symbol
_atom_site_label
_atom_site_fract_x
_atom_site_fract_y
_atom_site_fract_z
Si Si1 0.072567 0.405106 0.457221
Si Si2 0.085308 0.750000 0.250000
Si Si3 0.285607 0.652891 0.917186
O O1 0.183906 0.414676 0.661397
O O2 0.123191 0.378559 0.154574
O O3 0.000000 0.500000 0.500000
O O4 0.989351 0.318890 0.553970
O O5 0.166274 0.822759 0.426453
O O6 0.305697 0.750000 0.750000
#
# Coordination Sequence:
#
# PCOD9413868 Si02
#       3
#     8   4   8
#     4  12  28  50  77 117 157 201 266 329 390 472
#     4  12  26  48  84 104 162 212 246 328 396 450
#     4  12  25  49  74 112 152 205 265 307 399 476
#
# _framework density 25.634677
#
# number of rings (size 3 to 8) (size 9 to 14) (size 15 to 20)
#    0.000    0.000    6.000    1.200    5.600    1.600 
#    7.200    0.000    0.000    0.000    0.000    0.000 
#    0.000    0.000    0.000    0.000    0.000    0.000 
#
# Total GULP energy -111749.346385 kJ/mol
# GULP energy per Si atom -5587.467319 kJ/mol
# Density = 2.557633 g / cm^3
# Si number density = 25.634677 Si / 1000 Ang^3
#
#
#
# Elastic Constant Matrix: (Units=GPa)
#
#
# Indices 1 2 3 4 5 6 
#
# 1 54.4133 39.7434 14.4470 0.0000 0.0000 0.0000
# 2 39.7434 127.1279 40.4719 0.0000 0.0000 0.0000
# 3 14.4470 40.4719 169.0179 0.0000 0.0000 0.0000
# 4 0.0000 0.0000 0.0000 -27.4485 0.0000 0.0000
# 5 0.0000 0.0000 0.0000 0.0000 195.6503 0.0000
# 6 0.0000 0.0000 0.0000 0.0000 0.0000 65.4568
#
#
#
# Elastic Compliance Matrix: (Units=1/GPa)
#
#
# Indices 1 2 3 4 5 6 
#
# 1 0.023828 -0.007362 -0.000274 0.000000 0.000000 0.000000
# 2 -0.007362 0.010790 -0.001954 0.000000 0.000000 0.000000
# 3 -0.000274 -0.001954 0.006408 0.000000 0.000000 0.000000
# 4 0.000000 0.000000 0.000000 -0.036432 0.000000 0.000000
# 5 0.000000 0.000000 0.000000 0.000000 0.005111 0.000000
# 6 0.000000 0.000000 0.000000 0.000000 0.000000 0.015277
#
#
# Mechanical properties :
#
#
# Convention : Reuss Voigt Hill
#
# Bulk Modulus (GPa) = 45.77693 59.98708 52.88201
# Shear Modulus (GPa) = 97.19264 63.79148 80.49206
#
# Velocity S-wave (km/s) = 6.16416 4.99388 5.60962
# Velocity P-wave (km/s) = 8.28001 7.53016 7.91397
#
# Compressibility (1/GPa) = 0.02184506
#
# Stress axis : x y z
#
# Youngs Moduli (GPa) = 41.96788 92.67986 156.05671
#
# Poissons Ratio (x) = 0.68231 0.04274
# Poissons Ratio (y) = 0.30897 0.30500
# Poissons Ratio (z) = 0.01149 0.18113
#
# Static dielectric constant tensor:
#      x y z
#    x 2.128670 0.000000 0.000000 
#    y 0.000000 0.269160 0.000000 
#    z 0.000000 0.000000 1.999940 
# 
# From -- ./inp_files/648.got.cif
#   From: 2010.05.17/outbox.cif.g08.bks.cpg/sg52_1_cif.got.tgz:648.got - 2010.06.03 12:15:38.
