data_PCOD9413525
_publ_section_title
;
Structure prediction by ZEFSAII (Michael W. Deem and Ramdas Pophale) SiO2 
 PCOD9413525
Probable space group: P N N A
;
_chemical_formula_sum "Si O2"
_cell_formula_units_Z 40
_cell_length_a 8.653203
_cell_length_b 17.434314
_cell_length_c 11.896106
_cell_angle_alpha 90.000000
_cell_angle_beta 90.000000
_cell_angle_gamma 90.000000
_cell_volume 1794.678173
_symmetry_space_group_name_H-M "P N N A"
_symmetry_group_IT_number 52
_symmetry_cell_setting 'orthorhombic'
loop_
_space_group_symop_operation_xyz
x,y,z
1/2-x,-y,z
x,1/2-y,1/2-z
1/2-x,1/2+y,1/2-z
-x,-y,-z
1/2+x,y,-z
-x,1/2+y,1/2+z
1/2+x,1/2-y,1/2+z
loop_
_atom_site_type_symbol
_atom_site_label
_atom_site_fract_x
_atom_site_fract_y
_atom_site_fract_z
Si Si1 0.479217 0.474157 0.127248
Si Si2 0.216379 0.839988 0.907886
Si Si3 0.250000 0.000000 0.799166
Si Si4 0.775730 0.883495 0.693387
Si Si5 0.424043 0.190793 0.143031
Si Si6 0.986409 0.750000 0.750000
O O1 0.624760 0.464614 0.209929
O O2 0.368710 0.400075 0.112549
O O3 0.386898 0.544352 0.184049
O O4 0.500000 0.500000 0.000000
O O5 0.396687 0.822954 0.884362
O O6 0.098141 0.802418 0.821326
O O7 0.197198 0.931005 0.881405
O O8 0.163216 0.800667 0.024554
O O9 0.680062 0.879075 0.808826
O O10 0.876036 0.807286 0.680366
O O11 0.420393 0.250000 0.250000
#
# Coordination Sequence:
#
# PCOD9413525 Si02
#       6
#     8   8   4   8   8   4
#     4  11  25  47  75 113 161 214 265 329 400 480
#     4  12  28  49  80 112 157 210 264 340 401 487
#     4  12  24  48  76 116 158 210 284 322 410 486
#     4  11  24  46  74 109 157 199 267 321 399 473
#     4  12  27  51  75 112 151 201 264 331 411 482
#     4  12  24  50  76 118 158 208 268 328 408 476
#
# _framework density 22.288118999999998
#
# number of rings (size 3 to 8) (size 9 to 14) (size 15 to 20)
#    0.000    0.400    6.000    2.400    0.000    4.000 
#    7.200    0.000    0.000    0.000    0.000    0.000 
#    0.000    0.000    0.000    0.000    0.000    0.000 
#
# Total GULP energy -222762.188302 kJ/mol
# GULP energy per Si atom -5569.054708 kJ/mol
# Density = 2.223739 g / cm^3
# Si number density = 22.288119 Si / 1000 Ang^3
#
#
#
# Elastic Constant Matrix: (Units=GPa)
#
#
# Indices 1 2 3 4 5 6 
#
# 1 140.4833 55.2325 39.8609 0.0000 0.0000 0.0000
# 2 55.2325 127.1562 53.7819 0.0000 0.0000 0.0000
# 3 39.8609 53.7819 100.3987 0.0000 0.0000 0.0000
# 4 0.0000 0.0000 0.0000 26.2109 0.0000 0.0000
# 5 0.0000 0.0000 0.0000 0.0000 145.8298 0.0000
# 6 0.0000 0.0000 0.0000 0.0000 0.0000 36.2534
#
#
#
# Elastic Compliance Matrix: (Units=1/GPa)
#
#
# Indices 1 2 3 4 5 6 
#
# 1 0.008851 -0.003049 -0.001881 0.000000 0.000000 0.000000
# 2 -0.003049 0.011219 -0.004799 0.000000 0.000000 0.000000
# 3 -0.001881 -0.004799 0.013278 0.000000 0.000000 0.000000
# 4 0.000000 0.000000 0.000000 0.038152 0.000000 0.000000
# 5 0.000000 0.000000 0.000000 0.000000 0.006857 0.000000
# 6 0.000000 0.000000 0.000000 0.000000 0.000000 0.027584
#
#
# Mechanical properties :
#
#
# Convention : Reuss Voigt Hill
#
# Bulk Modulus (GPa) = 71.99671 73.97654 72.98662
# Shear Modulus (GPa) = 38.45350 56.26968 47.36159
#
# Velocity S-wave (km/s) = 4.15817 5.03004 4.61474
# Velocity P-wave (km/s) = 7.44491 8.18524 7.82384
#
# Compressibility (1/GPa) = 0.01388952
#
# Stress axis : x y z
#
# Youngs Moduli (GPa) = 112.98609 89.13820 75.31412
#
# Poissons Ratio (x) = 0.27178 0.14164
# Poissons Ratio (y) = 0.34449 0.36144
# Poissons Ratio (z) = 0.21249 0.42778
#
# Static dielectric constant tensor:
#      x y z
#    x 1.833860 0.000000 0.000000 
#    y 0.000000 1.824210 0.000000 
#    z 0.000000 0.000000 2.413920 
# 
# From -- ./inp_files/16721.got.cif
#   From: 2010.05.17/outbox.cif.g08.bks.cpg/sg52_9_cif.got.tgz:16721.got - 2010.06.03 12:15:38.
