data_PCOD9413284
_publ_section_title
;
Structure prediction by ZEFSAII (Michael W. Deem and Ramdas Pophale) SiO2 
 PCOD9413284
Probable space group: P N N A
;
_chemical_formula_sum "Si O2"
_cell_formula_units_Z 64
_cell_length_a 19.090469
_cell_length_b 15.900032
_cell_length_c 9.296169
_cell_angle_alpha 90.000000
_cell_angle_beta 90.000000
_cell_angle_gamma 90.000000
_cell_volume 2821.750474
_symmetry_space_group_name_H-M "P N N A"
_symmetry_group_IT_number 52
_symmetry_cell_setting 'orthorhombic'
loop_
_space_group_symop_operation_xyz
x,y,z
1/2-x,-y,z
x,1/2-y,1/2-z
1/2-x,1/2+y,1/2-z
-x,-y,-z
1/2+x,y,-z
-x,1/2+y,1/2+z
1/2+x,1/2-y,1/2+z
loop_
_atom_site_type_symbol
_atom_site_label
_atom_site_fract_x
_atom_site_fract_y
_atom_site_fract_z
Si Si1 0.445944 0.899523 0.373297
Si Si2 0.295124 0.673796 0.133917
Si Si3 0.252941 0.596825 0.852050
Si Si4 0.315131 0.436875 0.567707
Si Si5 0.329223 0.152580 0.210051
Si Si6 0.962197 0.408196 0.890701
Si Si7 0.901264 0.848757 0.222765
Si Si8 0.563647 0.059011 0.957046
O O1 0.373122 0.854441 0.406080
O O2 0.514412 0.865918 0.457737
O O3 0.440466 0.996427 0.423144
O O4 0.449032 0.908366 0.202470
O O5 0.306080 0.750000 0.250000
O O6 0.242500 0.613810 0.224441
O O7 0.255261 0.666972 0.978387
O O8 0.250000 0.500000 0.910279
O O9 0.191339 0.596786 0.731560
O O10 0.326625 0.611956 0.767461
O O11 0.250000 0.500000 0.556142
O O12 0.320258 0.359353 0.458896
O O13 0.374211 0.495831 0.498082
O O14 0.327372 0.250000 0.250000
O O15 0.399589 0.122291 0.288274
O O16 0.034983 0.396200 0.803474
O O17 0.901217 0.750000 0.250000
O O18 0.919540 0.862101 0.056645
O O19 0.500000 0.000000 0.000000
#
# Coordination Sequence:
#
# PCOD9413284 Si02
#       8
#     8   8   8   8   8   8   8   8
#     4  11  24  41  73 101 148 191 260 317 378 479
#     4  11  27  45  69 109 149 198 254 319 402 463
#     4  11  25  44  75 106 146 192 261 326 386 461
#     4  11  22  44  72 103 143 191 259 318 382 464
#     4  11  25  44  70 103 152 201 248 321 400 467
#     4  11  24  44  69 108 142 201 259 313 391 470
#     4  12  25  44  71 104 152 196 252 329 397 451
#     4  12  23  41  68 110 141 196 256 317 386 466
#
# _framework density 22.680955999999998
#
# number of rings (size 3 to 8) (size 9 to 14) (size 15 to 20)
#    0.000    0.750    6.250    1.125    3.500    2.000 
#    0.000    0.000    0.000    1.500    0.000    0.000 
#    0.000    0.000    0.000    0.000    0.000    0.000 
#
# Total GULP energy -356326.549848 kJ/mol
# GULP energy per Si atom -5567.602341 kJ/mol
# Density = 2.262933 g / cm^3
# Si number density = 22.680956 Si / 1000 Ang^3
#
#
#
# Elastic Constant Matrix: (Units=GPa)
#
#
# Indices 1 2 3 4 5 6 
#
# 1 50.4918 1.2687 12.4356 0.0000 0.0000 0.0000
# 2 1.2687 73.2867 34.2641 0.0000 0.0000 0.0000
# 3 12.4356 34.2641 179.2399 0.0000 0.0000 0.0000
# 4 0.0000 0.0000 0.0000 39.6224 0.0000 0.0000
# 5 0.0000 0.0000 0.0000 0.0000 15.3842 0.0000
# 6 0.0000 0.0000 0.0000 0.0000 0.0000 -46.1574
#
#
#
# Elastic Compliance Matrix: (Units=1/GPa)
#
#
# Indices 1 2 3 4 5 6 
#
# 1 0.020157 0.000335 -0.001462 0.000000 0.000000 0.000000
# 2 0.000335 0.014990 -0.002889 0.000000 0.000000 0.000000
# 3 -0.001462 -0.002889 0.006233 0.000000 0.000000 0.000000
# 4 0.000000 0.000000 0.000000 0.025238 0.000000 0.000000
# 5 0.000000 0.000000 0.000000 0.000000 0.065002 0.000000
# 6 0.000000 0.000000 0.000000 0.000000 0.000000 -0.021665
#
#
# Mechanical properties :
#
#
# Convention : Reuss Voigt Hill
#
# Bulk Modulus (GPa) = 29.98789 44.32836 37.15813
# Shear Modulus (GPa) = 38.72874 18.77317 28.75095
#
# Velocity S-wave (km/s) = 4.13673 2.88011 3.56424
# Velocity P-wave (km/s) = 6.00558 5.53595 5.77554
#
# Compressibility (1/GPa) = 0.03334679
#
# Stress axis : x y z
#
# Youngs Moduli (GPa) = 49.61061 66.71191 160.44147
#
# Poissons Ratio (x) = -0.02234 0.23464
# Poissons Ratio (y) = -0.01661 0.46347
# Poissons Ratio (z) = 0.07255 0.19271
#
# Static dielectric constant tensor:
#      x y z
#    x 2.103700 0.000000 0.000000 
#    y 0.000000 1.805440 0.000000 
#    z 0.000000 0.000000 2.021660 
# 
# From -- ./inp_files/13621.got.cif
#   From: 2010.05.17/outbox.cif.g08.bks.cpg/sg52_7_cif.got.tgz:13621.got - 2010.06.03 12:15:38.
