data_PCOD9413550
_publ_section_title
;
Structure prediction by ZEFSAII (Michael W. Deem and Ramdas Pophale) SiO2 
 PCOD9413550
Probable space group: P N N A
;
_chemical_formula_sum "Si O2"
_cell_formula_units_Z 28
_cell_length_a 10.431276
_cell_length_b 9.592888
_cell_length_c 9.794921
_cell_angle_alpha 90.000000
_cell_angle_beta 90.000000
_cell_angle_gamma 90.000000
_cell_volume 980.139176
_symmetry_space_group_name_H-M "P N N A"
_symmetry_group_IT_number 52
_symmetry_cell_setting 'orthorhombic'
loop_
_space_group_symop_operation_xyz
x,y,z
1/2-x,-y,z
x,1/2-y,1/2-z
1/2-x,1/2+y,1/2-z
-x,-y,-z
1/2+x,y,-z
-x,1/2+y,1/2+z
1/2+x,1/2-y,1/2+z
loop_
_atom_site_type_symbol
_atom_site_label
_atom_site_fract_x
_atom_site_fract_y
_atom_site_fract_z
Si Si1 0.697006 0.847224 0.497968
Si Si2 0.975686 0.250000 0.750000
Si Si3 0.388968 0.036602 0.787519
Si Si4 0.344580 0.862882 0.125620
O O1 0.634461 0.873728 0.350560
O O2 0.493640 0.594486 0.375587
O O3 0.810981 0.735578 0.497860
O O4 0.750000 0.000000 0.539804
O O5 0.057064 0.388227 0.753670
O O6 0.891349 0.276338 0.886942
O O7 0.250000 0.000000 0.847188
O O8 0.335914 0.750000 0.250000
O O9 0.250000 0.000000 0.142768
#
# Coordination Sequence:
#
# PCOD9413550 Si02
#       4
#     8   4   8   8
#     4  11  24  48  85 118 159 231 292 350 439 517
#     4  12  22  44  80 118 166 216 284 364 426 516
#     4  11  27  47  81 120 167 222 294 357 438 508
#     4  12  23  46  86 116 166 228 281 360 434 513
#
# _framework density 28.567373
#
# number of rings (size 3 to 8) (size 9 to 14) (size 15 to 20)
#    0.000    0.571    4.286    3.429    2.000    2.286 
#    0.000    1.429   31.429    1.714    0.000    0.000 
#    0.000    0.000    0.000    0.000    0.000    0.000 
#
# Total GULP energy -156961.200436 kJ/mol
# GULP energy per Si atom -5605.757158 kJ/mol
# Density = 2.850235 g / cm^3
# Si number density = 28.567373 Si / 1000 Ang^3
#
#
#
# Elastic Constant Matrix: (Units=GPa)
#
#
# Indices 1 2 3 4 5 6 
#
# 1 249.9994 103.2952 69.2019 0.0000 0.0000 0.0000
# 2 103.2952 239.8046 102.8404 0.0000 0.0000 0.0000
# 3 69.2019 102.8404 185.1053 0.0000 0.0000 0.0000
# 4 0.0000 0.0000 0.0000 114.1591 0.0000 0.0000
# 5 0.0000 0.0000 0.0000 0.0000 -89.0386 0.0000
# 6 0.0000 0.0000 0.0000 0.0000 0.0000 80.3757
#
#
#
# Elastic Compliance Matrix: (Units=1/GPa)
#
#
# Indices 1 2 3 4 5 6 
#
# 1 0.004972 -0.001765 -0.000878 0.000000 0.000000 0.000000
# 2 -0.001765 0.006101 -0.002730 0.000000 0.000000 0.000000
# 3 -0.000878 -0.002730 0.007247 0.000000 0.000000 0.000000
# 4 0.000000 0.000000 0.000000 0.008760 0.000000 0.000000
# 5 0.000000 0.000000 0.000000 0.000000 -0.011231 0.000000
# 6 0.000000 0.000000 0.000000 0.000000 0.000000 0.012442
#
#
# Mechanical properties :
#
#
# Convention : Reuss Voigt Hill
#
# Bulk Modulus (GPa) = 132.02312 136.17602 134.09957
# Shear Modulus (GPa) = 120.30198 47.73736 84.01967
#
# Velocity S-wave (km/s) = 6.49639 4.09228 5.42908
# Velocity P-wave (km/s) = 10.12846 8.37262 9.29211
#
# Compressibility (1/GPa) = 0.00757443
#
# Stress axis : x y z
#
# Youngs Moduli (GPa) = 201.10683 163.90588 137.98426
#
# Poissons Ratio (x) = 0.28934 0.12118
# Poissons Ratio (y) = 0.35500 0.37665
# Poissons Ratio (z) = 0.17662 0.44741
#
# Static dielectric constant tensor:
#      x y z
#    x 2.457950 0.000000 0.000000 
#    y 0.000000 2.160490 0.000000 
#    z 0.000000 0.000000 2.234640 
# 
# From -- ./inp_files/18734.got.cif
#   From: 2010.05.17/outbox.cif.g08.bks.cpg/sg52_10_cif.got.tgz:18734.got - 2010.06.03 12:15:38.
