data_PCOD9413713
_publ_section_title
;
Structure prediction by ZEFSAII (Michael W. Deem and Ramdas Pophale) SiO2 
 PCOD9413713
Probable space group: P N N A
;
_chemical_formula_sum "Si O2"
_cell_formula_units_Z 52
_cell_length_a 19.403482
_cell_length_b 7.897985
_cell_length_c 17.078908
_cell_angle_alpha 90.000000
_cell_angle_beta 90.000000
_cell_angle_gamma 90.000000
_cell_volume 2617.315492
_symmetry_space_group_name_H-M "P N N A"
_symmetry_group_IT_number 52
_symmetry_cell_setting 'orthorhombic'
loop_
_space_group_symop_operation_xyz
x,y,z
1/2-x,-y,z
x,1/2-y,1/2-z
1/2-x,1/2+y,1/2-z
-x,-y,-z
1/2+x,y,-z
-x,1/2+y,1/2+z
1/2+x,1/2-y,1/2+z
loop_
_atom_site_type_symbol
_atom_site_label
_atom_site_fract_x
_atom_site_fract_y
_atom_site_fract_z
Si Si1 0.676855 0.422890 0.301553
Si Si2 0.995065 0.027436 0.328355
Si Si3 0.117486 0.310836 0.087685
Si Si4 0.442739 0.473135 0.342094
Si Si5 0.935401 0.791321 0.083281
Si Si6 0.160346 0.750000 0.250000
Si Si7 0.403609 0.250000 0.750000
Si Si8 0.750000 0.000000 0.645390
O O1 0.750000 0.500000 0.325350
O O2 0.683327 0.250000 0.250000
O O3 0.627937 0.381880 0.374113
O O4 0.640717 0.580583 0.257942
O O5 0.951528 0.201644 0.324486
O O6 0.065081 0.053529 0.375235
O O7 0.953952 0.874583 0.365903
O O8 0.013160 0.994034 0.237815
O O9 0.194585 0.386020 0.096607
O O10 0.100729 0.140130 0.136700
O O11 0.090412 0.267240 0.001235
O O12 0.495905 0.407513 0.408177
O O13 0.387679 0.334009 0.315885
O O14 0.206664 0.881940 0.296589
#
# Coordination Sequence:
#
# PCOD9413713 Si02
#       8
#     8   8   8   8   8   4   4   4
#     4  12  24  43  68  99 134 184 239 285 348 426
#     4  12  21  42  74 102 131 174 240 293 345 413
#     4  12  26  43  67 102 147 183 224 286 372 432
#     4  12  21  42  74 102 126 177 244 295 342 413
#     4  12  24  44  68 103 143 178 227 305 363 420
#     4  12  24  41  75  96 130 176 248 294 336 412
#     4  12  22  39  73 102 130 168 234 302 336 400
#     4  12  26  46  62 102 140 192 228 282 358 442
#
# _framework density 19.867685999999999
#
# number of rings (size 3 to 8) (size 9 to 14) (size 15 to 20)
#    0.000    0.000    8.462    1.846    0.000    0.000 
#    6.923    0.000    0.000    0.000    0.000    0.000 
#    0.000    0.000    0.000    0.000    0.000    0.000 
#
# Total GULP energy -290373.546538 kJ/mol
# GULP energy per Si atom -5584.106664 kJ/mol
# Density = 1.982247 g / cm^3
# Si number density = 19.867686 Si / 1000 Ang^3
#
#
#
# Elastic Constant Matrix: (Units=GPa)
#
#
# Indices 1 2 3 4 5 6 
#
# 1 156.5620 58.9673 46.5508 0.0000 0.0000 0.0000
# 2 58.9673 116.7980 37.2755 0.0000 0.0000 0.0000
# 3 46.5508 37.2755 97.1546 0.0000 0.0000 0.0000
# 4 0.0000 0.0000 0.0000 14.5402 0.0000 0.0000
# 5 0.0000 0.0000 0.0000 0.0000 10.4422 0.0000
# 6 0.0000 0.0000 0.0000 0.0000 0.0000 58.1640
#
#
#
# Elastic Compliance Matrix: (Units=1/GPa)
#
#
# Indices 1 2 3 4 5 6 
#
# 1 0.008491 -0.003405 -0.002762 0.000000 0.000000 0.000000
# 2 -0.003405 0.011122 -0.002636 0.000000 0.000000 0.000000
# 3 -0.002762 -0.002636 0.012627 0.000000 0.000000 0.000000
# 4 0.000000 0.000000 0.000000 0.068775 0.000000 0.000000
# 5 0.000000 0.000000 0.000000 0.000000 0.095765 0.000000
# 6 0.000000 0.000000 0.000000 0.000000 0.000000 0.017193
#
#
# Mechanical properties :
#
#
# Convention : Reuss Voigt Hill
#
# Bulk Modulus (GPa) = 68.32975 72.90021 70.61498
# Shear Modulus (GPa) = 21.14543 31.81068 26.47805
#
# Velocity S-wave (km/s) = 3.26592 4.00575 3.65460
# Velocity P-wave (km/s) = 6.97773 7.62674 7.30944
#
# Compressibility (1/GPa) = 0.01463491
#
# Stress axis : x y z
#
# Youngs Moduli (GPa) = 117.77124 89.91021 79.19288
#
# Poissons Ratio (x) = 0.30618 0.21872
# Poissons Ratio (y) = 0.40106 0.20872
# Poissons Ratio (z) = 0.32527 0.23697
#
# Static dielectric constant tensor:
#      x y z
#    x 1.766830 0.000000 0.000000 
#    y 0.000000 1.759260 0.000000 
#    z 0.000000 0.000000 1.769980 
# 
# From -- ./inp_files/33753.got.cif
#   From: 2010.05.17/outbox.cif.g08.bks.cpg/sg52_17_cif.got.tgz:33753.got - 2010.06.03 12:15:38.
