data_PCOD9413941
_publ_section_title
;
Structure prediction by ZEFSAII (Michael W. Deem and Ramdas Pophale) SiO2 
 PCOD9413941
Probable space group: P N N A
;
_chemical_formula_sum "Si O2"
_cell_formula_units_Z 56
_cell_length_a 24.407023
_cell_length_b 7.495884
_cell_length_c 14.208107
_cell_angle_alpha 90.000000
_cell_angle_beta 90.000000
_cell_angle_gamma 90.000000
_cell_volume 2599.404621
_symmetry_space_group_name_H-M "P N N A"
_symmetry_group_IT_number 52
_symmetry_cell_setting 'orthorhombic'
loop_
_space_group_symop_operation_xyz
x,y,z
1/2-x,-y,z
x,1/2-y,1/2-z
1/2-x,1/2+y,1/2-z
-x,-y,-z
1/2+x,y,-z
-x,1/2+y,1/2+z
1/2+x,1/2-y,1/2+z
loop_
_atom_site_type_symbol
_atom_site_label
_atom_site_fract_x
_atom_site_fract_y
_atom_site_fract_z
Si Si1 0.185936 0.536348 0.456930
Si Si2 0.685936 0.963652 0.543070
Si Si3 0.524691 0.957556 0.647808
Si Si4 0.579639 0.533680 0.045311
Si Si5 0.024691 0.542444 0.352192
Si Si6 0.315058 0.462902 0.250000
Si Si7 0.920361 0.033680 0.045311
O O1 0.250000 0.500000 0.472615
O O2 0.181254 0.750000 0.451901
O O3 0.167688 0.468419 0.352773
O O4 0.142817 0.477296 0.535834
O O5 0.642817 0.022704 0.464166
O O6 0.667688 0.031581 0.647227
O O7 0.750000 0.000000 0.527385
O O8 0.552552 0.030229 0.553492
O O9 0.541007 0.750000 0.650797
O O10 0.538246 0.035357 0.750000
O O11 0.459664 0.967635 0.627686
O O12 0.576873 0.750000 0.049397
O O13 0.959664 0.532365 0.372314
O O14 0.052552 0.469771 0.446508
O O15 0.250000 0.500000 0.250000
O O16 0.325016 0.250000 0.250000
#
# Coordination Sequence:
#
# PCOD9413941 Si02
#       7
#     8   8   8   8   8   8   8
#     4   9  17  28  44  66  93 124 154 186 226 272
#     4   9  17  28  44  66  93 124 154 186 226 272
#     4   9  18  32  50  70  93 123 157 193 233 276
#     4   9  18  31  48  71  96 123 156 191 231 277
#     4   9  18  32  50  70  93 123 157 193 233 276
#     4   8  14  24  38  58  86 118 150 178 211 260
#     4   9  18  31  48  71  96 123 156 191 231 277
#
# _framework density 21.543395
#
# number of rings (size 3 to 8) (size 9 to 14) (size 15 to 20)
#    0.000    3.143    0.000    0.000    2.000    1.714 
#    0.000    0.000    0.000    0.857    0.000    0.000 
#    0.000    0.000    0.000    0.000    0.000    0.000 
#
# Total GULP energy -311998.792684 kJ/mol
# GULP energy per Si atom -5571.407012 kJ/mol
# Density = 2.149436 g / cm^3
# Si number density = 21.543395 Si / 1000 Ang^3
#
#
#
# Elastic Constant Matrix: (Units=GPa)
#
#
# Indices 1 2 3 4 5 6 
#
# 1 86.7337 -7.3528 1.8476 0.0000 0.0000 0.0000
# 2 -7.3528 61.1720 -0.4357 0.0000 0.0000 0.0000
# 3 1.8476 -0.4357 45.6097 0.0000 0.0000 0.0000
# 4 0.0000 0.0000 0.0000 8.4982 0.0000 0.0000
# 5 0.0000 0.0000 0.0000 0.0000 28.3221 0.0000
# 6 0.0000 0.0000 0.0000 0.0000 0.0000 13.5168
#
#
#
# Elastic Compliance Matrix: (Units=1/GPa)
#
#
# Indices 1 2 3 4 5 6 
#
# 1 0.011658 0.001398 -0.000459 0.000000 0.000000 0.000000
# 2 0.001398 0.016516 0.000101 0.000000 0.000000 0.000000
# 3 -0.000459 0.000101 0.021945 0.000000 0.000000 0.000000
# 4 0.000000 0.000000 0.000000 0.117672 0.000000 0.000000
# 5 0.000000 0.000000 0.000000 0.000000 0.035308 0.000000
# 6 0.000000 0.000000 0.000000 0.000000 0.000000 0.073982
#
#
# Mechanical properties :
#
#
# Convention : Reuss Voigt Hill
#
# Bulk Modulus (GPa) = 19.15740 20.18151 19.66946
# Shear Modulus (GPa) = 17.09988 23.36451 20.23220
#
# Velocity S-wave (km/s) = 2.82040 3.29680 3.06786
# Velocity P-wave (km/s) = 4.41791 4.88672 4.65822
#
# Compressibility (1/GPa) = 0.05219914
#
# Stress axis : x y z
#
# Youngs Moduli (GPa) = 85.77924 60.54696 45.56908
#
# Poissons Ratio (x) = -0.08464 0.02091
# Poissons Ratio (y) = -0.11992 -0.00461
# Poissons Ratio (z) = 0.03936 -0.00612
#
# Static dielectric constant tensor:
#      x y z
#    x 1.837050 0.000000 0.000000 
#    y 0.000000 1.837370 0.000000 
#    z 0.000000 0.000000 1.786810 
# 
# From -- ./inp_files/21708.got.cif
#   From: 2010.05.17/outbox.cif.g08.bks.cpg/sg52_11_cif.got.tgz:21708.got - 2010.06.03 12:15:38.
