data_PCOD9413294
_publ_section_title
;
Structure prediction by ZEFSAII (Michael W. Deem and Ramdas Pophale) SiO2 
 PCOD9413294
Probable space group: P N N A
;
_chemical_formula_sum "Si O2"
_cell_formula_units_Z 48
_cell_length_a 11.246751
_cell_length_b 12.687954
_cell_length_c 14.791524
_cell_angle_alpha 90.000000
_cell_angle_beta 90.000000
_cell_angle_gamma 90.000000
_cell_volume 2110.724728
_symmetry_space_group_name_H-M "P N N A"
_symmetry_group_IT_number 52
_symmetry_cell_setting 'orthorhombic'
loop_
_space_group_symop_operation_xyz
x,y,z
1/2-x,-y,z
x,1/2-y,1/2-z
1/2-x,1/2+y,1/2-z
-x,-y,-z
1/2+x,y,-z
-x,1/2+y,1/2+z
1/2+x,1/2-y,1/2+z
loop_
_atom_site_type_symbol
_atom_site_label
_atom_site_fract_x
_atom_site_fract_y
_atom_site_fract_z
Si Si1 0.591791 0.932910 0.560272
Si Si2 0.270505 0.250755 0.978217
Si Si3 0.194957 0.614054 0.351703
Si Si4 0.958842 0.299083 0.335491
Si Si5 0.458243 0.766690 0.853530
Si Si6 0.878799 0.610738 0.794104
O O1 0.693050 0.872868 0.500042
O O2 0.527539 0.835310 0.608858
O O3 0.500000 0.000000 0.500000
O O4 0.626105 0.014607 0.638603
O O5 0.380801 0.197934 0.923605
O O6 0.155642 0.228445 0.917934
O O7 0.257663 0.192544 0.072529
O O8 0.471717 0.602397 0.291422
O O9 0.054213 0.637765 0.353178
O O10 0.253901 0.865076 0.246534
O O11 0.885076 0.250000 0.250000
O O12 0.059632 0.208533 0.345214
O O13 0.422296 0.750000 0.750000
O O14 0.750000 0.500000 0.625805
#
# Coordination Sequence:
#
# PCOD9413294 Si02
#       6
#     8   8   8   8   8   8
#     4  11  22  46  74 116 142 200 266 324 393 480
#     4  11  24  46  72 108 158 189 255 328 397 477
#     4  11  26  46  70 103 139 204 259 314 377 480
#     4   8  19  40  74  98 139 198 238 303 386 458
#     4  11  27  46  69 107 154 192 243 332 403 458
#     4   9  21  42  75 101 139 192 257 300 379 472
#
# _framework density 22.741004
#
# number of rings (size 3 to 8) (size 9 to 14) (size 15 to 20)
#    1.000    0.667    1.667    1.500    7.000    1.333 
#   12.000    0.000    0.000    0.000    0.000    0.000 
#    0.000    0.000    0.000    0.000    0.000    0.000 
#
# Total GULP energy -267759.109089 kJ/mol
# GULP energy per Si atom -5578.314773 kJ/mol
# Density = 2.268924 g / cm^3
# Si number density = 22.741004 Si / 1000 Ang^3
#
#
#
# Elastic Constant Matrix: (Units=GPa)
#
#
# Indices 1 2 3 4 5 6 
#
# 1 167.3477 72.2470 87.0207 0.0000 0.0000 0.0000
# 2 72.2470 126.7299 56.9341 0.0000 0.0000 0.0000
# 3 87.0207 56.9341 130.3448 0.0000 0.0000 0.0000
# 4 0.0000 0.0000 0.0000 48.8002 0.0000 0.0000
# 5 0.0000 0.0000 0.0000 0.0000 50.3862 0.0000
# 6 0.0000 0.0000 0.0000 0.0000 0.0000 28.8809
#
#
#
# Elastic Compliance Matrix: (Units=1/GPa)
#
#
# Indices 1 2 3 4 5 6 
#
# 1 0.010231 -0.003439 -0.005328 0.000000 0.000000 0.000000
# 2 -0.003439 0.010973 -0.002497 0.000000 0.000000 0.000000
# 3 -0.005328 -0.002497 0.012320 0.000000 0.000000 0.000000
# 4 0.000000 0.000000 0.000000 0.020492 0.000000 0.000000
# 5 0.000000 0.000000 0.000000 0.000000 0.019847 0.000000
# 6 0.000000 0.000000 0.000000 0.000000 0.000000 0.034625
#
#
# Mechanical properties :
#
#
# Convention : Reuss Voigt Hill
#
# Bulk Modulus (GPa) = 90.94683 95.20287 93.07485
# Shear Modulus (GPa) = 37.12479 39.49483 38.30981
#
# Velocity S-wave (km/s) = 4.04481 4.17192 4.10886
# Velocity P-wave (km/s) = 7.86723 8.07226 7.97040
#
# Compressibility (1/GPa) = 0.01099544
#
# Stress axis : x y z
#
# Youngs Moduli (GPa) = 97.74367 91.13232 81.16872
#
# Poissons Ratio (x) = 0.31338 0.43249
# Poissons Ratio (y) = 0.33611 0.20270
# Poissons Ratio (z) = 0.52081 0.22758
#
# Static dielectric constant tensor:
#      x y z
#    x 1.904310 0.000000 0.000000 
#    y 0.000000 1.882600 0.000000 
#    z 0.000000 0.000000 1.856410 
# 
# From -- ./inp_files/26382.got.cif
#   From: 2010.05.17/outbox.cif.g08.bks.cpg/sg52_14_cif.got.tgz:26382.got - 2010.06.03 12:15:38.
