data_PCOD9414252
_publ_section_title
;
Structure prediction by ZEFSAII (Michael W. Deem and Ramdas Pophale) SiO2 
 PCOD9414252
Probable space group: P M N A
;
_chemical_formula_sum "Si O2"
_cell_formula_units_Z 64
_cell_length_a 7.943373
_cell_length_b 15.468432
_cell_length_c 30.667462
_cell_angle_alpha 90.000000
_cell_angle_beta 90.000000
_cell_angle_gamma 90.000000
_cell_volume 3768.157827
_symmetry_space_group_name_H-M "P M N A"
_symmetry_group_IT_number 53
_symmetry_cell_setting 'orthorhombic'
loop_
_space_group_symop_operation_xyz
x,y,z
1/2-x,-y,1/2+z
x,-y,-z
1/2-x,y,1/2-z
-x,-y,-z
1/2+x,y,1/2-z
-x,y,z
1/2+x,-y,1/2+z
loop_
_atom_site_type_symbol
_atom_site_label
_atom_site_fract_x
_atom_site_fract_y
_atom_site_fract_z
Si Si1 0.297605 0.012262 0.202079
Si Si2 0.705933 0.818803 0.039320
Si Si3 0.196603 0.624295 0.475435
Si Si4 0.298827 0.211838 0.202017
Si Si5 0.293476 0.958592 0.108405
Si Si6 0.301408 0.290668 0.387615
Si Si7 0.199345 0.872946 0.555630
Si Si8 0.194699 0.544412 0.934594
O O1 0.250000 0.978896 0.250000
O O2 0.500000 0.014751 0.200637
O O3 0.238589 0.962893 0.158773
O O4 0.237348 0.112107 0.198638
O O5 0.500000 0.820617 0.039019
O O6 0.755134 0.718218 0.040061
O O7 0.760563 0.876312 0.080152
O O8 0.765128 0.859900 0.993399
O O9 0.215652 0.547259 0.440713
O O10 0.292206 0.592825 0.518638
O O11 0.000000 0.631148 0.487716
O O12 0.250000 0.243452 0.250000
O O13 0.500000 0.210678 0.197790
O O14 0.227207 0.266599 0.162388
O O15 0.500000 0.959543 0.108742
O O16 0.235754 0.045371 0.083061
O O17 0.500000 0.291066 0.397213
O O18 0.223943 0.214829 0.417174
O O19 0.235221 0.385209 0.400832
O O20 0.000000 0.887919 0.551074
O O21 0.000000 0.526338 0.924806
#
# Coordination Sequence:
#
# PCOD9414252 Si02
#       8
#     8   8   8   8   8   8   8   8
#     4   9  17  29  46  66  90 119 152 189 228 272
#     4   9  17  27  45  70  94 120 157 202 237 273
#     4  10  18  29  47  70  91 115 154 202 238 271
#     4  10  19  32  49  71  95 124 157 193 236 282
#     4   9  16  28  45  68  93 123 158 191 233 280
#     4  11  21  31  46  68  95 128 161 194 232 280
#     4  10  17  29  46  66  93 126 162 193 227 273
#     4  10  20  32  46  64  91 126 156 187 235 285
#
# _framework density 16.984425999999999
#
# number of rings (size 3 to 8) (size 9 to 14) (size 15 to 20)
#    0.000    2.250    2.500    2.625    0.000    3.500 
#    0.000    0.000    0.000    5.250    0.000    0.875 
#    0.000    4.000    0.000    0.000    0.000    0.000 
#
# Total GULP energy -356905.240650 kJ/mol
# GULP energy per Si atom -5576.644385 kJ/mol
# Density = 1.694577 g / cm^3
# Si number density = 16.984426 Si / 1000 Ang^3
#
#
#
# Elastic Constant Matrix: (Units=GPa)
#
#
# Indices 1 2 3 4 5 6 
#
# 1 13.6635 1.9530 -3.7774 0.0000 0.0000 0.0000
# 2 1.9530 91.9931 68.7900 0.0000 0.0000 0.0000
# 3 -3.7774 68.7900 139.9350 0.0000 0.0000 0.0000
# 4 0.0000 0.0000 0.0000 24.1274 0.0000 0.0000
# 5 0.0000 0.0000 0.0000 0.0000 14.9779 0.0000
# 6 0.0000 0.0000 0.0000 0.0000 0.0000 34.8899
#
#
#
# Elastic Compliance Matrix: (Units=1/GPa)
#
#
# Indices 1 2 3 4 5 6 
#
# 1 0.075120 -0.004920 0.004446 0.000000 0.000000 0.000000
# 2 -0.004920 0.017511 -0.008741 0.000000 0.000000 0.000000
# 3 0.004446 -0.008741 0.011563 0.000000 0.000000 0.000000
# 4 0.000000 0.000000 0.000000 0.041447 0.000000 0.000000
# 5 0.000000 0.000000 0.000000 0.000000 0.066765 0.000000
# 6 0.000000 0.000000 0.000000 0.000000 0.000000 0.028662
#
#
# Mechanical properties :
#
#
# Convention : Reuss Voigt Hill
#
# Bulk Modulus (GPa) = 11.65966 42.16921 26.91444
# Shear Modulus (GPa) = 17.35598 26.70742 22.03170
#
# Velocity S-wave (km/s) = 3.20015 3.96973 3.60553
# Velocity P-wave (km/s) = 4.53149 6.77450 5.76317
#
# Compressibility (1/GPa) = 0.08576577
#
# Stress axis : x y z
#
# Youngs Moduli (GPa) = 13.31198 57.10654 86.48162
#
# Poissons Ratio (x) = 0.28094 -0.38451
# Poissons Ratio (y) = 0.06549 0.75594
# Poissons Ratio (z) = -0.05919 0.49917
#
# Static dielectric constant tensor:
#      x y z
#    x 1.616790 0.000000 0.000000 
#    y 0.000000 1.577290 0.000000 
#    z 0.000000 0.000000 1.573230 
# 
# From -- ./inp_files/38478.got.cif
#   From: 2010.05.17/outbox.cif.g08.bks.cpg/sg53_20_cif.got.tgz:38478.got - 2010.06.03 12:45:16.
