data_PCOD9414586
_publ_section_title
;
Structure prediction by ZEFSAII (Michael W. Deem and Ramdas Pophale) SiO2 
 PCOD9414586
Probable space group: P M N A
;
_chemical_formula_sum "Si O2"
_cell_formula_units_Z 64
_cell_length_a 27.550233
_cell_length_b 10.381030
_cell_length_c 14.606029
_cell_angle_alpha 90.000000
_cell_angle_beta 90.000000
_cell_angle_gamma 90.000000
_cell_volume 4177.321304
_symmetry_space_group_name_H-M "P M N A"
_symmetry_group_IT_number 53
_symmetry_cell_setting 'orthorhombic'
loop_
_space_group_symop_operation_xyz
x,y,z
1/2-x,-y,1/2+z
x,-y,-z
1/2-x,y,1/2-z
-x,-y,-z
1/2+x,y,1/2-z
-x,y,z
1/2+x,-y,1/2+z
loop_
_atom_site_type_symbol
_atom_site_label
_atom_site_fract_x
_atom_site_fract_y
_atom_site_fract_z
Si Si1 0.366863 0.023154 0.291867
Si Si2 0.279079 0.895374 0.581885
Si Si3 0.709221 0.726524 0.170835
Si Si4 0.213565 0.356417 0.966147
Si Si5 0.134264 0.715571 0.185271
Si Si6 0.325650 0.994171 0.895703
Si Si7 0.942850 0.121243 0.067582
Si Si8 0.942051 0.371310 0.945470
O O1 0.315959 0.064837 0.338446
O O2 0.408918 0.098111 0.345348
O O3 0.373238 0.869483 0.307089
O O4 0.362745 0.045802 0.183417
O O5 0.287442 0.752240 0.544267
O O6 0.287038 0.000000 0.500000
O O7 0.222724 0.907682 0.607648
O O8 0.750000 0.745765 0.250000
O O9 0.735705 0.650128 0.090041
O O10 0.661703 0.671582 0.222054
O O11 0.694026 0.864364 0.131150
O O12 0.172346 0.313503 0.895180
O O13 0.204961 0.500000 0.000000
O O14 0.085680 0.647494 0.150203
O O15 0.343878 0.000000 0.000000
O O16 0.000000 0.126156 0.091316
O O17 0.930395 0.248968 0.010182
O O18 0.935258 0.000000 0.000000
O O19 0.000000 0.373310 0.931609
O O20 0.927848 0.500000 0.000000
#
# Coordination Sequence:
#
# PCOD9414586 Si02
#       8
#     8   8   8   8   8   8   8   8
#     4  11  19  29  50  75  94 122 164 202 233 282
#     4  11  17  30  48  68  95 123 159 196 237 283
#     4   9  17  31  48  65  91 130 162 190 234 284
#     4  11  20  30  45  68  99 129 158 196 238 277
#     4  10  18  30  48  69  92 129 166 186 228 292
#     4  10  18  30  49  69  91 123 164 206 235 272
#     4  10  19  32  50  74 101 123 150 191 239 289
#     4  10  20  33  49  72 103 129 152 188 236 285
#
# _framework density 15.320823000000001
#
# number of rings (size 3 to 8) (size 9 to 14) (size 15 to 20)
#    0.000    1.750    5.000    3.375    0.000    0.000 
#    0.000    5.000    0.000    0.375    0.000    0.000 
#    0.000    0.500    0.000    0.500    0.000    0.000 
#
# Total GULP energy -356772.215018 kJ/mol
# GULP energy per Si atom -5574.565860 kJ/mol
# Density = 1.528595 g / cm^3
# Si number density = 15.320823 Si / 1000 Ang^3
#
#
#
# Elastic Constant Matrix: (Units=GPa)
#
#
# Indices 1 2 3 4 5 6 
#
# 1 45.6369 7.4102 27.6795 0.0000 0.0000 0.0000
# 2 7.4102 69.8304 11.4594 0.0000 0.0000 0.0000
# 3 27.6795 11.4594 74.7764 0.0000 0.0000 0.0000
# 4 0.0000 0.0000 0.0000 11.5744 0.0000 0.0000
# 5 0.0000 0.0000 0.0000 0.0000 25.6920 0.0000
# 6 0.0000 0.0000 0.0000 0.0000 0.0000 8.8165
#
#
#
# Elastic Compliance Matrix: (Units=1/GPa)
#
#
# Indices 1 2 3 4 5 6 
#
# 1 0.028374 -0.001321 -0.010301 0.000000 0.000000 0.000000
# 2 -0.001321 0.014751 -0.001772 0.000000 0.000000 0.000000
# 3 -0.010301 -0.001772 0.017458 0.000000 0.000000 0.000000
# 4 0.000000 0.000000 0.000000 0.086398 0.000000 0.000000
# 5 0.000000 0.000000 0.000000 0.000000 0.038923 0.000000
# 6 0.000000 0.000000 0.000000 0.000000 0.000000 0.113424
#
#
# Mechanical properties :
#
#
# Convention : Reuss Voigt Hill
#
# Bulk Modulus (GPa) = 29.58849 31.48244 30.53546
# Shear Modulus (GPa) = 14.82015 18.79622 16.80818
#
# Velocity S-wave (km/s) = 3.11355 3.50643 3.31581
# Velocity P-wave (km/s) = 5.68156 6.08168 5.88502
#
# Compressibility (1/GPa) = 0.03379693
#
# Stress axis : x y z
#
# Youngs Moduli (GPa) = 35.24344 67.79056 57.28141
#
# Poissons Ratio (x) = 0.08952 0.59004
# Poissons Ratio (y) = 0.04654 0.10149
# Poissons Ratio (z) = 0.36303 0.12011
#
# Static dielectric constant tensor:
#      x y z
#    x 1.536290 0.000000 0.000000 
#    y 0.000000 1.497490 0.000000 
#    z 0.000000 0.000000 1.527080 
# 
# From -- ./inp_files/25222.got.cif
#   From: 2010.05.17/outbox.cif.g08.bks.cpg/sg53_13_cif.got.tgz:25222.got - 2010.06.03 12:45:16.
