data_PCOD9414302
_publ_section_title
;
Structure prediction by ZEFSAII (Michael W. Deem and Ramdas Pophale) SiO2 
 PCOD9414302
Probable space group: P M N A
;
_chemical_formula_sum "Si O2"
_cell_formula_units_Z 48
_cell_length_a 9.033476
_cell_length_b 10.125841
_cell_length_c 24.723372
_cell_angle_alpha 90.000000
_cell_angle_beta 90.000000
_cell_angle_gamma 90.000000
_cell_volume 2261.484952
_symmetry_space_group_name_H-M "P M N A"
_symmetry_group_IT_number 53
_symmetry_cell_setting 'orthorhombic'
loop_
_space_group_symop_operation_xyz
x,y,z
1/2-x,-y,1/2+z
x,-y,-z
1/2-x,y,1/2-z
-x,-y,-z
1/2+x,y,1/2-z
-x,y,z
1/2+x,-y,1/2+z
loop_
_atom_site_type_symbol
_atom_site_label
_atom_site_fract_x
_atom_site_fract_y
_atom_site_fract_z
Si Si1 0.171036 0.509447 0.111175
Si Si2 0.672493 0.876576 0.462809
Si Si3 0.826195 0.327267 0.469043
Si Si4 0.171185 0.778422 0.870206
Si Si5 0.328953 0.054015 0.663893
Si Si6 0.326099 0.691933 0.195591
O O1 0.246089 0.456637 0.055934
O O2 0.182542 0.917382 0.099539
O O3 0.256531 0.620138 0.143636
O O4 0.000000 0.545891 0.102126
O O5 0.500000 0.850238 0.475105
O O6 0.761815 0.745535 0.478664
O O7 0.783238 0.223994 0.420601
O O8 0.719664 0.000000 0.500000
O O9 0.000000 0.348691 0.473102
O O10 0.675196 0.374256 0.352326
O O11 0.202381 0.898211 0.830170
O O12 0.000000 0.800285 0.889460
O O13 0.500000 0.081958 0.680027
O O14 0.217495 0.154278 0.691270
O O15 0.250000 0.639317 0.250000
O O16 0.500000 0.672761 0.197288
#
# Coordination Sequence:
#
# PCOD9414302 Si02
#       6
#     8   8   8   8   8   8
#     4   9  18  38  63  85 111 151 197 241 289 346
#     4  10  17  31  54  83 120 165 204 235 283 353
#     4  10  18  28  50  85 121 152 189 238 285 333
#     4   8  16  33  58  84 115 154 194 237 284 342
#     4  10  20  37  61  89 122 160 200 242 292 349
#     4  12  26  44  64  87 115 151 195 244 302 360
#
# _framework density 21.224992
#
# number of rings (size 3 to 8) (size 9 to 14) (size 15 to 20)
#    1.000    1.167    1.667    3.000    0.000    1.667 
#    0.000    1.667    0.000    5.000    0.000    0.000 
#    0.000    0.000    0.000    0.000    0.000    0.000 
#
# Total GULP energy -267737.187122 kJ/mol
# GULP energy per Si atom -5577.858065 kJ/mol
# Density = 2.117668 g / cm^3
# Si number density = 21.224992 Si / 1000 Ang^3
#
#
#
# Elastic Constant Matrix: (Units=GPa)
#
#
# Indices 1 2 3 4 5 6 
#
# 1 113.9137 34.6000 27.1821 0.0000 0.0000 0.0000
# 2 34.6000 99.7550 18.2311 0.0000 0.0000 0.0000
# 3 27.1821 18.2311 55.4595 0.0000 0.0000 0.0000
# 4 0.0000 0.0000 0.0000 16.9247 0.0000 0.0000
# 5 0.0000 0.0000 0.0000 0.0000 7.7328 0.0000
# 6 0.0000 0.0000 0.0000 0.0000 0.0000 780.2836
#
#
#
# Elastic Compliance Matrix: (Units=1/GPa)
#
#
# Indices 1 2 3 4 5 6 
#
# 1 0.010688 -0.002925 -0.004277 0.000000 0.000000 0.000000
# 2 -0.002925 0.011466 -0.002335 0.000000 0.000000 0.000000
# 3 -0.004277 -0.002335 0.020895 0.000000 0.000000 0.000000
# 4 0.000000 0.000000 0.000000 0.059085 0.000000 0.000000
# 5 0.000000 0.000000 0.000000 0.000000 0.129320 0.000000
# 6 0.000000 0.000000 0.000000 0.000000 0.000000 0.001282
#
#
# Mechanical properties :
#
#
# Convention : Reuss Voigt Hill
#
# Bulk Modulus (GPa) = 41.71220 47.68385 44.69802
# Shear Modulus (GPa) = 19.24550 173.59589 96.42070
#
# Velocity S-wave (km/s) = 3.01448 9.05351 6.74733
# Velocity P-wave (km/s) = 5.64014 11.48053 9.04472
#
# Compressibility (1/GPa) = 0.02397380
#
# Stress axis : x y z
#
# Youngs Moduli (GPa) = 93.56618 87.21398 47.85844
#
# Poissons Ratio (x) = 0.25514 0.20467
# Poissons Ratio (y) = 0.27372 0.11177
# Poissons Ratio (z) = 0.40015 0.20368
#
# Static dielectric constant tensor:
#      x y z
#    x 1.717410 0.000000 0.000000 
#    y 0.000000 1.850170 0.000000 
#    z 0.000000 0.000000 1.803600 
# 
# From -- ./inp_files/36182.got.cif
#   From: 2010.05.17/outbox.cif.g08.bks.cpg/sg53_19_cif.got.tgz:36182.got - 2010.06.03 12:45:16.
