data_PCOD9414522
_publ_section_title
;
Structure prediction by ZEFSAII (Michael W. Deem and Ramdas Pophale) SiO2 
 PCOD9414522
Probable space group: P M N A
;
_chemical_formula_sum "Si O2"
_cell_formula_units_Z 52
_cell_length_a 18.216305
_cell_length_b 11.257508
_cell_length_c 14.505736
_cell_angle_alpha 90.000000
_cell_angle_beta 90.000000
_cell_angle_gamma 90.000000
_cell_volume 2974.694172
_symmetry_space_group_name_H-M "P M N A"
_symmetry_group_IT_number 53
_symmetry_cell_setting 'orthorhombic'
loop_
_space_group_symop_operation_xyz
x,y,z
1/2-x,-y,1/2+z
x,-y,-z
1/2-x,y,1/2-z
-x,-y,-z
1/2+x,y,1/2-z
-x,y,z
1/2+x,-y,1/2+z
loop_
_atom_site_type_symbol
_atom_site_label
_atom_site_fract_x
_atom_site_fract_y
_atom_site_fract_z
Si Si1 0.820503 0.500000 0.000000
Si Si2 0.084320 0.003741 0.601084
Si Si3 0.410574 0.919153 0.294769
Si Si4 0.266017 0.343815 0.145528
Si Si5 0.586908 0.278640 0.559560
Si Si6 0.641944 0.833457 0.628586
Si Si7 0.581018 0.738416 0.816697
O O1 0.771185 0.430025 0.073058
O O2 0.870363 0.598001 0.050701
O O3 0.114004 0.078647 0.687735
O O4 0.000000 0.046617 0.587560
O O5 0.120106 0.000000 0.500000
O O6 0.081644 0.869782 0.639237
O O7 0.500000 0.940109 0.296600
O O8 0.395799 0.798957 0.349984
O O9 0.371984 0.030015 0.345887
O O10 0.250000 0.382918 0.250000
O O11 0.225392 0.215298 0.134160
O O12 0.352945 0.332144 0.137125
O O13 0.500000 0.299241 0.557094
O O14 0.609515 0.200539 0.470279
O O15 0.600278 0.758997 0.708961
O O16 0.500000 0.687083 0.826847
#
# Coordination Sequence:
#
# PCOD9414522 Si02
#       7
#     4   8   8   8   8   8   8
#     4  10  21  36  49  66  98 140 176 204 249 304
#     4   8  14  26  44  67  98 131 158 192 242 295
#     4   9  16  26  45  75 105 130 163 205 245 293
#     4   9  19  35  53  70  95 128 164 207 250 299
#     4  10  18  29  48  74 104 135 166 202 246 303
#     4   9  16  28  49  76 103 127 152 194 254 306
#     4   9  16  29  50  73  92 118 164 210 244 286
#
# _framework density 17.480789000000001
#
# number of rings (size 3 to 8) (size 9 to 14) (size 15 to 20)
#    0.000    2.923    0.000    3.000    0.000    1.231 
#    0.000    5.769    0.000    2.769    0.000    0.000 
#    0.000    1.231    0.000    0.000    0.000    0.000 
#
# Total GULP energy -289611.253892 kJ/mol
# GULP energy per Si atom -5569.447190 kJ/mol
# Density = 1.744100 g / cm^3
# Si number density = 17.480789 Si / 1000 Ang^3
#
#
#
# Elastic Constant Matrix: (Units=GPa)
#
#
# Indices 1 2 3 4 5 6 
#
# 1 103.1973 37.8557 33.5011 0.0000 0.0000 0.0000
# 2 37.8557 72.1137 45.0097 0.0000 0.0000 0.0000
# 3 33.5011 45.0097 117.7086 0.0000 0.0000 0.0000
# 4 0.0000 0.0000 0.0000 7.3751 0.0000 0.0000
# 5 0.0000 0.0000 0.0000 0.0000 14.7338 0.0000
# 6 0.0000 0.0000 0.0000 0.0000 0.0000 12.0630
#
#
#
# Elastic Compliance Matrix: (Units=1/GPa)
#
#
# Indices 1 2 3 4 5 6 
#
# 1 0.012160 -0.005547 -0.001340 0.000000 0.000000 0.000000
# 2 -0.005547 0.020744 -0.006354 0.000000 0.000000 0.000000
# 3 -0.001340 -0.006354 0.011306 0.000000 0.000000 0.000000
# 4 0.000000 0.000000 0.000000 0.135591 0.000000 0.000000
# 5 0.000000 0.000000 0.000000 0.000000 0.067871 0.000000
# 6 0.000000 0.000000 0.000000 0.000000 0.000000 0.082898
#
#
# Mechanical properties :
#
#
# Convention : Reuss Voigt Hill
#
# Bulk Modulus (GPa) = 56.40166 58.41695 57.40930
# Shear Modulus (GPa) = 13.77553 18.61125 16.19339
#
# Velocity S-wave (km/s) = 2.81025 3.26647 3.04691
# Velocity P-wave (km/s) = 6.54713 6.90773 6.72985
#
# Compressibility (1/GPa) = 0.01772997
#
# Stress axis : x y z
#
# Youngs Moduli (GPa) = 82.23729 48.20560 88.44595
#
# Poissons Ratio (x) = 0.26740 0.11849
# Poissons Ratio (y) = 0.45618 0.56195
# Poissons Ratio (z) = 0.11018 0.30628
#
# Static dielectric constant tensor:
#      x y z
#    x 1.615670 0.000000 0.000000 
#    y 0.000000 1.574410 0.000000 
#    z 0.000000 0.000000 1.615280 
# 
# From -- ./inp_files/23811.got.cif
#   From: 2010.05.17/outbox.cif.g08.bks.cpg/sg53_12_cif.got.tgz:23811.got - 2010.06.03 12:45:16.
