data_PCOD9414410
_publ_section_title
;
Structure prediction by ZEFSAII (Michael W. Deem and Ramdas Pophale) SiO2 
 PCOD9414410
Probable space group: P M N A
;
_chemical_formula_sum "Si O2"
_cell_formula_units_Z 56
_cell_length_a 7.819036
_cell_length_b 14.143264
_cell_length_c 29.451797
_cell_angle_alpha 90.000000
_cell_angle_beta 90.000000
_cell_angle_gamma 90.000000
_cell_volume 3256.976756
_symmetry_space_group_name_H-M "P M N A"
_symmetry_group_IT_number 53
_symmetry_cell_setting 'orthorhombic'
loop_
_space_group_symop_operation_xyz
x,y,z
1/2-x,-y,1/2+z
x,-y,-z
1/2-x,y,1/2-z
-x,-y,-z
1/2+x,y,1/2-z
-x,y,z
1/2+x,-y,1/2+z
loop_
_atom_site_type_symbol
_atom_site_label
_atom_site_fract_x
_atom_site_fract_y
_atom_site_fract_z
Si Si1 0.705687 0.714763 0.031936
Si Si2 0.702906 0.494241 0.300982
Si Si3 0.706486 0.721656 0.698808
Si Si4 0.800244 0.804191 0.891110
Si Si5 0.703851 0.097375 0.479733
Si Si6 0.704649 0.420818 0.894185
Si Si7 0.707190 0.613504 0.940758
O O1 0.500000 0.724171 0.032988
O O2 0.767930 0.672565 0.079741
O O3 0.772370 0.814745 0.013948
O O4 0.746500 0.636855 0.993064
O O5 0.750000 0.524089 0.250000
O O6 0.500000 0.487792 0.303388
O O7 0.771854 0.386617 0.307853
O O8 0.759352 0.562468 0.341412
O O9 0.750000 0.749898 0.750000
O O10 0.500000 0.718594 0.694858
O O11 0.772938 0.790887 0.659366
O O12 0.724493 0.871285 0.930365
O O13 0.786119 0.699166 0.912230
O O14 0.000000 0.829639 0.886420
O O15 0.500000 0.085418 0.473772
O O16 0.774068 0.000000 0.500000
O O17 0.500000 0.420083 0.899521
O O18 0.767514 0.514085 0.920974
O O19 0.500000 0.617836 0.936228
#
# Coordination Sequence:
#
# PCOD9414410 Si02
#       7
#     8   8   8   8   8   8   8
#     4   9  18  30  44  65  90 117 148 181 218 263
#     4  10  19  30  43  61  87 120 157 188 219 258
#     4   9  17  27  40  59  85 116 147 179 212 253
#     4   9  16  28  43  62  88 116 146 181 221 263
#     4   9  18  32  49  67  88 114 146 186 231 277
#     4  10  18  28  43  63  90 121 151 183 218 256
#     4   9  16  26  41  61  88 120 150 177 210 254
#
# _framework density 17.193859
#
# number of rings (size 3 to 8) (size 9 to 14) (size 15 to 20)
#    0.000    2.714    1.429    0.857    0.000    3.714 
#    0.000    0.000    0.000    4.286    0.000    1.000 
#    0.000    4.571    0.000    0.000    0.000    0.000 
#
# Total GULP energy -311948.511064 kJ/mol
# GULP energy per Si atom -5570.509126 kJ/mol
# Density = 1.715473 g / cm^3
# Si number density = 17.193859 Si / 1000 Ang^3
#
#
#
# Elastic Constant Matrix: (Units=GPa)
#
#
# Indices 1 2 3 4 5 6 
#
# 1 18.6113 -1.1315 1.0460 0.0000 0.0000 0.0000
# 2 -1.1315 61.6497 61.1440 0.0000 0.0000 0.0000
# 3 1.0460 61.1440 143.6383 0.0000 0.0000 0.0000
# 4 0.0000 0.0000 0.0000 19.1947 0.0000 0.0000
# 5 0.0000 0.0000 0.0000 0.0000 19.6335 0.0000
# 6 0.0000 0.0000 0.0000 0.0000 0.0000 12.4344
#
#
#
# Elastic Compliance Matrix: (Units=1/GPa)
#
#
# Indices 1 2 3 4 5 6 
#
# 1 0.053955 0.002388 -0.001410 0.000000 0.000000 0.000000
# 2 0.002388 0.028178 -0.012012 0.000000 0.000000 0.000000
# 3 -0.001410 -0.012012 0.012086 0.000000 0.000000 0.000000
# 4 0.000000 0.000000 0.000000 0.052098 0.000000 0.000000
# 5 0.000000 0.000000 0.000000 0.000000 0.050933 0.000000
# 6 0.000000 0.000000 0.000000 0.000000 0.000000 0.080422
#
#
# Mechanical properties :
#
#
# Convention : Reuss Voigt Hill
#
# Bulk Modulus (GPa) = 13.85966 38.44626 26.15296
# Shear Modulus (GPa) = 15.44209 21.10857 18.27533
#
# Velocity S-wave (km/s) = 3.00011 3.50763 3.26375
# Velocity P-wave (km/s) = 4.48098 6.23006 5.42645
#
# Compressibility (1/GPa) = 0.07215186
#
# Stress axis : x y z
#
# Youngs Moduli (GPa) = 18.53391 35.48820 82.74286
#
# Poissons Ratio (x) = -0.08476 0.11663
# Poissons Ratio (y) = -0.04426 0.99394
# Poissons Ratio (z) = 0.02612 0.42630
#
# Static dielectric constant tensor:
#      x y z
#    x 1.626430 0.000000 0.000000 
#    y 0.000000 1.569490 0.000000 
#    z 0.000000 0.000000 1.592730 
# 
# From -- ./inp_files/38373.got.cif
#   From: 2010.05.17/outbox.cif.g08.bks.cpg/sg53_20_cif.got.tgz:38373.got - 2010.06.03 12:45:16.
