data_PCOD9414195
_publ_section_title
;
Structure prediction by ZEFSAII (Michael W. Deem and Ramdas Pophale) SiO2 
 PCOD9414195
Probable space group: P M N A
;
_chemical_formula_sum "Si O2"
_cell_formula_units_Z 64
_cell_length_a 9.390978
_cell_length_b 17.321130
_cell_length_c 26.899164
_cell_angle_alpha 90.000000
_cell_angle_beta 90.000000
_cell_angle_gamma 90.000000
_cell_volume 4375.481250
_symmetry_space_group_name_H-M "P M N A"
_symmetry_group_IT_number 53
_symmetry_cell_setting 'orthorhombic'
loop_
_space_group_symop_operation_xyz
x,y,z
1/2-x,-y,1/2+z
x,-y,-z
1/2-x,y,1/2-z
-x,-y,-z
1/2+x,y,1/2-z
-x,y,z
1/2+x,-y,1/2+z
loop_
_atom_site_type_symbol
_atom_site_label
_atom_site_fract_x
_atom_site_fract_y
_atom_site_fract_z
Si Si1 0.331099 0.166669 0.959748
Si Si2 0.663754 0.983735 0.440519
Si Si3 0.669031 0.863959 0.923091
Si Si4 0.834945 0.727671 0.875935
Si Si5 0.330352 0.657534 0.061032
Si Si6 0.671490 0.591725 0.697909
Si Si7 0.836850 0.604717 0.965533
Si Si8 0.830946 0.529544 0.112484
O O1 0.500000 0.152797 0.952717
O O2 0.241003 0.098349 0.935113
O O3 0.295058 0.251469 0.939583
O O4 0.305956 0.163376 0.019517
O O5 0.500000 0.982659 0.423825
O O6 0.663511 0.000000 0.500000
O O7 0.752374 0.054155 0.417422
O O8 0.500000 0.871563 0.916541
O O9 0.735779 0.800097 0.886993
O O10 0.793268 0.671913 0.830415
O O11 0.830671 0.672103 0.924294
O O12 0.000000 0.751698 0.869581
O O13 0.500000 0.649748 0.063081
O O14 0.256124 0.607196 0.103720
O O15 0.270304 0.623784 0.009289
O O16 0.750000 0.585547 0.750000
O O17 0.500000 0.590404 0.703741
O O18 0.708836 0.521599 0.660453
O O19 0.807512 0.526471 0.935210
O O20 0.000000 0.601413 0.984715
O O21 0.000000 0.544641 0.114933
#
# Coordination Sequence:
#
# PCOD9414195 Si02
#       8
#     8   8   8   8   8   8   8   8
#     4   9  18  29  38  55  86 119 149 184 223 254
#     4   9  17  27  40  58  79 111 154 187 212 251
#     4  10  17  27  42  60  86 117 147 183 222 257
#     4   9  17  29  45  65  87 114 149 185 219 263
#     4  11  20  28  40  62  89 116 149 187 221 255
#     4   9  19  35  52  68  88 113 144 185 230 272
#     4   9  17  29  43  57  82 118 150 180 217 258
#     4   9  19  33  45  61  84 114 148 180 220 269
#
# _framework density 14.626962000000001
#
# number of rings (size 3 to 8) (size 9 to 14) (size 15 to 20)
#    0.000    2.625    1.250    3.000    0.000    6.000 
#    0.000    2.500    0.000    0.000    0.000    0.000 
#    0.000    1.000    0.000    5.000    0.000    4.875 
#
# Total GULP energy -356722.683156 kJ/mol
# GULP energy per Si atom -5573.791924 kJ/mol
# Density = 1.459367 g / cm^3
# Si number density = 14.626962 Si / 1000 Ang^3
#
#
#
# Elastic Constant Matrix: (Units=GPa)
#
#
# Indices 1 2 3 4 5 6 
#
# 1 71.4436 81.9235 36.3546 0.0000 0.0000 0.0000
# 2 81.9235 137.1552 49.4781 0.0000 0.0000 0.0000
# 3 36.3546 49.4781 56.8783 0.0000 0.0000 0.0000
# 4 0.0000 0.0000 0.0000 10.6652 0.0000 0.0000
# 5 0.0000 0.0000 0.0000 0.0000 21.3752 0.0000
# 6 0.0000 0.0000 0.0000 0.0000 0.0000 23.1147
#
#
#
# Elastic Compliance Matrix: (Units=1/GPa)
#
#
# Indices 1 2 3 4 5 6 
#
# 1 0.046893 -0.025062 -0.008171 0.000000 0.000000 0.000000
# 2 -0.025062 0.024019 -0.004876 0.000000 0.000000 0.000000
# 3 -0.008171 -0.004876 0.027046 0.000000 0.000000 0.000000
# 4 0.000000 0.000000 0.000000 0.093762 0.000000 0.000000
# 5 0.000000 0.000000 0.000000 0.000000 0.046783 0.000000
# 6 0.000000 0.000000 0.000000 0.000000 0.000000 0.043263
#
#
# Mechanical properties :
#
#
# Convention : Reuss Voigt Hill
#
# Bulk Modulus (GPa) = 45.99732 66.77661 56.38697
# Shear Modulus (GPa) = 13.68999 17.54577 15.61788
#
# Velocity S-wave (km/s) = 3.06264 3.46721 3.27118
# Velocity P-wave (km/s) = 6.63487 7.86008 7.27332
#
# Compressibility (1/GPa) = 0.02174040
#
# Stress axis : x y z
#
# Youngs Moduli (GPa) = 21.32515 41.63314 36.97450
#
# Poissons Ratio (x) = 1.04339 0.30214
# Poissons Ratio (y) = 0.53444 0.18028
# Poissons Ratio (z) = 0.17426 0.20299
#
# Static dielectric constant tensor:
#      x y z
#    x 1.484440 0.000000 0.000000 
#    y 0.000000 1.491640 0.000000 
#    z 0.000000 0.000000 1.456490 
# 
# From -- ./inp_files/36500.got.cif
#   From: 2010.05.17/outbox.cif.g08.bks.cpg/sg53_19_cif.got.tgz:36500.got - 2010.06.03 12:45:16.
