data_PCOD9414266
_publ_section_title
;
Structure prediction by ZEFSAII (Michael W. Deem and Ramdas Pophale) SiO2 
 PCOD9414266
Probable space group: P M N A
;
_chemical_formula_sum "Si O2"
_cell_formula_units_Z 56
_cell_length_a 7.871777
_cell_length_b 17.454099
_cell_length_c 22.242513
_cell_angle_alpha 90.000000
_cell_angle_beta 90.000000
_cell_angle_gamma 90.000000
_cell_volume 3056.005070
_symmetry_space_group_name_H-M "P M N A"
_symmetry_group_IT_number 53
_symmetry_cell_setting 'orthorhombic'
loop_
_space_group_symop_operation_xyz
x,y,z
1/2-x,-y,1/2+z
x,-y,-z
1/2-x,y,1/2-z
-x,-y,-z
1/2+x,y,1/2-z
-x,y,z
1/2+x,-y,1/2+z
loop_
_atom_site_type_symbol
_atom_site_label
_atom_site_fract_x
_atom_site_fract_y
_atom_site_fract_z
Si Si1 0.702008 0.474358 0.087576
Si Si2 0.791734 0.202422 0.123593
Si Si3 0.294867 0.375855 0.974097
Si Si4 0.792272 0.043831 0.938032
Si Si5 0.795613 0.954398 0.818402
Si Si6 0.701299 0.359218 0.318677
Si Si7 0.797136 0.797684 0.013606
O O1 0.500000 0.477304 0.078950
O O2 0.763258 0.560284 0.074174
O O3 0.738416 0.437290 0.151023
O O4 0.765852 0.413906 0.037107
O O5 0.737981 0.132218 0.165794
O O6 0.729803 0.284254 0.147192
O O7 0.000000 0.202833 0.123461
O O8 0.734713 0.191536 0.054915
O O9 0.500000 0.373489 0.974879
O O10 0.238371 0.288927 0.966378
O O11 0.735977 0.131984 0.945658
O O12 0.000000 0.040584 0.936998
O O13 0.735211 0.005759 0.875214
O O14 0.742487 0.000000 0.000000
O O15 0.750000 0.976134 0.750000
O O16 0.000000 0.955013 0.821026
O O17 0.750000 0.354402 0.250000
O O18 0.500000 0.357039 0.324651
O O19 0.000000 0.805799 0.010836
#
# Coordination Sequence:
#
# PCOD9414266 Si02
#       7
#     8   8   8   8   8   8   8
#     4   9  18  33  50  69  96 130 165 197 239 296
#     4   9  17  29  47  72 101 130 164 201 242 293
#     4   9  18  32  50  72  99 128 156 197 253 298
#     4   9  16  29  52  75  97 130 171 213 252 292
#     4  10  19  33  51  72 100 135 171 206 250 301
#     4  11  21  32  47  71 102 135 166 201 243 292
#     4  10  17  29  51  77 100 125 165 213 249 290
#
# _framework density 18.324576
#
# number of rings (size 3 to 8) (size 9 to 14) (size 15 to 20)
#    0.000    2.429    2.857    1.714    0.000    0.571 
#    0.000    3.571    0.000    1.714    0.000    4.000 
#    0.000    0.000    0.000    0.000    0.000    0.000 
#
# Total GULP energy -312160.319797 kJ/mol
# GULP energy per Si atom -5574.291425 kJ/mol
# Density = 1.828287 g / cm^3
# Si number density = 18.324576 Si / 1000 Ang^3
#
#
#
# Elastic Constant Matrix: (Units=GPa)
#
#
# Indices 1 2 3 4 5 6 
#
# 1 12.2068 3.7743 3.0019 0.0000 0.0000 0.0000
# 2 3.7743 136.4467 68.4368 0.0000 0.0000 0.0000
# 3 3.0019 68.4368 115.5988 0.0000 0.0000 0.0000
# 4 0.0000 0.0000 0.0000 25.7594 0.0000 0.0000
# 5 0.0000 0.0000 0.0000 0.0000 -0.2414 0.0000
# 6 0.0000 0.0000 0.0000 0.0000 0.0000 19.1751
#
#
#
# Elastic Compliance Matrix: (Units=1/GPa)
#
#
# Indices 1 2 3 4 5 6 
#
# 1 0.082732 -0.001722 -0.001129 0.000000 0.000000 0.000000
# 2 -0.001722 0.010460 -0.006148 0.000000 0.000000 0.000000
# 3 -0.001129 -0.006148 0.012320 0.000000 0.000000 0.000000
# 4 0.000000 0.000000 0.000000 0.038821 0.000000 0.000000
# 5 0.000000 0.000000 0.000000 0.000000 -4.142398 0.000000
# 6 0.000000 0.000000 0.000000 0.000000 0.000000 0.052151
#
#
# Mechanical properties :
#
#
# Convention : Reuss Voigt Hill
#
# Bulk Modulus (GPa) = 11.42677 46.07536 28.75107
# Shear Modulus (GPa) = -1.28246 21.54123 10.12938
#
# Velocity S-wave (km/s) = -0.83748 3.43233 2.35367
# Velocity P-wave (km/s) = 2.30524 6.39582 4.80732
#
# Compressibility (1/GPa) = 0.08751378
#
# Stress axis : x y z
#
# Youngs Moduli (GPa) = 12.08722 95.60194 81.17172
#
# Poissons Ratio (x) = 0.16465 0.09163
# Poissons Ratio (y) = 0.02082 0.49903
# Poissons Ratio (z) = 0.01364 0.58774
#
# Static dielectric constant tensor:
#      x y z
#    x 1.677940 0.000000 0.000000 
#    y 0.000000 1.651060 0.000000 
#    z 0.000000 0.000000 1.618820 
# 
# From -- ./inp_files/31022.got.cif
#   From: 2010.05.17/outbox.cif.g08.bks.cpg/sg53_16_cif.got.tgz:31022.got - 2010.06.03 12:45:16.
