data_PCOD9414910
_publ_section_title
;
Structure prediction by ZEFSAII (Michael W. Deem and Ramdas Pophale) SiO2 
 PCOD9414910
Probable space group: P M N A
;
_chemical_formula_sum "Si O2"
_cell_formula_units_Z 34
_cell_length_a 19.248820
_cell_length_b 11.473523
_cell_length_c 5.575147
_cell_angle_alpha 90.000000
_cell_angle_beta 90.000000
_cell_angle_gamma 90.000000
_cell_volume 1231.281133
_symmetry_space_group_name_H-M "P M N A"
_symmetry_group_IT_number 53
_symmetry_cell_setting 'orthorhombic'
loop_
_space_group_symop_operation_xyz
x,y,z
1/2-x,-y,1/2+z
x,-y,-z
1/2-x,y,1/2-z
-x,-y,-z
1/2+x,y,1/2-z
-x,y,z
1/2+x,-y,1/2+z
loop_
_atom_site_type_symbol
_atom_site_label
_atom_site_fract_x
_atom_site_fract_y
_atom_site_fract_z
Si Si1 0.828274 0.541234 0.250101
Si Si2 0.854032 0.808653 0.310079
Si Si3 0.617731 0.875705 0.694616
Si Si4 0.000000 0.000000 0.500000
Si Si5 0.500000 0.321602 0.361335
Si Si6 0.000000 0.690144 0.361977
O O1 0.861087 0.500000 0.500000
O O2 0.750000 0.489756 0.250000
O O3 0.824863 0.679993 0.260385
O O4 0.860743 0.500000 0.000000
O O5 0.832715 0.854164 0.573757
O O6 0.935835 0.779613 0.354070
O O7 0.845458 0.882363 0.066652
O O8 0.561459 0.968009 0.796813
O O9 0.568509 0.761045 0.649124
O O10 0.500000 0.379729 0.618213
O O11 0.500000 0.379385 0.105092
#
# Coordination Sequence:
#
# PCOD9414910 Si02
#       6
#     8   8   8   2   4   4
#     4  10  21  37  57  79 104 137 184 238 281 328
#     4  10  18  33  50  75 107 142 177 219 275 331
#     4   9  18  28  48  73 107 141 174 216 261 318
#     4  10  20  34  52  84 116 150 188 224 268 324
#     4   7  12  23  36  59  86 123 156 187 230 281
#     4   8  14  24  42  61  90 125 158 192 238 304
#
# _framework density 27.613513000000001
#
# number of rings (size 3 to 8) (size 9 to 14) (size 15 to 20)
#    0.000    2.824    0.000    2.824    0.000    1.882 
#    0.000    1.176    0.000    0.000    0.000    3.294 
#    0.000    0.000    0.000    0.000    0.000    0.000 
#
# Total GULP energy -189390.574983 kJ/mol
# GULP energy per Si atom -5570.311029 kJ/mol
# Density = 2.755066 g / cm^3
# Si number density = 27.613513 Si / 1000 Ang^3
#
#
#
# Elastic Constant Matrix: (Units=GPa)
#
#
# Indices 1 2 3 4 5 6 
#
# 1 59.7776 -1.6657 -0.6946 0.0000 0.0000 0.0000
# 2 -1.6657 85.6548 55.0184 0.0000 0.0000 0.0000
# 3 -0.6946 55.0184 396.7334 0.0000 0.0000 0.0000
# 4 0.0000 0.0000 0.0000 47.1838 0.0000 0.0000
# 5 0.0000 0.0000 0.0000 0.0000 -30.7943 0.0000
# 6 0.0000 0.0000 0.0000 0.0000 0.0000 72.9038
#
#
#
# Elastic Compliance Matrix: (Units=1/GPa)
#
#
# Indices 1 2 3 4 5 6 
#
# 1 0.016738 0.000337 -0.000017 0.000000 0.000000 0.000000
# 2 0.000337 0.012823 -0.001778 0.000000 0.000000 0.000000
# 3 -0.000017 -0.001778 0.002767 0.000000 0.000000 0.000000
# 4 0.000000 0.000000 0.000000 0.021194 0.000000 0.000000
# 5 0.000000 0.000000 0.000000 0.000000 -0.032473 0.000000
# 6 0.000000 0.000000 0.000000 0.000000 0.000000 0.013717
#
#
# Mechanical properties :
#
#
# Convention : Reuss Voigt Hill
#
# Bulk Modulus (GPa) = 34.00056 71.94244 52.97150
# Shear Modulus (GPa) = 105.29488 50.49250 77.89369
#
# Velocity S-wave (km/s) = 6.18178 4.28079 5.31693
# Velocity P-wave (km/s) = 7.95565 7.10939 7.54439
#
# Compressibility (1/GPa) = 0.02941128
#
# Stress axis : x y z
#
# Youngs Moduli (GPa) = 59.74477 77.98367 361.39118
#
# Poissons Ratio (x) = -0.02625 0.00628
# Poissons Ratio (y) = -0.02011 0.64245
# Poissons Ratio (z) = 0.00104 0.13863
#
# Static dielectric constant tensor:
#      x y z
#    x 2.162860 0.000000 0.000000 
#    y 0.000000 2.284200 0.000000 
#    z 0.000000 0.000000 1.948250 
# 
# From -- ./inp_files/3607.got.cif
#   From: 2010.05.17/outbox.cif.g08.bks.cpg/sg53_2_cif.got.tgz:3607.got - 2010.06.03 12:45:16.
