data_PCOD9414276
_publ_section_title
;
Structure prediction by ZEFSAII (Michael W. Deem and Ramdas Pophale) SiO2 
 PCOD9414276
Probable space group: P M N A
;
_chemical_formula_sum "Si O2"
_cell_formula_units_Z 48
_cell_length_a 8.481641
_cell_length_b 13.261591
_cell_length_c 23.663430
_cell_angle_alpha 90.000000
_cell_angle_beta 90.000000
_cell_angle_gamma 90.000000
_cell_volume 2661.663883
_symmetry_space_group_name_H-M "P M N A"
_symmetry_group_IT_number 53
_symmetry_cell_setting 'orthorhombic'
loop_
_space_group_symop_operation_xyz
x,y,z
1/2-x,-y,1/2+z
x,-y,-z
1/2-x,y,1/2-z
-x,-y,-z
1/2+x,y,1/2-z
-x,y,z
1/2+x,-y,1/2+z
loop_
_atom_site_type_symbol
_atom_site_label
_atom_site_fract_x
_atom_site_fract_y
_atom_site_fract_z
Si Si1 0.309821 0.384625 0.938541
Si Si2 0.309515 0.391307 0.433782
Si Si3 0.680330 0.184692 0.886270
Si Si4 0.184586 0.197514 0.122879
Si Si5 0.811278 0.999497 0.186703
Si Si6 0.173877 0.880615 0.004403
O O1 0.500000 0.383244 0.941187
O O2 0.250840 0.495984 0.923215
O O3 0.258409 0.299424 0.893342
O O4 0.246386 0.363977 0.002284
O O5 0.500000 0.389638 0.434398
O O6 0.251611 0.310844 0.386606
O O7 0.500000 0.188068 0.867151
O O8 0.694607 0.149958 0.951411
O O9 0.764746 0.098507 0.850022
O O10 0.251373 0.106112 0.160591
O O11 0.000000 0.207869 0.139188
O O12 0.191319 0.158197 0.058638
O O13 0.750000 0.988054 0.250000
O O14 0.000000 0.005278 0.185872
O O15 0.000000 0.847149 0.025983
O O16 0.171630 0.000000 0.000000
#
# Coordination Sequence:
#
# PCOD9414276 Si02
#       6
#     8   8   8   8   8   8
#     4  10  20  32  46  73 114 147 172 212 262 306
#     4  10  18  30  51  77 105 142 183 212 250 316
#     4  11  22  34  51  78 110 144 178 218 263 315
#     4   9  18  32  53  78 107 139 173 215 263 316
#     4  11  23  41  59  78 104 137 177 224 271 319
#     4  10  17  30  50  75 106 142 174 209 264 320
#
# _framework density 18.033833000000001
#
# number of rings (size 3 to 8) (size 9 to 14) (size 15 to 20)
#    0.000    1.833    3.333    3.000    0.000    2.333 
#    0.000    3.333    0.000    1.000    0.000    4.667 
#    0.000    0.000    0.000    0.000    0.000    0.000 
#
# Total GULP energy -267340.413721 kJ/mol
# GULP energy per Si atom -5569.591953 kJ/mol
# Density = 1.799279 g / cm^3
# Si number density = 18.033833 Si / 1000 Ang^3
#
#
#
# Elastic Constant Matrix: (Units=GPa)
#
#
# Indices 1 2 3 4 5 6 
#
# 1 39.8644 27.7776 13.3866 0.0000 0.0000 0.0000
# 2 27.7776 144.2231 46.7136 0.0000 0.0000 0.0000
# 3 13.3866 46.7136 51.7891 0.0000 0.0000 0.0000
# 4 0.0000 0.0000 0.0000 10.2576 0.0000 0.0000
# 5 0.0000 0.0000 0.0000 0.0000 9.9384 0.0000
# 6 0.0000 0.0000 0.0000 0.0000 0.0000 -3.6508
#
#
#
# Elastic Compliance Matrix: (Units=1/GPa)
#
#
# Indices 1 2 3 4 5 6 
#
# 1 0.029421 -0.004526 -0.003523 0.000000 0.000000 0.000000
# 2 -0.004526 0.010492 -0.008294 0.000000 0.000000 0.000000
# 3 -0.003523 -0.008294 0.027701 0.000000 0.000000 0.000000
# 4 0.000000 0.000000 0.000000 0.097489 0.000000 0.000000
# 5 0.000000 0.000000 0.000000 0.000000 0.100619 0.000000
# 6 0.000000 0.000000 0.000000 0.000000 0.000000 -0.273912
#
#
# Mechanical properties :
#
#
# Convention : Reuss Voigt Hill
#
# Bulk Modulus (GPa) = 28.62919 45.73693 37.18306
# Shear Modulus (GPa) = 138.36146 13.17563 75.76854
#
# Velocity S-wave (km/s) = 8.76868 2.70590 6.48890
# Velocity P-wave (km/s) = 10.88253 5.93122 8.76381
#
# Compressibility (1/GPa) = 0.03492938
#
# Stress axis : x y z
#
# Youngs Moduli (GPa) = 33.98880 95.31410 36.10039
#
# Poissons Ratio (x) = 0.43135 0.12718
# Poissons Ratio (y) = 0.15382 0.29940
# Poissons Ratio (z) = 0.11974 0.79050
#
# Static dielectric constant tensor:
#      x y z
#    x 1.655710 0.000000 0.000000 
#    y 0.000000 1.712640 0.000000 
#    z 0.000000 0.000000 1.583610 
# 
# From -- ./inp_files/30524.got.cif
#   From: 2010.05.17/outbox.cif.g08.bks.cpg/sg53_16_cif.got.tgz:30524.got - 2010.06.03 12:45:16.
