data_PCOD9414685
_publ_section_title
;
Structure prediction by ZEFSAII (Michael W. Deem and Ramdas Pophale) SiO2 
 PCOD9414685
Probable space group: P M N A
;
_chemical_formula_sum "Si O2"
_cell_formula_units_Z 64
_cell_length_a 8.896958
_cell_length_b 17.386408
_cell_length_c 26.220178
_cell_angle_alpha 90.000000
_cell_angle_beta 90.000000
_cell_angle_gamma 90.000000
_cell_volume 4055.898171
_symmetry_space_group_name_H-M "P M N A"
_symmetry_group_IT_number 53
_symmetry_cell_setting 'orthorhombic'
loop_
_space_group_symop_operation_xyz
x,y,z
1/2-x,-y,1/2+z
x,-y,-z
1/2-x,y,1/2-z
-x,-y,-z
1/2+x,y,1/2-z
-x,y,z
1/2+x,-y,1/2+z
loop_
_atom_site_type_symbol
_atom_site_label
_atom_site_fract_x
_atom_site_fract_y
_atom_site_fract_z
Si Si1 0.817006 0.820416 0.098553
Si Si2 0.178480 0.336046 0.058321
Si Si3 0.179079 0.181719 0.401240
Si Si4 0.680226 0.902044 0.694884
Si Si5 0.673002 0.495782 0.061887
Si Si6 0.319702 0.090861 0.495346
Si Si7 0.819278 0.918241 0.195324
Si Si8 0.820042 0.655475 0.063074
O O1 0.766091 0.864088 0.149307
O O2 0.769972 0.731851 0.092742
O O3 0.000000 0.820731 0.099193
O O4 0.773958 0.866767 0.047591
O O5 0.263277 0.267311 0.086233
O O6 0.233750 0.419979 0.075918
O O7 0.000000 0.328015 0.065035
O O8 0.209630 0.330788 0.997316
O O9 0.250792 0.149617 0.349418
O O10 0.236952 0.128301 0.447573
O O11 0.000000 0.179938 0.398358
O O12 0.750000 0.883674 0.750000
O O13 0.500000 0.894330 0.696190
O O14 0.716092 0.992183 0.684184
O O15 0.500000 0.487766 0.077393
O O16 0.742000 0.576545 0.079601
O O17 0.677641 0.500000 0.000000
O O18 0.500000 0.102220 0.488521
O O19 0.292508 0.000000 0.500000
O O20 0.750000 0.898304 0.250000
O O21 0.000000 0.912544 0.198651
O O22 0.000000 0.646779 0.068078
#
# Coordination Sequence:
#
# PCOD9414685 Si02
#       8
#     8   8   8   8   8   8   8   8
#     4   9  16  29  48  71  96 128 167 204 242 290
#     4  10  18  31  49  69  95 130 170 203 238 290
#     4  12  23  33  48  73 105 134 163 203 253 301
#     4  10  20  36  55  74  96 128 171 215 257 296
#     4   9  17  28  43  66  97 128 159 196 247 297
#     4  10  19  33  51  69  94 132 173 206 244 298
#     4   9  18  33  53  73  95 125 165 212 254 292
#     4   9  16  28  46  67  94 128 168 203 237 290
#
# _framework density 15.779489
#
# number of rings (size 3 to 8) (size 9 to 14) (size 15 to 20)
#    0.000    2.250    1.250    3.000    0.000    4.750 
#    0.000    1.250    0.000    0.000    0.000    0.875 
#    0.000    2.000    0.000    0.000    0.000    0.000 
#
# Total GULP energy -357024.725758 kJ/mol
# GULP energy per Si atom -5578.511340 kJ/mol
# Density = 1.574357 g / cm^3
# Si number density = 15.779489 Si / 1000 Ang^3
#
#
#
# Elastic Constant Matrix: (Units=GPa)
#
#
# Indices 1 2 3 4 5 6 
#
# 1 57.2067 56.2452 45.3749 0.0000 0.0000 0.0000
# 2 56.2452 127.0846 70.1583 0.0000 0.0000 0.0000
# 3 45.3749 70.1583 93.5701 0.0000 0.0000 0.0000
# 4 0.0000 0.0000 0.0000 16.7490 0.0000 0.0000
# 5 0.0000 0.0000 0.0000 0.0000 22.3008 0.0000
# 6 0.0000 0.0000 0.0000 0.0000 0.0000 19.8386
#
#
#
# Elastic Compliance Matrix: (Units=1/GPa)
#
#
# Indices 1 2 3 4 5 6 
#
# 1 0.034999 -0.010443 -0.009142 0.000000 0.000000 0.000000
# 2 -0.010443 0.016542 -0.007339 0.000000 0.000000 0.000000
# 3 -0.009142 -0.007339 0.020623 0.000000 0.000000 0.000000
# 4 0.000000 0.000000 0.000000 0.059705 0.000000 0.000000
# 5 0.000000 0.000000 0.000000 0.000000 0.044841 0.000000
# 6 0.000000 0.000000 0.000000 0.000000 0.000000 0.050407
#
#
# Mechanical properties :
#
#
# Convention : Reuss Voigt Hill
#
# Bulk Modulus (GPa) = 54.59610 69.04645 61.82128
# Shear Modulus (GPa) = 17.41724 18.84989 18.13356
#
# Velocity S-wave (km/s) = 3.32594 3.46002 3.39364
# Velocity P-wave (km/s) = 7.03020 7.73398 7.39047
#
# Compressibility (1/GPa) = 0.01831633
#
# Stress axis : x y z
#
# Youngs Moduli (GPa) = 28.57209 60.45088 48.48878
#
# Poissons Ratio (x) = 0.63129 0.44328
# Poissons Ratio (y) = 0.29838 0.35587
# Poissons Ratio (z) = 0.26121 0.44366
#
# Static dielectric constant tensor:
#      x y z
#    x 1.527470 0.000000 0.000000 
#    y 0.000000 1.526560 0.000000 
#    z 0.000000 0.000000 1.499070 
# 
# From -- ./inp_files/34494.got.cif
#   From: 2010.05.17/outbox.cif.g08.bks.cpg/sg53_18_cif.got.tgz:34494.got - 2010.06.03 12:45:16.
