data_PCOD9414304
_publ_section_title
;
Structure prediction by ZEFSAII (Michael W. Deem and Ramdas Pophale) SiO2 
 PCOD9414304
Probable space group: P M N A
;
_chemical_formula_sum "Si O2"
_cell_formula_units_Z 48
_cell_length_a 27.785722
_cell_length_b 9.582001
_cell_length_c 8.359049
_cell_angle_alpha 90.000000
_cell_angle_beta 90.000000
_cell_angle_gamma 90.000000
_cell_volume 2225.536745
_symmetry_space_group_name_H-M "P M N A"
_symmetry_group_IT_number 53
_symmetry_cell_setting 'orthorhombic'
loop_
_space_group_symop_operation_xyz
x,y,z
1/2-x,-y,1/2+z
x,-y,-z
1/2-x,y,1/2-z
-x,-y,-z
1/2+x,y,1/2-z
-x,y,z
1/2+x,-y,1/2+z
loop_
_atom_site_type_symbol
_atom_site_label
_atom_site_fract_x
_atom_site_fract_y
_atom_site_fract_z
Si Si1 0.148053 0.212704 0.245989
Si Si2 0.807543 0.795500 0.427011
Si Si3 0.193092 0.794189 0.079668
Si Si4 0.053842 0.404963 0.840611
Si Si5 0.656590 0.539231 0.239652
Si Si6 0.444279 0.847592 0.568819
O O1 0.165973 0.153721 0.414719
O O2 0.170470 0.152156 0.082961
O O3 0.165032 0.375376 0.248796
O O4 0.091465 0.198171 0.209794
O O5 0.750251 0.806812 0.439401
O O6 0.820101 0.631190 0.401041
O O7 0.821405 0.857836 0.252654
O O8 0.176144 0.632725 0.110496
O O9 0.098845 0.442455 0.732093
O O10 0.061863 0.253112 0.916044
O O11 0.000000 0.416963 0.772224
O O12 0.055879 0.500000 0.000000
O O13 0.500000 0.836868 0.619588
O O14 0.434739 0.000000 0.500000
#
# Coordination Sequence:
#
# PCOD9414304 Si02
#       6
#     8   8   8   8   8   8
#     4  12  19  32  56  79 113 157 199 235 293 354
#     4   9  21  31  48  85 124 152 187 244 295 353
#     4   9  19  33  49  81 123 154 187 237 294 353
#     4  10  17  31  56  81 106 144 191 243 301 351
#     4  10  18  31  48  82 115 148 184 238 294 355
#     4  10  21  36  56  85 117 155 202 250 302 364
#
# _framework density 21.567831000000002
#
# number of rings (size 3 to 8) (size 9 to 14) (size 15 to 20)
#    1.000    1.000    3.333    1.500    0.000    4.000 
#    0.000    0.833    0.000    6.000   17.333   10.500 
#    0.000    0.000    0.000    0.000    0.000    0.000 
#
# Total GULP energy -267569.805236 kJ/mol
# GULP energy per Si atom -5574.370942 kJ/mol
# Density = 2.151874 g / cm^3
# Si number density = 21.567831 Si / 1000 Ang^3
#
#
#
# Elastic Constant Matrix: (Units=GPa)
#
#
# Indices 1 2 3 4 5 6 
#
# 1 84.5894 -14.4520 55.5106 0.0000 0.0000 0.0000
# 2 -14.4520 75.6176 18.9725 0.0000 0.0000 0.0000
# 3 55.5106 18.9725 150.5545 0.0000 0.0000 0.0000
# 4 0.0000 0.0000 0.0000 20.6788 0.0000 0.0000
# 5 0.0000 0.0000 0.0000 0.0000 -241.7114 0.0000
# 6 0.0000 0.0000 0.0000 0.0000 0.0000 -19.0398
#
#
#
# Elastic Compliance Matrix: (Units=1/GPa)
#
#
# Indices 1 2 3 4 5 6 
#
# 1 0.017289 0.005064 -0.007013 0.000000 0.000000 0.000000
# 2 0.005064 0.015139 -0.003775 0.000000 0.000000 0.000000
# 3 -0.007013 -0.003775 0.009703 0.000000 0.000000 0.000000
# 4 0.000000 0.000000 0.000000 0.048359 0.000000 0.000000
# 5 0.000000 0.000000 0.000000 0.000000 -0.004137 0.000000
# 6 0.000000 0.000000 0.000000 0.000000 0.000000 -0.052521
#
#
# Mechanical properties :
#
#
# Convention : Reuss Voigt Hill
#
# Bulk Modulus (GPa) = 32.59016 47.86931 40.22973
# Shear Modulus (GPa) = 90.07799 -31.29914 29.38943
#
# Velocity S-wave (km/s) = 6.46959 -3.81359 3.69542
# Velocity P-wave (km/s) = 8.42323 1.68869 6.07464
#
# Compressibility (1/GPa) = 0.03068411
#
# Stress axis : x y z
#
# Youngs Moduli (GPa) = 57.84042 66.05311 103.05611
#
# Poissons Ratio (x) = -0.33448 0.72270
# Poissons Ratio (y) = -0.29289 0.38902
# Poissons Ratio (z) = 0.40562 0.24934
#
# Static dielectric constant tensor:
#      x y z
#    x 1.782810 0.000000 0.000000 
#    y 0.000000 2.438820 0.000000 
#    z 0.000000 0.000000 1.786100 
# 
# From -- ./inp_files/13143.got.cif
#   From: 2010.05.17/outbox.cif.g08.bks.cpg/sg53_7_cif.got.tgz:13143.got - 2010.06.03 12:45:16.
