data_PCOD9414940
_publ_section_title
;
Structure prediction by ZEFSAII (Michael W. Deem and Ramdas Pophale) SiO2 
 PCOD9414940
Probable space group: P M N A
;
_chemical_formula_sum "Si O2"
_cell_formula_units_Z 48
_cell_length_a 8.522111
_cell_length_b 9.884027
_cell_length_c 31.672383
_cell_angle_alpha 90.000000
_cell_angle_beta 90.000000
_cell_angle_gamma 90.000000
_cell_volume 2667.852718
_symmetry_space_group_name_H-M "P M N A"
_symmetry_group_IT_number 53
_symmetry_cell_setting 'orthorhombic'
loop_
_space_group_symop_operation_xyz
x,y,z
1/2-x,-y,1/2+z
x,-y,-z
1/2-x,y,1/2-z
-x,-y,-z
1/2+x,y,1/2-z
-x,y,z
1/2+x,-y,1/2+z
loop_
_atom_site_type_symbol
_atom_site_label
_atom_site_fract_x
_atom_site_fract_y
_atom_site_fract_z
Si Si1 0.312327 0.692803 0.610694
Si Si2 0.311637 0.192017 0.797137
Si Si3 0.308844 0.650042 0.514242
Si Si4 0.812376 0.588286 0.363782
Si Si5 0.187360 0.796514 0.068350
Si Si6 0.187539 0.984159 0.630872
O O1 0.500000 0.678978 0.611508
O O2 0.258871 0.682319 0.561704
O O3 0.237776 0.566685 0.635157
O O4 0.263151 0.837453 0.628465
O O5 0.250000 0.182935 0.750000
O O6 0.500000 0.187725 0.795788
O O7 0.266966 0.330316 0.821460
O O8 0.259705 0.070646 0.828207
O O9 0.257568 0.500000 0.500000
O O10 0.500000 0.648923 0.513961
O O11 0.260194 0.758486 0.478890
O O12 0.730137 0.667806 0.402316
O O13 0.000000 0.601014 0.369057
O O14 0.000000 0.815534 0.068453
O O15 0.265358 0.925541 0.090334
O O16 0.000000 0.972128 0.632199
#
# Coordination Sequence:
#
# PCOD9414940 Si02
#       6
#     8   8   8   8   8   8
#     4  11  21  35  56  81 108 147 192 226 264 320
#     4   9  20  38  61  83 106 136 173 217 269 329
#     4   9  17  31  51  78 110 142 185 238 274 299
#     4  10  20  35  54  81 114 142 170 220 279 319
#     4  10  18  33  56  78 104 146 193 229 260 314
#     4  10  22  39  54  78 116 147 174 224 286 327
#
# _framework density 17.991997999999999
#
# number of rings (size 3 to 8) (size 9 to 14) (size 15 to 20)
#    0.000    2.167    1.667    3.000    0.000    4.667 
#    0.000    8.333    0.000    0.000    0.000    0.000 
#    0.000    0.000    0.000    0.000    0.000    0.000 
#
# Total GULP energy -267894.654324 kJ/mol
# GULP energy per Si atom -5581.138632 kJ/mol
# Density = 1.795105 g / cm^3
# Si number density = 17.991998 Si / 1000 Ang^3
#
#
#
# Elastic Constant Matrix: (Units=GPa)
#
#
# Indices 1 2 3 4 5 6 
#
# 1 20.7774 3.3844 19.3123 0.0000 0.0000 0.0000
# 2 3.3844 117.5918 58.3677 0.0000 0.0000 0.0000
# 3 19.3123 58.3677 125.3743 0.0000 0.0000 0.0000
# 4 0.0000 0.0000 0.0000 14.2323 0.0000 0.0000
# 5 0.0000 0.0000 0.0000 0.0000 21.6333 0.0000
# 6 0.0000 0.0000 0.0000 0.0000 0.0000 34.2904
#
#
#
# Elastic Compliance Matrix: (Units=1/GPa)
#
#
# Indices 1 2 3 4 5 6 
#
# 1 0.057290 0.003552 -0.010479 0.000000 0.000000 0.000000
# 2 0.003552 0.011280 -0.005799 0.000000 0.000000 0.000000
# 3 -0.010479 -0.005799 0.012290 0.000000 0.000000 0.000000
# 4 0.000000 0.000000 0.000000 0.070263 0.000000 0.000000
# 5 0.000000 0.000000 0.000000 0.000000 0.046225 0.000000
# 6 0.000000 0.000000 0.000000 0.000000 0.000000 0.029163
#
#
# Mechanical properties :
#
#
# Convention : Reuss Voigt Hill
#
# Bulk Modulus (GPa) = 18.04723 47.31915 32.68319
# Shear Modulus (GPa) = 18.48909 26.20981 22.34945
#
# Velocity S-wave (km/s) = 3.20914 3.82088 3.52829
# Velocity P-wave (km/s) = 4.87688 6.76925 5.89943
#
# Compressibility (1/GPa) = 0.05541017
#
# Stress axis : x y z
#
# Youngs Moduli (GPa) = 17.45499 88.65334 81.36914
#
# Poissons Ratio (x) = -0.31492 0.85263
# Poissons Ratio (y) = -0.06200 0.47182
# Poissons Ratio (z) = 0.18290 0.51406
#
# Static dielectric constant tensor:
#      x y z
#    x 1.614460 0.000000 0.000000 
#    y 0.000000 1.603960 0.000000 
#    z 0.000000 0.000000 1.606600 
# 
# From -- ./inp_files/37734.got.cif
#   From: 2010.05.17/outbox.cif.g08.bks.cpg/sg53_19_cif.got.tgz:37734.got - 2010.06.03 12:45:16.
