data_PCOD9414018
_publ_section_title
;
Structure prediction by ZEFSAII (Michael W. Deem and Ramdas Pophale) SiO2 
 PCOD9414018
Probable space group: P N N A
;
_chemical_formula_sum "Si O2"
_cell_formula_units_Z 64
_cell_length_a 24.000000
_cell_length_b 15.000000
_cell_length_c 9.000000
_cell_angle_alpha 90.000000
_cell_angle_beta 90.000000
_cell_angle_gamma 90.000000
_cell_volume 3240.000000
_symmetry_space_group_name_H-M "P N N A"
_symmetry_group_IT_number 52
_symmetry_cell_setting 'orthorhombic'
loop_
_space_group_symop_operation_xyz
x,y,z
1/2-x,-y,z
x,1/2-y,1/2-z
1/2-x,1/2+y,1/2-z
-x,-y,-z
1/2+x,y,-z
-x,1/2+y,1/2+z
1/2+x,1/2-y,1/2+z
loop_
_atom_site_type_symbol
_atom_site_label
_atom_site_fract_x
_atom_site_fract_y
_atom_site_fract_z
Si Si1 0.240877 0.853936 0.207773
Si Si2 0.938684 0.995425 0.688932
Si Si3 0.260173 0.894253 0.864419
Si Si4 0.871255 0.841478 0.314762
Si Si5 0.861213 0.339312 0.324253
Si Si6 0.648599 0.344399 0.836525
Si Si7 0.380992 0.346125 0.325699
Si Si8 0.065749 0.518014 0.841103
O O1 0.235631 0.750000 0.250000
O O2 0.290983 0.888224 0.307576
O O3 0.178306 0.887687 0.229447
O O4 0.260500 0.866241 0.037834
O O5 0.897984 0.912904 0.719101
O O6 0.002084 0.964344 0.698532
O O7 0.926781 0.080414 0.790519
O O8 0.927963 0.026871 0.518832
O O9 0.315582 0.867487 0.776825
O O10 0.204758 0.849939 0.797975
O O11 0.250000 0.000000 0.859347
O O12 0.893094 0.750000 0.250000
O O13 0.857562 0.830024 0.488288
O O14 0.916951 0.917818 0.302721
O O15 0.882272 0.250000 0.250000
O O16 0.872146 0.334899 0.499273
O O17 0.892730 0.420115 0.248343
O O18 0.645488 0.250000 0.750000
O O19 0.390921 0.250000 0.250000
#
# Coordination Sequence:
#
# PCOD9414018 Si02
#       8
#     8   8   8   8   8   8   8   8
#     4   9  20  37  58  89 124 155 194 238 290 356
#     4  10  23  41  63  82 122 158 200 257 296 353
#     4  11  22  38  62  93 126 158 198 246 299 361
#     4  11  22  39  63  87 121 158 196 248 299 360
#     4  11  23  39  63  89 122 159 196 248 299 359
#     4  10  22  38  60  90 118 158 199 242 300 358
#     4  10  22  39  60  90 119 158 198 243 300 357
#     4  10  23  43  59  89 117 157 207 248 302 351
#
# _framework density 19.753086
#
# number of rings (size 3 to 8) (size 9 to 14) (size 15 to 20)
#    0.000    1.750    1.250    2.625    3.500    6.500 
#    0.000    2.500    0.000    0.000    0.000    0.000 
#    0.000    0.000    0.000    0.000    0.000    0.000 
#
# Total GULP energy -357319.887268 kJ/mol
# GULP energy per Si atom -5583.123239 kJ/mol
# Density = 1.970813 g / cm^3
# Si number density = 19.753086 Si / 1000 Ang^3
#
#
#
# Elastic Constant Matrix: (Units=GPa)
#
#
# Indices 1 2 3 4 5 6 
#
# 1 15.2892 -15.2101 -7.2664 0.0000 0.0000 0.0000
# 2 -15.2101 72.3271 13.8652 0.0000 0.0000 0.0000
# 3 -7.2664 13.8652 4.0929 0.0000 0.0000 0.0000
# 4 0.0000 0.0000 0.0000 27.7021 0.0000 0.0000
# 5 0.0000 0.0000 0.0000 0.0000 29.9234 0.0000
# 6 0.0000 0.0000 0.0000 0.0000 0.0000 82.4347
#
#
#
# Elastic Compliance Matrix: (Units=1/GPa)
#
#
# Indices 1 2 3 4 5 6 
#
# 1 -0.909312 0.337281 -2.756916 0.000000 0.000000 0.000000
# 2 0.337281 -0.085668 0.888998 0.000000 0.000000 0.000000
# 3 -2.756916 0.888998 -7.661721 0.000000 0.000000 0.000000
# 4 0.000000 0.000000 0.000000 0.036098 0.000000 0.000000
# 5 0.000000 0.000000 0.000000 0.000000 0.033419 0.000000
# 6 0.000000 0.000000 0.000000 0.000000 0.000000 0.012131
#
#
# Mechanical properties :
#
#
# Convention : Reuss Voigt Hill
#
# Bulk Modulus (GPa) = -0.08534 8.27631 4.09548
# Shear Modulus (GPa) = -0.53080 34.70005 17.08463
#
# Velocity S-wave (km/s) = -0.51894 4.19584 2.94412
# Velocity P-wave (km/s) = 0.63432 5.26045 3.69256
#
# Compressibility (1/GPa) = -11.71797540
#
# Stress axis : x y z
#
# Youngs Moduli (GPa) = -1.09973 -11.67303 -0.13052
#
# Poissons Ratio (x) = 3.93709 -0.35983
# Poissons Ratio (y) = 0.37092 0.11603
# Poissons Ratio (z) = -3.03187 10.37730
#
# Static dielectric constant tensor:
#      x y z
#    x 1.689800 0.000000 0.000000 
#    y 0.000000 1.688000 0.000000 
#    z 0.000000 0.000000 1.655950 
# 
# From -- ./inp_files/14514.got.cif
#   From: 2010.05.17/outbox.ucp.g08.bks.cvg/sg52_8_cif.got.tgz:14514.got - 2010.06.11 16:30:12.
