data_PCOD9414365
_publ_section_title
;
Structure prediction by ZEFSAII (Michael W. Deem and Ramdas Pophale) SiO2 
 PCOD9414365
Probable space group: P M N A
;
_chemical_formula_sum "Si O2"
_cell_formula_units_Z 64
_cell_length_a 8.846706
_cell_length_b 27.349955
_cell_length_c 18.817744
_cell_angle_alpha 90.000000
_cell_angle_beta 90.000000
_cell_angle_gamma 90.000000
_cell_volume 4553.085092
_symmetry_space_group_name_H-M "P M N A"
_symmetry_group_IT_number 53
_symmetry_cell_setting 'orthorhombic'
loop_
_space_group_symop_operation_xyz
x,y,z
1/2-x,-y,1/2+z
x,-y,-z
1/2-x,y,1/2-z
-x,-y,-z
1/2+x,y,1/2-z
-x,y,z
1/2+x,-y,1/2+z
loop_
_atom_site_type_symbol
_atom_site_label
_atom_site_fract_x
_atom_site_fract_y
_atom_site_fract_z
Si Si1 0.183305 0.899541 0.086269
Si Si2 0.319579 0.400629 0.587233
Si Si3 0.682106 0.805109 0.327344
Si Si4 0.317864 0.305971 0.672642
Si Si5 0.679789 0.009246 0.827878
Si Si6 0.674392 0.951785 0.550428
Si Si7 0.817761 0.491924 0.672146
Si Si8 0.674327 0.447922 0.041572
O O1 0.225853 0.846692 0.116614
O O2 0.254545 0.941313 0.136159
O O3 0.000000 0.904850 0.089411
O O4 0.226746 0.909945 0.004343
O O5 0.500000 0.405526 0.593159
O O6 0.273770 0.347599 0.616748
O O7 0.243208 0.442168 0.636240
O O8 0.269657 0.411386 0.506607
O O9 0.750000 0.816553 0.250000
O O10 0.500000 0.806001 0.321765
O O11 0.728073 0.749574 0.346199
O O12 0.250000 0.317414 0.750000
O O13 0.500000 0.306720 0.678248
O O14 0.750000 0.003288 0.750000
O O15 0.500000 0.012578 0.823401
O O16 0.728751 0.965595 0.881098
O O17 0.500000 0.943253 0.571505
O O18 0.675735 0.000000 0.500000
O O19 0.750000 0.496964 0.750000
O O20 0.773559 0.536865 0.620118
O O21 0.000000 0.489907 0.673664
O O22 0.500000 0.431713 0.043800
O O23 0.676888 0.500000 0.000000
#
# Coordination Sequence:
#
# PCOD9414365 Si02
#       8
#     8   8   8   8   8   8   8   8
#     4   9  17  29  44  59  78 106 135 164 198 234
#     4  10  18  27  41  59  79 106 137 166 196 231
#     4   9  17  29  42  57  79 106 135 166 198 228
#     4   9  18  29  40  57  80 105 135 168 197 227
#     4  11  20  28  40  58  81 107 134 164 196 232
#     4   8  15  28  42  57  78 102 130 162 196 234
#     4  10  19  29  41  58  80 105 133 164 197 235
#     4   8  16  29  41  55  77 103 130 162 198 234
#
# _framework density 14.056403
#
# number of rings (size 3 to 8) (size 9 to 14) (size 15 to 20)
#    0.000    2.750    0.000    4.125    0.000    8.500 
#    0.000    0.000    0.000    0.000    0.000    0.000 
#    0.000    1.000    0.000    4.250    0.000    2.750 
#
# Total GULP energy -356432.387190 kJ/mol
# GULP energy per Si atom -5569.256050 kJ/mol
# Density = 1.402441 g / cm^3
# Si number density = 14.056403 Si / 1000 Ang^3
#
#
#
# Elastic Constant Matrix: (Units=GPa)
#
#
# Indices 1 2 3 4 5 6 
#
# 1 39.2027 27.0983 38.4330 0.0000 0.0000 0.0000
# 2 27.0983 82.7670 54.4120 0.0000 0.0000 0.0000
# 3 38.4330 54.4120 106.2258 0.0000 0.0000 0.0000
# 4 0.0000 0.0000 0.0000 26.2104 0.0000 0.0000
# 5 0.0000 0.0000 0.0000 0.0000 22.9209 0.0000
# 6 0.0000 0.0000 0.0000 0.0000 0.0000 16.7881
#
#
#
# Elastic Compliance Matrix: (Units=1/GPa)
#
#
# Indices 1 2 3 4 5 6 
#
# 1 0.041158 -0.005557 -0.012045 0.000000 0.000000 0.000000
# 2 -0.005557 0.018967 -0.007705 0.000000 0.000000 0.000000
# 3 -0.012045 -0.007705 0.017718 0.000000 0.000000 0.000000
# 4 0.000000 0.000000 0.000000 0.038153 0.000000 0.000000
# 5 0.000000 0.000000 0.000000 0.000000 0.043628 0.000000
# 6 0.000000 0.000000 0.000000 0.000000 0.000000 0.059566
#
#
# Mechanical properties :
#
#
# Convention : Reuss Voigt Hill
#
# Bulk Modulus (GPa) = 36.72413 52.00914 44.36664
# Shear Modulus (GPa) = 17.92889 20.40068 19.16479
#
# Velocity S-wave (km/s) = 3.57528 3.81378 3.69646
# Velocity P-wave (km/s) = 6.57469 7.51491 7.06047
#
# Compressibility (1/GPa) = 0.02723005
#
# Stress axis : x y z
#
# Youngs Moduli (GPa) = 24.29674 52.72400 56.43877
#
# Poissons Ratio (x) = 0.29299 0.67978
# Poissons Ratio (y) = 0.13502 0.43485
# Poissons Ratio (z) = 0.29265 0.40623
#
# Static dielectric constant tensor:
#      x y z
#    x 1.471190 0.000000 0.000000 
#    y 0.000000 1.464750 0.000000 
#    z 0.000000 0.000000 1.465050 
# 
# From -- ./inp_files/27087.got.cif
#   From: 2010.05.17/outbox.cif.g08.bks.cpg/sg53_14_cif.got.tgz:27087.got - 2010.06.03 12:45:16.
