data_PCOD9414273
_publ_section_title
;
Structure prediction by ZEFSAII (Michael W. Deem and Ramdas Pophale) SiO2 
 PCOD9414273
Probable space group: P M N A
;
_chemical_formula_sum "Si O2"
_cell_formula_units_Z 64
_cell_length_a 7.600387
_cell_length_b 15.210928
_cell_length_c 30.945575
_cell_angle_alpha 90.000000
_cell_angle_beta 90.000000
_cell_angle_gamma 90.000000
_cell_volume 3577.585106
_symmetry_space_group_name_H-M "P M N A"
_symmetry_group_IT_number 53
_symmetry_cell_setting 'orthorhombic'
loop_
_space_group_symop_operation_xyz
x,y,z
1/2-x,-y,1/2+z
x,-y,-z
1/2-x,y,1/2-z
-x,-y,-z
1/2+x,y,1/2-z
-x,y,z
1/2+x,-y,1/2+z
loop_
_atom_site_type_symbol
_atom_site_label
_atom_site_fract_x
_atom_site_fract_y
_atom_site_fract_z
Si Si1 0.784914 0.953551 0.435719
Si Si2 0.205666 0.547743 0.609507
Si Si3 0.293635 0.364974 0.566018
Si Si4 0.705867 0.198843 0.879004
Si Si5 0.713436 0.667906 0.968026
Si Si6 0.788925 0.302184 0.702367
Si Si7 0.288425 0.503571 0.798070
Si Si8 0.785917 0.131641 0.472540
O O1 0.719746 0.892194 0.397090
O O2 0.734993 0.904248 0.480197
O O3 0.000000 0.953459 0.434934
O O4 0.729577 0.054936 0.439501
O O5 0.217131 0.448093 0.591652
O O6 0.280630 0.610419 0.572171
O O7 0.278447 0.550477 0.658368
O O8 0.000000 0.571147 0.612853
O O9 0.500000 0.363433 0.574605
O O10 0.216682 0.273789 0.584084
O O11 0.263531 0.370809 0.514737
O O12 0.500000 0.182499 0.870403
O O13 0.782900 0.242394 0.836043
O O14 0.500000 0.667413 0.967222
O O15 0.774436 0.769135 0.965353
O O16 0.750000 0.267445 0.750000
O O17 0.721481 0.402563 0.700285
O O18 0.000000 0.307766 0.697150
O O19 0.250000 0.538932 0.750000
O O20 0.500000 0.500448 0.801526
O O21 0.000000 0.133872 0.471872
#
# Coordination Sequence:
#
# PCOD9414273 Si02
#       8
#     8   8   8   8   8   8   8   8
#     4   8  13  22  43  69  90 108 139 183 221 255
#     4  10  20  34  49  65  86 120 158 187 218 264
#     4  12  23  31  42  64  95 125 153 186 219 259
#     4  10  17  30  49  66  88 121 154 181 216 267
#     4  10  19  32  50  65  87 122 157 189 222 259
#     4   9  17  28  44  63  86 113 143 182 221 263
#     4   9  17  30  46  65  87 110 144 185 224 264
#     4   8  13  23  42  70  90 107 140 186 225 250
#
# _framework density 17.889163
#
# number of rings (size 3 to 8) (size 9 to 14) (size 15 to 20)
#    0.000    2.500    2.500    2.250    0.000    3.000 
#    0.000    0.000    0.000    1.500    0.000    0.875 
#    0.000    0.000    0.000    0.000    0.000    0.000 
#
# Total GULP energy -356813.135067 kJ/mol
# GULP energy per Si atom -5575.205235 kJ/mol
# Density = 1.784845 g / cm^3
# Si number density = 17.889163 Si / 1000 Ang^3
#
#
#
# Elastic Constant Matrix: (Units=GPa)
#
#
# Indices 1 2 3 4 5 6 
#
# 1 38.4113 -7.7372 -4.6794 0.0000 0.0000 0.0000
# 2 -7.7372 42.5128 32.4798 0.0000 0.0000 0.0000
# 3 -4.6794 32.4798 137.9956 0.0000 0.0000 0.0000
# 4 0.0000 0.0000 0.0000 16.7622 0.0000 0.0000
# 5 0.0000 0.0000 0.0000 0.0000 12.0175 0.0000
# 6 0.0000 0.0000 0.0000 0.0000 0.0000 -10.0971
#
#
#
# Elastic Compliance Matrix: (Units=1/GPa)
#
#
# Indices 1 2 3 4 5 6 
#
# 1 0.027035 0.005145 -0.000294 0.000000 0.000000 0.000000
# 2 0.005145 0.029659 -0.006806 0.000000 0.000000 0.000000
# 3 -0.000294 -0.006806 0.008839 0.000000 0.000000 0.000000
# 4 0.000000 0.000000 0.000000 0.059658 0.000000 0.000000
# 5 0.000000 0.000000 0.000000 0.000000 0.083212 0.000000
# 6 0.000000 0.000000 0.000000 0.000000 0.000000 -0.099038
#
#
# Mechanical properties :
#
#
# Convention : Reuss Voigt Hill
#
# Bulk Modulus (GPa) = 16.22828 28.78288 22.50558
# Shear Modulus (GPa) = 37.36514 16.99363 27.17939
#
# Velocity S-wave (km/s) = 4.57519 3.08545 3.90208
# Velocity P-wave (km/s) = 6.08285 5.36823 5.73668
#
# Compressibility (1/GPa) = 0.06162081
#
# Stress axis : x y z
#
# Youngs Moduli (GPa) = 36.98977 33.71700 113.14007
#
# Poissons Ratio (x) = -0.17347 0.03329
# Poissons Ratio (y) = -0.19031 0.77006
# Poissons Ratio (z) = 0.01088 0.22949
#
# Static dielectric constant tensor:
#      x y z
#    x 1.685480 0.000000 0.000000 
#    y 0.000000 1.609680 0.000000 
#    z 0.000000 0.000000 1.634580 
# 
# From -- ./inp_files/38510.got.cif
#   From: 2010.05.17/outbox.cif.g08.bks.cpg/sg53_20_cif.got.tgz:38510.got - 2010.06.03 12:45:16.
