data_PCOD9414954
_publ_section_title
;
Structure prediction by ZEFSAII (Michael W. Deem and Ramdas Pophale) SiO2 
 PCOD9414954
Probable space group: P M N A
;
_chemical_formula_sum "Si O2"
_cell_formula_units_Z 64
_cell_length_a 8.495397
_cell_length_b 14.873903
_cell_length_c 25.842120
_cell_angle_alpha 90.000000
_cell_angle_beta 90.000000
_cell_angle_gamma 90.000000
_cell_volume 3265.402813
_symmetry_space_group_name_H-M "P M N A"
_symmetry_group_IT_number 53
_symmetry_cell_setting 'orthorhombic'
loop_
_space_group_symop_operation_xyz
x,y,z
1/2-x,-y,1/2+z
x,-y,-z
1/2-x,y,1/2-z
-x,-y,-z
1/2+x,y,1/2-z
-x,y,z
1/2+x,-y,1/2+z
loop_
_atom_site_type_symbol
_atom_site_label
_atom_site_fract_x
_atom_site_fract_y
_atom_site_fract_z
Si Si1 0.683920 0.852533 0.894288
Si Si2 0.190725 0.712211 0.693195
Si Si3 0.190891 0.224590 0.908719
Si Si4 0.311254 0.026173 0.558066
Si Si5 0.817533 0.531289 0.944109
Si Si6 0.315290 0.509895 0.834626
Si Si7 0.186979 0.320344 0.804591
Si Si8 0.180879 0.267938 0.021137
O O1 0.500000 0.867467 0.885322
O O2 0.744210 0.784960 0.849544
O O3 0.711067 0.800497 0.948237
O O4 0.766984 0.947652 0.902110
O O5 0.250000 0.736854 0.750000
O O6 0.243593 0.609509 0.681289
O O7 0.000000 0.710887 0.691558
O O8 0.245118 0.123313 0.921820
O O9 0.250091 0.268825 0.855700
O O10 0.000000 0.222838 0.904328
O O11 0.225569 0.280062 0.961177
O O12 0.500000 0.031711 0.554581
O O13 0.253727 0.000000 0.500000
O O14 0.716234 0.501766 0.895808
O O15 0.817437 0.638762 0.948619
O O16 0.000000 0.500053 0.937633
O O17 0.760773 0.500000 0.000000
O O18 0.500000 0.504752 0.822903
O O19 0.230536 0.425483 0.809163
O O20 0.250000 0.284919 0.750000
O O21 0.000000 0.312567 0.804428
O O22 0.000000 0.232723 0.021786
#
# Coordination Sequence:
#
# PCOD9414954 Si02
#       8
#     8   8   8   8   8   8   8   8
#     4  11  22  37  55  84 122 151 181 237 296 341
#     4  10  23  40  58  81 114 153 195 239 285 339
#     4   9  19  37  61  87 115 147 190 241 286 338
#     4  10  19  36  63  89 113 149 195 235 278 347
#     4  10  20  33  53  82 116 156 200 242 287 343
#     4  11  22  38  58  84 117 154 197 244 294 346
#     4  11  23  41  62  85 116 153 196 245 291 341
#     4  10  18  33  57  83 112 151 192 231 281 345
#
# _framework density 19.599419000000001
#
# number of rings (size 3 to 8) (size 9 to 14) (size 15 to 20)
#    0.000    1.750    2.500    2.250    0.000    5.500 
#    0.000    4.375    0.000    3.000    0.000    0.000 
#    0.000    0.000    0.000    0.000    0.000    0.000 
#
# Total GULP energy -357280.338925 kJ/mol
# GULP energy per Si atom -5582.505296 kJ/mol
# Density = 1.955481 g / cm^3
# Si number density = 19.599419 Si / 1000 Ang^3
#
#
#
# Elastic Constant Matrix: (Units=GPa)
#
#
# Indices 1 2 3 4 5 6 
#
# 1 9.5053 11.0262 10.2629 0.0000 0.0000 0.0000
# 2 11.0262 78.3445 44.4982 0.0000 0.0000 0.0000
# 3 10.2629 44.4982 132.6565 0.0000 0.0000 0.0000
# 4 0.0000 0.0000 0.0000 16.3335 0.0000 0.0000
# 5 0.0000 0.0000 0.0000 0.0000 29.5635 0.0000
# 6 0.0000 0.0000 0.0000 0.0000 0.0000 28.4601
#
#
#
# Elastic Compliance Matrix: (Units=1/GPa)
#
#
# Indices 1 2 3 4 5 6 
#
# 1 0.128131 -0.015322 -0.004773 0.000000 0.000000 0.000000
# 2 -0.015322 0.017601 -0.004719 0.000000 0.000000 0.000000
# 3 -0.004773 -0.004719 0.009490 0.000000 0.000000 0.000000
# 4 0.000000 0.000000 0.000000 0.061224 0.000000 0.000000
# 5 0.000000 0.000000 0.000000 0.000000 0.033825 0.000000
# 6 0.000000 0.000000 0.000000 0.000000 0.000000 0.035137
#
#
# Mechanical properties :
#
#
# Convention : Reuss Voigt Hill
#
# Bulk Modulus (GPa) = 9.47018 39.12011 24.29514
# Shear Modulus (GPa) = 13.50496 25.18604 19.34550
#
# Velocity S-wave (km/s) = 2.62782 3.58863 3.14513
# Velocity P-wave (km/s) = 3.74828 6.09707 5.06082
#
# Compressibility (1/GPa) = 0.10559466
#
# Stress axis : x y z
#
# Youngs Moduli (GPa) = 7.80449 56.81614 105.37048
#
# Poissons Ratio (x) = 0.87055 0.50295
# Poissons Ratio (y) = 0.11958 0.49720
# Poissons Ratio (z) = 0.03725 0.26809
#
# Static dielectric constant tensor:
#      x y z
#    x 1.694710 0.000000 0.000000 
#    y 0.000000 1.707240 0.000000 
#    z 0.000000 0.000000 1.693590 
# 
# From -- ./inp_files/34259.got.cif
#   From: 2010.05.17/outbox.cif.g08.bks.cpg/sg53_18_cif.got.tgz:34259.got - 2010.06.03 12:45:16.
