data_PCOD9414617
_publ_section_title
;
Structure prediction by ZEFSAII (Michael W. Deem and Ramdas Pophale) SiO2 
 PCOD9414617
Probable space group: P M N A
;
_chemical_formula_sum "Si O2"
_cell_formula_units_Z 64
_cell_length_a 23.546693
_cell_length_b 11.926399
_cell_length_c 13.014819
_cell_angle_alpha 90.000000
_cell_angle_beta 90.000000
_cell_angle_gamma 90.000000
_cell_volume 3654.915905
_symmetry_space_group_name_H-M "P M N A"
_symmetry_group_IT_number 53
_symmetry_cell_setting 'orthorhombic'
loop_
_space_group_symop_operation_xyz
x,y,z
1/2-x,-y,1/2+z
x,-y,-z
1/2-x,y,1/2-z
-x,-y,-z
1/2+x,y,1/2-z
-x,y,z
1/2+x,-y,1/2+z
loop_
_atom_site_type_symbol
_atom_site_label
_atom_site_fract_x
_atom_site_fract_y
_atom_site_fract_z
Si Si1 0.147445 0.869169 0.228825
Si Si2 0.565535 0.242026 0.104600
Si Si3 0.065759 0.328205 0.835098
Si Si4 0.840634 0.871837 0.470048
Si Si5 0.436331 0.075111 0.301257
Si Si6 0.567154 0.581223 0.730068
Si Si7 0.893895 0.263178 0.056595
Si Si8 0.287889 0.130400 0.526847
O O1 0.106447 0.764024 0.212202
O O2 0.162244 0.870716 0.347511
O O3 0.198878 0.859757 0.148349
O O4 0.111046 0.979852 0.200809
O O5 0.500000 0.238792 0.067171
O O6 0.569453 0.152893 0.199399
O O7 0.576344 0.362400 0.158690
O O8 0.611458 0.206552 0.020225
O O9 0.076511 0.450006 0.786107
O O10 0.000000 0.300947 0.818023
O O11 0.078434 0.320842 0.957090
O O12 0.776577 0.844112 0.505299
O O13 0.854173 0.000000 0.500000
O O14 0.500000 0.027139 0.301556
O O15 0.428542 0.156788 0.398799
O O16 0.500000 0.603720 0.705958
O O17 0.605009 0.647763 0.648226
O O18 0.832885 0.212220 0.027341
O O19 0.298612 0.000000 0.500000
#
# Coordination Sequence:
#
# PCOD9414617 Si02
#       8
#     8   8   8   8   8   8   8   8
#     4  11  21  35  51  78 113 143 177 227 274 330
#     4   9  19  35  56  81 108 136 178 233 276 313
#     4  10  20  32  53  82 111 148 183 217 270 336
#     4  11  22  37  57  78 104 145 185 226 272 331
#     4  10  18  30  49  80 114 142 170 222 280 325
#     4   9  18  35  56  81 111 144 187 227 268 322
#     4  10  18  32  55  79 113 144 180 222 269 327
#     4  10  21  36  53  79 111 141 178 218 274 331
#
# _framework density 17.510662
#
# number of rings (size 3 to 8) (size 9 to 14) (size 15 to 20)
#    0.000    2.000    2.500    3.000    0.000    2.250 
#    0.000    5.000    0.000   11.250    0.000    0.000 
#    0.000    0.000    0.000    0.000    0.000    0.000 
#
# Total GULP energy -356914.321269 kJ/mol
# GULP energy per Si atom -5576.786270 kJ/mol
# Density = 1.747081 g / cm^3
# Si number density = 17.510662 Si / 1000 Ang^3
#
#
#
# Elastic Constant Matrix: (Units=GPa)
#
#
# Indices 1 2 3 4 5 6 
#
# 1 74.9244 37.1997 28.1872 0.0000 0.0000 0.0000
# 2 37.1997 79.7575 24.0872 0.0000 0.0000 0.0000
# 3 28.1872 24.0872 59.3128 0.0000 0.0000 0.0000
# 4 0.0000 0.0000 0.0000 16.8569 0.0000 0.0000
# 5 0.0000 0.0000 0.0000 0.0000 18.3345 0.0000
# 6 0.0000 0.0000 0.0000 0.0000 0.0000 11.6236
#
#
#
# Elastic Compliance Matrix: (Units=1/GPa)
#
#
# Indices 1 2 3 4 5 6 
#
# 1 0.019212 -0.007070 -0.006259 0.000000 0.000000 0.000000
# 2 -0.007070 0.016893 -0.003500 0.000000 0.000000 0.000000
# 3 -0.006259 -0.003500 0.021256 0.000000 0.000000 0.000000
# 4 0.000000 0.000000 0.000000 0.059323 0.000000 0.000000
# 5 0.000000 0.000000 0.000000 0.000000 0.054542 0.000000
# 6 0.000000 0.000000 0.000000 0.000000 0.000000 0.086032
#
#
# Mechanical properties :
#
#
# Convention : Reuss Voigt Hill
#
# Bulk Modulus (GPa) = 42.19133 43.66033 42.92583
# Shear Modulus (GPa) = 16.73271 17.66436 17.19854
#
# Velocity S-wave (km/s) = 3.09459 3.17957 3.13737
# Velocity P-wave (km/s) = 6.07582 6.20220 6.13933
#
# Compressibility (1/GPa) = 0.02370155
#
# Stress axis : x y z
#
# Youngs Moduli (GPa) = 52.05131 59.19675 47.04665
#
# Poissons Ratio (x) = 0.41855 0.29445
# Poissons Ratio (y) = 0.36803 0.16467
# Poissons Ratio (z) = 0.32577 0.20720
#
# Static dielectric constant tensor:
#      x y z
#    x 1.581270 0.000000 0.000000 
#    y 0.000000 1.581840 0.000000 
#    z 0.000000 0.000000 1.638140 
# 
# From -- ./inp_files/18864.got.cif
#   From: 2010.05.17/outbox.cif.g08.bks.cpg/sg53_10_cif.got.tgz:18864.got - 2010.06.03 12:45:16.
