data_PCOD9414594
_publ_section_title
;
Structure prediction by ZEFSAII (Michael W. Deem and Ramdas Pophale) SiO2 
 PCOD9414594
Probable space group: P M N A
;
_chemical_formula_sum "Si O2"
_cell_formula_units_Z 48
_cell_length_a 8.872919
_cell_length_b 11.799050
_cell_length_c 26.342267
_cell_angle_alpha 90.000000
_cell_angle_beta 90.000000
_cell_angle_gamma 90.000000
_cell_volume 2757.825010
_symmetry_space_group_name_H-M "P M N A"
_symmetry_group_IT_number 53
_symmetry_cell_setting 'orthorhombic'
loop_
_space_group_symop_operation_xyz
x,y,z
1/2-x,-y,1/2+z
x,-y,-z
1/2-x,y,1/2-z
-x,-y,-z
1/2+x,y,1/2-z
-x,y,z
1/2+x,-y,1/2+z
loop_
_atom_site_type_symbol
_atom_site_label
_atom_site_fract_x
_atom_site_fract_y
_atom_site_fract_z
Si Si1 0.326063 0.243706 0.596185
Si Si2 0.182359 0.865589 0.194864
Si Si3 0.820121 0.868859 0.805073
Si Si4 0.181669 0.631804 0.499637
Si Si5 0.324003 0.776279 0.902787
Si Si6 0.164803 0.986118 0.940174
O O1 0.500000 0.283228 0.597611
O O2 0.265524 0.227922 0.653565
O O3 0.241882 0.310699 0.551895
O O4 0.325924 0.111930 0.580459
O O5 0.250000 0.843028 0.250000
O O6 0.000000 0.861044 0.195787
O O7 0.220570 0.998336 0.182565
O O8 0.750000 0.844498 0.750000
O O9 0.759433 0.785237 0.848757
O O10 0.000000 0.862861 0.801941
O O11 0.224452 0.500000 0.500000
O O12 0.232852 0.694024 0.551832
O O13 0.000000 0.640330 0.499130
O O14 0.500000 0.753247 0.894559
O O15 0.295749 0.902006 0.924738
O O16 0.000000 0.937755 0.924010
O O17 0.164443 0.000000 0.000000
#
# Coordination Sequence:
#
# PCOD9414594 Si02
#       6
#     8   8   8   8   8   8
#     4  10  19  33  53  77 105 137 174 213 258 313
#     4   9  18  31  48  74 108 141 169 202 247 305
#     4  10  19  33  51  76 111 145 173 208 255 308
#     4  10  23  40  54  73 103 138 177 223 270 310
#     4  11  21  32  51  77 105 139 177 215 259 316
#     4  10  18  30  48  73 107 140 166 206 265 318
#
# _framework density 17.40502
#
# number of rings (size 3 to 8) (size 9 to 14) (size 15 to 20)
#    0.000    2.000    3.333    1.000    0.000    3.333 
#    0.000    0.000    0.000    1.000    0.000    2.333 
#    0.000    0.000    0.000    0.000    0.000    0.000 
#
# Total GULP energy -267338.647281 kJ/mol
# GULP energy per Si atom -5569.555152 kJ/mol
# Density = 1.736541 g / cm^3
# Si number density = 17.405020 Si / 1000 Ang^3
#
#
#
# Elastic Constant Matrix: (Units=GPa)
#
#
# Indices 1 2 3 4 5 6 
#
# 1 33.5449 22.3035 43.2377 0.0000 0.0000 0.0000
# 2 22.3035 63.0294 58.0576 0.0000 0.0000 0.0000
# 3 43.2377 58.0576 166.1068 0.0000 0.0000 0.0000
# 4 0.0000 0.0000 0.0000 9.2617 0.0000 0.0000
# 5 0.0000 0.0000 0.0000 0.0000 25.6153 0.0000
# 6 0.0000 0.0000 0.0000 0.0000 0.0000 14.9579
#
#
#
# Elastic Compliance Matrix: (Units=1/GPa)
#
#
# Indices 1 2 3 4 5 6 
#
# 1 0.047438 -0.007982 -0.009558 0.000000 0.000000 0.000000
# 2 -0.007982 0.024742 -0.006570 0.000000 0.000000 0.000000
# 3 -0.009558 -0.006570 0.010805 0.000000 0.000000 0.000000
# 4 0.000000 0.000000 0.000000 0.107972 0.000000 0.000000
# 5 0.000000 0.000000 0.000000 0.000000 0.039039 0.000000
# 6 0.000000 0.000000 0.000000 0.000000 0.000000 0.066855
#
#
# Mechanical properties :
#
#
# Convention : Reuss Voigt Hill
#
# Bulk Modulus (GPa) = 28.76555 56.65321 42.70938
# Shear Modulus (GPa) = 14.01899 19.23911 16.62905
#
# Velocity S-wave (km/s) = 2.84114 3.32833 3.09434
# Velocity P-wave (km/s) = 5.22741 6.88411 6.11215
#
# Compressibility (1/GPa) = 0.03476381
#
# Stress axis : x y z
#
# Youngs Moduli (GPa) = 21.08015 40.41723 92.55304
#
# Poissons Ratio (x) = 0.32261 0.88465
# Poissons Ratio (y) = 0.16826 0.60808
# Poissons Ratio (z) = 0.20149 0.26554
#
# Static dielectric constant tensor:
#      x y z
#    x 1.616080 0.000000 0.000000 
#    y 0.000000 1.571540 0.000000 
#    z 0.000000 0.000000 1.809240 
# 
# From -- ./inp_files/36150.got.cif
#   From: 2010.05.17/outbox.cif.g08.bks.cpg/sg53_19_cif.got.tgz:36150.got - 2010.06.03 12:45:16.
