data_PCOD9414605
_publ_section_title
;
Structure prediction by ZEFSAII (Michael W. Deem and Ramdas Pophale) SiO2 
 PCOD9414605
Probable space group: P M N A
;
_chemical_formula_sum "Si O2"
_cell_formula_units_Z 64
_cell_length_a 16.412127
_cell_length_b 16.847864
_cell_length_c 12.365219
_cell_angle_alpha 90.000000
_cell_angle_beta 90.000000
_cell_angle_gamma 90.000000
_cell_volume 3419.097848
_symmetry_space_group_name_H-M "P M N A"
_symmetry_group_IT_number 53
_symmetry_cell_setting 'orthorhombic'
loop_
_space_group_symop_operation_xyz
x,y,z
1/2-x,-y,1/2+z
x,-y,-z
1/2-x,y,1/2-z
-x,-y,-z
1/2+x,y,1/2-z
-x,y,z
1/2+x,-y,1/2+z
loop_
_atom_site_type_symbol
_atom_site_label
_atom_site_fract_x
_atom_site_fract_y
_atom_site_fract_z
Si Si1 0.328971 0.590512 0.487576
Si Si2 0.794322 0.270954 0.135919
Si Si3 0.653391 0.340062 0.737262
Si Si4 0.091645 0.849079 0.755933
Si Si5 0.868667 0.414928 0.540524
Si Si6 0.599814 0.995608 0.126821
Si Si7 0.093243 0.824186 0.316725
Si Si8 0.122368 0.749818 0.547287
O O1 0.357466 0.500000 0.500000
O O2 0.338694 0.651987 0.586788
O O3 0.367931 0.628526 0.380683
O O4 0.230278 0.585249 0.471368
O O5 0.750000 0.291373 0.250000
O O6 0.851448 0.195642 0.158703
O O7 0.720781 0.247435 0.055940
O O8 0.750000 0.351365 0.750000
O O9 0.613444 0.389567 0.835843
O O10 0.635968 0.247051 0.753511
O O11 0.088875 0.788394 0.655002
O O12 0.000000 0.862904 0.796598
O O13 0.124527 0.929498 0.700186
O O14 0.897812 0.500000 0.500000
O O15 0.899379 0.342070 0.468052
O O16 0.500000 0.995880 0.125047
O O17 0.627240 0.913142 0.180835
O O18 0.624894 0.000000 0.000000
O O19 0.094441 0.796979 0.442195
O O20 0.000000 0.827462 0.279145
#
# Coordination Sequence:
#
# PCOD9414605 Si02
#       8
#     8   8   8   8   8   8   8   8
#     4   9  17  30  50  71  94 131 176 214 247 296
#     4   9  19  32  49  74 103 133 171 216 263 302
#     4   9  18  31  48  73 104 133 164 208 262 309
#     4  10  18  30  49  72 101 136 171 207 250 303
#     4   8  15  27  47  74  99 128 166 207 253 307
#     4   9  16  28  50  78 101 126 164 206 247 305
#     4  10  18  31  54  78  99 128 166 208 257 310
#     4   9  16  28  48  74 103 127 158 211 263 302
#
# _framework density 18.718387
#
# number of rings (size 3 to 8) (size 9 to 14) (size 15 to 20)
#    0.000    2.875    1.250    1.125    0.000    4.500 
#    0.000    2.500    0.000   14.625    0.000    2.625 
#    0.000    0.000    0.000    0.000    0.000    0.000 
#
# Total GULP energy -356476.528508 kJ/mol
# GULP energy per Si atom -5569.945758 kJ/mol
# Density = 1.867578 g / cm^3
# Si number density = 18.718387 Si / 1000 Ang^3
#
#
#
# Elastic Constant Matrix: (Units=GPa)
#
#
# Indices 1 2 3 4 5 6 
#
# 1 26.9336 23.8765 10.2527 0.0000 0.0000 0.0000
# 2 23.8765 170.0878 56.9475 0.0000 0.0000 0.0000
# 3 10.2527 56.9475 58.0582 0.0000 0.0000 0.0000
# 4 0.0000 0.0000 0.0000 28.7543 0.0000 0.0000
# 5 0.0000 0.0000 0.0000 0.0000 1.9656 0.0000
# 6 0.0000 0.0000 0.0000 0.0000 0.0000 22.7550
#
#
#
# Elastic Compliance Matrix: (Units=1/GPa)
#
#
# Indices 1 2 3 4 5 6 
#
# 1 0.042642 -0.005159 -0.002470 0.000000 0.000000 0.000000
# 2 -0.005159 0.009378 -0.008288 0.000000 0.000000 0.000000
# 3 -0.002470 -0.008288 0.025790 0.000000 0.000000 0.000000
# 4 0.000000 0.000000 0.000000 0.034777 0.000000 0.000000
# 5 0.000000 0.000000 0.000000 0.000000 0.508760 0.000000
# 6 0.000000 0.000000 0.000000 0.000000 0.000000 0.043946
#
#
# Mechanical properties :
#
#
# Convention : Reuss Voigt Hill
#
# Bulk Modulus (GPa) = 21.75035 48.58141 35.16588
# Shear Modulus (GPa) = 7.01801 21.62849 14.32325
#
# Velocity S-wave (km/s) = 1.93840 3.40290 2.76922
# Velocity P-wave (km/s) = 4.08104 6.43816 5.39002
#
# Compressibility (1/GPa) = 0.04597628
#
# Stress axis : x y z
#
# Youngs Moduli (GPa) = 23.45103 106.62757 38.77514
#
# Poissons Ratio (x) = 0.55009 0.09577
# Poissons Ratio (y) = 0.12098 0.32137
# Poissons Ratio (z) = 0.05792 0.88373
#
# Static dielectric constant tensor:
#      x y z
#    x 1.689570 0.000000 0.000000 
#    y 0.000000 1.662710 0.000000 
#    z 0.000000 0.000000 1.639380 
# 
# From -- ./inp_files/17195.got.cif
#   From: 2010.05.17/outbox.cif.g08.bks.cpg/sg53_9_cif.got.tgz:17195.got - 2010.06.03 12:45:16.
