data_PCOD9414061
_publ_section_title
;
Structure prediction by ZEFSAII (Michael W. Deem and Ramdas Pophale) SiO2 
 PCOD9414061
Probable space group: P M N A
;
_chemical_formula_sum "Si O2"
_cell_formula_units_Z 52
_cell_length_a 14.745189
_cell_length_b 8.700605
_cell_length_c 21.168538
_cell_angle_alpha 90.000000
_cell_angle_beta 90.000000
_cell_angle_gamma 90.000000
_cell_volume 2715.755456
_symmetry_space_group_name_H-M "P M N A"
_symmetry_group_IT_number 53
_symmetry_cell_setting 'orthorhombic'
loop_
_space_group_symop_operation_xyz
x,y,z
1/2-x,-y,1/2+z
x,-y,-z
1/2-x,y,1/2-z
-x,-y,-z
1/2+x,y,1/2-z
-x,y,z
1/2+x,-y,1/2+z
loop_
_atom_site_type_symbol
_atom_site_label
_atom_site_fract_x
_atom_site_fract_y
_atom_site_fract_z
Si Si1 0.899015 0.923394 0.711288
Si Si2 0.188996 0.715248 0.103640
Si Si3 0.099249 0.494901 0.797656
Si Si4 0.750000 0.278447 0.250000
Si Si5 0.895865 0.963430 0.861277
Si Si6 0.667112 0.258027 0.800233
Si Si7 0.105126 0.817066 0.982388
O O1 0.810291 0.819893 0.700380
O O2 0.896245 0.929552 0.787685
O O3 0.000000 0.870237 0.691951
O O4 0.881996 0.096757 0.688842
O O5 0.119759 0.603250 0.139784
O O6 0.286464 0.682247 0.135365
O O7 0.165653 0.889002 0.126091
O O8 0.169520 0.722065 0.029108
O O9 0.178997 0.613446 0.785447
O O10 0.105584 0.378001 0.737880
O O11 0.000000 0.566864 0.800451
O O12 0.872951 0.823155 0.908031
O O13 0.000000 0.007333 0.877923
O O14 0.750000 0.232255 0.750000
O O15 0.000000 0.770335 0.991513
O O16 0.111864 0.000000 0.000000
#
# Coordination Sequence:
#
# PCOD9414061 Si02
#       7
#     8   8   8   4   8   8   8
#     4  11  20  32  50  68  99 136 162 197 243 284
#     4  10  15  26  44  69  98 129 153 193 233 277
#     4  11  20  32  48  67  96 130 157 196 246 287
#     4  12  22  34  42  70 100 128 166 198 238 300
#     4   9  15  25  44  69  95 128 163 190 229 292
#     4  10  17  30  47  69  92 126 162 202 227 279
#     4   8  14  22  38  68  99 125 156 189 231 290
#
# _framework density 19.147527
#
# number of rings (size 3 to 8) (size 9 to 14) (size 15 to 20)
#    0.000    2.000    6.154    3.231    0.000    0.000 
#    0.000    0.000    0.000    0.923    0.000    4.308 
#    0.000   44.308    0.308    0.462    0.000    0.000 
#
# Total GULP energy -289895.012149 kJ/mol
# GULP energy per Si atom -5574.904080 kJ/mol
# Density = 1.910395 g / cm^3
# Si number density = 19.147527 Si / 1000 Ang^3
#
#
#
# Elastic Constant Matrix: (Units=GPa)
#
#
# Indices 1 2 3 4 5 6 
#
# 1 100.3428 21.4461 4.6089 0.0000 0.0000 0.0000
# 2 21.4461 46.6557 -11.3849 0.0000 0.0000 0.0000
# 3 4.6089 -11.3849 43.6546 0.0000 0.0000 0.0000
# 4 0.0000 0.0000 0.0000 8.9654 0.0000 0.0000
# 5 0.0000 0.0000 0.0000 0.0000 12.5371 0.0000
# 6 0.0000 0.0000 0.0000 0.0000 0.0000 16.6828
#
#
#
# Elastic Compliance Matrix: (Units=1/GPa)
#
#
# Indices 1 2 3 4 5 6 
#
# 1 0.011349 -0.005883 -0.002733 0.000000 0.000000 0.000000
# 2 -0.005883 0.025940 0.007386 0.000000 0.000000 0.000000
# 3 -0.002733 0.007386 0.025122 0.000000 0.000000 0.000000
# 4 0.000000 0.000000 0.000000 0.111540 0.000000 0.000000
# 5 0.000000 0.000000 0.000000 0.000000 0.079763 0.000000
# 6 0.000000 0.000000 0.000000 0.000000 0.000000 0.059942
#
#
# Mechanical properties :
#
#
# Convention : Reuss Voigt Hill
#
# Bulk Modulus (GPa) = 16.68008 24.44370 20.56189
# Shear Modulus (GPa) = 14.87652 19.36926 17.12289
#
# Velocity S-wave (km/s) = 2.79039 3.18399 2.99366
# Velocity P-wave (km/s) = 4.37173 5.12940 4.76564
#
# Compressibility (1/GPa) = 0.05995173
#
# Stress axis : x y z
#
# Youngs Moduli (GPa) = 88.11501 38.54985 39.80587
#
# Poissons Ratio (x) = 0.22681 0.10877
# Poissons Ratio (y) = 0.51842 -0.29402
# Poissons Ratio (z) = 0.24078 -0.28474
#
# Static dielectric constant tensor:
#      x y z
#    x 1.724420 0.000000 0.000000 
#    y 0.000000 1.749200 0.000000 
#    z 0.000000 0.000000 1.726300 
# 
# From -- ./inp_files/35233.got.cif
#   From: 2010.05.17/outbox.cif.g08.bks.cpg/sg53_18_cif.got.tgz:35233.got - 2010.06.03 12:45:16.
