data_PCOD9415442
_publ_section_title
;
Structure prediction by ZEFSAII (Michael W. Deem and Ramdas Pophale) SiO2 
 PCOD9415442
Probable space group: P M N A
;
_chemical_formula_sum "Si O2"
_cell_formula_units_Z 56
_cell_length_a 8.661092
_cell_length_b 15.947215
_cell_length_c 23.803783
_cell_angle_alpha 90.000000
_cell_angle_beta 90.000000
_cell_angle_gamma 90.000000
_cell_volume 3287.785560
_symmetry_space_group_name_H-M "P M N A"
_symmetry_group_IT_number 53
_symmetry_cell_setting 'orthorhombic'
loop_
_space_group_symop_operation_xyz
x,y,z
1/2-x,-y,1/2+z
x,-y,-z
1/2-x,y,1/2-z
-x,-y,-z
1/2+x,y,1/2-z
-x,y,z
1/2+x,-y,1/2+z
loop_
_atom_site_type_symbol
_atom_site_label
_atom_site_fract_x
_atom_site_fract_y
_atom_site_fract_z
Si Si1 0.185087 0.830103 0.686570
Si Si2 0.186278 0.810995 0.186753
Si Si3 0.186265 0.402783 0.494238
Si Si4 0.684906 0.003107 0.686610
Si Si5 0.686509 0.657387 0.871054
Si Si6 0.815218 0.496435 0.810918
Si Si7 0.313594 0.343268 0.609380
O O1 0.250000 0.820959 0.750000
O O2 0.245665 0.918100 0.661528
O O3 0.231863 0.749428 0.650250
O O4 0.000000 0.833361 0.689978
O O5 0.250000 0.800012 0.250000
O O6 0.237678 0.737742 0.144923
O O7 0.000000 0.807504 0.190784
O O8 0.227136 0.904361 0.164545
O O9 0.237541 0.500000 0.500000
O O10 0.235778 0.364892 0.434448
O O11 0.248099 0.351205 0.547086
O O12 0.000000 0.402488 0.495725
O O13 0.750000 0.004059 0.750000
O O14 0.500000 0.996086 0.687639
O O15 0.500000 0.652578 0.868954
O O16 0.753403 0.586274 0.830472
O O17 0.750000 0.474592 0.750000
O O18 0.766532 0.426265 0.855984
O O19 0.000000 0.497807 0.808611
O O20 0.500000 0.341829 0.606689
#
# Coordination Sequence:
#
# PCOD9415442 Si02
#       7
#     8   8   8   8   8   8   8
#     4  10  19  31  49  73 102 130 161 200 245 296
#     4   9  18  32  50  75 105 134 164 202 247 298
#     4  10  20  36  56  73  94 129 173 214 251 293
#     4   9  16  28  48  72 100 131 163 198 242 295
#     4  10  21  36  52  72  99 131 167 208 250 295
#     4  11  22  33  49  73 102 133 163 199 245 296
#     4  10  21  35  51  74 102 131 166 207 248 292
#
# _framework density 17.032741999999999
#
# number of rings (size 3 to 8) (size 9 to 14) (size 15 to 20)
#    0.000    2.143    1.429    3.000    0.000    4.857 
#    0.000    0.000    0.000    0.857    0.000    6.000 
#    0.000    0.000    0.000    0.000    0.000    0.000 
#
# Total GULP energy -312350.721046 kJ/mol
# GULP energy per Si atom -5577.691447 kJ/mol
# Density = 1.699397 g / cm^3
# Si number density = 17.032742 Si / 1000 Ang^3
#
#
#
# Elastic Constant Matrix: (Units=GPa)
#
#
# Indices 1 2 3 4 5 6 
#
# 1 15.1386 21.8739 9.9564 0.0000 0.0000 0.0000
# 2 21.8739 121.7765 20.6824 0.0000 0.0000 0.0000
# 3 9.9564 20.6824 64.9742 0.0000 0.0000 0.0000
# 4 0.0000 0.0000 0.0000 9.5695 0.0000 0.0000
# 5 0.0000 0.0000 0.0000 0.0000 23.6897 0.0000
# 6 0.0000 0.0000 0.0000 0.0000 0.0000 21.3052
#
#
#
# Elastic Compliance Matrix: (Units=1/GPa)
#
#
# Indices 1 2 3 4 5 6 
#
# 1 0.094556 -0.015354 -0.009602 0.000000 0.000000 0.000000
# 2 -0.015354 0.011174 -0.001204 0.000000 0.000000 0.000000
# 3 -0.009602 -0.001204 0.017245 0.000000 0.000000 0.000000
# 4 0.000000 0.000000 0.000000 0.104498 0.000000 0.000000
# 5 0.000000 0.000000 0.000000 0.000000 0.042212 0.000000
# 6 0.000000 0.000000 0.000000 0.000000 0.000000 0.046937
#
#
# Mechanical properties :
#
#
# Convention : Reuss Voigt Hill
#
# Bulk Modulus (GPa) = 14.15310 34.10163 24.12736
# Shear Modulus (GPa) = 12.73899 20.87133 16.80516
#
# Velocity S-wave (km/s) = 2.73776 3.50432 3.14449
# Velocity P-wave (km/s) = 4.28033 6.03642 5.23257
#
# Compressibility (1/GPa) = 0.07065589
#
# Stress axis : x y z
#
# Youngs Moduli (GPa) = 10.57570 89.49221 57.98634
#
# Poissons Ratio (x) = 1.37403 0.55680
# Poissons Ratio (y) = 0.16238 0.06983
# Poissons Ratio (z) = 0.10155 0.10776
#
# Static dielectric constant tensor:
#      x y z
#    x 1.577990 0.000000 0.000000 
#    y 0.000000 1.606590 0.000000 
#    z 0.000000 0.000000 1.539520 
# 
# From -- ./inp_files/30860.got.cif
#   From: 2010.05.17/outbox.cif.g08.bks.cpg/sg53_16_cif.got.tgz:30860.got - 2010.06.03 12:45:16.
