data_PCOD9415987
_publ_section_title
;
Structure prediction by ZEFSAII (Michael W. Deem and Ramdas Pophale) SiO2 
 PCOD9415987
Probable space group: P M N A
;
_chemical_formula_sum "Si O2"
_cell_formula_units_Z 56
_cell_length_a 8.815163
_cell_length_b 21.041933
_cell_length_c 15.371207
_cell_angle_alpha 90.000000
_cell_angle_beta 90.000000
_cell_angle_gamma 90.000000
_cell_volume 2851.175508
_symmetry_space_group_name_H-M "P M N A"
_symmetry_group_IT_number 53
_symmetry_cell_setting 'orthorhombic'
loop_
_space_group_symop_operation_xyz
x,y,z
1/2-x,-y,1/2+z
x,-y,-z
1/2-x,y,1/2-z
-x,-y,-z
1/2+x,y,1/2-z
-x,y,z
1/2+x,-y,1/2+z
loop_
_atom_site_type_symbol
_atom_site_label
_atom_site_fract_x
_atom_site_fract_y
_atom_site_fract_z
Si Si1 0.681552 0.792691 0.513150
Si Si2 0.821582 0.013430 0.896637
Si Si3 0.681222 0.352892 0.472381
Si Si4 0.179549 0.597946 0.161438
Si Si5 0.681888 0.149140 0.844407
Si Si6 0.327552 0.526510 0.900766
Si Si7 0.318829 0.117619 0.160149
O O1 0.500000 0.802947 0.508691
O O2 0.710501 0.720861 0.544258
O O3 0.752657 0.804679 0.418564
O O4 0.755374 0.841970 0.579786
O O5 0.741968 0.953949 0.851298
O O6 0.000000 0.016947 0.873237
O O7 0.740303 0.078749 0.871188
O O8 0.811885 0.000000 0.000000
O O9 0.500000 0.364204 0.468115
O O10 0.729785 0.368073 0.572078
O O11 0.761644 0.402871 0.409020
O O12 0.250000 0.624032 0.250000
O O13 0.228168 0.524351 0.150815
O O14 0.000000 0.602969 0.166769
O O15 0.750000 0.164242 0.750000
O O16 0.500000 0.150554 0.842740
O O17 0.500000 0.526172 0.868441
O O18 0.327759 0.500000 0.000000
O O19 0.250000 0.143330 0.250000
O O20 0.500000 0.118613 0.161664
#
# Coordination Sequence:
#
# PCOD9415987 Si02
#       7
#     8   8   8   8   8   8   8
#     4  11  23  42  63  88 122 160 204 250 300 358
#     4  11  22  39  65  92 122 156 194 247 307 361
#     4   9  20  37  58  81 112 153 191 234 287 345
#     4  10  19  33  54  83 116 149 187 233 286 340
#     4  12  25  41  62  89 123 161 203 249 302 361
#     4   9  17  31  53  80 108 140 180 225 271 326
#     4  12  25  42  65  91 120 156 200 249 305 362
#
# _framework density 19.641022
#
# number of rings (size 3 to 8) (size 9 to 14) (size 15 to 20)
#    0.000    1.429    1.429    4.714    0.000    4.571 
#    0.000    2.143    0.000    3.429    0.000    0.000 
#    0.000    0.000    0.000    0.000    0.000    0.000 
#
# Total GULP energy -313051.008667 kJ/mol
# GULP energy per Si atom -5590.196583 kJ/mol
# Density = 1.959632 g / cm^3
# Si number density = 19.641022 Si / 1000 Ang^3
#
#
#
# Elastic Constant Matrix: (Units=GPa)
#
#
# Indices 1 2 3 4 5 6 
#
# 1 107.8426 21.4081 15.2473 0.0000 0.0000 0.0000
# 2 21.4081 57.4086 -10.5476 0.0000 0.0000 0.0000
# 3 15.2473 -10.5476 51.6299 0.0000 0.0000 0.0000
# 4 0.0000 0.0000 0.0000 6.8805 0.0000 0.0000
# 5 0.0000 0.0000 0.0000 0.0000 31.1736 0.0000
# 6 0.0000 0.0000 0.0000 0.0000 0.0000 16.3448
#
#
#
# Elastic Compliance Matrix: (Units=1/GPa)
#
#
# Indices 1 2 3 4 5 6 
#
# 1 0.010816 -0.004800 -0.004175 0.000000 0.000000 0.000000
# 2 -0.004800 0.020229 0.005550 0.000000 0.000000 0.000000
# 3 -0.004175 0.005550 0.021735 0.000000 0.000000 0.000000
# 4 0.000000 0.000000 0.000000 0.145338 0.000000 0.000000
# 5 0.000000 0.000000 0.000000 0.000000 0.032078 0.000000
# 6 0.000000 0.000000 0.000000 0.000000 0.000000 0.061181
#
#
# Mechanical properties :
#
#
# Convention : Reuss Voigt Hill
#
# Bulk Modulus (GPa) = 21.77213 29.89961 25.83587
# Shear Modulus (GPa) = 15.94701 23.59801 19.77251
#
# Velocity S-wave (km/s) = 2.85252 3.46998 3.17629
# Velocity P-wave (km/s) = 4.68596 5.59557 5.16085
#
# Compressibility (1/GPa) = 0.04593027
#
# Stress axis : x y z
#
# Youngs Moduli (GPa) = 92.45594 49.43433 46.00790
#
# Poissons Ratio (x) = 0.23730 0.19208
# Poissons Ratio (y) = 0.44382 -0.25536
# Poissons Ratio (z) = 0.38599 -0.27437
#
# Static dielectric constant tensor:
#      x y z
#    x 1.657670 0.000000 0.000000 
#    y 0.000000 1.668820 0.000000 
#    z 0.000000 0.000000 1.712210 
# 
# From -- ./inp_files/20494.got.cif
#   From: 2010.05.17/outbox.cif.g08.bks.cpg/sg53_11_cif.got.tgz:20494.got - 2010.06.03 12:45:16.
