data_PCOD9415750
_publ_section_title
;
Structure prediction by ZEFSAII (Michael W. Deem and Ramdas Pophale) SiO2 
 PCOD9415750
Probable space group: P M N A
;
_chemical_formula_sum "Si O2"
_cell_formula_units_Z 56
_cell_length_a 7.842960
_cell_length_b 15.723194
_cell_length_c 21.724457
_cell_angle_alpha 90.000000
_cell_angle_beta 90.000000
_cell_angle_gamma 90.000000
_cell_volume 2678.981430
_symmetry_space_group_name_H-M "P M N A"
_symmetry_group_IT_number 53
_symmetry_cell_setting 'orthorhombic'
loop_
_space_group_symop_operation_xyz
x,y,z
1/2-x,-y,1/2+z
x,-y,-z
1/2-x,y,1/2-z
-x,-y,-z
1/2+x,y,1/2-z
-x,y,z
1/2+x,-y,1/2+z
loop_
_atom_site_type_symbol
_atom_site_label
_atom_site_fract_x
_atom_site_fract_y
_atom_site_fract_z
Si Si1 0.793563 0.793056 0.126291
Si Si2 0.800876 0.419879 0.457916
Si Si3 0.204204 0.231044 0.010162
Si Si4 0.201767 0.437796 0.182470
Si Si5 0.295580 0.627878 0.316609
Si Si6 0.790879 0.057537 0.059011
Si Si7 0.205022 0.036964 0.817797
O O1 0.728098 0.698244 0.137540
O O2 0.729881 0.866702 0.170824
O O3 0.000000 0.789465 0.133567
O O4 0.760567 0.812131 0.055680
O O5 0.729144 0.500000 0.500000
O O6 0.774139 0.326577 0.487117
O O7 0.738594 0.407218 0.387048
O O8 0.000000 0.437785 0.452585
O O9 0.262970 0.156612 0.055879
O O10 0.000000 0.240972 0.016284
O O11 0.250000 0.399510 0.250000
O O12 0.278192 0.533564 0.180705
O O13 0.000000 0.442192 0.186205
O O14 0.250000 0.663203 0.250000
O O15 0.500000 0.620528 0.323948
O O16 0.000000 0.057376 0.057340
O O17 0.735480 0.016857 0.123518
O O18 0.738082 0.000000 0.000000
O O19 0.250000 0.005925 0.750000
O O20 0.000000 0.039153 0.821602
#
# Coordination Sequence:
#
# PCOD9415750 Si02
#       7
#     8   8   8   8   8   8   8
#     4   9  16  28  49  76 105 138 179 226 273 332
#     4  11  24  40  57  83 120 156 194 247 303 351
#     4  10  19  34  59  84 105 140 194 244 288 341
#     4  10  20  36  58  82 111 150 196 243 295 354
#     4   9  17  28  44  70 102 136 174 217 270 333
#     4   9  16  32  58  84 107 141 189 236 276 329
#     4  10  19  32  52  80 113 146 183 227 280 335
#
# _framework density 20.903468
#
# number of rings (size 3 to 8) (size 9 to 14) (size 15 to 20)
#    0.000    2.286    1.429    2.143    0.000    2.857 
#    0.000    2.857    0.000    2.571    0.000    0.000 
#    0.000    0.000    0.000    0.000    0.000    0.000 
#
# Total GULP energy -311746.892291 kJ/mol
# GULP energy per Si atom -5566.908791 kJ/mol
# Density = 2.085589 g / cm^3
# Si number density = 20.903468 Si / 1000 Ang^3
#
#
#
# Elastic Constant Matrix: (Units=GPa)
#
#
# Indices 1 2 3 4 5 6 
#
# 1 30.2475 -3.9618 4.4456 0.0000 0.0000 0.0000
# 2 -3.9618 74.1402 29.5607 0.0000 0.0000 0.0000
# 3 4.4456 29.5607 110.3878 0.0000 0.0000 0.0000
# 4 0.0000 0.0000 0.0000 35.6032 0.0000 0.0000
# 5 0.0000 0.0000 0.0000 0.0000 18.4738 0.0000
# 6 0.0000 0.0000 0.0000 0.0000 0.0000 2.2245
#
#
#
# Elastic Compliance Matrix: (Units=1/GPa)
#
#
# Indices 1 2 3 4 5 6 
#
# 1 0.033707 0.002622 -0.002060 0.000000 0.000000 0.000000
# 2 0.002622 0.015304 -0.004204 0.000000 0.000000 0.000000
# 3 -0.002060 -0.004204 0.010268 0.000000 0.000000 0.000000
# 4 0.000000 0.000000 0.000000 0.028087 0.000000 0.000000
# 5 0.000000 0.000000 0.000000 0.000000 0.054131 0.000000
# 6 0.000000 0.000000 0.000000 0.000000 0.000000 0.449546
#
#
# Mechanical properties :
#
#
# Convention : Reuss Voigt Hill
#
# Bulk Modulus (GPa) = 19.23214 30.54050 24.88632
# Shear Modulus (GPa) = 8.12140 23.57568 15.84854
#
# Velocity S-wave (km/s) = 1.97323 3.36197 2.75649
# Velocity P-wave (km/s) = 3.79630 5.45091 4.69704
#
# Compressibility (1/GPa) = 0.05199630
#
# Stress axis : x y z
#
# Youngs Moduli (GPa) = 29.66758 65.34127 97.39286
#
# Poissons Ratio (x) = -0.17135 0.20060
# Poissons Ratio (y) = -0.07780 0.40943
# Poissons Ratio (z) = 0.06111 0.27469
#
# Static dielectric constant tensor:
#      x y z
#    x 1.785770 0.000000 0.000000 
#    y 0.000000 1.779210 0.000000 
#    z 0.000000 0.000000 1.835920 
# 
# From -- ./inp_files/30837.got.cif
#   From: 2010.05.17/outbox.cif.g08.bks.cpg/sg53_16_cif.got.tgz:30837.got - 2010.06.03 12:45:16.
