data_PCOD9415808
_publ_section_title
;
Structure prediction by ZEFSAII (Michael W. Deem and Ramdas Pophale) SiO2 
 PCOD9415808
Probable space group: P M N A
;
_chemical_formula_sum "Si O2"
_cell_formula_units_Z 56
_cell_length_a 13.748920
_cell_length_b 15.817349
_cell_length_c 12.335661
_cell_angle_alpha 90.000000
_cell_angle_beta 90.000000
_cell_angle_gamma 90.000000
_cell_volume 2682.654282
_symmetry_space_group_name_H-M "P M N A"
_symmetry_group_IT_number 53
_symmetry_cell_setting 'orthorhombic'
loop_
_space_group_symop_operation_xyz
x,y,z
1/2-x,-y,1/2+z
x,-y,-z
1/2-x,y,1/2-z
-x,-y,-z
1/2+x,y,1/2-z
-x,y,z
1/2+x,-y,1/2+z
loop_
_atom_site_type_symbol
_atom_site_label
_atom_site_fract_x
_atom_site_fract_y
_atom_site_fract_z
Si Si1 0.890678 0.980899 0.681465
Si Si2 0.256611 0.754537 0.514043
Si Si3 0.813688 0.069432 0.088278
Si Si4 0.616705 0.550607 0.161623
Si Si5 0.114298 0.676611 0.152272
Si Si6 0.110945 0.817935 0.330059
Si Si7 0.383653 0.628011 0.922213
O O1 0.801703 0.946865 0.610248
O O2 0.871578 0.946021 0.801408
O O3 0.000000 0.960762 0.642379
O O4 0.881077 0.082408 0.689270
O O5 0.319509 0.833448 0.554011
O O6 0.326348 0.686694 0.456966
O O7 0.185372 0.791149 0.421655
O O8 0.184696 0.708310 0.597892
O O9 0.844954 0.000000 0.000000
O O10 0.500000 0.545614 0.169361
O O11 0.647263 0.601534 0.268018
O O12 0.648861 0.454358 0.145179
O O13 0.631996 0.601801 0.049312
O O14 0.128145 0.762563 0.222654
O O15 0.000000 0.667332 0.131251
O O16 0.000000 0.798393 0.364749
O O17 0.500000 0.642608 0.907953
#
# Coordination Sequence:
#
# PCOD9415808 Si02
#       7
#     8   8   8   8   8   8   8
#     4  10  23  41  59  79 116 166 206 245 303 367
#     4  12  21  31  56  88 119 151 191 251 300 346
#     4  11  23  38  57  85 121 156 206 261 303 355
#     4   8  15  30  50  76 113 146 177 223 285 355
#     4  10  20  32  51  85 122 154 190 237 294 355
#     4  10  19  32  53  82 114 148 192 242 293 345
#     4   9  17  30  51  82 116 146 179 231 296 352
#
# _framework density 20.874846999999999
#
# number of rings (size 3 to 8) (size 9 to 14) (size 15 to 20)
#    0.000    2.000    2.857    2.571    2.000    2.286 
#    0.000    0.000    0.000    6.857    0.000    4.000 
#    0.000    0.000    0.000    0.000    0.000    0.000 
#
# Total GULP energy -312850.078844 kJ/mol
# GULP energy per Si atom -5586.608551 kJ/mol
# Density = 2.082733 g / cm^3
# Si number density = 20.874847 Si / 1000 Ang^3
#
#
#
# Elastic Constant Matrix: (Units=GPa)
#
#
# Indices 1 2 3 4 5 6 
#
# 1 67.1909 18.2886 3.2108 0.0000 0.0000 0.0000
# 2 18.2886 92.9040 19.1050 0.0000 0.0000 0.0000
# 3 3.2108 19.1050 36.1613 0.0000 0.0000 0.0000
# 4 0.0000 0.0000 0.0000 -4.5595 0.0000 0.0000
# 5 0.0000 0.0000 0.0000 0.0000 13.2979 0.0000
# 6 0.0000 0.0000 0.0000 0.0000 0.0000 10.5818
#
#
#
# Elastic Compliance Matrix: (Units=1/GPa)
#
#
# Indices 1 2 3 4 5 6 
#
# 1 0.015728 -0.003151 0.000268 0.000000 0.000000 0.000000
# 2 -0.003151 0.012707 -0.006434 0.000000 0.000000 0.000000
# 3 0.000268 -0.006434 0.031029 0.000000 0.000000 0.000000
# 4 0.000000 0.000000 0.000000 -0.219321 0.000000 0.000000
# 5 0.000000 0.000000 0.000000 0.000000 0.075200 0.000000
# 6 0.000000 0.000000 0.000000 0.000000 0.000000 0.094502
#
#
# Mechanical properties :
#
#
# Convention : Reuss Voigt Hill
#
# Bulk Modulus (GPa) = 24.49122 30.82946 27.66034
# Shear Modulus (GPa) = 118.79707 14.24082 66.51895
#
# Velocity S-wave (km/s) = 7.55200 2.61473 5.65109
# Velocity P-wave (km/s) = 9.37025 4.89045 7.47389
#
# Compressibility (1/GPa) = 0.04083096
#
# Stress axis : x y z
#
# Youngs Moduli (GPa) = 63.58134 78.69551 32.22775
#
# Poissons Ratio (x) = 0.24799 -0.00865
# Poissons Ratio (y) = 0.20036 0.20735
# Poissons Ratio (z) = -0.01707 0.50631
#
# Static dielectric constant tensor:
#      x y z
#    x 1.765490 0.000000 0.000000 
#    y 0.000000 1.786290 0.000000 
#    z 0.000000 0.000000 1.738510 
# 
# From -- ./inp_files/16063.got.cif
#   From: 2010.05.17/outbox.cif.g08.bks.cpg/sg53_9_cif.got.tgz:16063.got - 2010.06.03 12:45:16.
