data_PCOD9415690
_publ_section_title
;
Structure prediction by ZEFSAII (Michael W. Deem and Ramdas Pophale) SiO2 
 PCOD9415690
Probable space group: P M N A
;
_chemical_formula_sum "Si O2"
_cell_formula_units_Z 64
_cell_length_a 7.776126
_cell_length_b 25.988538
_cell_length_c 14.916886
_cell_angle_alpha 90.000000
_cell_angle_beta 90.000000
_cell_angle_gamma 90.000000
_cell_volume 3014.555670
_symmetry_space_group_name_H-M "P M N A"
_symmetry_group_IT_number 53
_symmetry_cell_setting 'orthorhombic'
loop_
_space_group_symop_operation_xyz
x,y,z
1/2-x,-y,1/2+z
x,-y,-z
1/2-x,y,1/2-z
-x,-y,-z
1/2+x,y,1/2-z
-x,y,z
1/2+x,-y,1/2+z
loop_
_atom_site_type_symbol
_atom_site_label
_atom_site_fract_x
_atom_site_fract_y
_atom_site_fract_z
Si Si1 0.292206 0.140589 0.145053
Si Si2 0.293435 0.246968 0.644134
Si Si3 0.211550 0.558942 0.001453
Si Si4 0.705950 0.134809 0.644917
Si Si5 0.297164 0.057363 0.006714
Si Si6 0.295710 0.252283 0.144243
Si Si7 0.299048 0.364168 0.354013
Si Si8 0.706987 0.641077 0.354680
O O1 0.250000 0.134611 0.250000
O O2 0.500000 0.141776 0.137788
O O3 0.224311 0.094161 0.084663
O O4 0.227952 0.196919 0.112319
O O5 0.250000 0.246916 0.750000
O O6 0.500000 0.246541 0.633263
O O7 0.228647 0.191250 0.611868
O O8 0.227993 0.302632 0.612063
O O9 0.275883 0.591143 0.915613
O O10 0.000000 0.558061 0.001952
O O11 0.268365 0.500000 0.000000
O O12 0.266654 0.592988 0.086736
O O13 0.750000 0.129482 0.750000
O O14 0.500000 0.134125 0.636637
O O15 0.778440 0.089143 0.584920
O O16 0.500000 0.051586 0.026749
O O17 0.223081 0.000000 0.000000
O O18 0.250000 0.252930 0.250000
O O19 0.500000 0.252733 0.135186
O O20 0.232081 0.306724 0.108191
O O21 0.250000 0.366109 0.250000
O O22 0.500000 0.371997 0.356278
O O23 0.750000 0.635526 0.250000
O O24 0.500000 0.642810 0.362204
#
# Coordination Sequence:
#
# PCOD9415690 Si02
#       8
#     8   8   8   8   8   8   8   8
#     4   9  19  35  55  78 104 136 170 210 260 308
#     4   8  15  28  48  75 102 127 159 202 251 302
#     4   9  19  34  50  70  98 134 173 207 244 296
#     4  10  20  35  56  80 107 138 172 213 261 312
#     4  10  22  39  55  75 106 141 178 218 258 303
#     4   9  16  29  50  76 104 130 162 204 252 307
#     4  10  19  32  52  75 101 133 166 205 252 300
#     4   9  17  32  53  75 100 129 164 205 250 300
#
# _framework density 21.230326999999999
#
# number of rings (size 3 to 8) (size 9 to 14) (size 15 to 20)
#    0.000    2.750    0.000    1.875    0.000    3.750 
#    0.000    3.750    0.000    2.625    0.000    0.000 
#    0.000    0.000    0.000    0.000    0.000    0.000 
#
# Total GULP energy -356900.072292 kJ/mol
# GULP energy per Si atom -5576.563630 kJ/mol
# Density = 2.118201 g / cm^3
# Si number density = 21.230327 Si / 1000 Ang^3
#
#
#
# Elastic Constant Matrix: (Units=GPa)
#
#
# Indices 1 2 3 4 5 6 
#
# 1 29.1681 1.7694 -10.6729 0.0000 0.0000 0.0000
# 2 1.7694 246.3181 87.5443 0.0000 0.0000 0.0000
# 3 -10.6729 87.5443 97.9179 0.0000 0.0000 0.0000
# 4 0.0000 0.0000 0.0000 32.9132 0.0000 0.0000
# 5 0.0000 0.0000 0.0000 0.0000 -2.1331 0.0000
# 6 0.0000 0.0000 0.0000 0.0000 0.0000 15.5245
#
#
#
# Elastic Compliance Matrix: (Units=1/GPa)
#
#
# Indices 1 2 3 4 5 6 
#
# 1 0.036706 -0.002471 0.006210 0.000000 0.000000 0.000000
# 2 -0.002471 0.006117 -0.005738 0.000000 0.000000 0.000000
# 3 0.006210 -0.005738 0.016020 0.000000 0.000000 0.000000
# 4 0.000000 0.000000 0.000000 0.030383 0.000000 0.000000
# 5 0.000000 0.000000 0.000000 0.000000 -0.468796 0.000000
# 6 0.000000 0.000000 0.000000 0.000000 0.000000 0.064414
#
#
# Mechanical properties :
#
#
# Convention : Reuss Voigt Hill
#
# Bulk Modulus (GPa) = 18.23326 58.96507 38.59917
# Shear Modulus (GPa) = -17.07205 28.91181 5.91988
#
# Velocity S-wave (km/s) = -2.83880 3.69428 1.67166
# Velocity P-wave (km/s) = 1.46223 6.78463 4.68472
#
# Compressibility (1/GPa) = 0.05484482
#
# Stress axis : x y z
#
# Youngs Moduli (GPa) = 27.24337 163.47948 62.42263
#
# Poissons Ratio (x) = 0.40392 -0.38764
# Poissons Ratio (y) = 0.06731 0.35820
# Poissons Ratio (z) = -0.16918 0.93808
#
# Static dielectric constant tensor:
#      x y z
#    x 1.826510 0.000000 0.000000 
#    y 0.000000 1.804810 0.000000 
#    z 0.000000 0.000000 1.778630 
# 
# From -- ./inp_files/20931.got.cif
#   From: 2010.05.17/outbox.cif.g08.bks.cpg/sg53_11_cif.got.tgz:20931.got - 2010.06.03 12:45:16.
