data_PCOD9415385
_publ_section_title
;
Structure prediction by ZEFSAII (Michael W. Deem and Ramdas Pophale) SiO2 
 PCOD9415385
Probable space group: P M N A
;
_chemical_formula_sum "Si O2"
_cell_formula_units_Z 64
_cell_length_a 14.107728
_cell_length_b 37.389685
_cell_length_c 5.370525
_cell_angle_alpha 90.000000
_cell_angle_beta 90.000000
_cell_angle_gamma 90.000000
_cell_volume 2832.863356
_symmetry_space_group_name_H-M "P M N A"
_symmetry_group_IT_number 53
_symmetry_cell_setting 'orthorhombic'
loop_
_space_group_symop_operation_xyz
x,y,z
1/2-x,-y,1/2+z
x,-y,-z
1/2-x,y,1/2-z
-x,-y,-z
1/2+x,y,1/2-z
-x,y,z
1/2+x,-y,1/2+z
loop_
_atom_site_type_symbol
_atom_site_label
_atom_site_fract_x
_atom_site_fract_y
_atom_site_fract_z
Si Si1 0.384203 0.736348 0.381845
Si Si2 0.886055 0.899404 0.144710
Si Si3 0.384056 0.859886 0.858623
Si Si4 0.384186 0.777188 0.879745
Si Si5 0.616532 0.653877 0.393434
Si Si6 0.139767 0.017051 0.753222
Si Si7 0.111959 0.383909 0.395470
Si Si8 0.686701 0.538993 0.998544
O O1 0.500000 0.736297 0.376831
O O2 0.353850 0.755873 0.127311
O O3 0.354825 0.695180 0.410172
O O4 0.354941 0.757730 0.626858
O O5 0.852805 0.877218 0.382836
O O6 0.865338 0.940547 0.208227
O O7 0.000000 0.896514 0.136012
O O8 0.852803 0.882746 0.882440
O O9 0.500000 0.860422 0.855438
O O10 0.355291 0.818506 0.862830
O O11 0.500000 0.777015 0.885459
O O12 0.500000 0.653091 0.392090
O O13 0.648282 0.629596 0.627389
O O14 0.649173 0.638425 0.129464
O O15 0.250000 0.006703 0.750000
O O16 0.100621 0.000000 0.500000
O O17 0.097864 0.000000 0.000000
O O18 0.126666 0.425389 0.460169
O O19 0.000000 0.377145 0.385378
O O20 0.750000 0.537699 0.750000
O O21 0.636839 0.500000 0.000000
O O22 0.750000 0.542334 0.250000
#
# Coordination Sequence:
#
# PCOD9415385 Si02
#       8
#     8   8   8   8   8   8   8   8
#     4   9  15  23  37  59  91 130 162 189 231 285
#     4  10  19  31  48  69  95 124 153 190 233 277
#     4   9  17  28  42  65  96 126 156 192 233 274
#     4   9  15  23  37  58  89 128 161 188 227 280
#     4   9  17  28  43  68 101 132 164 204 248 291
#     4  10  21  36  52  70  93 120 151 190 232 275
#     4  10  19  32  51  74 102 134 166 206 254 302
#     4  10  21  37  55  75 101 132 167 210 255 300
#
# _framework density 22.591985000000001
#
# number of rings (size 3 to 8) (size 9 to 14) (size 15 to 20)
#    0.000    2.500    0.000    3.000    0.000    6.750 
#    0.000    0.000    0.000    4.500    0.000    0.000 
#    0.000   35.000    0.000    0.000    0.000    0.000 
#
# Total GULP energy -357693.846589 kJ/mol
# GULP energy per Si atom -5588.966353 kJ/mol
# Density = 2.254056 g / cm^3
# Si number density = 22.591985 Si / 1000 Ang^3
#
#
#
# Elastic Constant Matrix: (Units=GPa)
#
#
# Indices 1 2 3 4 5 6 
#
# 1 62.6880 -17.2957 20.5632 0.0000 0.0000 0.0000
# 2 -17.2957 142.5887 93.0953 0.0000 0.0000 0.0000
# 3 20.5632 93.0953 229.3425 0.0000 0.0000 0.0000
# 4 0.0000 0.0000 0.0000 48.6818 0.0000 0.0000
# 5 0.0000 0.0000 0.0000 0.0000 1.3046 0.0000
# 6 0.0000 0.0000 0.0000 0.0000 0.0000 16.9252
#
#
#
# Elastic Compliance Matrix: (Units=1/GPa)
#
#
# Indices 1 2 3 4 5 6 
#
# 1 0.018325 0.004484 -0.003463 0.000000 0.000000 0.000000
# 2 0.004484 0.010639 -0.004721 0.000000 0.000000 0.000000
# 3 -0.003463 -0.004721 0.006587 0.000000 0.000000 0.000000
# 4 0.000000 0.000000 0.000000 0.020542 0.000000 0.000000
# 5 0.000000 0.000000 0.000000 0.000000 0.766508 0.000000
# 6 0.000000 0.000000 0.000000 0.000000 0.000000 0.059084
#
#
# Mechanical properties :
#
#
# Convention : Reuss Voigt Hill
#
# Bulk Modulus (GPa) = 35.52226 69.70497 52.61362
# Shear Modulus (GPa) = 5.56503 35.93276 20.74889
#
# Velocity S-wave (km/s) = 1.57119 3.99245 3.03383
# Velocity P-wave (km/s) = 4.36452 7.22313 5.96752
#
# Compressibility (1/GPa) = 0.02815136
#
# Stress axis : x y z
#
# Youngs Moduli (GPa) = 54.56988 93.99211 151.81300
#
# Poissons Ratio (x) = -0.42145 0.52575
# Poissons Ratio (y) = -0.24468 0.71667
# Poissons Ratio (z) = 0.18898 0.44371
#
# Static dielectric constant tensor:
#      x y z
#    x 1.892790 0.000000 0.000000 
#    y 0.000000 1.821630 0.000000 
#    z 0.000000 0.000000 1.786110 
# 
# From -- ./inp_files/2319.got.cif
#   From: 2010.05.17/outbox.cif.g08.bks.cpg/sg53_2_cif.got.tgz:2319.got - 2010.06.03 12:45:16.
