data_PCOD9415505
_publ_section_title
;
Structure prediction by ZEFSAII (Michael W. Deem and Ramdas Pophale) SiO2 
 PCOD9415505
Probable space group: P M N A
;
_chemical_formula_sum "Si O2"
_cell_formula_units_Z 56
_cell_length_a 14.655644
_cell_length_b 9.259290
_cell_length_c 22.502897
_cell_angle_alpha 90.000000
_cell_angle_beta 90.000000
_cell_angle_gamma 90.000000
_cell_volume 3053.662429
_symmetry_space_group_name_H-M "P M N A"
_symmetry_group_IT_number 53
_symmetry_cell_setting 'orthorhombic'
loop_
_space_group_symop_operation_xyz
x,y,z
1/2-x,-y,1/2+z
x,-y,-z
1/2-x,y,1/2-z
-x,-y,-z
1/2+x,y,1/2-z
-x,y,z
1/2+x,-y,1/2+z
loop_
_atom_site_type_symbol
_atom_site_label
_atom_site_fract_x
_atom_site_fract_y
_atom_site_fract_z
Si Si1 0.894370 0.138661 0.712156
Si Si2 0.607905 0.182215 0.220986
Si Si3 0.397743 0.662137 0.656684
Si Si4 0.608590 0.828216 0.991986
Si Si5 0.175489 0.627623 0.200790
Si Si6 0.821709 0.330444 0.606862
Si Si7 0.196722 0.336687 0.384612
O O1 0.862002 0.229909 0.768351
O O2 0.879740 0.239377 0.654827
O O3 0.000000 0.112224 0.719853
O O4 0.854191 0.978339 0.707911
O O5 0.500000 0.193349 0.204433
O O6 0.613631 0.222336 0.290217
O O7 0.663701 0.293062 0.180883
O O8 0.500000 0.678960 0.630768
O O9 0.391171 0.504337 0.687928
O O10 0.307485 0.668620 0.615502
O O11 0.500000 0.795345 0.994631
O O12 0.651134 0.773431 0.930468
O O13 0.661315 0.744833 0.044412
O O14 0.618609 0.000000 0.000000
O O15 0.250000 0.575606 0.250000
O O16 0.223171 0.670546 0.138959
O O17 0.839522 0.501686 0.602347
#
# Coordination Sequence:
#
# PCOD9415505 Si02
#       7
#     8   8   8   8   8   8   8
#     4  10  19  31  50  79 114 145 176 215 261 316
#     4  10  20  32  50  81 115 147 179 215 266 320
#     4  10  20  35  55  78 107 141 180 223 265 313
#     4  11  24  40  58  81 108 139 174 214 265 322
#     4   9  18  32  52  78 106 141 180 218 263 311
#     4  10  21  35  52  77 106 139 179 217 260 313
#     4  11  22  36  56  79 107 141 181 222 266 315
#
# _framework density 18.338636000000001
#
# number of rings (size 3 to 8) (size 9 to 14) (size 15 to 20)
#    0.000    1.857    0.000    5.571    0.000   10.857 
#    0.000    0.000    0.000    8.143    0.000    0.000 
#    0.000    0.000    0.000    0.000    0.000    0.000 
#
# Total GULP energy -312224.442527 kJ/mol
# GULP energy per Si atom -5575.436474 kJ/mol
# Density = 1.829690 g / cm^3
# Si number density = 18.338636 Si / 1000 Ang^3
#
#
#
# Elastic Constant Matrix: (Units=GPa)
#
#
# Indices 1 2 3 4 5 6 
#
# 1 67.6834 22.7542 15.3646 0.0000 0.0000 0.0000
# 2 22.7542 92.4991 16.8149 0.0000 0.0000 0.0000
# 3 15.3646 16.8149 44.6499 0.0000 0.0000 0.0000
# 4 0.0000 0.0000 0.0000 45.0771 0.0000 0.0000
# 5 0.0000 0.0000 0.0000 0.0000 10.3268 0.0000
# 6 0.0000 0.0000 0.0000 0.0000 0.0000 23.8066
#
#
#
# Elastic Compliance Matrix: (Units=1/GPa)
#
#
# Indices 1 2 3 4 5 6 
#
# 1 0.016933 -0.003335 -0.004571 0.000000 0.000000 0.000000
# 2 -0.003335 0.012262 -0.003470 0.000000 0.000000 0.000000
# 3 -0.004571 -0.003470 0.025276 0.000000 0.000000 0.000000
# 4 0.000000 0.000000 0.000000 0.022184 0.000000 0.000000
# 5 0.000000 0.000000 0.000000 0.000000 0.096836 0.000000
# 6 0.000000 0.000000 0.000000 0.000000 0.000000 0.042005
#
#
# Mechanical properties :
#
#
# Convention : Reuss Voigt Hill
#
# Bulk Modulus (GPa) = 31.52626 34.96666 33.24646
# Shear Modulus (GPa) = 20.09466 25.83533 22.96499
#
# Velocity S-wave (km/s) = 3.31381 3.75746 3.54259
# Velocity P-wave (km/s) = 5.64538 6.15900 5.90777
#
# Compressibility (1/GPa) = 0.03171959
#
# Stress axis : x y z
#
# Youngs Moduli (GPa) = 59.05490 81.55239 39.56255
#
# Poissons Ratio (x) = 0.27194 0.18085
# Poissons Ratio (y) = 0.19692 0.13730
# Poissons Ratio (z) = 0.26995 0.28302
#
# Static dielectric constant tensor:
#      x y z
#    x 1.666870 0.000000 0.000000 
#    y 0.000000 1.672840 0.000000 
#    z 0.000000 0.000000 1.649830 
# 
# From -- ./inp_files/32407.got.cif
#   From: 2010.05.17/outbox.cif.g08.bks.cpg/sg53_17_cif.got.tgz:32407.got - 2010.06.03 12:45:16.
