data_PCOD9415349
_publ_section_title
;
Structure prediction by ZEFSAII (Michael W. Deem and Ramdas Pophale) SiO2 
 PCOD9415349
Probable space group: P M N A
;
_chemical_formula_sum "Si O2"
_cell_formula_units_Z 48
_cell_length_a 8.945968
_cell_length_b 16.358680
_cell_length_c 19.172901
_cell_angle_alpha 90.000000
_cell_angle_beta 90.000000
_cell_angle_gamma 90.000000
_cell_volume 2805.843392
_symmetry_space_group_name_H-M "P M N A"
_symmetry_group_IT_number 53
_symmetry_cell_setting 'orthorhombic'
loop_
_space_group_symop_operation_xyz
x,y,z
1/2-x,-y,1/2+z
x,-y,-z
1/2-x,y,1/2-z
-x,-y,-z
1/2+x,y,1/2-z
-x,y,z
1/2+x,-y,1/2+z
loop_
_atom_site_type_symbol
_atom_site_label
_atom_site_fract_x
_atom_site_fract_y
_atom_site_fract_z
Si Si1 0.321283 0.751210 0.465917
Si Si2 0.179280 0.662992 0.673968
Si Si3 0.178123 0.832465 0.596654
Si Si4 0.678875 0.830428 0.324347
Si Si5 0.321237 0.981145 0.674516
Si Si6 0.321062 0.418626 0.459072
O O1 0.500000 0.766197 0.471711
O O2 0.236110 0.808144 0.520545
O O3 0.275222 0.771896 0.387399
O O4 0.293764 0.658831 0.490511
O O5 0.250000 0.649446 0.750000
O O6 0.217115 0.754959 0.646619
O O7 0.241765 0.602219 0.614188
O O8 0.000000 0.656584 0.677634
O O9 0.255670 0.914595 0.622540
O O10 0.000000 0.841485 0.597633
O O11 0.750000 0.811033 0.250000
O O12 0.500000 0.826274 0.317075
O O13 0.716505 0.924696 0.343166
O O14 0.250000 0.964573 0.750000
O O15 0.500000 0.973864 0.678159
O O16 0.273133 0.500000 0.500000
O O17 0.500000 0.424026 0.446522
#
# Coordination Sequence:
#
# PCOD9415349 Si02
#       6
#     8   8   8   8   8   8
#     4   9  18  34  53  72  97 129 163 200 246 297
#     4  10  20  33  51  75 103 133 165 201 243 293
#     4  10  20  32  48  73 101 130 165 203 245 291
#     4   9  19  34  51  70  94 128 167 205 244 287
#     4  10  19  31  47  68  96 130 167 204 243 286
#     4   9  18  34  56  78 101 130 163 201 247 298
#
# _framework density 17.107156
#
# number of rings (size 3 to 8) (size 9 to 14) (size 15 to 20)
#    0.000    2.500    0.000    2.000    0.000    5.667 
#    0.000    4.167    0.000    2.000    0.000    0.000 
#    0.000    0.000    0.000    0.000    0.000    0.000 
#
# Total GULP energy -267746.862785 kJ/mol
# GULP energy per Si atom -5578.059641 kJ/mol
# Density = 1.706822 g / cm^3
# Si number density = 17.107156 Si / 1000 Ang^3
#
#
#
# Elastic Constant Matrix: (Units=GPa)
#
#
# Indices 1 2 3 4 5 6 
#
# 1 39.0636 36.6078 53.6974 0.0000 0.0000 0.0000
# 2 36.6078 56.0854 74.6065 0.0000 0.0000 0.0000
# 3 53.6974 74.6065 154.3321 0.0000 0.0000 0.0000
# 4 0.0000 0.0000 0.0000 25.1030 0.0000 0.0000
# 5 0.0000 0.0000 0.0000 0.0000 32.1249 0.0000
# 6 0.0000 0.0000 0.0000 0.0000 0.0000 18.6415
#
#
#
# Elastic Compliance Matrix: (Units=1/GPa)
#
#
# Indices 1 2 3 4 5 6 
#
# 1 0.067957 -0.036151 -0.006169 0.000000 0.000000 0.000000
# 2 -0.036151 0.069182 -0.020866 0.000000 0.000000 0.000000
# 3 -0.006169 -0.020866 0.018713 0.000000 0.000000 0.000000
# 4 0.000000 0.000000 0.000000 0.039836 0.000000 0.000000
# 5 0.000000 0.000000 0.000000 0.000000 0.031129 0.000000
# 6 0.000000 0.000000 0.000000 0.000000 0.000000 0.053644
#
#
# Mechanical properties :
#
#
# Convention : Reuss Voigt Hill
#
# Bulk Modulus (GPa) = 33.91949 64.36716 49.14333
# Shear Modulus (GPa) = 12.00028 20.81185 16.40606
#
# Velocity S-wave (km/s) = 2.65142 3.49170 3.10016
# Velocity P-wave (km/s) = 5.40778 7.34599 6.45010
#
# Compressibility (1/GPa) = 0.02948157
#
# Stress axis : x y z
#
# Youngs Moduli (GPa) = 14.71523 14.45461 53.43984
#
# Poissons Ratio (x) = 0.52254 0.32966
# Poissons Ratio (y) = 0.53196 1.11506
# Poissons Ratio (z) = 0.09077 0.30161
#
# Static dielectric constant tensor:
#      x y z
#    x 1.572360 0.000000 0.000000 
#    y 0.000000 1.574400 0.000000 
#    z 0.000000 0.000000 1.558700 
# 
# From -- ./inp_files/20138.got.cif
#   From: 2010.05.17/outbox.cif.g08.bks.cpg/sg53_11_cif.got.tgz:20138.got - 2010.06.03 12:45:16.
