data_PCOD9415961
_publ_section_title
;
Structure prediction by ZEFSAII (Michael W. Deem and Ramdas Pophale) SiO2 
 PCOD9415961
Probable space group: P M N A
;
_chemical_formula_sum "Si O2"
_cell_formula_units_Z 48
_cell_length_a 8.190987
_cell_length_b 32.607028
_cell_length_c 9.285010
_cell_angle_alpha 90.000000
_cell_angle_beta 90.000000
_cell_angle_gamma 90.000000
_cell_volume 2479.875220
_symmetry_space_group_name_H-M "P M N A"
_symmetry_group_IT_number 53
_symmetry_cell_setting 'orthorhombic'
loop_
_space_group_symop_operation_xyz
x,y,z
1/2-x,-y,1/2+z
x,-y,-z
1/2-x,y,1/2-z
-x,-y,-z
1/2+x,y,1/2-z
-x,y,z
1/2+x,-y,1/2+z
loop_
_atom_site_type_symbol
_atom_site_label
_atom_site_fract_x
_atom_site_fract_y
_atom_site_fract_z
Si Si1 0.196869 0.790140 0.083019
Si Si2 0.197450 0.540560 0.415335
Si Si3 0.197348 0.040365 0.085241
Si Si4 0.802426 0.120637 0.916527
Si Si5 0.195535 0.299190 0.916366
Si Si6 0.305449 0.620707 0.914525
O O1 0.250000 0.790278 0.250000
O O2 0.253561 0.834506 0.026202
O O3 0.254009 0.745709 0.027415
O O4 0.000000 0.790110 0.075151
O O5 0.253839 0.500000 0.500000
O O6 0.250000 0.539742 0.250000
O O7 0.257839 0.581640 0.495056
O O8 0.000000 0.540769 0.419215
O O9 0.250000 0.038746 0.250000
O O10 0.000000 0.040593 0.079690
O O11 0.256516 0.081985 0.008230
O O12 0.254654 0.000000 0.000000
O O13 0.750000 0.116507 0.750000
O O14 0.000000 0.120475 0.919254
O O15 0.250000 0.303830 0.750000
O O16 0.000000 0.299069 0.917750
O O17 0.254601 0.337019 0.010453
O O18 0.250000 0.618775 0.750000
O O19 0.500000 0.618627 0.916772
#
# Coordination Sequence:
#
# PCOD9415961 Si02
#       6
#     8   8   8   8   8   8
#     4   8  15  28  48  73 101 133 168 209 253 299
#     4  10  22  39  59  84 111 140 175 214 258 309
#     4  10  21  35  51  73 100 130 165 206 251 301
#     4   9  17  31  51  75 102 131 167 208 251 301
#     4  10  19  33  54  79 107 139 177 219 262 308
#     4  11  23  38  56  79 108 142 180 220 265 314
#
# _framework density 19.355810000000002
#
# number of rings (size 3 to 8) (size 9 to 14) (size 15 to 20)
#    0.000    2.333    0.000    2.500    0.000    4.667 
#    0.000    0.833    0.000    2.000    0.000    0.000 
#    0.000    0.000    0.000    0.000    0.000    0.000 
#
# Total GULP energy -267749.939867 kJ/mol
# GULP energy per Si atom -5578.123747 kJ/mol
# Density = 1.931176 g / cm^3
# Si number density = 19.355810 Si / 1000 Ang^3
#
#
#
# Elastic Constant Matrix: (Units=GPa)
#
#
# Indices 1 2 3 4 5 6 
#
# 1 16.4493 23.7026 9.2106 0.0000 0.0000 0.0000
# 2 23.7026 253.3878 115.4880 0.0000 0.0000 0.0000
# 3 9.2106 115.4880 131.4639 0.0000 0.0000 0.0000
# 4 0.0000 0.0000 0.0000 32.8294 0.0000 0.0000
# 5 0.0000 0.0000 0.0000 0.0000 30.6558 0.0000
# 6 0.0000 0.0000 0.0000 0.0000 0.0000 18.2387
#
#
#
# Elastic Compliance Matrix: (Units=1/GPa)
#
#
# Indices 1 2 3 4 5 6 
#
# 1 0.070423 -0.007236 0.001423 0.000000 0.000000 0.000000
# 2 -0.007236 0.007325 -0.005928 0.000000 0.000000 0.000000
# 3 0.001423 -0.005928 0.012715 0.000000 0.000000 0.000000
# 4 0.000000 0.000000 0.000000 0.030461 0.000000 0.000000
# 5 0.000000 0.000000 0.000000 0.000000 0.032620 0.000000
# 6 0.000000 0.000000 0.000000 0.000000 0.000000 0.054829
#
#
# Mechanical properties :
#
#
# Convention : Reuss Voigt Hill
#
# Bulk Modulus (GPa) = 14.92983 77.56704 46.24844
# Shear Modulus (GPa) = 19.67097 33.20476 26.43786
#
# Velocity S-wave (km/s) = 3.19138 4.14634 3.69980
# Velocity P-wave (km/s) = 4.61627 7.94256 6.49593
#
# Compressibility (1/GPa) = 0.06698000
#
# Stress axis : x y z
#
# Youngs Moduli (GPa) = 14.19994 136.51337 78.64910
#
# Poissons Ratio (x) = 0.98781 -0.11189
# Poissons Ratio (y) = 0.10275 0.46624
# Poissons Ratio (z) = -0.02020 0.80927
#
# Static dielectric constant tensor:
#      x y z
#    x 1.682270 0.000000 0.000000 
#    y 0.000000 1.734460 0.000000 
#    z 0.000000 0.000000 1.610020 
# 
# From -- ./inp_files/6635.got.cif
#   From: 2010.05.17/outbox.cif.g08.bks.cpg/sg53_4_cif.got.tgz:6635.got - 2010.06.03 12:45:16.
