data_PCOD9415579
_publ_section_title
;
Structure prediction by ZEFSAII (Michael W. Deem and Ramdas Pophale) SiO2 
 PCOD9415579
Probable space group: P M N A
;
_chemical_formula_sum "Si O2"
_cell_formula_units_Z 64
_cell_length_a 7.937156
_cell_length_b 18.977628
_cell_length_c 23.629112
_cell_angle_alpha 90.000000
_cell_angle_beta 90.000000
_cell_angle_gamma 90.000000
_cell_volume 3559.215191
_symmetry_space_group_name_H-M "P M N A"
_symmetry_group_IT_number 53
_symmetry_cell_setting 'orthorhombic'
loop_
_space_group_symop_operation_xyz
x,y,z
1/2-x,-y,1/2+z
x,-y,-z
1/2-x,y,1/2-z
-x,-y,-z
1/2+x,y,1/2-z
-x,y,z
1/2+x,-y,1/2+z
loop_
_atom_site_type_symbol
_atom_site_label
_atom_site_fract_x
_atom_site_fract_y
_atom_site_fract_z
Si Si1 0.796810 0.559461 0.683528
Si Si2 0.206058 0.855455 0.626308
Si Si3 0.796935 0.408122 0.683632
Si Si4 0.195490 0.077696 0.489225
Si Si5 0.298014 0.746415 0.183907
Si Si6 0.298928 0.997938 0.814222
Si Si7 0.307431 0.124546 0.605708
Si Si8 0.703710 0.713136 0.816160
O O1 0.750000 0.559289 0.750000
O O2 0.735555 0.483716 0.659936
O O3 0.736195 0.635927 0.662675
O O4 0.000000 0.559052 0.678898
O O5 0.265229 0.879180 0.564015
O O6 0.254256 0.919245 0.668131
O O7 0.266702 0.780083 0.648629
O O8 0.000000 0.851671 0.626202
O O9 0.750000 0.408723 0.750000
O O10 0.736918 0.331260 0.663693
O O11 0.000000 0.407862 0.678848
O O12 0.203288 0.119114 0.548017
O O13 0.000000 0.064838 0.473707
O O14 0.272373 0.000000 0.500000
O O15 0.250000 0.755917 0.250000
O O16 0.500000 0.747609 0.181236
O O17 0.231684 0.808831 0.145026
O O18 0.250000 0.013631 0.750000
O O19 0.500000 0.002222 0.819789
O O20 0.224316 0.055038 0.856904
O O21 0.500000 0.126716 0.587837
O O22 0.750000 0.720940 0.750000
O O23 0.500000 0.712556 0.819071
#
# Coordination Sequence:
#
# PCOD9415579 Si02
#       8
#     8   8   8   8   8   8   8   8
#     4   8  13  22  38  62  93 125 154 184 220 265
#     4   9  18  32  51  71  93 123 159 193 235 281
#     4   8  14  24  40  63  91 124 157 186 221 269
#     4  10  19  37  58  71  87 120 160 202 243 286
#     4  10  19  32  49  70  98 129 159 193 234 282
#     4  11  21  35  51  71  97 128 160 191 231 283
#     4  12  24  36  50  71  95 121 156 200 244 284
#     4   9  16  27  44  69 100 129 155 187 227 276
#
# _framework density 17.981493
#
# number of rings (size 3 to 8) (size 9 to 14) (size 15 to 20)
#    0.000    2.375    1.250    2.625    0.000    0.750 
#    0.000    1.250    0.000    0.000    0.000    0.875 
#    0.000    7.000    0.000    0.000    0.000    0.000 
#
# Total GULP energy -356566.512641 kJ/mol
# GULP energy per Si atom -5571.351760 kJ/mol
# Density = 1.794057 g / cm^3
# Si number density = 17.981493 Si / 1000 Ang^3
#
#
#
# Elastic Constant Matrix: (Units=GPa)
#
#
# Indices 1 2 3 4 5 6 
#
# 1 20.7197 2.1246 -9.6347 0.0000 0.0000 0.0000
# 2 2.1246 144.1881 17.2020 0.0000 0.0000 0.0000
# 3 -9.6347 17.2020 50.6116 0.0000 0.0000 0.0000
# 4 0.0000 0.0000 0.0000 6.3323 0.0000 0.0000
# 5 0.0000 0.0000 0.0000 0.0000 13.2601 0.0000
# 6 0.0000 0.0000 0.0000 0.0000 0.0000 2.3857
#
#
#
# Elastic Compliance Matrix: (Units=1/GPa)
#
#
# Indices 1 2 3 4 5 6 
#
# 1 0.053548 -0.002090 0.010904 0.000000 0.000000 0.000000
# 2 -0.002090 0.007310 -0.002882 0.000000 0.000000 0.000000
# 3 0.010904 -0.002882 0.022814 0.000000 0.000000 0.000000
# 4 0.000000 0.000000 0.000000 0.157920 0.000000 0.000000
# 5 0.000000 0.000000 0.000000 0.000000 0.075414 0.000000
# 6 0.000000 0.000000 0.000000 0.000000 0.000000 0.419160
#
#
# Mechanical properties :
#
#
# Convention : Reuss Voigt Hill
#
# Bulk Modulus (GPa) = 10.46739 26.10038 18.28388
# Shear Modulus (GPa) = 6.61247 18.11747 12.36497
#
# Velocity S-wave (km/s) = 1.91973 3.17766 2.62515
# Velocity P-wave (km/s) = 3.27836 5.29244 4.40214
#
# Compressibility (1/GPa) = 0.09553482
#
# Stress axis : x y z
#
# Youngs Moduli (GPa) = 18.67490 136.79786 43.83331
#
# Poissons Ratio (x) = 0.28589 -0.47795
# Poissons Ratio (y) = 0.03903 0.12635
# Poissons Ratio (z) = -0.20363 0.39431
#
# Static dielectric constant tensor:
#      x y z
#    x 1.638870 0.000000 0.000000 
#    y 0.000000 1.685080 0.000000 
#    z 0.000000 0.000000 1.526000 
# 
# From -- ./inp_files/34427.got.cif
#   From: 2010.05.17/outbox.cif.g08.bks.cpg/sg53_18_cif.got.tgz:34427.got - 2010.06.03 12:45:16.
