data_PCOD9415496
_publ_section_title
;
Structure prediction by ZEFSAII (Michael W. Deem and Ramdas Pophale) SiO2 
 PCOD9415496
Probable space group: P M N A
;
_chemical_formula_sum "Si O2"
_cell_formula_units_Z 56
_cell_length_a 18.935625
_cell_length_b 11.399665
_cell_length_c 13.406753
_cell_angle_alpha 90.000000
_cell_angle_beta 90.000000
_cell_angle_gamma 90.000000
_cell_volume 2893.978774
_symmetry_space_group_name_H-M "P M N A"
_symmetry_group_IT_number 53
_symmetry_cell_setting 'orthorhombic'
loop_
_space_group_symop_operation_xyz
x,y,z
1/2-x,-y,1/2+z
x,-y,-z
1/2-x,y,1/2-z
-x,-y,-z
1/2+x,y,1/2-z
-x,y,z
1/2+x,-y,1/2+z
loop_
_atom_site_type_symbol
_atom_site_label
_atom_site_fract_x
_atom_site_fract_y
_atom_site_fract_z
Si Si1 0.842599 0.632063 0.032299
Si Si2 0.201425 0.902437 0.581311
Si Si3 0.419353 0.612885 0.841716
Si Si4 0.166602 0.583194 0.254800
Si Si5 0.324680 0.336272 0.976002
Si Si6 0.860357 0.117589 0.069556
Si Si7 0.422735 0.885103 0.778706
O O1 0.870169 0.753493 0.982005
O O2 0.868397 0.500000 0.000000
O O3 0.851844 0.646183 0.151637
O O4 0.757713 0.629447 0.013410
O O5 0.172092 0.795155 0.516426
O O6 0.280799 0.874657 0.616629
O O7 0.144326 0.937393 0.663550
O O8 0.211322 0.000000 0.500000
O O9 0.500000 0.575173 0.856511
O O10 0.379402 0.533747 0.761624
O O11 0.419578 0.746686 0.804959
O O12 0.374179 0.601366 0.942786
O O13 0.250000 0.554517 0.250000
O O14 0.155004 0.649524 0.360130
O O15 0.912925 0.101736 0.161215
O O16 0.864755 0.000000 0.000000
O O17 0.500000 0.929312 0.811036
#
# Coordination Sequence:
#
# PCOD9415496 Si02
#       7
#     8   8   8   8   8   8   8
#     4  10  19  33  54  80 109 143 183 224 268 320
#     4   9  19  35  56  81 107 136 176 227 276 320
#     4  10  20  34  53  79 110 141 178 225 274 324
#     4  10  19  31  50  76 107 142 178 220 272 330
#     4   9  18  31  50  79 110 139 175 220 273 330
#     4  10  21  37  58  83 109 141 184 230 268 311
#     4  10  21  36  55  78 106 144 183 219 266 326
#
# _framework density 19.350522999999999
#
# number of rings (size 3 to 8) (size 9 to 14) (size 15 to 20)
#    0.000    2.286    0.000    3.429    0.000    5.143 
#    0.000    5.000    0.000    4.286    0.000    0.000 
#    0.000    0.000    0.000    0.000    0.000    0.000 
#
# Total GULP energy -311820.493306 kJ/mol
# GULP energy per Si atom -5568.223095 kJ/mol
# Density = 1.930648 g / cm^3
# Si number density = 19.350523 Si / 1000 Ang^3
#
#
#
# Elastic Constant Matrix: (Units=GPa)
#
#
# Indices 1 2 3 4 5 6 
#
# 1 45.6255 -4.3058 28.7074 0.0000 0.0000 0.0000
# 2 -4.3058 55.3198 15.0793 0.0000 0.0000 0.0000
# 3 28.7074 15.0793 88.2708 0.0000 0.0000 0.0000
# 4 0.0000 0.0000 0.0000 21.9066 0.0000 0.0000
# 5 0.0000 0.0000 0.0000 0.0000 -18.0357 0.0000
# 6 0.0000 0.0000 0.0000 0.0000 0.0000 14.5761
#
#
#
# Elastic Compliance Matrix: (Units=1/GPa)
#
#
# Indices 1 2 3 4 5 6 
#
# 1 0.028834 0.005035 -0.010238 0.000000 0.000000 0.000000
# 2 0.005035 0.019839 -0.005026 0.000000 0.000000 0.000000
# 3 -0.010238 -0.005026 0.015517 0.000000 0.000000 0.000000
# 4 0.000000 0.000000 0.000000 0.045648 0.000000 0.000000
# 5 0.000000 0.000000 0.000000 0.000000 -0.055445 0.000000
# 6 0.000000 0.000000 0.000000 0.000000 0.000000 0.068605
#
#
# Mechanical properties :
#
#
# Convention : Reuss Voigt Hill
#
# Bulk Modulus (GPa) = 22.86684 29.79757 26.33221
# Shear Modulus (GPa) = 31.63887 13.67174 22.65531
#
# Velocity S-wave (km/s) = 4.04795 2.66095 3.42539
# Velocity P-wave (km/s) = 5.80437 4.98730 5.41128
#
# Compressibility (1/GPa) = 0.04373144
#
# Stress axis : x y z
#
# Youngs Moduli (GPa) = 34.68117 50.40638 64.44592
#
# Poissons Ratio (x) = -0.25379 0.65977
# Poissons Ratio (y) = -0.17461 0.32394
# Poissons Ratio (z) = 0.35505 0.25337
#
# Static dielectric constant tensor:
#      x y z
#    x 1.689370 0.000000 0.000000 
#    y 0.000000 1.764790 0.000000 
#    z 0.000000 0.000000 1.683270 
# 
# From -- ./inp_files/17844.got.cif
#   From: 2010.05.17/outbox.cif.g08.bks.cpg/sg53_9_cif.got.tgz:17844.got - 2010.06.03 12:45:16.
