data_PCOD9415555
_publ_section_title
;
Structure prediction by ZEFSAII (Michael W. Deem and Ramdas Pophale) SiO2 
 PCOD9415555
Probable space group: P M N A
;
_chemical_formula_sum "Si O2"
_cell_formula_units_Z 64
_cell_length_a 19.518368
_cell_length_b 14.526157
_cell_length_c 13.017225
_cell_angle_alpha 90.000000
_cell_angle_beta 90.000000
_cell_angle_gamma 90.000000
_cell_volume 3690.733164
_symmetry_space_group_name_H-M "P M N A"
_symmetry_group_IT_number 53
_symmetry_cell_setting 'orthorhombic'
loop_
_space_group_symop_operation_xyz
x,y,z
1/2-x,-y,1/2+z
x,-y,-z
1/2-x,y,1/2-z
-x,-y,-z
1/2+x,y,1/2-z
-x,y,z
1/2+x,-y,1/2+z
loop_
_atom_site_type_symbol
_atom_site_label
_atom_site_fract_x
_atom_site_fract_y
_atom_site_fract_z
Si Si1 0.922192 0.177326 0.344582
Si Si2 0.675975 0.661597 0.194695
Si Si3 0.329724 0.545543 0.782900
Si Si4 0.170276 0.954457 0.782900
Si Si5 0.819994 0.699282 0.545892
Si Si6 0.577808 0.677326 0.655418
Si Si7 0.175975 0.838403 0.194695
Si Si8 0.319994 0.199282 0.454108
O O1 0.876055 0.094490 0.302816
O O2 0.882074 0.230560 0.433589
O O3 0.924105 0.250000 0.250000
O O4 0.000000 0.151911 0.370064
O O5 0.750000 0.655439 0.250000
O O6 0.645659 0.559389 0.204717
O O7 0.641445 0.750000 0.250000
O O8 0.685654 0.678997 0.074141
O O9 0.250000 0.546440 0.750000
O O10 0.332464 0.607946 0.886012
O O11 0.376055 0.594490 0.697184
O O12 0.250000 0.953560 0.750000
O O13 0.167536 0.892054 0.886012
O O14 0.145659 0.059389 0.795283
O O15 0.750000 0.750000 0.581720
O O16 0.500000 0.651911 0.629936
O O17 0.617926 0.730560 0.566411
O O18 0.250000 0.844561 0.250000
O O19 0.185654 0.821003 0.074141
#
# Coordination Sequence:
#
# PCOD9415555 Si02
#       8
#     8   8   8   8   8   8   8   8
#     4   9  19  34  55  83 115 139 172 225 279 323
#     4  10  20  34  49  79 110 141 182 226 268 303
#     4  10  19  31  55  82 105 137 180 226 268 317
#     4  10  19  31  55  82 105 137 180 226 268 317
#     4  11  18  32  54  83 106 138 180 226 266 320
#     4   9  19  34  55  83 115 139 172 225 279 323
#     4  10  20  34  49  79 110 141 182 226 268 303
#     4  11  18  32  54  83 106 138 180 226 266 320
#
# _framework density 17.340729
#
# number of rings (size 3 to 8) (size 9 to 14) (size 15 to 20)
#    0.000    2.000    5.000    0.750    0.000    0.000 
#    0.000    2.500    0.000   10.500    0.000    0.000 
#    0.000    0.000    0.000    0.000    0.000    0.000 
#
# Total GULP energy -356496.832964 kJ/mol
# GULP energy per Si atom -5570.263015 kJ/mol
# Density = 1.730126 g / cm^3
# Si number density = 17.340729 Si / 1000 Ang^3
#
#
#
# Elastic Constant Matrix: (Units=GPa)
#
#
# Indices 1 2 3 4 5 6 
#
# 1 95.4914 34.4725 19.2063 0.0000 0.0000 0.0000
# 2 34.4725 160.2626 46.0603 0.0000 0.0000 0.0000
# 3 19.2063 46.0603 99.6751 0.0000 0.0000 0.0000
# 4 0.0000 0.0000 0.0000 -0.9997 0.0000 0.0000
# 5 0.0000 0.0000 0.0000 0.0000 7.0121 0.0000
# 6 0.0000 0.0000 0.0000 0.0000 0.0000 1.0734
#
#
#
# Elastic Compliance Matrix: (Units=1/GPa)
#
#
# Indices 1 2 3 4 5 6 
#
# 1 0.011484 -0.002115 -0.001235 0.000000 0.000000 0.000000
# 2 -0.002115 0.007585 -0.003097 0.000000 0.000000 0.000000
# 3 -0.001235 -0.003097 0.011702 0.000000 0.000000 0.000000
# 4 0.000000 0.000000 0.000000 -1.000341 0.000000 0.000000
# 5 0.000000 0.000000 0.000000 0.000000 0.142612 0.000000
# 6 0.000000 0.000000 0.000000 0.000000 0.000000 0.931626
#
#
# Mechanical properties :
#
#
# Convention : Reuss Voigt Hill
#
# Bulk Modulus (GPa) = 55.94413 61.65639 58.80026
# Shear Modulus (GPa) = 40.47843 18.46315 29.47079
#
# Velocity S-wave (km/s) = 4.83670 3.26656 4.12699
# Velocity P-wave (km/s) = 7.97015 7.06118 7.52939
#
# Compressibility (1/GPa) = 0.01787498
#
# Stress axis : x y z
#
# Youngs Moduli (GPa) = 87.07603 131.83970 85.45541
#
# Poissons Ratio (x) = 0.27887 0.10558
# Poissons Ratio (y) = 0.18418 0.26470
# Poissons Ratio (z) = 0.10758 0.40837
#
# Static dielectric constant tensor:
#      x y z
#    x 1.579110 0.000000 0.000000 
#    y 0.000000 1.635670 0.000000 
#    z 0.000000 0.000000 1.568430 
# 
# From -- ./inp_files/17099.got.cif
#   From: 2010.05.17/outbox.cif.g08.bks.cpg/sg53_9_cif.got.tgz:17099.got - 2010.06.03 12:45:16.
