data_PCOD9415820
_publ_section_title
;
Structure prediction by ZEFSAII (Michael W. Deem and Ramdas Pophale) SiO2 
 PCOD9415820
Probable space group: P M N A
;
_chemical_formula_sum "Si O2"
_cell_formula_units_Z 64
_cell_length_a 8.977348
_cell_length_b 22.638938
_cell_length_c 18.081008
_cell_angle_alpha 90.000000
_cell_angle_beta 90.000000
_cell_angle_gamma 90.000000
_cell_volume 3674.741119
_symmetry_space_group_name_H-M "P M N A"
_symmetry_group_IT_number 53
_symmetry_cell_setting 'orthorhombic'
loop_
_space_group_symop_operation_xyz
x,y,z
1/2-x,-y,1/2+z
x,-y,-z
1/2-x,y,1/2-z
-x,-y,-z
1/2+x,y,1/2-z
-x,y,z
1/2+x,-y,1/2+z
loop_
_atom_site_type_symbol
_atom_site_label
_atom_site_fract_x
_atom_site_fract_y
_atom_site_fract_z
Si Si1 0.330659 0.548086 0.433605
Si Si2 0.177598 0.792150 0.173092
Si Si3 0.677167 0.925720 0.374702
Si Si4 0.320464 0.444155 0.330427
Si Si5 0.177296 0.633313 0.540340
Si Si6 0.322123 0.757794 0.022378
Si Si7 0.177674 0.109868 0.475936
Si Si8 0.677271 0.045386 0.176055
O O1 0.336417 0.500000 0.500000
O O2 0.500000 0.570012 0.422651
O O3 0.282263 0.509379 0.363248
O O4 0.225764 0.598591 0.465811
O O5 0.250000 0.772817 0.250000
O O6 0.214572 0.861744 0.159981
O O7 0.240702 0.758879 0.101326
O O8 0.000000 0.786696 0.176158
O O9 0.500000 0.933947 0.370516
O O10 0.732295 0.922206 0.459277
O O11 0.759764 0.979697 0.336328
O O12 0.250000 0.435466 0.250000
O O13 0.500000 0.440355 0.328149
O O14 0.258578 0.397206 0.390234
O O15 0.218271 0.701495 0.527092
O O16 0.000000 0.628111 0.550732
O O17 0.500000 0.755136 0.035525
O O18 0.290451 0.820403 0.983223
O O19 0.214249 0.083452 0.396392
O O20 0.000000 0.101225 0.488946
O O21 0.750000 0.070468 0.250000
O O22 0.500000 0.042980 0.183673
#
# Coordination Sequence:
#
# PCOD9415820 Si02
#       8
#     8   8   8   8   8   8   8   8
#     4   8  16  31  50  73 102 134 164 198 244 293
#     4  10  20  33  51  75 101 130 164 205 255 305
#     4  10  20  33  52  77 101 126 160 204 254 311
#     4  10  20  34  53  78 108 139 171 211 255 296
#     4  10  19  32  54  80 104 135 174 211 250 299
#     4   9  19  36  55  74 100 136 175 211 248 296
#     4   9  19  36  54  71  97 133 170 208 251 301
#     4  11  22  34  50  72  98 130 165 205 256 307
#
# _framework density 17.416191999999999
#
# number of rings (size 3 to 8) (size 9 to 14) (size 15 to 20)
#    0.000    2.375    0.000    3.375    0.000    8.750 
#    0.000    1.250    0.000    3.000    0.000    0.000 
#    0.000    0.000    0.000    0.000    0.000    0.000 
#
# Total GULP energy -357040.475192 kJ/mol
# GULP energy per Si atom -5578.757425 kJ/mol
# Density = 1.737655 g / cm^3
# Si number density = 17.416192 Si / 1000 Ang^3
#
#
#
# Elastic Constant Matrix: (Units=GPa)
#
#
# Indices 1 2 3 4 5 6 
#
# 1 39.8203 27.2082 43.9359 0.0000 0.0000 0.0000
# 2 27.2082 53.7460 38.8551 0.0000 0.0000 0.0000
# 3 43.9359 38.8551 121.1070 0.0000 0.0000 0.0000
# 4 0.0000 0.0000 0.0000 17.6493 0.0000 0.0000
# 5 0.0000 0.0000 0.0000 0.0000 28.3581 0.0000
# 6 0.0000 0.0000 0.0000 0.0000 0.0000 21.8837
#
#
#
# Elastic Compliance Matrix: (Units=1/GPa)
#
#
# Indices 1 2 3 4 5 6 
#
# 1 0.050720 -0.016111 -0.013232 0.000000 0.000000 0.000000
# 2 -0.016111 0.029342 -0.003569 0.000000 0.000000 0.000000
# 3 -0.013232 -0.003569 0.014203 0.000000 0.000000 0.000000
# 4 0.000000 0.000000 0.000000 0.056659 0.000000 0.000000
# 5 0.000000 0.000000 0.000000 0.000000 0.035263 0.000000
# 6 0.000000 0.000000 0.000000 0.000000 0.000000 0.045696
#
#
# Mechanical properties :
#
#
# Convention : Reuss Voigt Hill
#
# Bulk Modulus (GPa) = 35.15966 48.29686 41.72826
# Shear Modulus (GPa) = 16.27672 20.55650 18.41661
#
# Velocity S-wave (km/s) = 3.06040 3.43929 3.25536
# Velocity P-wave (km/s) = 5.72012 6.60022 6.17587
#
# Compressibility (1/GPa) = 0.02844168
#
# Stress axis : x y z
#
# Youngs Moduli (GPa) = 19.71608 34.08068 70.40985
#
# Poissons Ratio (x) = 0.54906 0.93164
# Poissons Ratio (y) = 0.31764 0.25131
# Poissons Ratio (z) = 0.26088 0.12164
#
# Static dielectric constant tensor:
#      x y z
#    x 1.581610 0.000000 0.000000 
#    y 0.000000 1.593030 0.000000 
#    z 0.000000 0.000000 1.585130 
# 
# From -- ./inp_files/26828.got.cif
#   From: 2010.05.17/outbox.cif.g08.bks.cpg/sg53_14_cif.got.tgz:26828.got - 2010.06.03 12:45:16.
