data_PCOD9415566
_publ_section_title
;
Structure prediction by ZEFSAII (Michael W. Deem and Ramdas Pophale) SiO2 
 PCOD9415566
Probable space group: P M N A
;
_chemical_formula_sum "Si O2"
_cell_formula_units_Z 64
_cell_length_a 8.419064
_cell_length_b 16.232913
_cell_length_c 29.523916
_cell_angle_alpha 90.000000
_cell_angle_beta 90.000000
_cell_angle_gamma 90.000000
_cell_volume 4034.913539
_symmetry_space_group_name_H-M "P M N A"
_symmetry_group_IT_number 53
_symmetry_cell_setting 'orthorhombic'
loop_
_space_group_symop_operation_xyz
x,y,z
1/2-x,-y,1/2+z
x,-y,-z
1/2-x,y,1/2-z
-x,-y,-z
1/2+x,y,1/2-z
-x,y,z
1/2+x,-y,1/2+z
loop_
_atom_site_type_symbol
_atom_site_label
_atom_site_fract_x
_atom_site_fract_y
_atom_site_fract_z
Si Si1 0.694255 0.662993 0.644947
Si Si2 0.191467 0.995817 0.198240
Si Si3 0.693168 0.594650 0.550516
Si Si4 0.312037 0.658614 0.143810
Si Si5 0.309326 0.815414 0.301816
Si Si6 0.808022 0.402455 0.949119
Si Si7 0.809933 0.499569 0.801242
Si Si8 0.692441 0.175786 0.301827
O O1 0.500000 0.663564 0.644852
O O2 0.746716 0.647873 0.593281
O O3 0.744498 0.583941 0.674561
O O4 0.747721 0.747744 0.667900
O O5 0.250000 0.996206 0.250000
O O6 0.243241 0.906233 0.180405
O O7 0.000000 0.995702 0.197381
O O8 0.243358 0.085258 0.180043
O O9 0.500000 0.595778 0.550212
O O10 0.743538 0.620702 0.500098
O O11 0.737381 0.498720 0.557553
O O12 0.500000 0.656094 0.147105
O O13 0.250987 0.741286 0.167553
O O14 0.260011 0.650379 0.091688
O O15 0.244140 0.579510 0.170387
O O16 0.250000 0.805854 0.250000
O O17 0.500000 0.813350 0.300852
O O18 0.000000 0.398837 0.947142
O O19 0.750000 0.495034 0.750000
O O20 0.000000 0.500425 0.800976
O O21 0.750000 0.184977 0.250000
O O22 0.500000 0.177269 0.301052
#
# Coordination Sequence:
#
# PCOD9415566 Si02
#       8
#     8   8   8   8   8   8   8   8
#     4   9  16  27  46  69  92 120 152 183 217 262
#     4   8  15  27  44  65  88 115 146 183 224 261
#     4   8  14  27  49  71  87 113 152 189 225 268
#     4  12  23  33  45  65  91 119 152 188 229 270
#     4  10  19  32  48  66  90 119 152 187 224 268
#     4   9  16  30  51  68  86 114 152 191 227 270
#     4  11  21  33  46  62  91 127 160 185 214 258
#     4   9  16  27  44  67  94 121 149 182 218 260
#
# _framework density 15.861554
#
# number of rings (size 3 to 8) (size 9 to 14) (size 15 to 20)
#    0.000    2.500    1.250    3.375    0.000    0.500 
#    0.000    1.875    0.000    0.000    0.000    0.875 
#    0.000    7.000    0.000    0.000    0.000    0.000 
#
# Total GULP energy -356595.706636 kJ/mol
# GULP energy per Si atom -5571.807916 kJ/mol
# Density = 1.582545 g / cm^3
# Si number density = 15.861554 Si / 1000 Ang^3
#
#
#
# Elastic Constant Matrix: (Units=GPa)
#
#
# Indices 1 2 3 4 5 6 
#
# 1 26.0479 21.5674 17.3729 0.0000 0.0000 0.0000
# 2 21.5674 151.4526 74.2246 0.0000 0.0000 0.0000
# 3 17.3729 74.2246 114.3445 0.0000 0.0000 0.0000
# 4 0.0000 0.0000 0.0000 8.0334 0.0000 0.0000
# 5 0.0000 0.0000 0.0000 0.0000 17.5996 0.0000
# 6 0.0000 0.0000 0.0000 0.0000 0.0000 8.6727
#
#
#
# Elastic Compliance Matrix: (Units=1/GPa)
#
#
# Indices 1 2 3 4 5 6 
#
# 1 0.044677 -0.004452 -0.003898 0.000000 0.000000 0.000000
# 2 -0.004452 0.010127 -0.005897 0.000000 0.000000 0.000000
# 3 -0.003898 -0.005897 0.013166 0.000000 0.000000 0.000000
# 4 0.000000 0.000000 0.000000 0.124480 0.000000 0.000000
# 5 0.000000 0.000000 0.000000 0.000000 0.056819 0.000000
# 6 0.000000 0.000000 0.000000 0.000000 0.000000 0.115305
#
#
# Mechanical properties :
#
#
# Convention : Reuss Voigt Hill
#
# Bulk Modulus (GPa) = 25.33244 57.57499 41.45371
# Shear Modulus (GPa) = 12.30841 18.77314 15.54078
#
# Velocity S-wave (km/s) = 2.78868 3.44403 3.13353
# Velocity P-wave (km/s) = 5.13562 7.22443 6.26765
#
# Compressibility (1/GPa) = 0.03947508
#
# Stress axis : x y z
#
# Youngs Moduli (GPa) = 22.38302 98.74762 75.95386
#
# Poissons Ratio (x) = 0.43959 0.29609
# Poissons Ratio (y) = 0.09964 0.44792
# Poissons Ratio (z) = 0.08725 0.58234
#
# Static dielectric constant tensor:
#      x y z
#    x 1.542540 0.000000 0.000000 
#    y 0.000000 1.554210 0.000000 
#    z 0.000000 0.000000 1.512760 
# 
# From -- ./inp_files/38399.got.cif
#   From: 2010.05.17/outbox.cif.g08.bks.cpg/sg53_20_cif.got.tgz:38399.got - 2010.06.03 12:45:16.
