data_PCOD9415204
_publ_section_title
;
Structure prediction by ZEFSAII (Michael W. Deem and Ramdas Pophale) SiO2 
 PCOD9415204
Probable space group: P M N A
;
_chemical_formula_sum "Si O2"
_cell_formula_units_Z 56
_cell_length_a 8.481626
_cell_length_b 19.835273
_cell_length_c 19.074923
_cell_angle_alpha 90.000000
_cell_angle_beta 90.000000
_cell_angle_gamma 90.000000
_cell_volume 3209.076675
_symmetry_space_group_name_H-M "P M N A"
_symmetry_group_IT_number 53
_symmetry_cell_setting 'orthorhombic'
loop_
_space_group_symop_operation_xyz
x,y,z
1/2-x,-y,1/2+z
x,-y,-z
1/2-x,y,1/2-z
-x,-y,-z
1/2+x,y,1/2-z
-x,y,z
1/2+x,-y,1/2+z
loop_
_atom_site_type_symbol
_atom_site_label
_atom_site_fract_x
_atom_site_fract_y
_atom_site_fract_z
Si Si1 0.188987 0.032979 0.329369
Si Si2 0.184727 0.382108 0.677896
Si Si3 0.815560 0.244071 0.861836
Si Si4 0.808061 0.427559 0.525394
Si Si5 0.189444 0.858428 0.558814
Si Si6 0.810546 0.101078 0.904576
Si Si7 0.690212 0.716882 0.987763
O O1 0.250000 0.034017 0.250000
O O2 0.244845 0.096540 0.376249
O O3 0.000000 0.033734 0.327274
O O4 0.243681 0.966177 0.370437
O O5 0.250000 0.411109 0.750000
O O6 0.219549 0.302130 0.676362
O O7 0.248440 0.411553 0.604555
O O8 0.000000 0.392555 0.677230
O O9 0.763176 0.166491 0.857911
O O10 0.000000 0.249772 0.844114
O O11 0.785999 0.261922 0.943282
O O12 0.750038 0.500000 0.500000
O O13 0.771111 0.361991 0.477353
O O14 0.000000 0.430750 0.527481
O O15 0.254041 0.886433 0.484517
O O16 0.224451 0.778264 0.564973
O O17 0.000000 0.864709 0.554780
O O18 0.000000 0.098965 0.905196
O O19 0.500000 0.719549 0.002541
#
# Coordination Sequence:
#
# PCOD9415204 Si02
#       7
#     8   8   8   8   8   8   8
#     4  11  23  36  49  66  92 125 161 203 248 289
#     4  10  19  30  46  67  94 128 160 191 228 275
#     4   9  17  29  45  67  94 120 148 183 224 274
#     4   8  14  26  47  74  97 119 152 191 228 268
#     4   9  18  33  52  72  93 122 161 201 240 283
#     4  10  20  33  51  74  97 123 156 195 240 289
#     4   8  14  27  48  71  93 117 149 188 227 271
#
# _framework density 17.450503000000001
#
# number of rings (size 3 to 8) (size 9 to 14) (size 15 to 20)
#    0.000    2.714    0.000    3.000    0.000    5.143 
#    0.000    0.000    0.000   11.571    0.000    0.000 
#    0.000    0.000    0.000    0.000    0.000    0.571 
#
# Total GULP energy -311751.540694 kJ/mol
# GULP energy per Si atom -5566.991798 kJ/mol
# Density = 1.741079 g / cm^3
# Si number density = 17.450503 Si / 1000 Ang^3
#
#
#
# Elastic Constant Matrix: (Units=GPa)
#
#
# Indices 1 2 3 4 5 6 
#
# 1 14.8228 17.1338 12.7729 0.0000 0.0000 0.0000
# 2 17.1338 162.1837 67.4001 0.0000 0.0000 0.0000
# 3 12.7729 67.4001 78.0618 0.0000 0.0000 0.0000
# 4 0.0000 0.0000 0.0000 5.2108 0.0000 0.0000
# 5 0.0000 0.0000 0.0000 0.0000 21.7346 0.0000
# 6 0.0000 0.0000 0.0000 0.0000 0.0000 -23.1350
#
#
#
# Elastic Compliance Matrix: (Units=1/GPa)
#
#
# Indices 1 2 3 4 5 6 
#
# 1 0.080812 -0.004745 -0.009126 0.000000 0.000000 0.000000
# 2 -0.004745 0.009895 -0.007767 0.000000 0.000000 0.000000
# 3 -0.009126 -0.007767 0.021010 0.000000 0.000000 0.000000
# 4 0.000000 0.000000 0.000000 0.191910 0.000000 0.000000
# 5 0.000000 0.000000 0.000000 0.000000 0.046010 0.000000
# 6 0.000000 0.000000 0.000000 0.000000 0.000000 -0.043225
#
#
# Mechanical properties :
#
#
# Convention : Reuss Voigt Hill
#
# Bulk Modulus (GPa) = 14.61119 49.96466 32.28793
# Shear Modulus (GPa) = 13.42274 11.27951 12.35113
#
# Velocity S-wave (km/s) = 2.77644 2.54514 2.66330
# Velocity P-wave (km/s) = 4.32079 6.10994 5.29153
#
# Compressibility (1/GPa) = 0.06844069
#
# Stress axis : x y z
#
# Youngs Moduli (GPa) = 12.37440 101.06168 47.59638
#
# Poissons Ratio (x) = 0.47950 0.43438
# Poissons Ratio (y) = 0.05871 0.36969
# Poissons Ratio (z) = 0.11293 0.78496
#
# Static dielectric constant tensor:
#      x y z
#    x 1.597190 0.000000 0.000000 
#    y 0.000000 1.632860 0.000000 
#    z 0.000000 0.000000 1.601880 
# 
# From -- ./inp_files/20498.got.cif
#   From: 2010.05.17/outbox.cif.g08.bks.cpg/sg53_11_cif.got.tgz:20498.got - 2010.06.03 12:45:16.
