data_PCOD9415359
_publ_section_title
;
Structure prediction by ZEFSAII (Michael W. Deem and Ramdas Pophale) SiO2 
 PCOD9415359
Probable space group: P M N A
;
_chemical_formula_sum "Si O2"
_cell_formula_units_Z 48
_cell_length_a 8.568663
_cell_length_b 16.778026
_cell_length_c 19.046699
_cell_angle_alpha 90.000000
_cell_angle_beta 90.000000
_cell_angle_gamma 90.000000
_cell_volume 2738.253455
_symmetry_space_group_name_H-M "P M N A"
_symmetry_group_IT_number 53
_symmetry_cell_setting 'orthorhombic'
loop_
_space_group_symop_operation_xyz
x,y,z
1/2-x,-y,1/2+z
x,-y,-z
1/2-x,y,1/2-z
-x,-y,-z
1/2+x,y,1/2-z
-x,y,z
1/2+x,-y,1/2+z
loop_
_atom_site_type_symbol
_atom_site_label
_atom_site_fract_x
_atom_site_fract_y
_atom_site_fract_z
Si Si1 0.686933 0.162118 0.327677
Si Si2 0.811041 0.083367 0.465905
Si Si3 0.187908 0.755309 0.459787
Si Si4 0.812224 0.485925 0.171189
Si Si5 0.687263 0.341975 0.828296
Si Si6 0.311821 0.675265 0.595983
O O1 0.750000 0.145771 0.250000
O O2 0.500000 0.159530 0.326557
O O3 0.747986 0.102768 0.388234
O O4 0.735836 0.251316 0.353136
O O5 0.760241 0.157089 0.515475
O O6 0.000000 0.083509 0.462281
O O7 0.761134 0.000000 0.500000
O O8 0.239675 0.724464 0.383952
O O9 0.245322 0.695326 0.519867
O O10 0.000000 0.755666 0.459774
O O11 0.750000 0.473743 0.250000
O O12 0.747195 0.571245 0.147372
O O13 0.762356 0.410300 0.125200
O O14 0.000000 0.489438 0.172490
O O15 0.750000 0.328380 0.750000
O O16 0.500000 0.343873 0.825626
O O17 0.500000 0.675999 0.592737
#
# Coordination Sequence:
#
# PCOD9415359 Si02
#       6
#     8   8   8   8   8   8
#     4  10  19  32  51  76 105 134 165 200 242 292
#     4   9  18  35  57  77 100 130 162 201 249 298
#     4   9  19  34  52  73  96 125 161 199 243 295
#     4  10  19  31  47  69  97 130 167 203 241 282
#     4  10  20  34  50  69  94 126 165 204 242 284
#     4   9  19  32  48  72 100 130 163 200 241 288
#
# _framework density 17.529423000000001
#
# number of rings (size 3 to 8) (size 9 to 14) (size 15 to 20)
#    0.000    2.500    0.000    3.000    0.000    4.333 
#    0.000    4.167    0.000    2.000    0.000    0.000 
#    0.000    0.000    0.000    0.000    0.000    0.000 
#
# Total GULP energy -267719.087933 kJ/mol
# GULP energy per Si atom -5577.480999 kJ/mol
# Density = 1.748953 g / cm^3
# Si number density = 17.529423 Si / 1000 Ang^3
#
#
#
# Elastic Constant Matrix: (Units=GPa)
#
#
# Indices 1 2 3 4 5 6 
#
# 1 27.6069 26.5416 28.1059 0.0000 0.0000 0.0000
# 2 26.5416 111.7276 95.9599 0.0000 0.0000 0.0000
# 3 28.1059 95.9599 133.7010 0.0000 0.0000 0.0000
# 4 0.0000 0.0000 0.0000 26.2242 0.0000 0.0000
# 5 0.0000 0.0000 0.0000 0.0000 26.9564 0.0000
# 6 0.0000 0.0000 0.0000 0.0000 0.0000 22.5631
#
#
#
# Elastic Compliance Matrix: (Units=1/GPa)
#
#
# Indices 1 2 3 4 5 6 
#
# 1 0.048188 -0.007162 -0.004990 0.000000 0.000000 0.000000
# 2 -0.007162 0.024399 -0.016006 0.000000 0.000000 0.000000
# 3 -0.004990 -0.016006 0.020016 0.000000 0.000000 0.000000
# 4 0.000000 0.000000 0.000000 0.038133 0.000000 0.000000
# 5 0.000000 0.000000 0.000000 0.000000 0.037097 0.000000
# 6 0.000000 0.000000 0.000000 0.000000 0.000000 0.044320
#
#
# Mechanical properties :
#
#
# Convention : Reuss Voigt Hill
#
# Bulk Modulus (GPa) = 27.55729 63.80558 45.68144
# Shear Modulus (GPa) = 17.82125 23.31060 20.56593
#
# Velocity S-wave (km/s) = 3.19195 3.65060 3.42895
# Velocity P-wave (km/s) = 5.41659 7.36528 6.46478
#
# Compressibility (1/GPa) = 0.03628803
#
# Stress axis : x y z
#
# Youngs Moduli (GPa) = 20.75197 40.98564 49.95996
#
# Poissons Ratio (x) = 0.29354 0.24928
# Poissons Ratio (y) = 0.14863 0.79966
# Poissons Ratio (z) = 0.10354 0.65601
#
# Static dielectric constant tensor:
#      x y z
#    x 1.599120 0.000000 0.000000 
#    y 0.000000 1.599830 0.000000 
#    z 0.000000 0.000000 1.585170 
# 
# From -- ./inp_files/26400.got.cif
#   From: 2010.05.17/outbox.cif.g08.bks.cpg/sg53_14_cif.got.tgz:26400.got - 2010.06.03 12:45:16.
