data_PCOD9415291
_publ_section_title
;
Structure prediction by ZEFSAII (Michael W. Deem and Ramdas Pophale) SiO2 
 PCOD9415291
Probable space group: P M N A
;
_chemical_formula_sum "Si O2"
_cell_formula_units_Z 48
_cell_length_a 7.853445
_cell_length_b 15.499079
_cell_length_c 21.351817
_cell_angle_alpha 90.000000
_cell_angle_beta 90.000000
_cell_angle_gamma 90.000000
_cell_volume 2598.968029
_symmetry_space_group_name_H-M "P M N A"
_symmetry_group_IT_number 53
_symmetry_cell_setting 'orthorhombic'
loop_
_space_group_symop_operation_xyz
x,y,z
1/2-x,-y,1/2+z
x,-y,-z
1/2-x,y,1/2-z
-x,-y,-z
1/2+x,y,1/2-z
-x,y,z
1/2+x,-y,1/2+z
loop_
_atom_site_type_symbol
_atom_site_label
_atom_site_fract_x
_atom_site_fract_y
_atom_site_fract_z
Si Si1 0.702180 0.229028 0.025156
Si Si2 0.202983 0.616410 0.817938
Si Si3 0.696986 0.807615 0.660972
Si Si4 0.796167 0.423012 0.456653
Si Si5 0.705851 0.070169 0.551940
Si Si6 0.294817 0.004795 0.316505
O O1 0.500000 0.230101 0.038010
O O2 0.794586 0.189877 0.085793
O O3 0.762296 0.328113 0.020564
O O4 0.736502 0.165160 0.968226
O O5 0.250000 0.579056 0.750000
O O6 0.274792 0.715157 0.820600
O O7 0.259509 0.570839 0.882252
O O8 0.000000 0.621549 0.821577
O O9 0.500000 0.805976 0.681343
O O10 0.776131 0.897043 0.683263
O O11 0.727431 0.500000 0.500000
O O12 0.000000 0.423412 0.463207
O O13 0.500000 0.931003 0.448697
O O14 0.763884 0.000000 0.500000
O O15 0.765167 0.042715 0.620914
O O16 0.250000 0.963832 0.250000
O O17 0.500000 0.010278 0.321227
#
# Coordination Sequence:
#
# PCOD9415291 Si02
#       6
#     8   8   8   8   8   8
#     4  10  19  30  50  78 100 124 165 213 252 289
#     4  10  19  30  49  75 105 136 167 205 250 306
#     4   9  17  31  47  67  99 137 167 193 240 303
#     4   9  19  36  55  75 103 135 167 209 262 311
#     4  10  19  34  52  68  97 137 172 201 242 298
#     4  10  20  32  47  67  95 133 169 205 246 289
#
# _framework density 18.468868000000001
#
# number of rings (size 3 to 8) (size 9 to 14) (size 15 to 20)
#    0.000    2.333    1.667    1.500    0.000    3.333 
#    0.000    0.000    0.000    1.000    0.000    2.333 
#    0.000    0.000    0.000    0.000    0.000    0.000 
#
# Total GULP energy -267627.719740 kJ/mol
# GULP energy per Si atom -5575.577495 kJ/mol
# Density = 1.842683 g / cm^3
# Si number density = 18.468868 Si / 1000 Ang^3
#
#
#
# Elastic Constant Matrix: (Units=GPa)
#
#
# Indices 1 2 3 4 5 6 
#
# 1 23.5105 4.4178 -1.6451 0.0000 0.0000 0.0000
# 2 4.4178 84.3761 74.3240 0.0000 0.0000 0.0000
# 3 -1.6451 74.3240 158.9001 0.0000 0.0000 0.0000
# 4 0.0000 0.0000 0.0000 19.1393 0.0000 0.0000
# 5 0.0000 0.0000 0.0000 0.0000 24.4063 0.0000
# 6 0.0000 0.0000 0.0000 0.0000 0.0000 9.5487
#
#
#
# Elastic Compliance Matrix: (Units=1/GPa)
#
#
# Indices 1 2 3 4 5 6 
#
# 1 0.043571 -0.004556 0.002582 0.000000 0.000000 0.000000
# 2 -0.004556 0.020633 -0.009698 0.000000 0.000000 0.000000
# 3 0.002582 -0.009698 0.010856 0.000000 0.000000 0.000000
# 4 0.000000 0.000000 0.000000 0.052248 0.000000 0.000000
# 5 0.000000 0.000000 0.000000 0.000000 0.040973 0.000000
# 6 0.000000 0.000000 0.000000 0.000000 0.000000 0.104726
#
#
# Mechanical properties :
#
#
# Convention : Reuss Voigt Hill
#
# Bulk Modulus (GPa) = 19.33621 46.77557 33.05589
# Shear Modulus (GPa) = 15.94440 23.26487 19.60464
#
# Velocity S-wave (km/s) = 2.94141 3.55305 3.26160
# Velocity P-wave (km/s) = 4.69342 6.49722 5.66754
#
# Compressibility (1/GPa) = 0.05171645
#
# Stress axis : x y z
#
# Youngs Moduli (GPa) = 22.95112 48.46643 92.11385
#
# Poissons Ratio (x) = 0.22080 -0.23783
# Poissons Ratio (y) = 0.10456 0.89332
# Poissons Ratio (z) = -0.05926 0.47003
#
# Static dielectric constant tensor:
#      x y z
#    x 1.675950 0.000000 0.000000 
#    y 0.000000 1.651530 0.000000 
#    z 0.000000 0.000000 1.668050 
# 
# From -- ./inp_files/30497.got.cif
#   From: 2010.05.17/outbox.cif.g08.bks.cpg/sg53_16_cif.got.tgz:30497.got - 2010.06.03 12:45:16.
