data_PCOD9415829
_publ_section_title
;
Structure prediction by ZEFSAII (Michael W. Deem and Ramdas Pophale) SiO2 
 PCOD9415829
Probable space group: P M N A
;
_chemical_formula_sum "Si O2"
_cell_formula_units_Z 64
_cell_length_a 8.421073
_cell_length_b 20.237873
_cell_length_c 21.205938
_cell_angle_alpha 90.000000
_cell_angle_beta 90.000000
_cell_angle_gamma 90.000000
_cell_volume 3614.013626
_symmetry_space_group_name_H-M "P M N A"
_symmetry_group_IT_number 53
_symmetry_cell_setting 'orthorhombic'
loop_
_space_group_symop_operation_xyz
x,y,z
1/2-x,-y,1/2+z
x,-y,-z
1/2-x,y,1/2-z
-x,-y,-z
1/2+x,y,1/2-z
-x,y,z
1/2+x,-y,1/2+z
loop_
_atom_site_type_symbol
_atom_site_label
_atom_site_fract_x
_atom_site_fract_y
_atom_site_fract_z
Si Si1 0.808303 0.456763 0.817867
Si Si2 0.313032 0.825129 0.124354
Si Si3 0.692734 0.680482 0.515723
Si Si4 0.694101 0.541000 0.562184
Si Si5 0.189180 0.827256 0.982177
Si Si6 0.812485 0.042886 0.817136
Si Si7 0.808380 0.683836 0.132102
Si Si8 0.811484 0.963181 0.564165
O O1 0.750000 0.479207 0.750000
O O2 0.753361 0.503421 0.875016
O O3 0.755875 0.381157 0.830663
O O4 0.000000 0.456364 0.819161
O O5 0.500000 0.826748 0.112102
O O6 0.265762 0.886206 0.167843
O O7 0.264859 0.753749 0.151565
O O8 0.225295 0.833221 0.056962
O O9 0.500000 0.680798 0.518019
O O10 0.747923 0.616616 0.553996
O O11 0.744525 0.753463 0.536538
O O12 0.733544 0.672899 0.441744
O O13 0.740752 0.500000 0.500000
O O14 0.500000 0.541274 0.562818
O O15 0.272796 0.886444 0.945753
O O16 0.000000 0.832287 0.973222
O O17 0.750000 0.017933 0.750000
O O18 0.000000 0.051458 0.814328
O O19 0.768569 0.994925 0.874849
O O20 0.000000 0.689103 0.135678
O O21 0.000000 0.973662 0.569557
O O22 0.756708 0.000000 0.500000
#
# Coordination Sequence:
#
# PCOD9415829 Si02
#       8
#     8   8   8   8   8   8   8   8
#     4  10  20  32  50  74 104 139 174 217 266 319
#     4  11  21  34  52  78 111 147 183 220 265 321
#     4   8  14  26  48  78 104 127 171 228 270 309
#     4   9  14  26  51  78 100 129 176 226 266 305
#     4  10  19  32  54  83 111 141 180 228 277 322
#     4  12  25  41  60  82 112 147 185 227 275 326
#     4   9  17  31  49  72 101 138 180 220 262 312
#     4  11  22  37  59  85 114 146 185 227 272 324
#
# _framework density 17.708842000000001
#
# number of rings (size 3 to 8) (size 9 to 14) (size 15 to 20)
#    0.000    2.000    2.500    3.750    0.000    1.500 
#    0.000    1.250    0.000    4.875    0.000    1.750 
#    0.000    0.000    0.000    0.000    0.000    0.000 
#
# Total GULP energy -357226.022979 kJ/mol
# GULP energy per Si atom -5581.656609 kJ/mol
# Density = 1.766854 g / cm^3
# Si number density = 17.708842 Si / 1000 Ang^3
#
#
#
# Elastic Constant Matrix: (Units=GPa)
#
#
# Indices 1 2 3 4 5 6 
#
# 1 15.1402 1.5578 2.0109 0.0000 0.0000 0.0000
# 2 1.5578 113.0661 54.1951 0.0000 0.0000 0.0000
# 3 2.0109 54.1951 98.3233 0.0000 0.0000 0.0000
# 4 0.0000 0.0000 0.0000 13.8602 0.0000 0.0000
# 5 0.0000 0.0000 0.0000 0.0000 18.4740 0.0000
# 6 0.0000 0.0000 0.0000 0.0000 0.0000 6.6232
#
#
#
# Elastic Compliance Matrix: (Units=1/GPa)
#
#
# Indices 1 2 3 4 5 6 
#
# 1 0.066240 -0.000358 -0.001157 0.000000 0.000000 0.000000
# 2 -0.000358 0.012022 -0.006619 0.000000 0.000000 0.000000
# 3 -0.001157 -0.006619 0.013843 0.000000 0.000000 0.000000
# 4 0.000000 0.000000 0.000000 0.072149 0.000000 0.000000
# 5 0.000000 0.000000 0.000000 0.000000 0.054130 0.000000
# 6 0.000000 0.000000 0.000000 0.000000 0.000000 0.150984
#
#
# Mechanical properties :
#
#
# Convention : Reuss Voigt Hill
#
# Bulk Modulus (GPa) = 13.18645 38.00636 25.59640
# Shear Modulus (GPa) = 12.16797 19.04255 15.60526
#
# Velocity S-wave (km/s) = 2.62413 3.28275 2.97174
# Velocity P-wave (km/s) = 4.07968 5.98974 5.12449
#
# Compressibility (1/GPa) = 0.07583544
#
# Stress axis : x y z
#
# Youngs Moduli (GPa) = 15.09669 83.18082 72.24075
#
# Poissons Ratio (x) = 0.02977 0.08362
# Poissons Ratio (y) = 0.00540 0.47817
# Poissons Ratio (z) = 0.01747 0.55058
#
# Static dielectric constant tensor:
#      x y z
#    x 1.601540 0.000000 0.000000 
#    y 0.000000 1.618430 0.000000 
#    z 0.000000 0.000000 1.587050 
# 
# From -- ./inp_files/26898.got.cif
#   From: 2010.05.17/outbox.cif.g08.bks.cpg/sg53_14_cif.got.tgz:26898.got - 2010.06.03 12:45:16.
