data_PCOD9415709
_publ_section_title
;
Structure prediction by ZEFSAII (Michael W. Deem and Ramdas Pophale) SiO2 
 PCOD9415709
Probable space group: P M N A
;
_chemical_formula_sum "Si O2"
_cell_formula_units_Z 64
_cell_length_a 9.997800
_cell_length_b 15.228865
_cell_length_c 24.148940
_cell_angle_alpha 90.000000
_cell_angle_beta 90.000000
_cell_angle_gamma 90.000000
_cell_volume 3676.800397
_symmetry_space_group_name_H-M "P M N A"
_symmetry_group_IT_number 53
_symmetry_cell_setting 'orthorhombic'
loop_
_space_group_symop_operation_xyz
x,y,z
1/2-x,-y,1/2+z
x,-y,-z
1/2-x,y,1/2-z
-x,-y,-z
1/2+x,y,1/2-z
-x,y,z
1/2+x,-y,1/2+z
loop_
_atom_site_type_symbol
_atom_site_label
_atom_site_fract_x
_atom_site_fract_y
_atom_site_fract_z
Si Si1 0.844396 0.790851 0.197304
Si Si2 0.345789 0.464098 0.437074
Si Si3 0.851313 0.238990 0.530000
Si Si4 0.152453 0.694776 0.595086
Si Si5 0.341768 0.989607 0.304091
Si Si6 0.647622 0.896936 0.494982
Si Si7 0.651820 0.160129 0.376901
Si Si8 0.152248 0.346101 0.900831
O O1 0.750000 0.779319 0.250000
O O2 0.825317 0.713407 0.153090
O O3 0.000000 0.788393 0.214376
O O4 0.819839 0.889828 0.174200
O O5 0.321395 0.500000 0.500000
O O6 0.500000 0.430230 0.436882
O O7 0.240695 0.391741 0.417084
O O8 0.338753 0.549115 0.397225
O O9 0.861150 0.259628 0.465063
O O10 0.764888 0.151307 0.537124
O O11 0.762806 0.315160 0.556147
O O12 0.000000 0.233619 0.553510
O O13 0.239661 0.763151 0.631358
O O14 0.000000 0.678085 0.614899
O O15 0.250000 0.999550 0.250000
O O16 0.500000 0.995627 0.290180
O O17 0.313619 0.068741 0.346455
O O18 0.500000 0.881385 0.469869
O O19 0.645854 0.859671 0.557416
O O20 0.668295 0.000000 0.500000
O O21 0.500000 0.185787 0.360111
O O22 0.000000 0.327680 0.920781
#
# Coordination Sequence:
#
# PCOD9415709 Si02
#       8
#     8   8   8   8   8   8   8   8
#     4   9  19  35  55  77 104 133 167 211 256 306
#     4  10  19  32  52  77 102 134 176 216 254 301
#     4  10  20  31  44  68 102 135 167 207 252 298
#     4  10  20  33  49  71 104 139 169 208 257 303
#     4   9  18  33  54  78 102 130 167 210 257 305
#     4   9  18  30  47  67  93 133 174 206 242 295
#     4   9  18  32  50  73  99 131 169 208 250 300
#     4  10  20  33  53  76 100 134 174 213 254 305
#
# _framework density 17.406438999999999
#
# number of rings (size 3 to 8) (size 9 to 14) (size 15 to 20)
#    0.000    2.500    1.250    0.750    1.750    3.000 
#    0.000    0.000    0.000    0.750    0.000    1.750 
#    0.000    0.000    0.000    0.000    0.000    0.000 
#
# Total GULP energy -356482.943602 kJ/mol
# GULP energy per Si atom -5570.045994 kJ/mol
# Density = 1.736682 g / cm^3
# Si number density = 17.406439 Si / 1000 Ang^3
#
#
#
# Elastic Constant Matrix: (Units=GPa)
#
#
# Indices 1 2 3 4 5 6 
#
# 1 115.4423 74.6197 24.7426 0.0000 0.0000 0.0000
# 2 74.6197 108.3063 17.3003 0.0000 0.0000 0.0000
# 3 24.7426 17.3003 27.8002 0.0000 0.0000 0.0000
# 4 0.0000 0.0000 0.0000 19.4418 0.0000 0.0000
# 5 0.0000 0.0000 0.0000 0.0000 14.6531 0.0000
# 6 0.0000 0.0000 0.0000 0.0000 0.0000 -168.8105
#
#
#
# Elastic Compliance Matrix: (Units=1/GPa)
#
#
# Indices 1 2 3 4 5 6 
#
# 1 0.017402 -0.010566 -0.008913 0.000000 0.000000 0.000000
# 2 -0.010566 0.016667 -0.000968 0.000000 0.000000 0.000000
# 3 -0.008913 -0.000968 0.044506 0.000000 0.000000 0.000000
# 4 0.000000 0.000000 0.000000 0.051436 0.000000 0.000000
# 5 0.000000 0.000000 0.000000 0.000000 0.068245 0.000000
# 6 0.000000 0.000000 0.000000 0.000000 0.000000 -0.005924
#
#
# Mechanical properties :
#
#
# Convention : Reuss Voigt Hill
#
# Bulk Modulus (GPa) = 26.53842 53.87491 40.20667
# Shear Modulus (GPa) = 20.34276 -17.95071 1.19603
#
# Velocity S-wave (km/s) = 3.42232 -3.21482 0.82982
# Velocity P-wave (km/s) = 5.55840 4.15190 4.90582
#
# Compressibility (1/GPa) = 0.03768121
#
# Stress axis : x y z
#
# Youngs Moduli (GPa) = 57.46390 59.99767 22.46873
#
# Poissons Ratio (x) = 0.63393 0.20026
# Poissons Ratio (y) = 0.60716 0.02176
# Poissons Ratio (z) = 0.51218 0.05810
#
# Static dielectric constant tensor:
#      x y z
#    x 1.615300 0.000000 0.000000 
#    y 0.000000 1.602590 0.000000 
#    z 0.000000 0.000000 1.584530 
# 
# From -- ./inp_files/34335.got.cif
#   From: 2010.05.17/outbox.cif.g08.bks.cpg/sg53_18_cif.got.tgz:34335.got - 2010.06.03 12:45:16.
