data_PCOD9415279
_publ_section_title
;
Structure prediction by ZEFSAII (Michael W. Deem and Ramdas Pophale) SiO2 
 PCOD9415279
Probable space group: P M N A
;
_chemical_formula_sum "Si O2"
_cell_formula_units_Z 54
_cell_length_a 14.611759
_cell_length_b 33.862164
_cell_length_c 5.247485
_cell_angle_alpha 90.000000
_cell_angle_beta 90.000000
_cell_angle_gamma 90.000000
_cell_volume 2596.380957
_symmetry_space_group_name_H-M "P M N A"
_symmetry_group_IT_number 53
_symmetry_cell_setting 'orthorhombic'
loop_
_space_group_symop_operation_xyz
x,y,z
1/2-x,-y,1/2+z
x,-y,-z
1/2-x,y,1/2-z
-x,-y,-z
1/2+x,y,1/2-z
-x,y,z
1/2+x,-y,1/2+z
loop_
_atom_site_type_symbol
_atom_site_label
_atom_site_fract_x
_atom_site_fract_y
_atom_site_fract_z
Si Si1 0.643022 0.463317 0.819682
Si Si2 0.185335 0.084984 0.000289
Si Si3 0.187949 0.381770 0.497913
Si Si4 0.890982 0.745296 0.102299
Si Si5 0.685067 0.000000 0.500000
Si Si6 0.610065 0.296495 0.103713
Si Si7 0.000000 0.500000 0.000000
Si Si8 0.686545 0.170587 0.500150
O O1 0.750000 0.467225 0.750000
O O2 0.580218 0.467943 0.575404
O O3 0.614716 0.500000 0.000000
O O4 0.630123 0.421398 0.954443
O O5 0.250000 0.084986 0.250000
O O6 0.250000 0.084956 0.750000
O O7 0.134798 0.042517 0.999737
O O8 0.136869 0.127694 0.005808
O O9 0.250000 0.388671 0.250000
O O10 0.134204 0.341382 0.456903
O O11 0.250000 0.377206 0.750000
O O12 0.855151 0.732218 0.378550
O O13 0.873049 0.790348 0.026794
O O14 0.000000 0.739618 0.114175
O O15 0.854023 0.717235 0.878294
O O16 0.750000 0.000044 0.250000
O O17 0.500000 0.292887 0.113285
O O18 0.750000 0.170264 0.750000
O O19 0.750000 0.173571 0.250000
#
# Coordination Sequence:
#
# PCOD9415279 Si02
#       8
#     8   8   8   8   4   8   2   8
#     4  11  24  46  69  99 139 166 216 265 302 369
#     4   8  14  23  36  59  89 118 160 205 263 315
#     4  11  25  42  67  94 126 161 193 246 301 339
#     4  10  21  37  54  76 110 145 183 225 283 330
#     4   8  12  20  34  52  83 122 149 198 260 322
#     4  10  22  40  58  83 112 150 189 235 274 343
#     4  12  26  44  76 104 124 196 210 248 334 362
#     4  10  19  30  48  74  98 131 174 226 266 324
#
# _framework density 20.798183000000002
#
# number of rings (size 3 to 8) (size 9 to 14) (size 15 to 20)
#    0.000    2.074    0.741    2.444    3.111    3.556 
#    0.000    0.000    0.000    0.000    0.000    0.519 
#    0.000    0.000    0.000   39.852    0.000    1.481 
#
# Total GULP energy -300730.322224 kJ/mol
# GULP energy per Si atom -5569.080041 kJ/mol
# Density = 2.075085 g / cm^3
# Si number density = 20.798183 Si / 1000 Ang^3
#
#
#
# Elastic Constant Matrix: (Units=GPa)
#
#
# Indices 1 2 3 4 5 6 
#
# 1 44.4682 -5.0096 12.0526 0.0000 0.0000 0.0000
# 2 -5.0096 143.3975 14.0921 0.0000 0.0000 0.0000
# 3 12.0526 14.0921 127.6332 0.0000 0.0000 0.0000
# 4 0.0000 0.0000 0.0000 37.7305 0.0000 0.0000
# 5 0.0000 0.0000 0.0000 0.0000 -25.0033 0.0000
# 6 0.0000 0.0000 0.0000 0.0000 0.0000 15.7190
#
#
#
# Elastic Compliance Matrix: (Units=1/GPa)
#
#
# Indices 1 2 3 4 5 6 
#
# 1 0.023231 0.001038 -0.002308 0.000000 0.000000 0.000000
# 2 0.001038 0.007097 -0.000882 0.000000 0.000000 0.000000
# 3 -0.002308 -0.000882 0.008150 0.000000 0.000000 0.000000
# 4 0.000000 0.000000 0.000000 0.026504 0.000000 0.000000
# 5 0.000000 0.000000 0.000000 0.000000 -0.039995 0.000000
# 6 0.000000 0.000000 0.000000 0.000000 0.000000 0.063617
#
#
# Mechanical properties :
#
#
# Convention : Reuss Voigt Hill
#
# Bulk Modulus (GPa) = 29.26169 39.75211 34.50690
# Shear Modulus (GPa) = 47.93938 25.31348 36.62643
#
# Velocity S-wave (km/s) = 4.80623 3.49248 4.20103
# Velocity P-wave (km/s) = 6.70072 5.95130 6.33710
#
# Compressibility (1/GPa) = 0.03417438
#
# Stress axis : x y z
#
# Youngs Moduli (GPa) = 43.04659 140.91377 122.69533
#
# Poissons Ratio (x) = -0.14633 0.28322
# Poissons Ratio (y) = -0.04470 0.10817
# Poissons Ratio (z) = 0.09937 0.12423
#
# Static dielectric constant tensor:
#      x y z
#    x 1.718660 0.000000 0.000000 
#    y 0.000000 1.795480 0.000000 
#    z 0.000000 0.000000 1.792430 
# 
# From -- ./inp_files/1492.got.cif
#   From: 2010.05.17/outbox.cif.g08.bks.cpg/sg53_1_cif.got.tgz:1492.got - 2010.06.03 12:45:16.
