data_PCOD9416977
_publ_section_title
;
Structure prediction by ZEFSAII (Michael W. Deem and Ramdas Pophale) SiO2 
 PCOD9416977
Probable space group: P M N A
;
_chemical_formula_sum "Si O2"
_cell_formula_units_Z 48
_cell_length_a 22.383333
_cell_length_b 10.296113
_cell_length_c 10.853155
_cell_angle_alpha 90.000000
_cell_angle_beta 90.000000
_cell_angle_gamma 90.000000
_cell_volume 2501.232491
_symmetry_space_group_name_H-M "P M N A"
_symmetry_group_IT_number 53
_symmetry_cell_setting 'orthorhombic'
loop_
_space_group_symop_operation_xyz
x,y,z
1/2-x,-y,1/2+z
x,-y,-z
1/2-x,y,1/2-z
-x,-y,-z
1/2+x,y,1/2-z
-x,y,z
1/2+x,-y,1/2+z
loop_
_atom_site_type_symbol
_atom_site_label
_atom_site_fract_x
_atom_site_fract_y
_atom_site_fract_z
Si Si1 0.571322 0.147312 0.751806
Si Si2 0.345166 0.369962 0.686250
Si Si3 0.429058 0.146971 0.267035
Si Si4 0.274563 0.362960 0.940953
Si Si5 0.068380 0.419609 0.128431
Si Si6 0.139495 0.851312 0.512040
O O1 0.500000 0.164744 0.748286
O O2 0.605734 0.257492 0.676821
O O3 0.586539 0.002768 0.701964
O O4 0.595819 0.162768 0.892531
O O5 0.306515 0.351855 0.808922
O O6 0.296766 0.362418 0.577424
O O7 0.380445 0.504540 0.701115
O O8 0.500000 0.144421 0.244388
O O9 0.418769 0.265350 0.362393
O O10 0.396590 0.172696 0.137423
O O11 0.291006 0.500000 0.000000
O O12 0.304050 0.243824 0.012067
O O13 0.000000 0.435785 0.175376
O O14 0.069929 0.500000 0.000000
O O15 0.160094 0.000000 0.500000
#
# Coordination Sequence:
#
# PCOD9416977 Si02
#       6
#     8   8   8   8   8   8
#     4   9  17  31  53  80 107 133 163 207 266 324
#     4  10  20  34  51  71  99 133 169 211 253 299
#     4   9  17  31  53  80 106 132 165 208 263 323
#     4  10  20  34  51  71  98 133 171 209 251 301
#     4  10  20  34  51  71  98 132 170 211 252 299
#     4   9  17  31  53  80 107 131 161 209 267 323
#
# _framework density 19.190539000000001
#
# number of rings (size 3 to 8) (size 9 to 14) (size 15 to 20)
#    0.000    2.500    0.000    2.500    0.000    2.000 
#    0.000    4.167    0.000   20.000    0.000    0.000 
#    0.000    0.000    0.000    0.000    0.000    0.000 
#
# Total GULP energy -267316.311346 kJ/mol
# GULP energy per Si atom -5569.089820 kJ/mol
# Density = 1.914686 g / cm^3
# Si number density = 19.190539 Si / 1000 Ang^3
#
#
#
# Elastic Constant Matrix: (Units=GPa)
#
#
# Indices 1 2 3 4 5 6 
#
# 1 80.4075 62.2722 6.4887 0.0000 0.0000 0.0000
# 2 62.2722 143.7252 30.2729 0.0000 0.0000 0.0000
# 3 6.4887 30.2729 31.6193 0.0000 0.0000 0.0000
# 4 0.0000 0.0000 0.0000 25.3796 0.0000 0.0000
# 5 0.0000 0.0000 0.0000 0.0000 0.7548 0.0000
# 6 0.0000 0.0000 0.0000 0.0000 0.0000 28.8675
#
#
#
# Elastic Compliance Matrix: (Units=1/GPa)
#
#
# Indices 1 2 3 4 5 6 
#
# 1 0.019347 -0.009453 0.005080 0.000000 0.000000 0.000000
# 2 -0.009453 0.013334 -0.010826 0.000000 0.000000 0.000000
# 3 0.005080 -0.010826 0.040949 0.000000 0.000000 0.000000
# 4 0.000000 0.000000 0.000000 0.039402 0.000000 0.000000
# 5 0.000000 0.000000 0.000000 0.000000 1.324929 0.000000
# 6 0.000000 0.000000 0.000000 0.000000 0.000000 0.034641
#
#
# Mechanical properties :
#
#
# Convention : Reuss Voigt Hill
#
# Bulk Modulus (GPa) = 23.13092 50.42439 36.77766
# Shear Modulus (GPa) = 3.29509 21.44824 12.37166
#
# Velocity S-wave (km/s) = 1.31178 3.34675 2.54180
# Velocity P-wave (km/s) = 3.79128 6.42394 5.27451
#
# Compressibility (1/GPa) = 0.04323217
#
# Stress axis : x y z
#
# Youngs Moduli (GPa) = 51.68647 74.99847 24.42067
#
# Poissons Ratio (x) = 0.70894 -0.12405
# Poissons Ratio (y) = 0.48858 0.26438
# Poissons Ratio (z) = -0.26256 0.81194
#
# Static dielectric constant tensor:
#      x y z
#    x 1.658650 0.000000 0.000000 
#    y 0.000000 1.687320 0.000000 
#    z 0.000000 0.000000 1.701190 
# 
# From -- ./inp_files/18279.got.cif
#   From: 2010.05.17/outbox.cif.g08.bks.cpg/sg53_10_cif.got.tgz:18279.got - 2010.06.03 12:45:16.
