data_PCOD9416682
_publ_section_title
;
Structure prediction by ZEFSAII (Michael W. Deem and Ramdas Pophale) SiO2 
 PCOD9416682
Probable space group: P M N A
;
_chemical_formula_sum "Si O2"
_cell_formula_units_Z 48
_cell_length_a 8.830503
_cell_length_b 13.106184
_cell_length_c 25.877835
_cell_angle_alpha 90.000000
_cell_angle_beta 90.000000
_cell_angle_gamma 90.000000
_cell_volume 2994.950457
_symmetry_space_group_name_H-M "P M N A"
_symmetry_group_IT_number 53
_symmetry_cell_setting 'orthorhombic'
loop_
_space_group_symop_operation_xyz
x,y,z
1/2-x,-y,1/2+z
x,-y,-z
1/2-x,y,1/2-z
-x,-y,-z
1/2+x,y,1/2-z
-x,y,z
1/2+x,-y,1/2+z
loop_
_atom_site_type_symbol
_atom_site_label
_atom_site_fract_x
_atom_site_fract_y
_atom_site_fract_z
Si Si1 0.818459 0.485965 0.307749
Si Si2 0.183639 0.879412 0.390574
Si Si3 0.181747 0.277888 0.192506
Si Si4 0.173748 0.123577 0.495481
Si Si5 0.180239 0.895889 0.888733
Si Si6 0.682274 0.287596 0.807315
O O1 0.750000 0.488704 0.250000
O O2 0.745734 0.383958 0.330800
O O3 0.781580 0.598755 0.328771
O O4 0.000000 0.474838 0.305866
O O5 0.230713 0.842748 0.448122
O O6 0.231774 0.800870 0.346312
O O7 0.000000 0.884292 0.391527
O O8 0.244862 0.993188 0.381473
O O9 0.250000 0.265387 0.250000
O O10 0.223221 0.183080 0.156170
O O11 0.000000 0.284429 0.196315
O O12 0.268583 0.146768 0.444572
O O13 0.000000 0.157276 0.488193
O O14 0.171906 0.000000 0.500000
O O15 0.000000 0.908281 0.888345
O O16 0.750000 0.275957 0.750000
O O17 0.500000 0.282748 0.802705
#
# Coordination Sequence:
#
# PCOD9416682 Si02
#       6
#     8   8   8   8   8   8
#     4   9  16  28  47  67  87 115 151 186 220 260
#     4   9  18  32  48  67  93 122 150 182 221 266
#     4  10  20  32  46  66  92 120 150 185 224 265
#     4   8  15  29  48  66  85 116 154 186 219 261
#     4  10  20  31  45  68  94 118 148 187 226 264
#     4   9  18  31  47  69  95 120 148 184 223 265
#
# _framework density 16.026976000000001
#
# number of rings (size 3 to 8) (size 9 to 14) (size 15 to 20)
#    0.000    2.833    0.000    3.500    0.000    7.667 
#    0.000    3.333    0.000    1.000    0.000    7.000 
#    0.000    0.000    0.000    0.000    0.000    0.000 
#
# Total GULP energy -267208.352919 kJ/mol
# GULP energy per Si atom -5566.840686 kJ/mol
# Density = 1.599050 g / cm^3
# Si number density = 16.026976 Si / 1000 Ang^3
#
#
#
# Elastic Constant Matrix: (Units=GPa)
#
#
# Indices 1 2 3 4 5 6 
#
# 1 33.2302 35.9850 30.1945 0.0000 0.0000 0.0000
# 2 35.9850 113.7959 70.8226 0.0000 0.0000 0.0000
# 3 30.1945 70.8226 99.2560 0.0000 0.0000 0.0000
# 4 0.0000 0.0000 0.0000 -1.5582 0.0000 0.0000
# 5 0.0000 0.0000 0.0000 0.0000 16.8744 0.0000
# 6 0.0000 0.0000 0.0000 0.0000 0.0000 57.2683
#
#
#
# Elastic Compliance Matrix: (Units=1/GPa)
#
#
# Indices 1 2 3 4 5 6 
#
# 1 0.048196 -0.011001 -0.006812 0.000000 0.000000 0.000000
# 2 -0.011001 0.018319 -0.009724 0.000000 0.000000 0.000000
# 3 -0.006812 -0.009724 0.019086 0.000000 0.000000 0.000000
# 4 0.000000 0.000000 0.000000 -0.641749 0.000000 0.000000
# 5 0.000000 0.000000 0.000000 0.000000 0.059261 0.000000
# 6 0.000000 0.000000 0.000000 0.000000 0.000000 0.017462
#
#
# Mechanical properties :
#
#
# Convention : Reuss Voigt Hill
#
# Bulk Modulus (GPa) = 32.75943 57.80958 45.28450
# Shear Modulus (GPa) = -12.07216 21.80222 4.86503
#
# Velocity S-wave (km/s) = -2.74750 3.69229 1.74417
# Velocity P-wave (km/s) = 3.22793 7.37060 5.68970
#
# Compressibility (1/GPa) = 0.03052556
#
# Stress axis : x y z
#
# Youngs Moduli (GPa) = 20.74867 54.58945 52.39514
#
# Poissons Ratio (x) = 0.60055 0.35690
# Poissons Ratio (y) = 0.22826 0.50950
# Poissons Ratio (z) = 0.14134 0.53084
#
# Static dielectric constant tensor:
#      x y z
#    x 1.541030 0.000000 0.000000 
#    y 0.000000 1.553350 0.000000 
#    z 0.000000 0.000000 1.540870 
# 
# From -- ./inp_files/36173.got.cif
#   From: 2010.05.17/outbox.cif.g08.bks.cpg/sg53_19_cif.got.tgz:36173.got - 2010.06.03 12:45:16.
