data_PCOD9416793
_publ_section_title
;
Structure prediction by ZEFSAII (Michael W. Deem and Ramdas Pophale) SiO2 
 PCOD9416793
Probable space group: P M N A
;
_chemical_formula_sum "Si O2"
_cell_formula_units_Z 64
_cell_length_a 8.924695
_cell_length_b 23.412212
_cell_length_c 16.792038
_cell_angle_alpha 90.000000
_cell_angle_beta 90.000000
_cell_angle_gamma 90.000000
_cell_volume 3508.643468
_symmetry_space_group_name_H-M "P M N A"
_symmetry_group_IT_number 53
_symmetry_cell_setting 'orthorhombic'
loop_
_space_group_symop_operation_xyz
x,y,z
1/2-x,-y,1/2+z
x,-y,-z
1/2-x,y,1/2-z
-x,-y,-z
1/2+x,y,1/2-z
-x,y,z
1/2+x,-y,1/2+z
loop_
_atom_site_type_symbol
_atom_site_label
_atom_site_fract_x
_atom_site_fract_y
_atom_site_fract_z
Si Si1 0.174363 0.365740 0.425272
Si Si2 0.678057 0.465703 0.334722
Si Si3 0.678025 0.134492 0.990852
Si Si4 0.325977 0.426922 0.903312
Si Si5 0.819292 0.923671 0.165317
Si Si6 0.670472 0.037097 0.418522
Si Si7 0.178502 0.742881 0.000872
Si Si8 0.822131 0.317045 0.830204
O O1 0.260687 0.404395 0.362116
O O2 0.180587 0.401387 0.508001
O O3 0.251700 0.305555 0.444237
O O4 0.000000 0.358694 0.403885
O O5 0.750000 0.480411 0.250000
O O6 0.500000 0.465855 0.330919
O O7 0.736517 0.514619 0.394223
O O8 0.500000 0.135762 0.981836
O O9 0.752307 0.112289 0.908230
O O10 0.743512 0.196499 0.009742
O O11 0.725123 0.090000 0.060075
O O12 0.500000 0.436345 0.882490
O O13 0.253625 0.378193 0.847952
O O14 0.750000 0.906937 0.250000
O O15 0.000000 0.918215 0.164994
O O16 0.782642 0.990472 0.146832
O O17 0.500000 0.056440 0.402497
O O18 0.665779 0.000000 0.500000
O O19 0.205101 0.721459 0.091826
O O20 0.000000 0.746754 0.989444
O O21 0.750000 0.292718 0.750000
O O22 0.000000 0.323942 0.820739
#
# Coordination Sequence:
#
# PCOD9416793 Si02
#       8
#     8   8   8   8   8   8   8   8
#     4  10  21  38  58  80 106 136 174 219 268 319
#     4  12  24  37  55  79 107 137 172 215 265 320
#     4  11  21  33  53  79 106 139 180 221 259 305
#     4  10  20  35  55  78 106 137 170 212 261 317
#     4  10  20  34  53  79 112 145 175 213 261 311
#     4   8  16  32  52  74 103 138 173 210 254 301
#     4  10  21  37  55  75 102 139 181 220 261 309
#     4  10  20  33  50  72 101 137 174 213 258 311
#
# _framework density 18.240667999999999
#
# number of rings (size 3 to 8) (size 9 to 14) (size 15 to 20)
#    0.000    1.875    0.000    5.625    0.000    7.750 
#    0.000    1.250    0.000    0.750    0.000    3.500 
#    0.000    0.000    0.000    0.000    0.000    0.000 
#
# Total GULP energy -357413.736536 kJ/mol
# GULP energy per Si atom -5584.589633 kJ/mol
# Density = 1.819915 g / cm^3
# Si number density = 18.240668 Si / 1000 Ang^3
#
#
#
# Elastic Constant Matrix: (Units=GPa)
#
#
# Indices 1 2 3 4 5 6 
#
# 1 120.7050 59.6687 9.3642 0.0000 0.0000 0.0000
# 2 59.6687 115.0426 5.7636 0.0000 0.0000 0.0000
# 3 9.3642 5.7636 10.0202 0.0000 0.0000 0.0000
# 4 0.0000 0.0000 0.0000 11.5698 0.0000 0.0000
# 5 0.0000 0.0000 0.0000 0.0000 23.8441 0.0000
# 6 0.0000 0.0000 0.0000 0.0000 0.0000 29.9622
#
#
#
# Elastic Compliance Matrix: (Units=1/GPa)
#
#
# Indices 1 2 3 4 5 6 
#
# 1 0.011685 -0.005677 -0.007654 0.000000 0.000000 0.000000
# 2 -0.005677 0.011709 -0.001429 0.000000 0.000000 0.000000
# 3 -0.007654 -0.001429 0.107774 0.000000 0.000000 0.000000
# 4 0.000000 0.000000 0.000000 0.086432 0.000000 0.000000
# 5 0.000000 0.000000 0.000000 0.000000 0.041939 0.000000
# 6 0.000000 0.000000 0.000000 0.000000 0.000000 0.033375
#
#
# Mechanical properties :
#
#
# Convention : Reuss Voigt Hill
#
# Bulk Modulus (GPa) = 9.83810 43.92898 26.88354
# Shear Modulus (GPa) = 14.03243 24.47331 19.25287
#
# Velocity S-wave (km/s) = 2.77662 3.66688 3.25236
# Velocity P-wave (km/s) = 3.96039 6.48562 5.37345
#
# Compressibility (1/GPa) = 0.10164565
#
# Stress axis : x y z
#
# Youngs Moduli (GPa) = 85.58088 85.40777 9.27868
#
# Poissons Ratio (x) = 0.48486 0.07102
# Poissons Ratio (y) = 0.48585 0.01326
# Poissons Ratio (z) = 0.65507 0.12208
#
# Static dielectric constant tensor:
#      x y z
#    x 1.605280 0.000000 0.000000 
#    y 0.000000 1.623210 0.000000 
#    z 0.000000 0.000000 1.637600 
# 
# From -- ./inp_files/26902.got.cif
#   From: 2010.05.17/outbox.cif.g08.bks.cpg/sg53_14_cif.got.tgz:26902.got - 2010.06.03 12:45:16.
