data_PCOD9416887
_publ_section_title
;
Structure prediction by ZEFSAII (Michael W. Deem and Ramdas Pophale) SiO2 
 PCOD9416887
Probable space group: P M N A
;
_chemical_formula_sum "Si O2"
_cell_formula_units_Z 56
_cell_length_a 7.749929
_cell_length_b 19.933680
_cell_length_c 18.494620
_cell_angle_alpha 90.000000
_cell_angle_beta 90.000000
_cell_angle_gamma 90.000000
_cell_volume 2857.134060
_symmetry_space_group_name_H-M "P M N A"
_symmetry_group_IT_number 53
_symmetry_cell_setting 'orthorhombic'
loop_
_space_group_symop_operation_xyz
x,y,z
1/2-x,-y,1/2+z
x,-y,-z
1/2-x,y,1/2-z
-x,-y,-z
1/2+x,y,1/2-z
-x,y,z
1/2+x,-y,1/2+z
loop_
_atom_site_type_symbol
_atom_site_label
_atom_site_fract_x
_atom_site_fract_y
_atom_site_fract_z
Si Si1 0.711205 0.286164 0.965423
Si Si2 0.788397 0.082289 0.078822
Si Si3 0.706686 0.066616 0.587265
Si Si4 0.205928 0.636128 0.829709
Si Si5 0.703205 0.800155 0.167652
Si Si6 0.296130 0.572387 0.979483
Si Si7 0.297971 0.223228 0.381996
O O1 0.500000 0.284792 0.969081
O O2 0.774156 0.251473 0.892080
O O3 0.770362 0.362809 0.976766
O O4 0.779446 0.244684 0.034085
O O5 0.725638 0.147861 0.121666
O O6 0.000000 0.084582 0.079555
O O7 0.733425 0.008752 0.105719
O O8 0.733976 0.085130 0.994213
O O9 0.500000 0.063221 0.582977
O O10 0.751508 0.124683 0.642794
O O11 0.250000 0.611541 0.750000
O O12 0.274024 0.591152 0.895303
O O13 0.276379 0.712564 0.839706
O O14 0.000000 0.638684 0.838137
O O15 0.750000 0.786961 0.250000
O O16 0.500000 0.794000 0.162286
O O17 0.500000 0.569752 0.995164
O O18 0.221453 0.500000 0.000000
O O19 0.500000 0.219209 0.362686
#
# Coordination Sequence:
#
# PCOD9416887 Si02
#       7
#     8   8   8   8   8   8   8
#     4   9  18  32  50  74 100 126 163 206 248 296
#     4   8  14  26  48  74  96 124 162 206 253 302
#     4   9  16  29  49  70  95 128 166 207 253 303
#     4  10  20  33  52  78 108 140 171 207 249 300
#     4  11  22  34  48  68  97 133 171 213 257 300
#     4   9  18  35  59  82 106 135 165 204 253 303
#     4   9  16  29  51  75  98 129 169 206 245 296
#
# _framework density 19.600059999999999
#
# number of rings (size 3 to 8) (size 9 to 14) (size 15 to 20)
#    0.000    2.714    1.429    1.714    0.000    1.429 
#    0.000    3.571    0.000    3.429    0.000    0.000 
#    0.000    0.000    0.000    0.000    0.000    0.000 
#
# Total GULP energy -312149.641449 kJ/mol
# GULP energy per Si atom -5574.100740 kJ/mol
# Density = 1.955545 g / cm^3
# Si number density = 19.600060 Si / 1000 Ang^3
#
#
#
# Elastic Constant Matrix: (Units=GPa)
#
#
# Indices 1 2 3 4 5 6 
#
# 1 21.9283 -6.4420 -19.1015 0.0000 0.0000 0.0000
# 2 -6.4420 139.7159 39.8357 0.0000 0.0000 0.0000
# 3 -19.1015 39.8357 73.9502 0.0000 0.0000 0.0000
# 4 0.0000 0.0000 0.0000 18.2724 0.0000 0.0000
# 5 0.0000 0.0000 0.0000 0.0000 0.4492 0.0000
# 6 0.0000 0.0000 0.0000 0.0000 0.0000 10.2843
#
#
#
# Elastic Compliance Matrix: (Units=1/GPa)
#
#
# Indices 1 2 3 4 5 6 
#
# 1 0.059280 -0.001929 0.016351 0.000000 0.000000 0.000000
# 2 -0.001929 0.008519 -0.005087 0.000000 0.000000 0.000000
# 3 0.016351 -0.005087 0.020486 0.000000 0.000000 0.000000
# 4 0.000000 0.000000 0.000000 0.054727 0.000000 0.000000
# 5 0.000000 0.000000 0.000000 0.000000 2.226209 0.000000
# 6 0.000000 0.000000 0.000000 0.000000 0.000000 0.097236
#
#
# Mechanical properties :
#
#
# Convention : Reuss Voigt Hill
#
# Bulk Modulus (GPa) = 9.34971 29.35322 19.35146
# Shear Modulus (GPa) = 2.01334 20.55466 11.28400
#
# Velocity S-wave (km/s) = 1.01461 3.24188 2.40200
# Velocity P-wave (km/s) = 2.48056 5.38718 4.19374
#
# Compressibility (1/GPa) = 0.10695518
#
# Stress axis : x y z
#
# Youngs Moduli (GPa) = 16.86920 117.38605 48.81270
#
# Poissons Ratio (x) = 0.22641 -0.79814
# Poissons Ratio (y) = 0.03254 0.24832
# Poissons Ratio (z) = -0.27583 0.59716
#
# Static dielectric constant tensor:
#      x y z
#    x 1.717270 0.000000 0.000000 
#    y 0.000000 1.746190 0.000000 
#    z 0.000000 0.000000 1.646860 
# 
# From -- ./inp_files/26711.got.cif
#   From: 2010.05.17/outbox.cif.g08.bks.cpg/sg53_14_cif.got.tgz:26711.got - 2010.06.03 12:45:16.
