data_PCOD9416433
_publ_section_title
;
Structure prediction by ZEFSAII (Michael W. Deem and Ramdas Pophale) SiO2 
 PCOD9416433
Probable space group: P M N A
;
_chemical_formula_sum "Si O2"
_cell_formula_units_Z 56
_cell_length_a 21.028680
_cell_length_b 14.225552
_cell_length_c 9.628219
_cell_angle_alpha 90.000000
_cell_angle_beta 90.000000
_cell_angle_gamma 90.000000
_cell_volume 2880.229537
_symmetry_space_group_name_H-M "P M N A"
_symmetry_group_IT_number 53
_symmetry_cell_setting 'orthorhombic'
loop_
_space_group_symop_operation_xyz
x,y,z
1/2-x,-y,1/2+z
x,-y,-z
1/2-x,y,1/2-z
-x,-y,-z
1/2+x,y,1/2-z
-x,y,z
1/2+x,-y,1/2+z
loop_
_atom_site_type_symbol
_atom_site_label
_atom_site_fract_x
_atom_site_fract_y
_atom_site_fract_z
Si Si1 0.122867 0.107202 0.983333
Si Si2 0.925919 0.564802 0.363355
Si Si3 0.631994 0.246608 0.989826
Si Si4 0.229206 0.753268 0.101388
Si Si5 0.188293 0.542940 0.155805
Si Si6 0.074250 0.078355 0.680868
Si Si7 0.426402 0.863581 0.782015
O O1 0.181737 0.176732 0.972152
O O2 0.083096 0.107461 0.841446
O O3 0.082315 0.134196 0.117272
O O4 0.145577 0.000000 0.000000
O O5 0.920459 0.500000 0.500000
O O6 0.905123 0.668406 0.416208
O O7 0.876073 0.530031 0.246025
O O8 0.000000 0.564891 0.318111
O O9 0.706485 0.266581 0.981386
O O10 0.614909 0.151407 0.906794
O O11 0.610794 0.220517 0.144734
O O12 0.250000 0.795462 0.250000
O O13 0.195653 0.655028 0.135214
O O14 0.250000 0.513401 0.250000
O O15 0.187972 0.500000 0.000000
O O16 0.000000 0.085266 0.642803
O O17 0.093526 0.968777 0.668626
O O18 0.500000 0.852649 0.818002
#
# Coordination Sequence:
#
# PCOD9416433 Si02
#       7
#     8   8   8   8   8   8   8
#     4  10  21  38  57  84 122 163 199 252 309 351
#     4  11  24  42  65  96 130 162 199 254 319 375
#     4  12  22  38  61  86 122 160 201 249 302 363
#     4  11  22  41  61  88 118 155 210 248 289 371
#     4  11  23  44  71  94 120 161 210 256 313 377
#     4  10  19  35  60  84 113 161 210 251 299 360
#     4  10  22  37  56  88 121 155 205 254 304 363
#
# _framework density 19.442893999999999
#
# number of rings (size 3 to 8) (size 9 to 14) (size 15 to 20)
#    0.000    1.286    4.286    2.571    0.000    6.000 
#    0.000    0.714    0.000    0.000    0.000    0.000 
#    0.000    0.000    0.000    0.000    0.000    0.000 
#
# Total GULP energy -312704.006517 kJ/mol
# GULP energy per Si atom -5584.000116 kJ/mol
# Density = 1.939864 g / cm^3
# Si number density = 19.442894 Si / 1000 Ang^3
#
#
#
# Elastic Constant Matrix: (Units=GPa)
#
#
# Indices 1 2 3 4 5 6 
#
# 1 122.1804 30.2376 38.9402 0.0000 0.0000 0.0000
# 2 30.2376 30.8842 24.5586 0.0000 0.0000 0.0000
# 3 38.9402 24.5586 106.7151 0.0000 0.0000 0.0000
# 4 0.0000 0.0000 0.0000 25.1677 0.0000 0.0000
# 5 0.0000 0.0000 0.0000 0.0000 21.3752 0.0000
# 6 0.0000 0.0000 0.0000 0.0000 0.0000 240.4895
#
#
#
# Elastic Compliance Matrix: (Units=1/GPa)
#
#
# Indices 1 2 3 4 5 6 
#
# 1 0.011107 -0.009366 -0.001898 0.000000 0.000000 0.000000
# 2 -0.009366 0.047529 -0.007520 0.000000 0.000000 0.000000
# 3 -0.001898 -0.007520 0.011794 0.000000 0.000000 0.000000
# 4 0.000000 0.000000 0.000000 0.039733 0.000000 0.000000
# 5 0.000000 0.000000 0.000000 0.000000 0.046783 0.000000
# 6 0.000000 0.000000 0.000000 0.000000 0.000000 0.004158
#
#
# Mechanical properties :
#
#
# Convention : Reuss Voigt Hill
#
# Bulk Modulus (GPa) = 30.42997 49.69473 40.06235
# Shear Modulus (GPa) = 23.85196 68.47604 46.16400
#
# Velocity S-wave (km/s) = 3.50633 5.94100 4.87800
# Velocity P-wave (km/s) = 5.66369 8.52499 7.23716
#
# Compressibility (1/GPa) = 0.03286234
#
# Stress axis : x y z
#
# Youngs Moduli (GPa) = 90.03090 21.03989 84.78968
#
# Poissons Ratio (x) = 0.19705 0.16090
# Poissons Ratio (y) = 0.84321 0.63765
# Poissons Ratio (z) = 0.17085 0.15823
#
# Static dielectric constant tensor:
#      x y z
#    x 1.660500 0.000000 0.000000 
#    y 0.000000 1.665940 0.000000 
#    z 0.000000 0.000000 1.721180 
# 
# From -- ./inp_files/11066.got.cif
#   From: 2010.05.17/outbox.cif.g08.bks.cpg/sg53_6_cif.got.tgz:11066.got - 2010.06.03 12:45:16.
