data_PCOD9416532
_publ_section_title
;
Structure prediction by ZEFSAII (Michael W. Deem and Ramdas Pophale) SiO2 
 PCOD9416532
Probable space group: P M N A
;
_chemical_formula_sum "Si O2"
_cell_formula_units_Z 28
_cell_length_a 8.652211
_cell_length_b 10.123954
_cell_length_c 16.270111
_cell_angle_alpha 90.000000
_cell_angle_beta 90.000000
_cell_angle_gamma 90.000000
_cell_volume 1425.173640
_symmetry_space_group_name_H-M "P M N A"
_symmetry_group_IT_number 53
_symmetry_cell_setting 'orthorhombic'
loop_
_space_group_symop_operation_xyz
x,y,z
1/2-x,-y,1/2+z
x,-y,-z
1/2-x,y,1/2-z
-x,-y,-z
1/2+x,y,1/2-z
-x,y,z
1/2+x,-y,1/2+z
loop_
_atom_site_type_symbol
_atom_site_label
_atom_site_fract_x
_atom_site_fract_y
_atom_site_fract_z
Si Si1 0.250000 0.627995 0.750000
Si Si2 0.000000 0.055682 0.863740
Si Si3 0.331945 0.399615 0.873835
Si Si4 0.250000 0.827106 0.250000
Si Si5 0.000000 0.331905 0.955026
Si Si6 0.000000 0.245868 0.135364
O O1 0.328027 0.527662 0.815153
O O2 0.357579 0.717769 0.693669
O O3 0.856017 0.081853 0.804910
O O4 0.000000 0.178048 0.926684
O O5 0.000000 0.906046 0.892483
O O6 0.500000 0.398566 0.918858
O O7 0.331703 0.273175 0.813204
O O8 0.164761 0.389275 0.920519
O O9 0.000000 0.334211 0.053279
#
# Coordination Sequence:
#
# PCOD9416532 Si02
#       6
#     4   4   8   4   4   4
#     4  11  23  38  62  88 123 161 198 250 310 365
#     4  10  19  36  62  87 124 164 200 250 298 349
#     4  10  19  39  64  92 120 154 210 258 295 356
#     4   9  17  32  62  94 111 157 218 252 288 345
#     4  10  24  40  67  91 118 165 206 250 303 357
#     4  12  24  42  57  91 130 159 198 248 311 371
#
# _framework density 19.646728
#
# number of rings (size 3 to 8) (size 9 to 14) (size 15 to 20)
#    0.000    1.714    2.857    2.143    4.000    2.286 
#    2.571    1.429    0.000    3.429    0.000    0.000 
#    0.000    0.000    0.000    0.000    0.000    0.000 
#
# Total GULP energy -155976.414299 kJ/mol
# GULP energy per Si atom -5570.586225 kJ/mol
# Density = 1.960201 g / cm^3
# Si number density = 19.646728 Si / 1000 Ang^3
#
#
#
# Elastic Constant Matrix: (Units=GPa)
#
#
# Indices 1 2 3 4 5 6 
#
# 1 161.1822 37.6537 60.0878 0.0000 0.0000 0.0000
# 2 37.6537 91.2743 17.5315 0.0000 0.0000 0.0000
# 3 60.0878 17.5315 107.1603 0.0000 0.0000 0.0000
# 4 0.0000 0.0000 0.0000 27.3173 0.0000 0.0000
# 5 0.0000 0.0000 0.0000 0.0000 42.0317 0.0000
# 6 0.0000 0.0000 0.0000 0.0000 0.0000 19.6298
#
#
#
# Elastic Compliance Matrix: (Units=1/GPa)
#
#
# Indices 1 2 3 4 5 6 
#
# 1 0.008422 -0.002651 -0.004289 0.000000 0.000000 0.000000
# 2 -0.002651 0.012146 -0.000501 0.000000 0.000000 0.000000
# 3 -0.004289 -0.000501 0.011819 0.000000 0.000000 0.000000
# 4 0.000000 0.000000 0.000000 0.036607 0.000000 0.000000
# 5 0.000000 0.000000 0.000000 0.000000 0.023792 0.000000
# 6 0.000000 0.000000 0.000000 0.000000 0.000000 0.050943
#
#
# Mechanical properties :
#
#
# Convention : Reuss Voigt Hill
#
# Bulk Modulus (GPa) = 57.12368 65.57367 61.34867
# Shear Modulus (GPa) = 30.40553 34.08537 32.24545
#
# Velocity S-wave (km/s) = 3.93824 4.16975 4.05565
# Velocity P-wave (km/s) = 7.05820 7.52537 7.29553
#
# Compressibility (1/GPa) = 0.01750588
#
# Stress axis : x y z
#
# Youngs Moduli (GPa) = 118.73267 82.33399 84.61187
#
# Poissons Ratio (x) = 0.21824 0.36290
# Poissons Ratio (y) = 0.31472 0.04237
# Poissons Ratio (z) = 0.50924 0.04123
#
# Static dielectric constant tensor:
#      x y z
#    x 1.766010 0.000000 0.000000 
#    y 0.000000 1.670100 0.000000 
#    z 0.000000 0.000000 1.657560 
# 
# From -- ./inp_files/25687.got.cif
#   From: 2010.05.17/outbox.cif.g08.bks.cpg/sg53_13_cif.got.tgz:25687.got - 2010.06.03 12:45:16.
