data_PCOD9416348
_publ_section_title
;
Structure prediction by ZEFSAII (Michael W. Deem and Ramdas Pophale) SiO2 
 PCOD9416348
Probable space group: P M N A
;
_chemical_formula_sum "Si O2"
_cell_formula_units_Z 32
_cell_length_a 7.832930
_cell_length_b 12.946213
_cell_length_c 12.840657
_cell_angle_alpha 90.000000
_cell_angle_beta 90.000000
_cell_angle_gamma 90.000000
_cell_volume 1302.129682
_symmetry_space_group_name_H-M "P M N A"
_symmetry_group_IT_number 53
_symmetry_cell_setting 'orthorhombic'
loop_
_space_group_symop_operation_xyz
x,y,z
1/2-x,-y,1/2+z
x,-y,-z
1/2-x,y,1/2-z
-x,-y,-z
1/2+x,y,1/2-z
-x,y,z
1/2+x,-y,1/2+z
loop_
_atom_site_type_symbol
_atom_site_label
_atom_site_fract_x
_atom_site_fract_y
_atom_site_fract_z
Si Si1 0.295966 0.077357 0.140049
Si Si2 0.807071 0.595191 0.865270
Si Si3 0.290887 0.851661 0.083378
Si Si4 0.196418 0.630134 0.407305
O O1 0.250000 0.124892 0.250000
O O2 0.500000 0.072777 0.132063
O O3 0.236133 0.135190 0.037054
O O4 0.232839 0.958333 0.135469
O O5 0.750000 0.626620 0.750000
O O6 0.796896 0.470020 0.870459
O O7 0.000000 0.628880 0.883189
O O8 0.699722 0.629956 0.965776
O O9 0.500000 0.848674 0.086560
O O10 0.232915 0.741551 0.125761
O O11 0.000000 0.617522 0.373862
#
# Coordination Sequence:
#
# PCOD9416348 Si02
#       4
#     8   8   8   8
#     4   9  17  33  52  74 102 135 169 205 246 296
#     4  11  22  37  54  76 104 137 172 213 258 308
#     4   8  17  33  53  73 102 137 167 200 251 306
#     4  10  19  35  56  79 104 135 171 214 260 306
#
# _framework density 24.575123000000001
#
# number of rings (size 3 to 8) (size 9 to 14) (size 15 to 20)
#    0.000    2.500    0.000    6.000    0.000    2.000 
#    0.000   12.500    0.000    0.000    0.000    0.000 
#    0.000    0.000    0.000    0.000    0.000    0.000 
#
# Total GULP energy -178887.543612 kJ/mol
# GULP energy per Si atom -5590.235738 kJ/mol
# Density = 2.451919 g / cm^3
# Si number density = 24.575123 Si / 1000 Ang^3
#
#
#
# Elastic Constant Matrix: (Units=GPa)
#
#
# Indices 1 2 3 4 5 6 
#
# 1 56.9640 -4.4763 -10.1740 0.0000 0.0000 0.0000
# 2 -4.4763 125.1803 -4.5445 0.0000 0.0000 0.0000
# 3 -10.1740 -4.5445 125.1679 0.0000 0.0000 0.0000
# 4 0.0000 0.0000 0.0000 -18.7510 0.0000 0.0000
# 5 0.0000 0.0000 0.0000 0.0000 -15.6878 0.0000
# 6 0.0000 0.0000 0.0000 0.0000 0.0000 7.6178
#
#
#
# Elastic Compliance Matrix: (Units=1/GPa)
#
#
# Indices 1 2 3 4 5 6 
#
# 1 0.017873 0.000693 0.001478 0.000000 0.000000 0.000000
# 2 0.000693 0.008026 0.000348 0.000000 0.000000 0.000000
# 3 0.001478 0.000348 0.008122 0.000000 0.000000 0.000000
# 4 0.000000 0.000000 0.000000 -0.053330 0.000000 0.000000
# 5 0.000000 0.000000 0.000000 0.000000 -0.063744 0.000000
# 6 0.000000 0.000000 0.000000 0.000000 0.000000 0.131271
#
#
# Mechanical properties :
#
#
# Convention : Reuss Voigt Hill
#
# Bulk Modulus (GPa) = 25.60286 29.88030 27.74158
# Shear Modulus (GPa) = 88.96716 16.40294 52.68505
#
# Velocity S-wave (km/s) = 6.02335 2.58633 4.63518
# Velocity P-wave (km/s) = 7.66910 4.59390 6.32135
#
# Compressibility (1/GPa) = 0.03905814
#
# Stress axis : x y z
#
# Youngs Moduli (GPa) = 55.94919 124.59705 123.12202
#
# Poissons Ratio (x) = -0.08632 -0.18197
# Poissons Ratio (y) = -0.03876 -0.04281
# Poissons Ratio (z) = -0.08269 -0.04332
#
# Static dielectric constant tensor:
#      x y z
#    x 1.856470 0.000000 0.000000 
#    y 0.000000 1.974320 0.000000 
#    z 0.000000 0.000000 1.961320 
# 
# From -- ./inp_files/13704.got.cif
#   From: 2010.05.17/outbox.cif.g08.bks.cpg/sg53_7_cif.got.tgz:13704.got - 2010.06.03 12:45:16.
