data_PCOD9416919
_publ_section_title
;
Structure prediction by ZEFSAII (Michael W. Deem and Ramdas Pophale) SiO2 
 PCOD9416919
Probable space group: P M N A
;
_chemical_formula_sum "Si O2"
_cell_formula_units_Z 56
_cell_length_a 15.197054
_cell_length_b 9.607522
_cell_length_c 19.717879
_cell_angle_alpha 90.000000
_cell_angle_beta 90.000000
_cell_angle_gamma 90.000000
_cell_volume 2878.929245
_symmetry_space_group_name_H-M "P M N A"
_symmetry_group_IT_number 53
_symmetry_cell_setting 'orthorhombic'
loop_
_space_group_symop_operation_xyz
x,y,z
1/2-x,-y,1/2+z
x,-y,-z
1/2-x,y,1/2-z
-x,-y,-z
1/2+x,y,1/2-z
-x,y,z
1/2+x,-y,1/2+z
loop_
_atom_site_type_symbol
_atom_site_label
_atom_site_fract_x
_atom_site_fract_y
_atom_site_fract_z
Si Si1 0.180399 0.258230 0.805778
Si Si2 0.600798 0.975070 0.702865
Si Si3 0.724427 0.696708 0.947858
Si Si4 0.393923 0.203005 0.172663
Si Si5 0.604670 0.872567 0.553316
Si Si6 0.101699 0.484397 0.719148
Si Si7 0.200097 0.382136 0.591232
O O1 0.250000 0.206763 0.750000
O O2 0.152606 0.409810 0.779490
O O3 0.227142 0.280939 0.876835
O O4 0.107361 0.141003 0.803429
O O5 0.500000 0.930424 0.707287
O O6 0.637792 0.912503 0.773083
O O7 0.630681 0.917481 0.630191
O O8 0.666078 0.784534 0.894484
O O9 0.820728 0.758985 0.962677
O O10 0.734988 0.538974 0.920571
O O11 0.672785 0.678590 0.018999
O O12 0.500000 0.189297 0.157152
O O13 0.381463 0.352710 0.209373
O O14 0.500000 0.831174 0.552593
O O15 0.612216 0.000000 0.500000
O O16 0.128011 0.404442 0.649880
O O17 0.000000 0.465553 0.732230
#
# Coordination Sequence:
#
# PCOD9416919 Si02
#       7
#     8   8   8   8   8   8   8
#     4  10  20  33  53  80 112 146 188 230 282 340
#     4  10  21  36  54  81 112 144 191 239 282 343
#     4  10  20  37  60  80 117 154 191 241 292 337
#     4   9  20  36  58  89 116 147 195 237 286 355
#     4  10  22  38  56  79 111 151 197 239 284 345
#     4   9  18  35  58  82 113 150 186 238 293 341
#     4   9  20  36  54  86 113 147 196 238 280 360
#
# _framework density 19.451677
#
# number of rings (size 3 to 8) (size 9 to 14) (size 15 to 20)
#    0.000    2.429    0.000    1.286    4.000    0.571 
#    0.000    5.714    0.000    0.429    0.000    0.000 
#    0.000    0.000    0.000    0.000    0.000    0.000 
#
# Total GULP energy -311820.797252 kJ/mol
# GULP energy per Si atom -5568.228522 kJ/mol
# Density = 1.940740 g / cm^3
# Si number density = 19.451677 Si / 1000 Ang^3
#
#
#
# Elastic Constant Matrix: (Units=GPa)
#
#
# Indices 1 2 3 4 5 6 
#
# 1 35.9139 10.7263 1.5420 0.0000 0.0000 0.0000
# 2 10.7263 29.7643 15.2256 0.0000 0.0000 0.0000
# 3 1.5420 15.2256 96.5182 0.0000 0.0000 0.0000
# 4 0.0000 0.0000 0.0000 52.1157 0.0000 0.0000
# 5 0.0000 0.0000 0.0000 0.0000 18.6517 0.0000
# 6 0.0000 0.0000 0.0000 0.0000 0.0000 26.4815
#
#
#
# Elastic Compliance Matrix: (Units=1/GPa)
#
#
# Indices 1 2 3 4 5 6 
#
# 1 0.031375 -0.012020 0.001395 0.000000 0.000000 0.000000
# 2 -0.012020 0.041152 -0.006300 0.000000 0.000000 0.000000
# 3 0.001395 -0.006300 0.011332 0.000000 0.000000 0.000000
# 4 0.000000 0.000000 0.000000 0.019188 0.000000 0.000000
# 5 0.000000 0.000000 0.000000 0.000000 0.053614 0.000000
# 6 0.000000 0.000000 0.000000 0.000000 0.000000 0.037762
#
#
# Mechanical properties :
#
#
# Convention : Reuss Voigt Hill
#
# Bulk Modulus (GPa) = 19.99656 24.13160 22.06408
# Shear Modulus (GPa) = 20.41298 28.42993 24.42145
#
# Velocity S-wave (km/s) = 3.24299 3.82719 3.54714
# Velocity P-wave (km/s) = 4.93205 5.65356 5.30508
#
# Compressibility (1/GPa) = 0.05000860
#
# Stress axis : x y z
#
# Youngs Moduli (GPa) = 31.87299 24.30043 88.24405
#
# Poissons Ratio (x) = 0.29210 -0.12309
# Poissons Ratio (y) = 0.38312 0.55590
# Poissons Ratio (z) = -0.04446 0.15308
#
# Static dielectric constant tensor:
#      x y z
#    x 1.674670 0.000000 0.000000 
#    y 0.000000 1.680140 0.000000 
#    z 0.000000 0.000000 1.686120 
# 
# From -- ./inp_files/32437.got.cif
#   From: 2010.05.17/outbox.cif.g08.bks.cpg/sg53_17_cif.got.tgz:32437.got - 2010.06.03 12:45:16.
