data_PCOD9416501
_publ_section_title
;
Structure prediction by ZEFSAII (Michael W. Deem and Ramdas Pophale) SiO2 
 PCOD9416501
Probable space group: P M N A
;
_chemical_formula_sum "Si O2"
_cell_formula_units_Z 64
_cell_length_a 8.806498
_cell_length_b 20.653528
_cell_length_c 19.752699
_cell_angle_alpha 90.000000
_cell_angle_beta 90.000000
_cell_angle_gamma 90.000000
_cell_volume 3592.724656
_symmetry_space_group_name_H-M "P M N A"
_symmetry_group_IT_number 53
_symmetry_cell_setting 'orthorhombic'
loop_
_space_group_symop_operation_xyz
x,y,z
1/2-x,-y,1/2+z
x,-y,-z
1/2-x,y,1/2-z
-x,-y,-z
1/2+x,y,1/2-z
-x,y,z
1/2+x,-y,1/2+z
loop_
_atom_site_type_symbol
_atom_site_label
_atom_site_fract_x
_atom_site_fract_y
_atom_site_fract_z
Si Si1 0.182497 0.641572 0.676993
Si Si2 0.819662 0.687978 0.960557
Si Si3 0.817567 0.489832 0.678184
Si Si4 0.818997 0.987901 0.822221
Si Si5 0.682372 0.809092 0.040313
Si Si6 0.682262 0.139723 0.676837
Si Si7 0.179276 0.431507 0.538361
Si Si8 0.182444 0.062391 0.456202
O O1 0.250000 0.660337 0.750000
O O2 0.249048 0.681458 0.614455
O O3 0.224146 0.565389 0.666214
O O4 0.000000 0.646118 0.677832
O O5 0.000000 0.694248 0.956020
O O6 0.749191 0.747335 0.002123
O O7 0.773550 0.622877 0.000530
O O8 0.750000 0.469876 0.750000
O O9 0.770707 0.445712 0.615163
O O10 0.000000 0.488054 0.681251
O O11 0.750000 0.969305 0.750000
O O12 0.756062 0.944934 0.882953
O O13 0.000000 0.984426 0.819456
O O14 0.776521 0.063647 0.834526
O O15 0.500000 0.804676 0.044394
O O16 0.749852 0.819508 0.115113
O O17 0.722567 0.872757 0.996344
O O18 0.750000 0.157948 0.750000
O O19 0.500000 0.144709 0.678154
O O20 0.190487 0.500000 0.500000
O O21 0.000000 0.413127 0.537431
O O22 0.000000 0.060242 0.449127
O O23 0.230216 0.000000 0.500000
#
# Coordination Sequence:
#
# PCOD9416501 Si02
#       8
#     8   8   8   8   8   8   8   8
#     4  10  19  36  59  86 116 151 192 235 287 344
#     4  12  25  39  57  86 120 155 196 243 289 346
#     4   9  18  32  55  84 115 148 185 234 286 341
#     4  10  20  33  55  85 119 153 189 236 289 343
#     4  11  23  40  61  84 116 157 195 241 293 347
#     4  10  20  35  57  86 117 151 192 237 285 345
#     4  10  19  37  60  83 113 151 192 236 289 344
#     4  10  20  36  59  86 114 145 189 238 288 343
#
# _framework density 17.813777999999999
#
# number of rings (size 3 to 8) (size 9 to 14) (size 15 to 20)
#    0.000    1.750    2.500    2.625    0.000    3.500 
#    0.000    1.250    0.000    4.500    0.000    0.000 
#    0.000    0.000    0.000    0.000    0.000    0.000 
#
# Total GULP energy -357458.343476 kJ/mol
# GULP energy per Si atom -5585.286617 kJ/mol
# Density = 1.777323 g / cm^3
# Si number density = 17.813778 Si / 1000 Ang^3
#
#
#
# Elastic Constant Matrix: (Units=GPa)
#
#
# Indices 1 2 3 4 5 6 
#
# 1 61.3476 39.9356 59.9219 0.0000 0.0000 0.0000
# 2 39.9356 70.8300 59.5978 0.0000 0.0000 0.0000
# 3 59.9219 59.5978 180.8079 0.0000 0.0000 0.0000
# 4 0.0000 0.0000 0.0000 29.3891 0.0000 0.0000
# 5 0.0000 0.0000 0.0000 0.0000 36.8875 0.0000
# 6 0.0000 0.0000 0.0000 0.0000 0.0000 46.5777
#
#
#
# Elastic Compliance Matrix: (Units=1/GPa)
#
#
# Indices 1 2 3 4 5 6 
#
# 1 0.029824 -0.011761 -0.006008 0.000000 0.000000 0.000000
# 2 -0.011761 0.024175 -0.004071 0.000000 0.000000 0.000000
# 3 -0.006008 -0.004071 0.008864 0.000000 0.000000 0.000000
# 4 0.000000 0.000000 0.000000 0.034026 0.000000 0.000000
# 5 0.000000 0.000000 0.000000 0.000000 0.027109 0.000000
# 6 0.000000 0.000000 0.000000 0.000000 0.000000 0.021470
#
#
# Mechanical properties :
#
#
# Convention : Reuss Voigt Hill
#
# Bulk Modulus (GPa) = 52.12612 70.21069 61.16840
# Shear Modulus (GPa) = 25.57012 32.80621 29.18817
#
# Velocity S-wave (km/s) = 3.79279 4.29607 4.05225
# Velocity P-wave (km/s) = 6.96460 8.00672 7.50377
#
# Compressibility (1/GPa) = 0.01918424
#
# Stress axis : x y z
#
# Youngs Moduli (GPa) = 33.52949 41.36588 112.82223
#
# Poissons Ratio (x) = 0.48650 0.67779
# Poissons Ratio (y) = 0.39433 0.45927
# Poissons Ratio (z) = 0.20143 0.16839
#
# Static dielectric constant tensor:
#      x y z
#    x 1.593460 0.000000 0.000000 
#    y 0.000000 1.591430 0.000000 
#    z 0.000000 0.000000 1.598930 
# 
# From -- ./inp_files/26769.got.cif
#   From: 2010.05.17/outbox.cif.g08.bks.cpg/sg53_14_cif.got.tgz:26769.got - 2010.06.03 12:45:16.
