data_PCOD9416400
_publ_section_title
;
Structure prediction by ZEFSAII (Michael W. Deem and Ramdas Pophale) SiO2 
 PCOD9416400
Probable space group: P M N A
;
_chemical_formula_sum "Si O2"
_cell_formula_units_Z 54
_cell_length_a 29.284503
_cell_length_b 5.104027
_cell_length_c 17.582275
_cell_angle_alpha 90.000000
_cell_angle_beta 90.000000
_cell_angle_gamma 90.000000
_cell_volume 2628.003198
_symmetry_space_group_name_H-M "P M N A"
_symmetry_group_IT_number 53
_symmetry_cell_setting 'orthorhombic'
loop_
_space_group_symop_operation_xyz
x,y,z
1/2-x,-y,1/2+z
x,-y,-z
1/2-x,y,1/2-z
-x,-y,-z
1/2+x,y,1/2-z
-x,y,z
1/2+x,-y,1/2+z
loop_
_atom_site_type_symbol
_atom_site_label
_atom_site_fract_x
_atom_site_fract_y
_atom_site_fract_z
Si Si1 0.445958 0.886466 0.741526
Si Si2 0.178116 0.506572 0.407633
Si Si3 0.732296 0.012104 0.092618
Si Si4 0.082320 0.362333 0.668883
Si Si5 0.077954 0.799734 0.927373
Si Si6 0.319971 0.254210 0.448061
Si Si7 0.500000 0.745996 0.054038
Si Si8 0.000000 0.500000 0.000000
O O1 0.500000 0.935313 0.754972
O O2 0.434113 0.604110 0.778230
O O3 0.435559 0.921107 0.652652
O O4 0.414865 0.101862 0.781679
O O5 0.174902 0.500000 0.500000
O O6 0.194703 0.220971 0.382956
O O7 0.129613 0.572684 0.372050
O O8 0.216194 0.723715 0.384343
O O9 0.781419 0.146601 0.109495
O O10 0.732450 0.000000 0.000000
O O11 0.044351 0.285650 0.606500
O O12 0.129084 0.684792 0.919963
O O13 0.040242 0.579959 0.940129
O O14 0.073096 0.000000 0.000000
O O15 0.303670 0.500000 0.500000
O O16 0.328010 0.000000 0.500000
O O17 0.500000 0.500000 0.000000
O O18 0.500000 0.000000 0.000000
#
# Coordination Sequence:
#
# PCOD9416400 Si02
#       8
#     8   8   8   8   8   8   4   2
#     4  12  25  43  64  86 130 176 211 256 320 393
#     4  10  20  36  61  90 120 161 210 264 307 368
#     4   9  17  32  58  89 122 157 202 258 320 366
#     4  12  25  43  61  91 129 167 214 257 326 382
#     4  11  26  40  68  97 131 165 217 268 318 374
#     4  10  19  35  58  93 128 159 201 263 322 372
#     4  12  24  40  64  90 121 161 208 264 308 367
#     4  12  22  40  64  98 128 152 210 262 318 348
#
# _framework density 20.547920000000001
#
# number of rings (size 3 to 8) (size 9 to 14) (size 15 to 20)
#    0.000    1.185    2.963    4.667    2.074    1.778 
#    0.000    0.000    0.000    5.333    0.000    0.000 
#    0.000    0.000    0.000    0.000    0.000    0.000 
#
# Total GULP energy -300703.582773 kJ/mol
# GULP energy per Si atom -5568.584866 kJ/mol
# Density = 2.050115 g / cm^3
# Si number density = 20.547920 Si / 1000 Ang^3
#
#
#
# Elastic Constant Matrix: (Units=GPa)
#
#
# Indices 1 2 3 4 5 6 
#
# 1 138.0651 8.6854 12.0651 0.0000 0.0000 0.0000
# 2 8.6854 103.0451 23.8301 0.0000 0.0000 0.0000
# 3 12.0651 23.8301 62.2069 0.0000 0.0000 0.0000
# 4 0.0000 0.0000 0.0000 14.0700 0.0000 0.0000
# 5 0.0000 0.0000 0.0000 0.0000 -4.2975 0.0000
# 6 0.0000 0.0000 0.0000 0.0000 0.0000 -81.5500
#
#
#
# Elastic Compliance Matrix: (Units=1/GPa)
#
#
# Indices 1 2 3 4 5 6 
#
# 1 0.007377 -0.000319 -0.001309 0.000000 0.000000 0.000000
# 2 -0.000319 0.010662 -0.004022 0.000000 0.000000 0.000000
# 3 -0.001309 -0.004022 0.017870 0.000000 0.000000 0.000000
# 4 0.000000 0.000000 0.000000 0.071073 0.000000 0.000000
# 5 0.000000 0.000000 0.000000 0.000000 -0.232692 0.000000
# 6 0.000000 0.000000 0.000000 0.000000 0.000000 -0.012262
#
#
# Mechanical properties :
#
#
# Convention : Reuss Voigt Hill
#
# Bulk Modulus (GPa) = 40.63578 43.60870 42.12224
# Shear Modulus (GPa) = -42.20519 2.89359 -19.65580
#
# Velocity S-wave (km/s) = -4.53701 1.18797 -3.09622
# Velocity P-wave (km/s) = 2.76169 4.81152 2.78602
#
# Compressibility (1/GPa) = 0.02460886
#
# Stress axis : x y z
#
# Youngs Moduli (GPa) = 135.54930 93.79460 55.95952
#
# Poissons Ratio (x) = 0.02994 0.07323
# Poissons Ratio (y) = 0.04327 0.22509
# Poissons Ratio (z) = 0.17738 0.37727
#
# Static dielectric constant tensor:
#      x y z
#    x 1.709100 0.000000 0.000000 
#    y 0.000000 1.769980 0.000000 
#    z 0.000000 0.000000 2.850470 
# 
# From -- ./inp_files/25168.got.cif
#   From: 2010.05.17/outbox.cif.g08.bks.cpg/sg53_13_cif.got.tgz:25168.got - 2010.06.03 12:45:16.
