data_PCOD9416145
_publ_section_title
;
Structure prediction by ZEFSAII (Michael W. Deem and Ramdas Pophale) SiO2 
 PCOD9416145
Probable space group: P M N A
;
_chemical_formula_sum "Si O2"
_cell_formula_units_Z 56
_cell_length_a 8.567397
_cell_length_b 19.870716
_cell_length_c 18.731634
_cell_angle_alpha 90.000000
_cell_angle_beta 90.000000
_cell_angle_gamma 90.000000
_cell_volume 3188.879229
_symmetry_space_group_name_H-M "P M N A"
_symmetry_group_IT_number 53
_symmetry_cell_setting 'orthorhombic'
loop_
_space_group_symop_operation_xyz
x,y,z
1/2-x,-y,1/2+z
x,-y,-z
1/2-x,y,1/2-z
-x,-y,-z
1/2+x,y,1/2-z
-x,y,z
1/2+x,-y,1/2+z
loop_
_atom_site_type_symbol
_atom_site_label
_atom_site_fract_x
_atom_site_fract_y
_atom_site_fract_z
Si Si1 0.688113 0.440512 0.169005
Si Si2 0.187527 0.292929 0.330679
Si Si3 0.685296 0.206060 0.455521
Si Si4 0.688930 0.723498 0.094622
Si Si5 0.687406 0.859610 0.172306
Si Si6 0.311006 0.412986 0.831050
Si Si7 0.811120 0.926807 0.473876
O O1 0.750000 0.441009 0.250000
O O2 0.500000 0.440442 0.169724
O O3 0.736155 0.367444 0.139822
O O4 0.737130 0.513354 0.138889
O O5 0.250000 0.287203 0.250000
O O6 0.252825 0.235535 0.381520
O O7 0.000000 0.290149 0.329654
O O8 0.500000 0.203273 0.455223
O O9 0.743276 0.255427 0.518596
O O10 0.752213 0.132922 0.475489
O O11 0.500000 0.723687 0.089056
O O12 0.733148 0.783555 0.149254
O O13 0.740852 0.651102 0.123267
O O14 0.750000 0.877009 0.250000
O O15 0.500000 0.861594 0.174692
O O16 0.738849 0.907397 0.106827
O O17 0.250000 0.407007 0.750000
O O18 0.500000 0.411348 0.828637
O O19 0.500000 0.925495 0.025288
O O20 0.758968 0.000000 0.500000
#
# Coordination Sequence:
#
# PCOD9416145 Si02
#       7
#     8   8   8   8   8   8   8
#     4   8  15  27  45  69  95 127 166 209 256 302
#     4  10  19  34  55  76 100 130 168 213 258 304
#     4  11  22  35  53  77 102 129 165 207 252 301
#     4   9  18  32  48  68  99 137 172 205 246 300
#     4   9  17  29  48  75 102 131 166 201 240 287
#     4   9  16  27  45  70  99 131 170 213 256 301
#     4   9  19  38  60  78 102 138 171 200 246 305
#
# _framework density 17.561029000000001
#
# number of rings (size 3 to 8) (size 9 to 14) (size 15 to 20)
#    0.000    2.714    0.000    3.000    0.000    3.714 
#    0.000    1.429    0.000    6.000    0.000    0.000 
#    0.000    0.000    0.000    0.000    0.000    0.000 
#
# Total GULP energy -312006.914099 kJ/mol
# GULP energy per Si atom -5571.552037 kJ/mol
# Density = 1.752106 g / cm^3
# Si number density = 17.561029 Si / 1000 Ang^3
#
#
#
# Elastic Constant Matrix: (Units=GPa)
#
#
# Indices 1 2 3 4 5 6 
#
# 1 14.9872 28.0197 20.8803 0.0000 0.0000 0.0000
# 2 28.0197 156.4166 86.7043 0.0000 0.0000 0.0000
# 3 20.8803 86.7043 93.4620 0.0000 0.0000 0.0000
# 4 0.0000 0.0000 0.0000 22.2257 0.0000 0.0000
# 5 0.0000 0.0000 0.0000 0.0000 27.8682 0.0000
# 6 0.0000 0.0000 0.0000 0.0000 0.0000 14.8069
#
#
#
# Elastic Compliance Matrix: (Units=1/GPa)
#
#
# Indices 1 2 3 4 5 6 
#
# 1 0.107091 -0.012190 -0.012616 0.000000 0.000000 0.000000
# 2 -0.012190 0.014549 -0.010773 0.000000 0.000000 0.000000
# 3 -0.012616 -0.010773 0.023513 0.000000 0.000000 0.000000
# 4 0.000000 0.000000 0.000000 0.044993 0.000000 0.000000
# 5 0.000000 0.000000 0.000000 0.000000 0.035883 0.000000
# 6 0.000000 0.000000 0.000000 0.000000 0.000000 0.067536
#
#
# Mechanical properties :
#
#
# Convention : Reuss Voigt Hill
#
# Bulk Modulus (GPa) = 13.51486 59.56382 36.53934
# Shear Modulus (GPa) = 12.84063 21.59761 17.21912
#
# Velocity S-wave (km/s) = 2.70701 3.51074 3.13474
# Velocity P-wave (km/s) = 4.18129 7.10110 5.82704
#
# Compressibility (1/GPa) = 0.07399264
#
# Stress axis : x y z
#
# Youngs Moduli (GPa) = 9.33782 68.73431 42.53056
#
# Poissons Ratio (x) = 0.83791 0.53657
# Poissons Ratio (y) = 0.11383 0.45820
# Poissons Ratio (z) = 0.11781 0.74050
#
# Static dielectric constant tensor:
#      x y z
#    x 1.592060 0.000000 0.000000 
#    y 0.000000 1.628740 0.000000 
#    z 0.000000 0.000000 1.569030 
# 
# From -- ./inp_files/26668.got.cif
#   From: 2010.05.17/outbox.cif.g08.bks.cpg/sg53_14_cif.got.tgz:26668.got - 2010.06.03 12:45:16.
