data_PCOD9416559
_publ_section_title
;
Structure prediction by ZEFSAII (Michael W. Deem and Ramdas Pophale) SiO2 
 PCOD9416559
Probable space group: P M N A
;
_chemical_formula_sum "Si O2"
_cell_formula_units_Z 48
_cell_length_a 14.971389
_cell_length_b 18.369321
_cell_length_c 7.695649
_cell_angle_alpha 90.000000
_cell_angle_beta 90.000000
_cell_angle_gamma 90.000000
_cell_volume 2116.413141
_symmetry_space_group_name_H-M "P M N A"
_symmetry_group_IT_number 53
_symmetry_cell_setting 'orthorhombic'
loop_
_space_group_symop_operation_xyz
x,y,z
1/2-x,-y,1/2+z
x,-y,-z
1/2-x,y,1/2-z
-x,-y,-z
1/2+x,y,1/2-z
-x,y,z
1/2+x,-y,1/2+z
loop_
_atom_site_type_symbol
_atom_site_label
_atom_site_fract_x
_atom_site_fract_y
_atom_site_fract_z
Si Si1 0.676035 0.855099 0.899334
Si Si2 0.252616 0.415542 0.957941
Si Si3 0.398257 0.699933 0.032935
Si Si4 0.818605 0.826942 0.126551
Si Si5 0.500000 0.096716 0.659384
Si Si6 0.500000 0.932300 0.756829
Si Si7 0.100630 0.309869 0.958454
O O1 0.750000 0.850859 0.750000
O O2 0.590039 0.901803 0.845417
O O3 0.638969 0.776140 0.958605
O O4 0.744857 0.882691 0.050948
O O5 0.250000 0.409908 0.750000
O O6 0.334381 0.366101 0.022411
O O7 0.161630 0.376264 0.016976
O O8 0.259445 0.500000 0.000000
O O9 0.500000 0.691426 0.973482
O O10 0.401971 0.696437 0.245832
O O11 0.750000 0.783381 0.250000
O O12 0.855404 0.767193 0.991418
O O13 0.908296 0.861644 0.202530
O O14 0.500000 0.089121 0.448855
O O15 0.500000 0.019471 0.752355
O O16 0.000000 0.315083 0.020510
#
# Coordination Sequence:
#
# PCOD9416559 Si02
#       7
#     8   8   8   8   4   4   8
#     4  12  23  39  70  99 129 172 229 272 329 402
#     4  10  21  38  58  89 130 172 218 276 338 398
#     4  10  20  37  64  91 124 170 221 272 325 396
#     4  12  22  41  71 100 127 175 228 275 330 407
#     4  11  26  47  65  93 140 177 212 273 354 400
#     4  11  26  47  63  95 142 177 210 285 344 398
#     4  10  19  36  65  92 124 172 221 269 332 398
#
# _framework density 22.679881999999999
#
# number of rings (size 3 to 8) (size 9 to 14) (size 15 to 20)
#    0.000    1.167    6.667    0.500    0.000    2.667 
#    0.000    0.833    0.000    0.000    0.000    0.000 
#    0.000    0.000    0.000    0.000    0.000    0.000 
#
# Total GULP energy -267911.372494 kJ/mol
# GULP energy per Si atom -5581.486927 kJ/mol
# Density = 2.262826 g / cm^3
# Si number density = 22.679882 Si / 1000 Ang^3
#
#
#
# Elastic Constant Matrix: (Units=GPa)
#
#
# Indices 1 2 3 4 5 6 
#
# 1 275.0178 101.7141 39.6586 0.0000 0.0000 0.0000
# 2 101.7141 156.5255 12.8619 0.0000 0.0000 0.0000
# 3 39.6586 12.8619 41.4559 0.0000 0.0000 0.0000
# 4 0.0000 0.0000 0.0000 26.6342 0.0000 0.0000
# 5 0.0000 0.0000 0.0000 0.0000 29.8370 0.0000
# 6 0.0000 0.0000 0.0000 0.0000 0.0000 27.4266
#
#
#
# Elastic Compliance Matrix: (Units=1/GPa)
#
#
# Indices 1 2 3 4 5 6 
#
# 1 0.005415 -0.003174 -0.004195 0.000000 0.000000 0.000000
# 2 -0.003174 0.008416 0.000425 0.000000 0.000000 0.000000
# 3 -0.004195 0.000425 0.028004 0.000000 0.000000 0.000000
# 4 0.000000 0.000000 0.000000 0.037546 0.000000 0.000000
# 5 0.000000 0.000000 0.000000 0.000000 0.033515 0.000000
# 6 0.000000 0.000000 0.000000 0.000000 0.000000 0.036461
#
#
# Mechanical properties :
#
#
# Convention : Reuss Voigt Hill
#
# Bulk Modulus (GPa) = 35.78277 86.82983 61.30630
# Shear Modulus (GPa) = 28.97521 38.03055 33.50288
#
# Velocity S-wave (km/s) = 3.57819 4.09937 3.84761
# Velocity P-wave (km/s) = 5.73436 7.79580 6.84315
#
# Compressibility (1/GPa) = 0.02794641
#
# Stress axis : x y z
#
# Youngs Moduli (GPa) = 184.67034 118.81581 35.70962
#
# Poissons Ratio (x) = 0.37713 0.14982
# Poissons Ratio (y) = 0.58616 -0.01518
# Poissons Ratio (z) = 0.77478 -0.05052
#
# Static dielectric constant tensor:
#      x y z
#    x 1.820770 0.000000 0.000000 
#    y 0.000000 1.798950 0.000000 
#    z 0.000000 0.000000 2.136150 
# 
# From -- ./inp_files/8720.got.cif
#   From: 2010.05.17/outbox.cif.g08.bks.cpg/sg53_5_cif.got.tgz:8720.got - 2010.06.03 12:45:16.
