data_PCOD9416068
_publ_section_title
;
Structure prediction by ZEFSAII (Michael W. Deem and Ramdas Pophale) SiO2 
 PCOD9416068
Probable space group: P M N A
;
_chemical_formula_sum "Si O2"
_cell_formula_units_Z 52
_cell_length_a 14.183549
_cell_length_b 9.024714
_cell_length_c 20.773691
_cell_angle_alpha 90.000000
_cell_angle_beta 90.000000
_cell_angle_gamma 90.000000
_cell_volume 2659.083826
_symmetry_space_group_name_H-M "P M N A"
_symmetry_group_IT_number 53
_symmetry_cell_setting 'orthorhombic'
loop_
_space_group_symop_operation_xyz
x,y,z
1/2-x,-y,1/2+z
x,-y,-z
1/2-x,y,1/2-z
-x,-y,-z
1/2+x,y,1/2-z
-x,y,z
1/2+x,-y,1/2+z
loop_
_atom_site_type_symbol
_atom_site_label
_atom_site_fract_x
_atom_site_fract_y
_atom_site_fract_z
Si Si1 0.898834 0.675891 0.877260
Si Si2 0.106304 0.362787 0.806497
Si Si3 0.726805 0.325536 0.899171
Si Si4 0.660860 0.500000 0.500000
Si Si5 0.219649 0.831451 0.680892
Si Si6 0.111507 0.529778 0.681850
Si Si7 0.612932 0.032069 0.924263
O O1 0.896209 0.533110 0.830842
O O2 0.812594 0.778824 0.857736
O O3 0.000000 0.752125 0.870219
O O4 0.892799 0.595217 0.946290
O O5 0.190508 0.290902 0.846913
O O6 0.125726 0.393055 0.731754
O O7 0.000000 0.301059 0.815741
O O8 0.667981 0.470914 0.879215
O O9 0.656541 0.191668 0.908961
O O10 0.779264 0.376203 0.963215
O O11 0.250000 0.901827 0.750000
O O12 0.160112 0.684168 0.700302
O O13 0.158662 0.924278 0.629564
O O14 0.000000 0.549680 0.673455
O O15 0.500000 0.028851 0.917667
O O16 0.634923 0.000000 0.000000
#
# Coordination Sequence:
#
# PCOD9416068 Si02
#       7
#     8   8   8   4   8   8   8
#     4  10  19  33  56  88 121 155 197 250 309 368
#     4   9  18  33  59  91 123 148 185 251 317 365
#     4  11  21  39  60  88 117 158 206 256 308 365
#     4  10  19  34  61  86 118 156 205 250 313 368
#     4  12  22  40  64  95 125 166 213 266 317 377
#     4  11  20  35  62  95 125 154 202 260 314 374
#     4  11  27  47  62  85 130 179 216 259 318 382
#
# _framework density 19.555607999999999
#
# number of rings (size 3 to 8) (size 9 to 14) (size 15 to 20)
#    0.000    1.385    4.615    2.538    0.000    2.462 
#    0.000    1.538    0.000    1.846    0.000    0.000 
#    0.000    0.000    0.000    0.000    0.000    0.000 
#
# Total GULP energy -289910.696722 kJ/mol
# GULP energy per Si atom -5575.205706 kJ/mol
# Density = 1.951110 g / cm^3
# Si number density = 19.555608 Si / 1000 Ang^3
#
#
#
# Elastic Constant Matrix: (Units=GPa)
#
#
# Indices 1 2 3 4 5 6 
#
# 1 125.8329 21.0411 45.8756 0.0000 0.0000 0.0000
# 2 21.0411 32.2736 24.6787 0.0000 0.0000 0.0000
# 3 45.8756 24.6787 87.5787 0.0000 0.0000 0.0000
# 4 0.0000 0.0000 0.0000 18.9528 0.0000 0.0000
# 5 0.0000 0.0000 0.0000 0.0000 -111.8942 0.0000
# 6 0.0000 0.0000 0.0000 0.0000 0.0000 32.4035
#
#
#
# Elastic Compliance Matrix: (Units=1/GPa)
#
#
# Indices 1 2 3 4 5 6 
#
# 1 0.010080 -0.003230 -0.004370 0.000000 0.000000 0.000000
# 2 -0.003230 0.040531 -0.009729 0.000000 0.000000 0.000000
# 3 -0.004370 -0.009729 0.016449 0.000000 0.000000 0.000000
# 4 0.000000 0.000000 0.000000 0.052763 0.000000 0.000000
# 5 0.000000 0.000000 0.000000 0.000000 -0.008937 0.000000
# 6 0.000000 0.000000 0.000000 0.000000 0.000000 0.030861
#
#
# Mechanical properties :
#
#
# Convention : Reuss Voigt Hill
#
# Bulk Modulus (GPa) = 30.86300 47.65288 39.25794
# Shear Modulus (GPa) = 26.70862 -1.83491 12.43685
#
# Velocity S-wave (km/s) = 3.69965 -0.96971 2.52459
# Velocity P-wave (km/s) = 5.83664 4.81321 5.34945
#
# Compressibility (1/GPa) = 0.03240126
#
# Stress axis : x y z
#
# Youngs Moduli (GPa) = 99.20210 24.67271 60.79420
#
# Poissons Ratio (x) = 0.07970 0.26567
# Poissons Ratio (y) = 0.32046 0.59146
# Poissons Ratio (z) = 0.43352 0.24004
#
# Static dielectric constant tensor:
#      x y z
#    x 1.697390 0.000000 0.000000 
#    y 0.000000 1.615750 0.000000 
#    z 0.000000 0.000000 1.692710 
# 
# From -- ./inp_files/32372.got.cif
#   From: 2010.05.17/outbox.cif.g08.bks.cpg/sg53_17_cif.got.tgz:32372.got - 2010.06.03 12:45:16.
