data_PCOD9416903
_publ_section_title
;
Structure prediction by ZEFSAII (Michael W. Deem and Ramdas Pophale) SiO2 
 PCOD9416903
Probable space group: P M N A
;
_chemical_formula_sum "Si O2"
_cell_formula_units_Z 60
_cell_length_a 9.084645
_cell_length_b 11.334595
_cell_length_c 31.998101
_cell_angle_alpha 90.000000
_cell_angle_beta 90.000000
_cell_angle_gamma 90.000000
_cell_volume 3294.869156
_symmetry_space_group_name_H-M "P M N A"
_symmetry_group_IT_number 53
_symmetry_cell_setting 'orthorhombic'
loop_
_space_group_symop_operation_xyz
x,y,z
1/2-x,-y,1/2+z
x,-y,-z
1/2-x,y,1/2-z
-x,-y,-z
1/2+x,y,1/2-z
-x,y,z
1/2+x,-y,1/2+z
loop_
_atom_site_type_symbol
_atom_site_label
_atom_site_fract_x
_atom_site_fract_y
_atom_site_fract_z
Si Si1 0.166841 0.406428 0.314435
Si Si2 0.672107 0.269766 0.386196
Si Si3 0.177997 0.834288 0.536226
Si Si4 0.661886 0.951330 0.675149
Si Si5 0.175508 0.173618 0.647284
Si Si6 0.824830 0.644861 0.207405
Si Si7 0.177866 0.892845 0.445398
Si Si8 0.250000 0.209299 0.250000
O O1 0.233411 0.357625 0.357584
O O2 0.271006 0.510664 0.298573
O O3 0.166709 0.298856 0.281173
O O4 0.000000 0.449803 0.319183
O O5 0.500000 0.303307 0.387367
O O6 0.740889 0.251114 0.431708
O O7 0.680713 0.144653 0.361590
O O8 0.222798 0.824986 0.487582
O O9 0.000000 0.821717 0.539614
O O10 0.216140 0.969223 0.549245
O O11 0.500000 0.006899 0.671142
O O12 0.667743 0.877114 0.717948
O O13 0.783320 0.051817 0.670780
O O14 0.261206 0.278320 0.669673
O O15 0.225339 0.156712 0.599160
O O16 0.000000 0.192807 0.648558
O O17 0.750000 0.690061 0.250000
O O18 0.500000 0.650870 0.289725
O O19 0.000000 0.890402 0.445300
#
# Coordination Sequence:
#
# PCOD9416903 Si02
#       8
#     8   8   8   8   8   8   8   4
#     4  11  22  39  63  85 109 147 192 236 284 336
#     4  10  20  33  52  84 121 151 182 229 283 335
#     4   9  15  30  54  82 113 149 190 229 276 337
#     4  10  21  35  51  78 115 150 183 223 277 335
#     4  11  22  38  58  82 113 152 193 233 277 330
#     4  12  26  44  63  83 110 148 193 239 281 330
#     4   8  16  30  53  81 112 149 189 231 276 335
#     4  10  22  36  58  82 114 140 188 228 288 334
#
# _framework density 18.210132000000002
#
# number of rings (size 3 to 8) (size 9 to 14) (size 15 to 20)
#    0.000    1.867    2.000    3.600    0.933    3.733 
#    0.000    2.667    0.000    0.800    0.000    5.600 
#    0.000    0.000    0.000    0.000    0.000    0.000 
#
# Total GULP energy -334706.848383 kJ/mol
# GULP energy per Si atom -5578.447473 kJ/mol
# Density = 1.816868 g / cm^3
# Si number density = 18.210132 Si / 1000 Ang^3
#
#
#
# Elastic Constant Matrix: (Units=GPa)
#
#
# Indices 1 2 3 4 5 6 
#
# 1 102.2635 22.1304 43.3794 0.0000 0.0000 0.0000
# 2 22.1304 35.1004 44.0606 0.0000 0.0000 0.0000
# 3 43.3794 44.0606 142.9130 0.0000 0.0000 0.0000
# 4 0.0000 0.0000 0.0000 24.7859 0.0000 0.0000
# 5 0.0000 0.0000 0.0000 0.0000 11.0483 0.0000
# 6 0.0000 0.0000 0.0000 0.0000 0.0000 22.6794
#
#
#
# Elastic Compliance Matrix: (Units=1/GPa)
#
#
# Indices 1 2 3 4 5 6 
#
# 1 0.011691 -0.004758 -0.002082 0.000000 0.000000 0.000000
# 2 -0.004758 0.048413 -0.013482 0.000000 0.000000 0.000000
# 3 -0.002082 -0.013482 0.011786 0.000000 0.000000 0.000000
# 4 0.000000 0.000000 0.000000 0.040346 0.000000 0.000000
# 5 0.000000 0.000000 0.000000 0.000000 0.090512 0.000000
# 6 0.000000 0.000000 0.000000 0.000000 0.000000 0.044093
#
#
# Mechanical properties :
#
#
# Convention : Reuss Voigt Hill
#
# Bulk Modulus (GPa) = 32.00325 55.49084 43.74704
# Shear Modulus (GPa) = 16.78423 23.08314 19.93368
#
# Velocity S-wave (km/s) = 3.03924 3.56420 3.31214
# Velocity P-wave (km/s) = 5.47070 6.89033 6.22114
#
# Compressibility (1/GPa) = 0.03124682
#
# Stress axis : x y z
#
# Youngs Moduli (GPa) = 85.53272 20.65577 84.84923
#
# Poissons Ratio (x) = 0.09828 0.17665
# Poissons Ratio (y) = 0.40696 1.14390
# Poissons Ratio (z) = 0.17807 0.27847
#
# Static dielectric constant tensor:
#      x y z
#    x 1.624990 0.000000 0.000000 
#    y 0.000000 1.611400 0.000000 
#    z 0.000000 0.000000 1.643290 
# 
# From -- ./inp_files/38053.got.cif
#   From: 2010.05.17/outbox.cif.g08.bks.cpg/sg53_20_cif.got.tgz:38053.got - 2010.06.03 12:45:16.
