data_PCOD9416072
_publ_section_title
;
Structure prediction by ZEFSAII (Michael W. Deem and Ramdas Pophale) SiO2 
 PCOD9416072
Probable space group: P M N A
;
_chemical_formula_sum "Si O2"
_cell_formula_units_Z 64
_cell_length_a 17.023115
_cell_length_b 21.764001
_cell_length_c 9.428157
_cell_angle_alpha 90.000000
_cell_angle_beta 90.000000
_cell_angle_gamma 90.000000
_cell_volume 3493.048181
_symmetry_space_group_name_H-M "P M N A"
_symmetry_group_IT_number 53
_symmetry_cell_setting 'orthorhombic'
loop_
_space_group_symop_operation_xyz
x,y,z
1/2-x,-y,1/2+z
x,-y,-z
1/2-x,y,1/2-z
-x,-y,-z
1/2+x,y,1/2-z
-x,y,z
1/2+x,-y,1/2+z
loop_
_atom_site_type_symbol
_atom_site_label
_atom_site_fract_x
_atom_site_fract_y
_atom_site_fract_z
Si Si1 0.594344 0.259124 0.226803
Si Si2 0.156834 0.542635 0.722073
Si Si3 0.164052 0.001259 0.172814
Si Si4 0.156863 0.598192 0.233337
Si Si5 0.092992 0.365826 0.486174
Si Si6 0.592873 0.358652 0.439876
Si Si7 0.590223 0.933809 0.078544
Si Si8 0.838220 0.875359 0.689038
O O1 0.500000 0.258212 0.225971
O O2 0.618706 0.305447 0.100311
O O3 0.619985 0.295001 0.368673
O O4 0.623862 0.190530 0.213544
O O5 0.250000 0.546059 0.750000
O O6 0.131277 0.472764 0.745690
O O7 0.137728 0.573786 0.571824
O O8 0.111273 0.587391 0.828669
O O9 0.250000 0.999433 0.250000
O O10 0.117633 0.948080 0.259866
O O11 0.127541 0.067013 0.220754
O O12 0.168898 0.000000 0.000000
O O13 0.250000 0.599732 0.250000
O O14 0.113829 0.638692 0.350569
O O15 0.136087 0.623327 0.081013
O O16 0.000000 0.374192 0.463834
O O17 0.500000 0.355431 0.463903
O O18 0.500000 0.910584 0.074913
O O19 0.647356 0.893560 0.976792
O O20 0.590984 0.000000 0.000000
O O21 0.750000 0.870615 0.750000
#
# Coordination Sequence:
#
# PCOD9416072 Si02
#       8
#     8   8   8   8   8   8   8   8
#     4   9  20  38  56  75 102 139 182 225 268 318
#     4  10  20  34  52  76 105 135 170 216 273 333
#     4  10  19  34  56  85 120 151 185 229 273 320
#     4  11  22  34  51  77 107 136 169 219 280 330
#     4  10  21  36  54  75 100 137 183 225 268 323
#     4  10  21  36  54  76 103 137 176 218 267 322
#     4   9  18  33  54  81 114 150 184 223 273 322
#     4  10  19  33  57  84 107 143 188 224 269 327
#
# _framework density 18.322106999999999
#
# number of rings (size 3 to 8) (size 9 to 14) (size 15 to 20)
#    0.000    2.125    0.000    5.250    0.000    8.750 
#    0.000    1.250    0.000    3.000    0.000    0.000 
#    0.000    0.000    0.000    0.000    0.000    0.000 
#
# Total GULP energy -356713.006849 kJ/mol
# GULP energy per Si atom -5573.640732 kJ/mol
# Density = 1.828040 g / cm^3
# Si number density = 18.322107 Si / 1000 Ang^3
#
#
#
# Elastic Constant Matrix: (Units=GPa)
#
#
# Indices 1 2 3 4 5 6 
#
# 1 40.6753 20.4068 11.3726 0.0000 0.0000 0.0000
# 2 20.4068 106.9159 38.3215 0.0000 0.0000 0.0000
# 3 11.3726 38.3215 117.0618 0.0000 0.0000 0.0000
# 4 0.0000 0.0000 0.0000 7.1534 0.0000 0.0000
# 5 0.0000 0.0000 0.0000 0.0000 25.9836 0.0000
# 6 0.0000 0.0000 0.0000 0.0000 0.0000 25.0758
#
#
#
# Elastic Compliance Matrix: (Units=1/GPa)
#
#
# Indices 1 2 3 4 5 6 
#
# 1 0.027307 -0.004828 -0.001073 0.000000 0.000000 0.000000
# 2 -0.004828 0.011450 -0.003279 0.000000 0.000000 0.000000
# 3 -0.001073 -0.003279 0.009720 0.000000 0.000000 0.000000
# 4 0.000000 0.000000 0.000000 0.139795 0.000000 0.000000
# 5 0.000000 0.000000 0.000000 0.000000 0.038486 0.000000
# 6 0.000000 0.000000 0.000000 0.000000 0.000000 0.039879
#
#
# Mechanical properties :
#
#
# Convention : Reuss Voigt Hill
#
# Bulk Modulus (GPa) = 33.20243 44.98386 39.09314
# Shear Modulus (GPa) = 16.94716 24.61268 20.77992
#
# Velocity S-wave (km/s) = 3.04461 3.66913 3.37136
# Velocity P-wave (km/s) = 5.52453 6.52342 6.04464
#
# Compressibility (1/GPa) = 0.03011828
#
# Stress axis : x y z
#
# Youngs Moduli (GPa) = 36.62087 87.33663 102.87860
#
# Poissons Ratio (x) = 0.42162 0.11034
# Poissons Ratio (y) = 0.17679 0.33737
# Poissons Ratio (z) = 0.03928 0.28640
#
# Static dielectric constant tensor:
#      x y z
#    x 1.654620 0.000000 0.000000 
#    y 0.000000 1.619540 0.000000 
#    z 0.000000 0.000000 1.642730 
# 
# From -- ./inp_files/10249.got.cif
#   From: 2010.05.17/outbox.cif.g08.bks.cpg/sg53_6_cif.got.tgz:10249.got - 2010.06.03 12:45:16.
