data_PCOD9416086
_publ_section_title
;
Structure prediction by ZEFSAII (Michael W. Deem and Ramdas Pophale) SiO2 
 PCOD9416086
Probable space group: P M N A
;
_chemical_formula_sum "Si O2"
_cell_formula_units_Z 44
_cell_length_a 29.700432
_cell_length_b 14.655021
_cell_length_c 4.960130
_cell_angle_alpha 90.000000
_cell_angle_beta 90.000000
_cell_angle_gamma 90.000000
_cell_volume 2158.948439
_symmetry_space_group_name_H-M "P M N A"
_symmetry_group_IT_number 53
_symmetry_cell_setting 'orthorhombic'
loop_
_space_group_symop_operation_xyz
x,y,z
1/2-x,-y,1/2+z
x,-y,-z
1/2-x,y,1/2-z
-x,-y,-z
1/2+x,y,1/2-z
-x,y,z
1/2+x,-y,1/2+z
loop_
_atom_site_type_symbol
_atom_site_label
_atom_site_fract_x
_atom_site_fract_y
_atom_site_fract_z
Si Si1 0.132637 0.440382 0.264052
Si Si2 0.657683 0.813804 0.213741
Si Si3 0.603694 0.244547 0.290489
Si Si4 0.279973 0.659033 0.010193
Si Si5 0.951623 0.916235 0.795652
Si Si6 0.632886 0.000000 0.000000
O O1 0.110469 0.500000 0.500000
O O2 0.103386 0.352867 0.178392
O O3 0.177928 0.400300 0.404862
O O4 0.142911 0.500000 0.000000
O O5 0.644022 0.792273 0.518840
O O6 0.699951 0.753013 0.129774
O O7 0.660264 0.922248 0.157858
O O8 0.617618 0.774998 0.020057
O O9 0.560157 0.186734 0.382153
O O10 0.250000 0.615742 0.250000
O O11 0.250000 0.676760 0.750000
O O12 0.000000 0.912384 0.645595
O O13 0.903733 0.943527 0.670206
O O14 0.956434 0.000000 0.000000
#
# Coordination Sequence:
#
# PCOD9416086 Si02
#       6
#     8   8   8   8   8   4
#     4  11  22  38  60  82 107 149 197 236 285 348
#     4  10  20  35  56  77 111 155 188 222 278 343
#     4  10  20  37  55  82 117 150 184 227 280 339
#     4  11  22  38  55  80 114 141 181 242 296 333
#     4  10  19  33  57  91 121 145 183 232 288 333
#     4  10  19  34  56  82 116 154 194 226 268 338
#
# _framework density 20.380292000000001
#
# number of rings (size 3 to 8) (size 9 to 14) (size 15 to 20)
#    0.000    1.636    1.818    5.727    0.000    1.455 
#    0.000    2.727    0.000    1.091    0.000    0.000 
#    0.000    0.000    0.000    0.000    0.000    0.000 
#
# Total GULP energy -244990.866128 kJ/mol
# GULP energy per Si atom -5567.974230 kJ/mol
# Density = 2.033391 g / cm^3
# Si number density = 20.380292 Si / 1000 Ang^3
#
#
#
# Elastic Constant Matrix: (Units=GPa)
#
#
# Indices 1 2 3 4 5 6 
#
# 1 42.1308 36.5472 14.3925 0.0000 0.0000 0.0000
# 2 36.5472 153.7979 28.9259 0.0000 0.0000 0.0000
# 3 14.3925 28.9259 81.9344 0.0000 0.0000 0.0000
# 4 0.0000 0.0000 0.0000 35.5038 0.0000 0.0000
# 5 0.0000 0.0000 0.0000 0.0000 32.3179 0.0000
# 6 0.0000 0.0000 0.0000 0.0000 0.0000 23.1114
#
#
#
# Elastic Compliance Matrix: (Units=1/GPa)
#
#
# Indices 1 2 3 4 5 6 
#
# 1 0.030574 -0.006700 -0.003005 0.000000 0.000000 0.000000
# 2 -0.006700 0.008433 -0.001800 0.000000 0.000000 0.000000
# 3 -0.003005 -0.001800 0.013368 0.000000 0.000000 0.000000
# 4 0.000000 0.000000 0.000000 0.028166 0.000000 0.000000
# 5 0.000000 0.000000 0.000000 0.000000 0.030943 0.000000
# 6 0.000000 0.000000 0.000000 0.000000 0.000000 0.043269
#
#
# Mechanical properties :
#
#
# Convention : Reuss Voigt Hill
#
# Bulk Modulus (GPa) = 34.05491 48.62158 41.33824
# Shear Modulus (GPa) = 26.65926 31.38646 29.02286
#
# Velocity S-wave (km/s) = 3.62068 3.92859 3.77777
# Velocity P-wave (km/s) = 5.85022 6.66989 6.27345
#
# Compressibility (1/GPa) = 0.02936434
#
# Stress axis : x y z
#
# Youngs Moduli (GPa) = 32.70705 118.58476 74.80391
#
# Poissons Ratio (x) = 0.79455 0.22480
# Poissons Ratio (y) = 0.21914 0.13466
# Poissons Ratio (z) = 0.09829 0.21347
#
# Static dielectric constant tensor:
#      x y z
#    x 1.762440 0.000000 0.000000 
#    y 0.000000 1.924350 0.000000 
#    z 0.000000 0.000000 1.780720 
# 
# From -- ./inp_files/5247.got.cif
#   From: 2010.05.17/outbox.cif.g08.bks.cpg/sg53_3_cif.got.tgz:5247.got - 2010.06.03 12:45:16.
