data_PCOD9416848
_publ_section_title
;
Structure prediction by ZEFSAII (Michael W. Deem and Ramdas Pophale) SiO2 
 PCOD9416848
Probable space group: P M N A
;
_chemical_formula_sum "Si O2"
_cell_formula_units_Z 48
_cell_length_a 8.749065
_cell_length_b 12.990732
_cell_length_c 25.573139
_cell_angle_alpha 90.000000
_cell_angle_beta 90.000000
_cell_angle_gamma 90.000000
_cell_volume 2906.560088
_symmetry_space_group_name_H-M "P M N A"
_symmetry_group_IT_number 53
_symmetry_cell_setting 'orthorhombic'
loop_
_space_group_symop_operation_xyz
x,y,z
1/2-x,-y,1/2+z
x,-y,-z
1/2-x,y,1/2-z
-x,-y,-z
1/2+x,y,1/2-z
-x,y,z
1/2+x,-y,1/2+z
loop_
_atom_site_type_symbol
_atom_site_label
_atom_site_fract_x
_atom_site_fract_y
_atom_site_fract_z
Si Si1 0.684131 0.121355 0.389446
Si Si2 0.824786 0.124448 0.994608
Si Si3 0.317748 0.724956 0.308636
Si Si4 0.681040 0.891893 0.113940
Si Si5 0.316688 0.284178 0.191314
Si Si6 0.817253 0.514029 0.308602
O O1 0.500000 0.113192 0.388308
O O2 0.726780 0.160079 0.448001
O O3 0.744092 0.198915 0.345872
O O4 0.753986 0.007842 0.381601
O O5 0.000000 0.157428 0.984889
O O6 0.723275 0.147501 0.944363
O O7 0.827026 0.000000 0.000000
O O8 0.250000 0.734645 0.250000
O O9 0.500000 0.723390 0.305570
O O10 0.259456 0.818227 0.343928
O O11 0.257647 0.616265 0.332097
O O12 0.500000 0.892863 0.121270
O O13 0.250000 0.275797 0.250000
O O14 0.500000 0.272739 0.193757
O O15 0.283424 0.399953 0.170095
O O16 0.750000 0.510741 0.250000
O O17 0.000000 0.527107 0.306746
#
# Coordination Sequence:
#
# PCOD9416848 Si02
#       6
#     8   8   8   8   8   8
#     4  10  20  34  52  74 102 133 166 203 245 293
#     4   8  16  32  51  71  96 128 165 203 242 288
#     4  11  21  34  52  74 101 131 165 203 246 294
#     4  11  21  33  51  75 102 131 165 203 246 294
#     4  10  20  33  51  75 103 133 166 203 245 293
#     4   9  17  31  50  72  97 127 165 204 241 286
#
# _framework density 16.514367
#
# number of rings (size 3 to 8) (size 9 to 14) (size 15 to 20)
#    0.000    2.167    0.000    6.500    0.000    6.333 
#    0.000    3.333    0.000    1.000    0.000    7.000 
#    0.000    0.000    0.000    0.000    0.000    0.000 
#
# Total GULP energy -267582.468107 kJ/mol
# GULP energy per Si atom -5574.634752 kJ/mol
# Density = 1.647678 g / cm^3
# Si number density = 16.514367 Si / 1000 Ang^3
#
#
#
# Elastic Constant Matrix: (Units=GPa)
#
#
# Indices 1 2 3 4 5 6 
#
# 1 116.2039 59.8278 50.1214 0.0000 0.0000 0.0000
# 2 59.8278 107.4937 61.4572 0.0000 0.0000 0.0000
# 3 50.1214 61.4572 89.0053 0.0000 0.0000 0.0000
# 4 0.0000 0.0000 0.0000 -4.4829 0.0000 0.0000
# 5 0.0000 0.0000 0.0000 0.0000 21.2248 0.0000
# 6 0.0000 0.0000 0.0000 0.0000 0.0000 29.6183
#
#
#
# Elastic Compliance Matrix: (Units=1/GPa)
#
#
# Indices 1 2 3 4 5 6 
#
# 1 0.012787 -0.004957 -0.003778 0.000000 0.000000 0.000000
# 2 -0.004957 0.017292 -0.009149 0.000000 0.000000 0.000000
# 3 -0.003778 -0.009149 0.019680 0.000000 0.000000 0.000000
# 4 0.000000 0.000000 0.000000 -0.223070 0.000000 0.000000
# 5 0.000000 0.000000 0.000000 0.000000 0.047115 0.000000
# 6 0.000000 0.000000 0.000000 0.000000 0.000000 0.033763
#
#
# Mechanical properties :
#
#
# Convention : Reuss Voigt Hill
#
# Bulk Modulus (GPa) = 71.47010 72.83507 72.15259
# Shear Modulus (GPa) = -96.15107 18.69183 -38.72962
#
# Velocity S-wave (km/s) = -7.63866 3.36795 -4.84799
# Velocity P-wave (km/s) = 5.86748 7.70220 3.52822
#
# Compressibility (1/GPa) = 0.01399187
#
# Stress axis : x y z
#
# Youngs Moduli (GPa) = 78.20285 57.82890 50.81292
#
# Poissons Ratio (x) = 0.28665 0.19198
# Poissons Ratio (y) = 0.38765 0.46488
# Poissons Ratio (z) = 0.29546 0.52907
#
# Static dielectric constant tensor:
#      x y z
#    x 1.550370 0.000000 0.000000 
#    y 0.000000 1.564640 0.000000 
#    z 0.000000 0.000000 1.547260 
# 
# From -- ./inp_files/33888.got.cif
#   From: 2010.05.17/outbox.cif.g08.bks.cpg/sg53_17_cif.got.tgz:33888.got - 2010.06.03 12:45:16.
