data_PCOD9416262
_publ_section_title
;
Structure prediction by ZEFSAII (Michael W. Deem and Ramdas Pophale) SiO2 
 PCOD9416262
Probable space group: P M N A
;
_chemical_formula_sum "Si O2"
_cell_formula_units_Z 64
_cell_length_a 8.686849
_cell_length_b 22.138826
_cell_length_c 18.060289
_cell_angle_alpha 90.000000
_cell_angle_beta 90.000000
_cell_angle_gamma 90.000000
_cell_volume 3473.294071
_symmetry_space_group_name_H-M "P M N A"
_symmetry_group_IT_number 53
_symmetry_cell_setting 'orthorhombic'
loop_
_space_group_symop_operation_xyz
x,y,z
1/2-x,-y,1/2+z
x,-y,-z
1/2-x,y,1/2-z
-x,-y,-z
1/2+x,y,1/2-z
-x,y,z
1/2+x,-y,1/2+z
loop_
_atom_site_type_symbol
_atom_site_label
_atom_site_fract_x
_atom_site_fract_y
_atom_site_fract_z
Si Si1 0.314808 0.691395 0.048649
Si Si2 0.315445 0.894116 0.432383
Si Si3 0.815462 0.998847 0.331062
Si Si4 0.815765 0.222530 0.832322
Si Si5 0.816594 0.745882 0.897699
Si Si6 0.184413 0.372008 0.327317
Si Si7 0.187053 0.566459 0.520258
Si Si8 0.816234 0.874482 0.596258
O O1 0.500000 0.695130 0.046539
O O2 0.251910 0.720447 0.123403
O O3 0.248458 0.729379 0.979315
O O4 0.268515 0.621742 0.033681
O O5 0.500000 0.895797 0.440721
O O6 0.275371 0.836741 0.380704
O O7 0.239855 0.887054 0.512624
O O8 0.256253 0.953560 0.390909
O O9 0.750000 0.984971 0.250000
O O10 0.777060 0.067405 0.354283
O O11 0.000000 0.992163 0.331230
O O12 0.750000 0.217730 0.750000
O O13 0.000000 0.226717 0.829467
O O14 0.749557 0.694592 0.844212
O O15 0.761784 0.812709 0.877533
O O16 0.000000 0.742800 0.899316
O O17 0.250000 0.394489 0.250000
O O18 0.231575 0.413008 0.397193
O O19 0.000000 0.369265 0.325271
O O20 0.244422 0.500000 0.500000
O O21 0.000000 0.564617 0.518774
O O22 0.000000 0.866812 0.596287
#
# Coordination Sequence:
#
# PCOD9416262 Si02
#       8
#     8   8   8   8   8   8   8   8
#     4  10  19  34  58  84 114 150 186 231 281 335
#     4  11  23  39  61  86 112 147 190 237 288 344
#     4  11  25  42  59  81 111 149 189 238 290 343
#     4  11  23  37  56  84 115 149 190 237 288 340
#     4  11  21  35  57  84 114 148 188 234 283 339
#     4  10  20  35  57  85 117 154 194 239 291 341
#     4   8  16  33  58  86 115 152 195 234 280 339
#     4  11  23  39  60  85 114 148 191 237 288 346
#
# _framework density 18.426311999999999
#
# number of rings (size 3 to 8) (size 9 to 14) (size 15 to 20)
#    0.000    1.625    1.250    4.875    0.000    6.500 
#    0.000    1.875    0.000   15.000    0.000    0.000 
#    0.000    0.000    0.000    0.000    0.000    0.000 
#
# Total GULP energy -357649.703553 kJ/mol
# GULP energy per Si atom -5588.276618 kJ/mol
# Density = 1.838437 g / cm^3
# Si number density = 18.426312 Si / 1000 Ang^3
#
#
#
# Elastic Constant Matrix: (Units=GPa)
#
#
# Indices 1 2 3 4 5 6 
#
# 1 55.1053 25.0606 11.3622 0.0000 0.0000 0.0000
# 2 25.0606 104.7876 5.6787 0.0000 0.0000 0.0000
# 3 11.3622 5.6787 40.3428 0.0000 0.0000 0.0000
# 4 0.0000 0.0000 0.0000 11.8620 0.0000 0.0000
# 5 0.0000 0.0000 0.0000 0.0000 31.4579 0.0000
# 6 0.0000 0.0000 0.0000 0.0000 0.0000 11.8014
#
#
#
# Elastic Compliance Matrix: (Units=1/GPa)
#
#
# Indices 1 2 3 4 5 6 
#
# 1 0.021454 -0.004840 -0.005361 0.000000 0.000000 0.000000
# 2 -0.004840 0.010708 -0.000144 0.000000 0.000000 0.000000
# 3 -0.005361 -0.000144 0.026318 0.000000 0.000000 0.000000
# 4 0.000000 0.000000 0.000000 0.084303 0.000000 0.000000
# 5 0.000000 0.000000 0.000000 0.000000 0.031788 0.000000
# 6 0.000000 0.000000 0.000000 0.000000 0.000000 0.084735
#
#
# Mechanical properties :
#
#
# Convention : Reuss Voigt Hill
#
# Bulk Modulus (GPa) = 26.46252 31.60429 29.03340
# Shear Modulus (GPa) = 17.08852 21.56654 19.32753
#
# Velocity S-wave (km/s) = 3.04862 3.42485 3.24220
# Velocity P-wave (km/s) = 5.17538 5.72961 5.45953
#
# Compressibility (1/GPa) = 0.03778930
#
# Stress axis : x y z
#
# Youngs Moduli (GPa) = 46.61201 93.38377 37.99716
#
# Poissons Ratio (x) = 0.45200 0.20370
# Poissons Ratio (y) = 0.22561 0.00548
# Poissons Ratio (z) = 0.24988 0.01346
#
# Static dielectric constant tensor:
#      x y z
#    x 1.615630 0.000000 0.000000 
#    y 0.000000 1.635360 0.000000 
#    z 0.000000 0.000000 1.627280 
# 
# From -- ./inp_files/26864.got.cif
#   From: 2010.05.17/outbox.cif.g08.bks.cpg/sg53_14_cif.got.tgz:26864.got - 2010.06.03 12:45:16.
