data_PCOD9416999
_publ_section_title
;
Structure prediction by ZEFSAII (Michael W. Deem and Ramdas Pophale) SiO2 
 PCOD9416999
Probable space group: P M N A
;
_chemical_formula_sum "Si O2"
_cell_formula_units_Z 56
_cell_length_a 14.096940
_cell_length_b 22.273662
_cell_length_c 9.146761
_cell_angle_alpha 90.000000
_cell_angle_beta 90.000000
_cell_angle_gamma 90.000000
_cell_volume 2871.995848
_symmetry_space_group_name_H-M "P M N A"
_symmetry_group_IT_number 53
_symmetry_cell_setting 'orthorhombic'
loop_
_space_group_symop_operation_xyz
x,y,z
1/2-x,-y,1/2+z
x,-y,-z
1/2-x,y,1/2-z
-x,-y,-z
1/2+x,y,1/2-z
-x,y,z
1/2+x,-y,1/2+z
loop_
_atom_site_type_symbol
_atom_site_label
_atom_site_fract_x
_atom_site_fract_y
_atom_site_fract_z
Si Si1 0.659332 0.617087 0.146198
Si Si2 0.500000 0.436578 0.414272
Si Si3 0.106584 0.863046 0.157246
Si Si4 0.154463 0.749039 0.344032
Si Si5 0.785342 0.563817 0.915225
Si Si6 0.231205 0.832257 0.578552
Si Si7 0.386032 0.935074 0.059312
Si Si8 0.500000 0.478478 0.836874
O O1 0.750000 0.614641 0.250000
O O2 0.612152 0.682671 0.151730
O O3 0.589570 0.563912 0.191278
O O4 0.705558 0.605089 0.988916
O O5 0.500000 0.500000 0.500000
O O6 0.606438 0.410184 0.435398
O O7 0.500000 0.460340 0.250468
O O8 0.103580 0.803033 0.258434
O O9 0.138568 0.914463 0.273777
O O10 0.000000 0.876551 0.105965
O O11 0.177821 0.850208 0.023386
O O12 0.250000 0.742202 0.250000
O O13 0.184824 0.773796 0.502402
O O14 0.750000 0.554289 0.750000
O O15 0.783957 0.500000 0.000000
O O16 0.250000 0.825018 0.750000
O O17 0.158103 0.885972 0.548084
O O18 0.500000 0.932840 0.054205
O O19 0.355126 0.000000 0.000000
O O20 0.500000 0.500000 0.000000
#
# Coordination Sequence:
#
# PCOD9416999 Si02
#       8
#     8   4   8   8   8   8   8   4
#     4  11  22  37  58  83 107 139 182 232 281 339
#     4  10  20  34  52  74 102 138 174 207 263 336
#     4   9  18  35  60  81 113 156 196 239 286 344
#     4   8  18  36  55  79 105 141 190 234 286 336
#     4  11  21  35  55  76 107 144 177 220 275 338
#     4  10  20  34  55  83 118 153 191 239 290 343
#     4   9  18  34  56  84 115 154 200 242 285 335
#     4  12  24  36  54  82 110 136 179 223 272 344
#
# _framework density 19.498636999999999
#
# number of rings (size 3 to 8) (size 9 to 14) (size 15 to 20)
#    0.000    2.143    0.000    5.571    1.000    2.286 
#    0.000    0.000    1.571    3.000    0.000    0.000 
#    0.000    0.000    0.000    0.000    0.000    0.000 
#
# Total GULP energy -312076.755362 kJ/mol
# GULP energy per Si atom -5572.799203 kJ/mol
# Density = 1.945426 g / cm^3
# Si number density = 19.498637 Si / 1000 Ang^3
#
#
#
# Elastic Constant Matrix: (Units=GPa)
#
#
# Indices 1 2 3 4 5 6 
#
# 1 85.9628 11.2964 8.5640 0.0000 0.0000 0.0000
# 2 11.2964 72.8294 7.5977 0.0000 0.0000 0.0000
# 3 8.5640 7.5977 121.4070 0.0000 0.0000 0.0000
# 4 0.0000 0.0000 0.0000 11.4756 0.0000 0.0000
# 5 0.0000 0.0000 0.0000 0.0000 15.9606 0.0000
# 6 0.0000 0.0000 0.0000 0.0000 0.0000 4.3481
#
#
#
# Elastic Compliance Matrix: (Units=1/GPa)
#
#
# Indices 1 2 3 4 5 6 
#
# 1 0.011939 -0.001776 -0.000731 0.000000 0.000000 0.000000
# 2 -0.001776 0.014085 -0.000756 0.000000 0.000000 0.000000
# 3 -0.000731 -0.000756 0.008336 0.000000 0.000000 0.000000
# 4 0.000000 0.000000 0.000000 0.087141 0.000000 0.000000
# 5 0.000000 0.000000 0.000000 0.000000 0.062654 0.000000
# 6 0.000000 0.000000 0.000000 0.000000 0.000000 0.229985
#
#
# Mechanical properties :
#
#
# Convention : Reuss Voigt Hill
#
# Bulk Modulus (GPa) = 35.92718 37.23505 36.58111
# Shear Modulus (GPa) = 11.62941 23.20626 17.41784
#
# Velocity S-wave (km/s) = 2.44482 3.45359 2.99203
# Velocity P-wave (km/s) = 5.14150 5.91952 5.54418
#
# Compressibility (1/GPa) = 0.02783408
#
# Stress axis : x y z
#
# Youngs Moduli (GPa) = 83.75838 70.99745 119.96662
#
# Poissons Ratio (x) = 0.12606 0.08770
# Poissons Ratio (y) = 0.14872 0.09072
# Poissons Ratio (z) = 0.06123 0.05369
#
# Static dielectric constant tensor:
#      x y z
#    x 1.727890 0.000000 0.000000 
#    y 0.000000 1.698480 0.000000 
#    z 0.000000 0.000000 1.711460 
# 
# From -- ./inp_files/8877.got.cif
#   From: 2010.05.17/outbox.cif.g08.bks.cpg/sg53_5_cif.got.tgz:8877.got - 2010.06.03 12:45:16.
