data_PCOD9416915
_publ_section_title
;
Structure prediction by ZEFSAII (Michael W. Deem and Ramdas Pophale) SiO2 
 PCOD9416915
Probable space group: P M N A
;
_chemical_formula_sum "Si O2"
_cell_formula_units_Z 64
_cell_length_a 9.317936
_cell_length_b 23.080836
_cell_length_c 16.545499
_cell_angle_alpha 90.000000
_cell_angle_beta 90.000000
_cell_angle_gamma 90.000000
_cell_volume 3558.370196
_symmetry_space_group_name_H-M "P M N A"
_symmetry_group_IT_number 53
_symmetry_cell_setting 'orthorhombic'
loop_
_space_group_symop_operation_xyz
x,y,z
1/2-x,-y,1/2+z
x,-y,-z
1/2-x,y,1/2-z
-x,-y,-z
1/2+x,y,1/2-z
-x,y,z
1/2+x,-y,1/2+z
loop_
_atom_site_type_symbol
_atom_site_label
_atom_site_fract_x
_atom_site_fract_y
_atom_site_fract_z
Si Si1 0.670953 0.056215 0.332166
Si Si2 0.665476 0.421026 0.602638
Si Si3 0.163361 0.528659 0.669534
Si Si4 0.669116 0.752012 0.009832
Si Si5 0.669710 0.705188 0.331176
Si Si6 0.171104 0.081673 0.832358
Si Si7 0.326652 0.130979 0.490324
Si Si8 0.338874 0.372425 0.041318
O O1 0.750000 0.076251 0.250000
O O2 0.500000 0.063897 0.321425
O O3 0.710946 0.087965 0.416147
O O4 0.698302 0.987346 0.340215
O O5 0.500000 0.438482 0.602059
O O6 0.763158 0.475319 0.623805
O O7 0.681287 0.364857 0.660234
O O8 0.717841 0.396827 0.517191
O O9 0.250000 0.537611 0.750000
O O10 0.164577 0.587741 0.619216
O O11 0.000000 0.512337 0.686922
O O12 0.500000 0.762407 0.024623
O O13 0.749553 0.732880 0.092245
O O14 0.747514 0.808432 0.977076
O O15 0.680853 0.696209 0.951121
O O16 0.750000 0.723632 0.250000
O O17 0.500000 0.719675 0.331532
O O18 0.250000 0.101973 0.750000
O O19 0.000000 0.090396 0.822283
O O20 0.213035 0.109485 0.918784
O O21 0.500000 0.137277 0.489945
O O22 0.500000 0.380054 0.004138
#
# Coordination Sequence:
#
# PCOD9416915 Si02
#       8
#     8   8   8   8   8   8   8   8
#     4   9  18  34  56  81 109 142 179 221 268 317
#     4  10  20  33  53  80 105 130 163 204 252 310
#     4  11  22  35  52  75 102 130 163 206 257 309
#     4  10  21  37  55  74 100 136 179 221 260 306
#     4  10  20  34  52  75 104 137 172 211 258 311
#     4   9  18  33  54  81 113 146 178 213 259 317
#     4  10  20  35  55  79 109 144 181 221 267 318
#     4   9  20  38  55  71  97 134 170 208 255 304
#
# _framework density 17.985762000000001
#
# number of rings (size 3 to 8) (size 9 to 14) (size 15 to 20)
#    0.000    2.250    0.000    2.625    0.000    8.500 
#    0.000    1.875    0.000    6.750    0.000    0.000 
#    0.000    0.000    0.000    0.000    0.000    0.000 
#
# Total GULP energy -356914.952381 kJ/mol
# GULP energy per Si atom -5576.796131 kJ/mol
# Density = 1.794483 g / cm^3
# Si number density = 17.985762 Si / 1000 Ang^3
#
#
#
# Elastic Constant Matrix: (Units=GPa)
#
#
# Indices 1 2 3 4 5 6 
#
# 1 77.1293 33.8956 33.3683 0.0000 0.0000 0.0000
# 2 33.8956 77.1477 29.1331 0.0000 0.0000 0.0000
# 3 33.3683 29.1331 65.9269 0.0000 0.0000 0.0000
# 4 0.0000 0.0000 0.0000 2.8990 0.0000 0.0000
# 5 0.0000 0.0000 0.0000 0.0000 27.1240 0.0000
# 6 0.0000 0.0000 0.0000 0.0000 0.0000 28.0074
#
#
#
# Elastic Compliance Matrix: (Units=1/GPa)
#
#
# Indices 1 2 3 4 5 6 
#
# 1 0.018337 -0.005463 -0.006867 0.000000 0.000000 0.000000
# 2 -0.005463 0.017186 -0.004829 0.000000 0.000000 0.000000
# 3 -0.006867 -0.004829 0.020778 0.000000 0.000000 0.000000
# 4 0.000000 0.000000 0.000000 0.344941 0.000000 0.000000
# 5 0.000000 0.000000 0.000000 0.000000 0.036868 0.000000
# 6 0.000000 0.000000 0.000000 0.000000 0.000000 0.035705
#
#
# Mechanical properties :
#
#
# Convention : Reuss Voigt Hill
#
# Bulk Modulus (GPa) = 45.49165 45.88864 45.69015
# Shear Modulus (GPa) = 9.70004 19.85987 14.77995
#
# Velocity S-wave (km/s) = 2.32484 3.32655 2.86974
# Velocity P-wave (km/s) = 5.70566 6.35011 6.03649
#
# Compressibility (1/GPa) = 0.02198206
#
# Stress axis : x y z
#
# Youngs Moduli (GPa) = 54.53452 58.18607 48.12785
#
# Poissons Ratio (x) = 0.31790 0.33049
# Poissons Ratio (y) = 0.29795 0.23243
# Poissons Ratio (z) = 0.37448 0.28100
#
# Static dielectric constant tensor:
#      x y z
#    x 1.608590 0.000000 0.000000 
#    y 0.000000 1.649530 0.000000 
#    z 0.000000 0.000000 1.614990 
# 
# From -- ./inp_files/20895.got.cif
#   From: 2010.05.17/outbox.cif.g08.bks.cpg/sg53_11_cif.got.tgz:20895.got - 2010.06.03 12:45:16.
