data_PCOD9416220
_publ_section_title
;
Structure prediction by ZEFSAII (Michael W. Deem and Ramdas Pophale) SiO2 
 PCOD9416220
Probable space group: P M N A
;
_chemical_formula_sum "Si O2"
_cell_formula_units_Z 48
_cell_length_a 8.673682
_cell_length_b 12.077517
_cell_length_c 26.125114
_cell_angle_alpha 90.000000
_cell_angle_beta 90.000000
_cell_angle_gamma 90.000000
_cell_volume 2736.776597
_symmetry_space_group_name_H-M "P M N A"
_symmetry_group_IT_number 53
_symmetry_cell_setting 'orthorhombic'
loop_
_space_group_symop_operation_xyz
x,y,z
1/2-x,-y,1/2+z
x,-y,-z
1/2-x,y,1/2-z
-x,-y,-z
1/2+x,y,1/2-z
-x,y,z
1/2+x,-y,1/2+z
loop_
_atom_site_type_symbol
_atom_site_label
_atom_site_fract_x
_atom_site_fract_y
_atom_site_fract_z
Si Si1 0.186459 0.005238 0.560196
Si Si2 0.683115 0.764309 0.400961
Si Si3 0.186054 0.624122 0.693948
Si Si4 0.187670 0.234833 0.402745
Si Si5 0.184808 0.631842 0.306211
Si Si6 0.186011 0.370652 0.503820
O O1 0.254660 0.113462 0.586509
O O2 0.000000 0.012234 0.561889
O O3 0.229631 0.000000 0.500000
O O4 0.235634 0.891475 0.587638
O O5 0.500000 0.765985 0.398071
O O6 0.751108 0.713250 0.349080
O O7 0.737829 0.686600 0.447591
O O8 0.250000 0.651403 0.750000
O O9 0.240267 0.706503 0.649356
O O10 0.228959 0.496351 0.681887
O O11 0.000000 0.628214 0.695798
O O12 0.232356 0.307395 0.452044
O O13 0.000000 0.235134 0.401685
O O14 0.250000 0.657232 0.250000
O O15 0.000000 0.637487 0.305451
O O16 0.223232 0.500000 0.500000
O O17 0.000000 0.360390 0.509150
#
# Coordination Sequence:
#
# PCOD9416220 Si02
#       6
#     8   8   8   8   8   8
#     4  10  19  36  59  78 104 148 198 238 276 326
#     4  12  24  36  53  81 117 149 185 229 282 341
#     4   9  18  34  57  84 111 141 177 222 275 333
#     4   9  17  32  55  81 106 139 185 229 274 327
#     4  10  20  37  60  84 112 146 186 228 278 334
#     4  10  19  34  57  82 108 141 184 231 280 338
#
# _framework density 17.538882000000001
#
# number of rings (size 3 to 8) (size 9 to 14) (size 15 to 20)
#    0.000    2.000    1.667    3.000    0.000    4.000 
#    0.000    2.500    0.000    2.000    0.000    0.000 
#    0.000    0.000    0.000    0.000    0.000    0.000 
#
# Total GULP energy -268011.488643 kJ/mol
# GULP energy per Si atom -5583.572680 kJ/mol
# Density = 1.749896 g / cm^3
# Si number density = 17.538882 Si / 1000 Ang^3
#
#
#
# Elastic Constant Matrix: (Units=GPa)
#
#
# Indices 1 2 3 4 5 6 
#
# 1 35.1807 54.5193 47.3421 0.0000 0.0000 0.0000
# 2 54.5193 174.8426 124.0968 0.0000 0.0000 0.0000
# 3 47.3421 124.0968 170.6952 0.0000 0.0000 0.0000
# 4 0.0000 0.0000 0.0000 17.5159 0.0000 0.0000
# 5 0.0000 0.0000 0.0000 0.0000 28.9422 0.0000
# 6 0.0000 0.0000 0.0000 0.0000 0.0000 179.6827
#
#
#
# Elastic Compliance Matrix: (Units=1/GPa)
#
#
# Indices 1 2 3 4 5 6 
#
# 1 0.057885 -0.013750 -0.006058 0.000000 0.000000 0.000000
# 2 -0.013750 0.015083 -0.007152 0.000000 0.000000 0.000000
# 3 -0.006058 -0.007152 0.012738 0.000000 0.000000 0.000000
# 4 0.000000 0.000000 0.000000 0.057091 0.000000 0.000000
# 5 0.000000 0.000000 0.000000 0.000000 0.034552 0.000000
# 6 0.000000 0.000000 0.000000 0.000000 0.000000 0.005565
#
#
# Mechanical properties :
#
#
# Convention : Reuss Voigt Hill
#
# Bulk Modulus (GPa) = 31.45997 92.51497 61.98747
# Shear Modulus (GPa) = 20.20771 55.54550 37.87660
#
# Velocity S-wave (km/s) = 3.39804 5.63371 4.65217
# Velocity P-wave (km/s) = 5.77683 9.75609 8.01726
#
# Compressibility (1/GPa) = 0.03178643
#
# Stress axis : x y z
#
# Youngs Moduli (GPa) = 17.27558 66.29887 78.50384
#
# Poissons Ratio (x) = 0.91160 0.47558
# Poissons Ratio (y) = 0.23754 0.56147
# Poissons Ratio (z) = 0.10466 0.47418
#
# Static dielectric constant tensor:
#      x y z
#    x 1.594770 0.000000 0.000000 
#    y 0.000000 1.585060 0.000000 
#    z 0.000000 0.000000 1.568600 
# 
# From -- ./inp_files/33850.got.cif
#   From: 2010.05.17/outbox.cif.g08.bks.cpg/sg53_17_cif.got.tgz:33850.got - 2010.06.03 12:45:16.
