data_PCOD9417536
_publ_section_title
;
Structure prediction by ZEFSAII (Michael W. Deem and Ramdas Pophale) SiO2 
 PCOD9417536
Probable space group: P M N A
;
_chemical_formula_sum "Si O2"
_cell_formula_units_Z 64
_cell_length_a 16.187155
_cell_length_b 7.078195
_cell_length_c 23.243633
_cell_angle_alpha 90.000000
_cell_angle_beta 90.000000
_cell_angle_gamma 90.000000
_cell_volume 2663.158766
_symmetry_space_group_name_H-M "P M N A"
_symmetry_group_IT_number 53
_symmetry_cell_setting 'orthorhombic'
loop_
_space_group_symop_operation_xyz
x,y,z
1/2-x,-y,1/2+z
x,-y,-z
1/2-x,y,1/2-z
-x,-y,-z
1/2+x,y,1/2-z
-x,y,z
1/2+x,-y,1/2+z
loop_
_atom_site_type_symbol
_atom_site_label
_atom_site_fract_x
_atom_site_fract_y
_atom_site_fract_z
Si Si1 0.186171 0.627346 0.794005
Si Si2 0.407804 0.005535 0.275588
Si Si3 0.091378 0.558733 0.420425
Si Si4 0.589764 0.889955 0.938415
Si Si5 0.905264 0.150676 0.898201
Si Si6 0.403836 0.330976 0.786922
Si Si7 0.769438 0.884872 0.942088
Si Si8 0.726573 0.534786 0.418707
O O1 0.250000 0.719553 0.750000
O O2 0.145567 0.466259 0.755221
O O3 0.224710 0.542260 0.851964
O O4 0.125093 0.800637 0.801784
O O5 0.500000 0.054562 0.256406
O O6 0.407480 0.859235 0.329008
O O7 0.370333 0.882563 0.223192
O O8 0.095136 0.591438 0.351748
O O9 0.184476 0.625378 0.435716
O O10 0.000000 0.635939 0.438415
O O11 0.089681 0.339634 0.440517
O O12 0.500000 -0.061306 0.910452
O O13 0.680595 0.922721 0.910797
O O14 0.589218 0.000000 0.000000
O O15 0.851629 0.968806 0.914837
O O16 0.850666 0.325451 0.920435
O O17 0.000000 0.150833 0.918773
O O18 0.500000 0.329655 0.769672
O O19 0.780928 0.662443 0.951955
O O20 0.761622 0.000000 0.000000
#
# Coordination Sequence:
#
# PCOD9417536 Si02
#       8
#     8   8   8   8   8   8   8   8
#     4  12  22  34  57  88 114 157 201 245 300 357
#     4  10  22  38  56  82 116 157 205 248 293 359
#     4   9  18  34  57  86 124 162 198 249 308 361
#     4   8  15  32  62  94 122 159 203 247 307 379
#     4  11  24  40  62  90 119 157 205 254 303 365
#     4  10  20  36  55  80 118 159 200 250 299 352
#     4  10  22  42  65  90 122 155 196 256 312 364
#     4  11  22  39  61  87 118 158 200 244 304 367
#
# _framework density 24.031611999999999
#
# number of rings (size 3 to 8) (size 9 to 14) (size 15 to 20)
#    0.000    1.875    3.750    0.375    0.000    3.250 
#    0.000    1.250    0.000    0.000    0.000    8.750 
#    0.000    0.000    0.000    0.000    0.000    0.000 
#
# Total GULP energy -356790.462871 kJ/mol
# GULP energy per Si atom -5574.850982 kJ/mol
# Density = 2.397692 g / cm^3
# Si number density = 24.031612 Si / 1000 Ang^3
#
#
#
# Elastic Constant Matrix: (Units=GPa)
#
#
# Indices 1 2 3 4 5 6 
#
# 1 170.9016 49.6420 20.9090 0.0000 0.0000 0.0000
# 2 49.6420 107.3736 5.2771 0.0000 0.0000 0.0000
# 3 20.9090 5.2771 66.5875 0.0000 0.0000 0.0000
# 4 0.0000 0.0000 0.0000 7.8473 0.0000 0.0000
# 5 0.0000 0.0000 0.0000 0.0000 -15.0784 0.0000
# 6 0.0000 0.0000 0.0000 0.0000 0.0000 28.9386
#
#
#
# Elastic Compliance Matrix: (Units=1/GPa)
#
#
# Indices 1 2 3 4 5 6 
#
# 1 0.007002 -0.003142 -0.001950 0.000000 0.000000 0.000000
# 2 -0.003142 0.010759 0.000134 0.000000 0.000000 0.000000
# 3 -0.001950 0.000134 0.015619 0.000000 0.000000 0.000000
# 4 0.000000 0.000000 0.000000 0.127432 0.000000 0.000000
# 5 0.000000 0.000000 0.000000 0.000000 -0.066320 0.000000
# 6 0.000000 0.000000 0.000000 0.000000 0.000000 0.034556
#
#
# Mechanical properties :
#
#
# Convention : Reuss Voigt Hill
#
# Bulk Modulus (GPa) = 42.61517 55.16877 48.89197
# Shear Modulus (GPa) = 34.06319 22.27714 28.17016
#
# Velocity S-wave (km/s) = 3.76896 3.04796 3.42747
# Velocity P-wave (km/s) = 6.05901 5.94923 6.00437
#
# Compressibility (1/GPa) = 0.02346582
#
# Stress axis : x y z
#
# Youngs Moduli (GPa) = 142.80777 92.94408 64.02255
#
# Poissons Ratio (x) = 0.29199 0.12483
# Poissons Ratio (y) = 0.44864 -0.00857
# Poissons Ratio (z) = 0.27845 -0.01244
#
# Static dielectric constant tensor:
#      x y z
#    x 1.978590 0.000000 0.000000 
#    y 0.000000 1.968060 0.000000 
#    z 0.000000 0.000000 2.027820 
# 
# From -- ./inp_files/39045.got.cif
#   From: 2010.05.17/outbox.cif.g08.bks.cpg/sg53_20_cif.got.tgz:39045.got - 2010.06.03 12:45:16.
