data_PCOD9417279
_publ_section_title
;
Structure prediction by ZEFSAII (Michael W. Deem and Ramdas Pophale) SiO2 
 PCOD9417279
Probable space group: P M N A
;
_chemical_formula_sum "Si O2"
_cell_formula_units_Z 56
_cell_length_a 9.010457
_cell_length_b 19.631676
_cell_length_c 16.304347
_cell_angle_alpha 90.000000
_cell_angle_beta 90.000000
_cell_angle_gamma 90.000000
_cell_volume 2884.082013
_symmetry_space_group_name_H-M "P M N A"
_symmetry_group_IT_number 53
_symmetry_cell_setting 'orthorhombic'
loop_
_space_group_symop_operation_xyz
x,y,z
1/2-x,-y,1/2+z
x,-y,-z
1/2-x,y,1/2-z
-x,-y,-z
1/2+x,y,1/2-z
-x,y,z
1/2+x,-y,1/2+z
loop_
_atom_site_type_symbol
_atom_site_label
_atom_site_fract_x
_atom_site_fract_y
_atom_site_fract_z
Si Si1 0.823895 0.288745 0.088642
Si Si2 0.822282 0.421573 0.340065
Si Si3 0.322923 0.853148 0.664783
Si Si4 0.676428 0.850558 0.165347
Si Si5 0.177110 0.713306 0.419461
Si Si6 0.674741 0.081297 0.005277
Si Si7 0.321879 0.572457 0.160473
O O1 0.742287 0.358713 0.110154
O O2 0.789410 0.227214 0.150640
O O3 0.000000 0.299228 0.088421
O O4 0.765859 0.266216 0.000013
O O5 0.750000 0.418490 0.250000
O O6 0.786758 0.497242 0.374155
O O7 0.000000 0.415595 0.334273
O O8 0.250000 0.876110 0.750000
O O9 0.500000 0.861213 0.668419
O O10 0.259760 0.891217 0.584820
O O11 0.750000 0.872947 0.250000
O O12 0.500000 0.861407 0.171610
O O13 0.703188 0.770118 0.149611
O O14 0.727303 0.887708 0.081768
O O15 0.223197 0.637730 0.392128
O O16 0.000000 0.713166 0.436960
O O17 0.500000 0.100114 0.014003
O O18 0.685769 0.000000 0.000000
O O19 0.250000 0.577288 0.250000
O O20 0.500000 0.575842 0.169366
#
# Coordination Sequence:
#
# PCOD9417279 Si02
#       7
#     8   8   8   8   8   8   8
#     4  11  23  37  56  84 114 151 199 250 301 352
#     4  10  20  35  54  77 109 148 191 243 297 356
#     4  11  24  41  64  92 123 161 205 252 302 358
#     4  10  21  37  61  90 121 160 199 244 297 352
#     4  10  20  36  57  81 112 152 196 245 300 355
#     4  10  22  42  66  94 128 162 200 245 297 357
#     4   9  19  34  53  78 108 146 193 241 296 356
#
# _framework density 19.416924000000002
#
# number of rings (size 3 to 8) (size 9 to 14) (size 15 to 20)
#    0.000    1.857    1.429    2.143    0.000    6.571 
#    0.000    4.286    0.000    0.000    0.000    0.000 
#    0.000    0.000    0.000    0.000    0.000    0.000 
#
# Total GULP energy -312683.056478 kJ/mol
# GULP energy per Si atom -5583.626009 kJ/mol
# Density = 1.937273 g / cm^3
# Si number density = 19.416924 Si / 1000 Ang^3
#
#
#
# Elastic Constant Matrix: (Units=GPa)
#
#
# Indices 1 2 3 4 5 6 
#
# 1 38.2462 35.8607 46.8226 0.0000 0.0000 0.0000
# 2 35.8607 72.9008 43.9416 0.0000 0.0000 0.0000
# 3 46.8226 43.9416 137.1975 0.0000 0.0000 0.0000
# 4 0.0000 0.0000 0.0000 18.3065 0.0000 0.0000
# 5 0.0000 0.0000 0.0000 0.0000 36.3345 0.0000
# 6 0.0000 0.0000 0.0000 0.0000 0.0000 22.0193
#
#
#
# Elastic Compliance Matrix: (Units=1/GPa)
#
#
# Indices 1 2 3 4 5 6 
#
# 1 0.067265 -0.023857 -0.015315 0.000000 0.000000 0.000000
# 2 -0.023857 0.025460 -0.000013 0.000000 0.000000 0.000000
# 3 -0.015315 -0.000013 0.012520 0.000000 0.000000 0.000000
# 4 0.000000 0.000000 0.000000 0.054626 0.000000 0.000000
# 5 0.000000 0.000000 0.000000 0.000000 0.027522 0.000000
# 6 0.000000 0.000000 0.000000 0.000000 0.000000 0.045415
#
#
# Mechanical properties :
#
#
# Convention : Reuss Voigt Hill
#
# Bulk Modulus (GPa) = 37.20887 55.73270 46.47079
# Shear Modulus (GPa) = 15.61846 23.44670 19.53258
#
# Velocity S-wave (km/s) = 2.83922 3.47874 3.17512
# Velocity P-wave (km/s) = 5.47293 6.70082 6.11776
#
# Compressibility (1/GPa) = 0.02687531
#
# Stress axis : x y z
#
# Youngs Moduli (GPa) = 14.86667 39.27693 79.87522
#
# Poissons Ratio (x) = 0.93702 1.22330
# Poissons Ratio (y) = 0.35467 0.00100
# Poissons Ratio (z) = 0.22769 0.00049
#
# Static dielectric constant tensor:
#      x y z
#    x 1.655940 0.000000 0.000000 
#    y 0.000000 1.698190 0.000000 
#    z 0.000000 0.000000 1.664510 
# 
# From -- ./inp_files/20504.got.cif
#   From: 2010.05.17/outbox.cif.g08.bks.cpg/sg53_11_cif.got.tgz:20504.got - 2010.06.03 12:45:16.
