data_PCOD9417222
_publ_section_title
;
Structure prediction by ZEFSAII (Michael W. Deem and Ramdas Pophale) SiO2 
 PCOD9417222
Probable space group: P M N A
;
_chemical_formula_sum "Si O2"
_cell_formula_units_Z 46
_cell_length_a 14.427795
_cell_length_b 12.566547
_cell_length_c 13.077778
_cell_angle_alpha 90.000000
_cell_angle_beta 90.000000
_cell_angle_gamma 90.000000
_cell_volume 2371.100071
_symmetry_space_group_name_H-M "P M N A"
_symmetry_group_IT_number 53
_symmetry_cell_setting 'orthorhombic'
loop_
_space_group_symop_operation_xyz
x,y,z
1/2-x,-y,1/2+z
x,-y,-z
1/2-x,y,1/2-z
-x,-y,-z
1/2+x,y,1/2-z
-x,y,z
1/2+x,-y,1/2+z
loop_
_atom_site_type_symbol
_atom_site_label
_atom_site_fract_x
_atom_site_fract_y
_atom_site_fract_z
Si Si1 0.000000 0.875936 0.526682
Si Si2 0.870130 0.300651 0.950028
Si Si3 0.000000 0.803170 0.754339
Si Si4 0.350877 0.300760 0.982242
Si Si5 0.144350 0.627572 0.712936
Si Si6 0.000000 0.500000 0.000000
Si Si7 0.500000 0.878681 0.529089
Si Si8 0.861287 0.606951 0.263387
O O1 0.090753 0.808886 0.490361
O O2 0.000000 0.864431 0.648602
O O3 0.000000 0.000000 0.500000
O O4 0.760301 0.294461 0.970144
O O5 0.891186 0.318044 0.829164
O O6 0.918965 0.404424 0.999588
O O7 0.914398 0.191836 0.989192
O O8 0.912509 0.724770 0.757935
O O9 0.000000 0.878041 0.849495
O O10 0.383948 0.356687 0.877695
O O11 0.366005 0.363028 0.089500
O O12 0.250000 0.635688 0.750000
O O13 0.106333 0.514157 0.750431
O O14 0.500000 0.000000 0.500000
O O15 0.750000 0.602453 0.250000
#
# Coordination Sequence:
#
# PCOD9417222 Si02
#       8
#     4   8   4   8   8   2   4   8
#     4  10  24  43  64  87 113 169 220 264 312 353
#     4  10  23  38  60  93 124 162 208 248 317 371
#     4  10  23  39  57  88 115 151 212 257 306 366
#     4  10  21  39  60  88 129 160 206 257 303 376
#     4  10  20  34  58  87 123 163 196 245 306 378
#     4  10  24  34  64  90 124 166 196 252 306 388
#     4  11  25  42  61  86 119 159 209 263 310 365
#     4   9  20  34  57  90 125 163 196 239 311 378
#
# _framework density 19.400278
#
# number of rings (size 3 to 8) (size 9 to 14) (size 15 to 20)
#    0.000    2.087    0.000    1.565   12.174    4.870 
#    0.000    2.609    0.000    1.043    0.000    0.000 
#    0.000    0.000    0.000    0.000    0.000    0.000 
#
# Total GULP energy -256264.111830 kJ/mol
# GULP energy per Si atom -5570.958953 kJ/mol
# Density = 1.935612 g / cm^3
# Si number density = 19.400278 Si / 1000 Ang^3
#
#
#
# Elastic Constant Matrix: (Units=GPa)
#
#
# Indices 1 2 3 4 5 6 
#
# 1 127.9203 51.2671 13.1818 0.0000 0.0000 0.0000
# 2 51.2671 165.2043 59.4182 0.0000 0.0000 0.0000
# 3 13.1818 59.4182 112.8353 0.0000 0.0000 0.0000
# 4 0.0000 0.0000 0.0000 23.3561 0.0000 0.0000
# 5 0.0000 0.0000 0.0000 0.0000 14.2286 0.0000
# 6 0.0000 0.0000 0.0000 0.0000 0.0000 5.2101
#
#
#
# Elastic Compliance Matrix: (Units=1/GPa)
#
#
# Indices 1 2 3 4 5 6 
#
# 1 0.008952 -0.002963 0.000515 0.000000 0.000000 0.000000
# 2 -0.002963 0.008448 -0.004103 0.000000 0.000000 0.000000
# 3 0.000515 -0.004103 0.010963 0.000000 0.000000 0.000000
# 4 0.000000 0.000000 0.000000 0.042815 0.000000 0.000000
# 5 0.000000 0.000000 0.000000 0.000000 0.070281 0.000000
# 6 0.000000 0.000000 0.000000 0.000000 0.000000 0.191934
#
#
# Mechanical properties :
#
#
# Convention : Reuss Voigt Hill
#
# Bulk Modulus (GPa) = 65.52831 72.63268 69.08049
# Shear Modulus (GPa) = 14.22140 27.36514 20.79327
#
# Velocity S-wave (km/s) = 2.71043 3.75981 3.27739
# Velocity P-wave (km/s) = 6.60648 7.50789 7.07156
#
# Compressibility (1/GPa) = 0.01526058
#
# Stress axis : x y z
#
# Youngs Moduli (GPa) = 111.70868 118.36872 91.21789
#
# Poissons Ratio (x) = 0.35073 -0.04693
# Poissons Ratio (y) = 0.33100 0.37423
# Poissons Ratio (z) = -0.05748 0.48562
#
# Static dielectric constant tensor:
#      x y z
#    x 1.710840 0.000000 0.000000 
#    y 0.000000 1.613940 0.000000 
#    z 0.000000 0.000000 1.727430 
# 
# From -- ./inp_files/16983.got.cif
#   From: 2010.05.17/outbox.cif.g08.bks.cpg/sg53_9_cif.got.tgz:16983.got - 2010.06.03 12:45:16.
