data_PCOD9417168
_publ_section_title
;
Structure prediction by ZEFSAII (Michael W. Deem and Ramdas Pophale) SiO2 
 PCOD9417168
Probable space group: P M N A
;
_chemical_formula_sum "Si O2"
_cell_formula_units_Z 56
_cell_length_a 9.011381
_cell_length_b 20.475993
_cell_length_c 14.771801
_cell_angle_alpha 90.000000
_cell_angle_beta 90.000000
_cell_angle_gamma 90.000000
_cell_volume 2725.648025
_symmetry_space_group_name_H-M "P M N A"
_symmetry_group_IT_number 53
_symmetry_cell_setting 'orthorhombic'
loop_
_space_group_symop_operation_xyz
x,y,z
1/2-x,-y,1/2+z
x,-y,-z
1/2-x,y,1/2-z
-x,-y,-z
1/2+x,y,1/2-z
-x,y,z
1/2+x,-y,1/2+z
loop_
_atom_site_type_symbol
_atom_site_label
_atom_site_fract_x
_atom_site_fract_y
_atom_site_fract_z
Si Si1 0.677634 0.612939 0.843391
Si Si2 0.824608 0.647898 0.024584
Si Si3 0.676848 0.470174 0.658569
Si Si4 0.328771 0.248399 0.845786
Si Si5 0.330720 0.124171 0.975047
Si Si6 0.828190 0.029928 0.843530
Si Si7 0.671783 0.871959 0.656976
O O1 0.750000 0.637871 0.750000
O O2 0.500000 0.612436 0.837668
O O3 0.741415 0.539148 0.854479
O O4 0.735491 0.650636 0.931153
O O5 0.804036 0.577887 0.074138
O O6 0.761340 0.700345 0.094150
O O7 0.000000 0.656570 0.008673
O O8 0.750000 0.440883 0.750000
O O9 0.500000 0.480599 0.671896
O O10 0.250000 0.240772 0.750000
O O11 0.500000 0.269645 0.834237
O O12 0.328889 0.180666 0.900176
O O13 0.500000 0.106355 0.996837
O O14 0.247986 0.063410 0.929116
O O15 0.252468 0.149633 0.065708
O O16 0.750000 0.050487 0.750000
O O17 0.000000 0.049185 0.841130
O O18 0.819819 0.951372 0.847235
O O19 0.750000 0.851213 0.750000
O O20 0.500000 0.852991 0.657396
#
# Coordination Sequence:
#
# PCOD9417168 Si02
#       7
#     8   8   8   8   8   8   8
#     4  11  22  37  59  86 118 153 190 234 284 339
#     4  11  23  39  60  85 115 152 193 238 287 338
#     4  10  20  34  55  85 119 152 189 233 283 340
#     4  11  25  43  62  86 115 149 191 236 283 336
#     4  11  23  38  58  84 115 152 193 237 285 338
#     4  10  20  34  55  85 118 152 190 233 285 342
#     4  10  21  37  58  85 117 151 189 235 285 340
#
# _framework density 20.545572
#
# number of rings (size 3 to 8) (size 9 to 14) (size 15 to 20)
#    0.000    1.429    0.000    6.429    0.000   12.000 
#    0.000    0.714    0.000    3.429    0.000    0.000 
#    0.000    0.000    0.000    0.000    0.000    0.000 
#
# Total GULP energy -313262.782927 kJ/mol
# GULP energy per Si atom -5593.978267 kJ/mol
# Density = 2.049881 g / cm^3
# Si number density = 20.545572 Si / 1000 Ang^3
#
#
#
# Elastic Constant Matrix: (Units=GPa)
#
#
# Indices 1 2 3 4 5 6 
#
# 1 167.0242 16.3003 84.2090 0.0000 0.0000 0.0000
# 2 16.3003 10.3947 11.8086 0.0000 0.0000 0.0000
# 3 84.2090 11.8086 164.3700 0.0000 0.0000 0.0000
# 4 0.0000 0.0000 0.0000 17.2942 0.0000 0.0000
# 5 0.0000 0.0000 0.0000 0.0000 36.9017 0.0000
# 6 0.0000 0.0000 0.0000 0.0000 0.0000 28.2602
#
#
#
# Elastic Compliance Matrix: (Units=1/GPa)
#
#
# Indices 1 2 3 4 5 6 
#
# 1 0.008859 -0.009513 -0.003855 0.000000 0.000000 0.000000
# 2 -0.009513 0.114966 -0.003386 0.000000 0.000000 0.000000
# 3 -0.003855 -0.003386 0.008302 0.000000 0.000000 0.000000
# 4 0.000000 0.000000 0.000000 0.057823 0.000000 0.000000
# 5 0.000000 0.000000 0.000000 0.000000 0.027099 0.000000
# 6 0.000000 0.000000 0.000000 0.000000 0.000000 0.035385
#
#
# Mechanical properties :
#
#
# Convention : Reuss Voigt Hill
#
# Bulk Modulus (GPa) = 10.13994 62.93607 36.53801
# Shear Modulus (GPa) = 15.68301 31.78928 23.73614
#
# Velocity S-wave (km/s) = 2.76584 3.93779 3.40265
# Velocity P-wave (km/s) = 3.89177 7.16755 5.76713
#
# Compressibility (1/GPa) = 0.09861993
#
# Stress axis : x y z
#
# Youngs Moduli (GPa) = 112.87601 8.69820 120.44981
#
# Poissons Ratio (x) = 0.08274 0.46437
# Poissons Ratio (y) = 1.07377 0.40782
# Poissons Ratio (z) = 0.43517 0.02945
#
# Static dielectric constant tensor:
#      x y z
#    x 1.696930 0.000000 0.000000 
#    y 0.000000 1.743340 0.000000 
#    z 0.000000 0.000000 1.734350 
# 
# From -- ./inp_files/20568.got.cif
#   From: 2010.05.17/outbox.cif.g08.bks.cpg/sg53_11_cif.got.tgz:20568.got - 2010.06.03 12:45:16.
