data_PCOD9417749
_publ_section_title
;
Structure prediction by ZEFSAII (Michael W. Deem and Ramdas Pophale) SiO2 
 PCOD9417749
Probable space group: P M N A
;
_chemical_formula_sum "Si O2"
_cell_formula_units_Z 64
_cell_length_a 8.874612
_cell_length_b 13.187571
_cell_length_c 28.691757
_cell_angle_alpha 90.000000
_cell_angle_beta 90.000000
_cell_angle_gamma 90.000000
_cell_volume 3357.927611
_symmetry_space_group_name_H-M "P M N A"
_symmetry_group_IT_number 53
_symmetry_cell_setting 'orthorhombic'
loop_
_space_group_symop_operation_xyz
x,y,z
1/2-x,-y,1/2+z
x,-y,-z
1/2-x,y,1/2-z
-x,-y,-z
1/2+x,y,1/2-z
-x,y,z
1/2+x,-y,1/2+z
loop_
_atom_site_type_symbol
_atom_site_label
_atom_site_fract_x
_atom_site_fract_y
_atom_site_fract_z
Si Si1 0.679922 0.463921 0.145446
Si Si2 0.818420 0.915687 0.866834
Si Si3 0.319869 0.530738 0.447398
Si Si4 0.180778 0.142427 0.856414
Si Si5 0.180197 0.328720 0.698969
Si Si6 0.679941 0.901736 0.969444
Si Si7 0.681096 0.272931 0.301410
Si Si8 0.820487 0.765765 0.044400
O O1 0.500000 0.452338 0.147932
O O2 0.734643 0.468712 0.092183
O O3 0.721491 0.572037 0.168743
O O4 0.758430 0.373426 0.173220
O O5 0.750251 0.903011 0.918220
O O6 0.775456 0.824430 0.832666
O O7 0.000000 0.915627 0.871388
O O8 0.774816 0.026395 0.847147
O O9 0.281750 0.500000 0.500000
O O10 0.500000 0.516967 0.441125
O O11 0.284978 0.649975 0.442973
O O12 0.259479 0.226864 0.825181
O O13 0.216060 0.166589 0.910497
O O14 0.000000 0.152656 0.850826
O O15 0.250000 0.338843 0.750000
O O16 0.000000 0.324660 0.702031
O O17 0.500000 0.903191 0.965714
O O18 0.734569 0.805809 0.999371
O O19 0.728030 0.000000 0.000000
O O20 0.750000 0.265922 0.250000
O O21 0.500000 0.276797 0.298447
O O22 0.000000 0.772219 0.035702
#
# Coordination Sequence:
#
# PCOD9417749 Si02
#       8
#     8   8   8   8   8   8   8   8
#     4  11  24  42  65  93 125 162 204 252 307 366
#     4  10  23  42  64  90 123 165 211 256 306 369
#     4  10  22  39  60  90 126 164 204 248 303 366
#     4  10  20  38  63  90 120 158 203 249 303 365
#     4  11  24  40  62  91 121 154 195 247 305 365
#     4  11  23  36  56  89 126 163 204 251 301 355
#     4  11  25  45  68  91 120 160 209 263 316 370
#     4  10  20  36  60  85 119 165 205 247 301 365
#
# _framework density 19.059373000000001
#
# number of rings (size 3 to 8) (size 9 to 14) (size 15 to 20)
#    0.000    1.500    2.500    1.875    1.750    6.250 
#    0.000    1.250    0.000    0.000    0.000    0.000 
#    0.000    0.000    0.000    0.000    0.000    0.000 
#
# Total GULP energy -357748.093890 kJ/mol
# GULP energy per Si atom -5589.813967 kJ/mol
# Density = 1.901599 g / cm^3
# Si number density = 19.059373 Si / 1000 Ang^3
#
#
#
# Elastic Constant Matrix: (Units=GPa)
#
#
# Indices 1 2 3 4 5 6 
#
# 1 35.2631 49.7398 52.6280 0.0000 0.0000 0.0000
# 2 49.7398 127.4393 83.7793 0.0000 0.0000 0.0000
# 3 52.6280 83.7793 143.5073 0.0000 0.0000 0.0000
# 4 0.0000 0.0000 0.0000 26.6182 0.0000 0.0000
# 5 0.0000 0.0000 0.0000 0.0000 26.3961 0.0000
# 6 0.0000 0.0000 0.0000 0.0000 0.0000 25.6014
#
#
#
# Elastic Compliance Matrix: (Units=1/GPa)
#
#
# Indices 1 2 3 4 5 6 
#
# 1 0.088040 -0.021319 -0.019841 0.000000 0.000000 0.000000
# 2 -0.021319 0.017896 -0.002630 0.000000 0.000000 0.000000
# 3 -0.019841 -0.002630 0.015780 0.000000 0.000000 0.000000
# 4 0.000000 0.000000 0.000000 0.037568 0.000000 0.000000
# 5 0.000000 0.000000 0.000000 0.000000 0.037884 0.000000
# 6 0.000000 0.000000 0.000000 0.000000 0.000000 0.039060
#
#
# Mechanical properties :
#
#
# Convention : Reuss Voigt Hill
#
# Bulk Modulus (GPa) = 29.29317 75.38932 52.34124
# Shear Modulus (GPa) = 14.91702 23.72733 19.32218
#
# Velocity S-wave (km/s) = 2.80064 3.53217 3.18746
# Velocity P-wave (km/s) = 5.08536 7.50172 6.40846
#
# Compressibility (1/GPa) = 0.03413765
#
# Stress axis : x y z
#
# Youngs Moduli (GPa) = 11.35842 55.87691 63.37261
#
# Poissons Ratio (x) = 1.19123 1.25737
# Poissons Ratio (y) = 0.24215 0.16665
# Poissons Ratio (z) = 0.22536 0.14694
#
# Static dielectric constant tensor:
#      x y z
#    x 1.638630 0.000000 0.000000 
#    y 0.000000 1.669310 0.000000 
#    z 0.000000 0.000000 1.630220 
# 
# From -- ./inp_files/38106.got.cif
#   From: 2010.05.17/outbox.cif.g08.bks.cpg/sg53_20_cif.got.tgz:38106.got - 2010.06.03 12:45:16.
