data_PCOD9417918
_publ_section_title
;
Structure prediction by ZEFSAII (Michael W. Deem and Ramdas Pophale) SiO2 
 PCOD9417918
Probable space group: P M N A
;
_chemical_formula_sum "Si O2"
_cell_formula_units_Z 40
_cell_length_a 8.312968
_cell_length_b 12.909332
_cell_length_c 19.273603
_cell_angle_alpha 90.000000
_cell_angle_beta 90.000000
_cell_angle_gamma 90.000000
_cell_volume 2068.344081
_symmetry_space_group_name_H-M "P M N A"
_symmetry_group_IT_number 53
_symmetry_cell_setting 'orthorhombic'
loop_
_space_group_symop_operation_xyz
x,y,z
1/2-x,-y,1/2+z
x,-y,-z
1/2-x,y,1/2-z
-x,-y,-z
1/2+x,y,1/2-z
-x,y,z
1/2+x,-y,1/2+z
loop_
_atom_site_type_symbol
_atom_site_label
_atom_site_fract_x
_atom_site_fract_y
_atom_site_fract_z
Si Si1 0.805931 0.213474 0.431363
Si Si2 0.307252 0.368957 0.671303
Si Si3 0.805883 0.168730 0.586929
Si Si4 0.694259 0.551752 0.572728
Si Si5 0.194686 0.965853 0.670798
O O1 0.749178 0.175278 0.507300
O O2 0.755044 0.331731 0.420767
O O3 0.750273 0.135868 0.371128
O O4 0.000000 0.209739 0.432191
O O5 0.250000 0.362467 0.750000
O O6 0.500000 0.366444 0.669689
O O7 0.244790 0.271899 0.627203
O O8 0.253069 0.475050 0.634102
O O9 0.000000 0.164495 0.585233
O O10 0.749668 0.067582 0.628670
O O11 0.746914 0.500000 0.500000
O O12 0.500000 0.554704 0.572038
O O13 0.250000 0.967682 0.750000
O O14 0.000000 0.966699 0.670450
#
# Coordination Sequence:
#
# PCOD9417918 Si02
#       5
#     8   8   8   8   8
#     4  10  21  37  61  87 113 149 194 239 283 340
#     4  11  23  38  58  85 118 151 189 236 288 341
#     4  10  20  37  61  86 114 149 191 238 287 339
#     4  10  21  39  59  82 115 151 187 235 286 334
#     4  10  22  39  57  83 118 153 190 235 288 340
#
# _framework density 19.339141999999999
#
# number of rings (size 3 to 8) (size 9 to 14) (size 15 to 20)
#    0.000    1.800    2.000    1.800    0.000    8.400 
#    0.000    4.000    0.000    3.600    0.000    0.000 
#    0.000    0.000    0.000    0.000    0.000    0.000 
#
# Total GULP energy -223478.078333 kJ/mol
# GULP energy per Si atom -5586.951958 kJ/mol
# Density = 1.929513 g / cm^3
# Si number density = 19.339142 Si / 1000 Ang^3
#
#
#
# Elastic Constant Matrix: (Units=GPa)
#
#
# Indices 1 2 3 4 5 6 
#
# 1 5.0577 14.4608 7.1206 0.0000 0.0000 0.0000
# 2 14.4608 185.2583 77.8906 0.0000 0.0000 0.0000
# 3 7.1206 77.8906 85.8518 0.0000 0.0000 0.0000
# 4 0.0000 0.0000 0.0000 32.7680 0.0000 0.0000
# 5 0.0000 0.0000 0.0000 0.0000 -21.2757 0.0000
# 6 0.0000 0.0000 0.0000 0.0000 0.0000 -3.7103
#
#
#
# Elastic Compliance Matrix: (Units=1/GPa)
#
#
# Indices 1 2 3 4 5 6 
#
# 1 0.255850 -0.017863 -0.005014 0.000000 0.000000 0.000000
# 2 -0.017863 0.009974 -0.007567 0.000000 0.000000 0.000000
# 3 -0.005014 -0.007567 0.018929 0.000000 0.000000 0.000000
# 4 0.000000 0.000000 0.000000 0.030518 0.000000 0.000000
# 5 0.000000 0.000000 0.000000 0.000000 -0.047002 0.000000
# 6 0.000000 0.000000 0.000000 0.000000 0.000000 -0.269523
#
#
# Mechanical properties :
#
#
# Convention : Reuss Voigt Hill
#
# Bulk Modulus (GPa) = 4.46697 52.79020 28.62859
# Shear Modulus (GPa) = 37.24203 13.33614 25.28909
#
# Velocity S-wave (km/s) = 4.39308 2.62886 3.62009
# Velocity P-wave (km/s) = 5.29594 6.04739 5.68410
#
# Compressibility (1/GPa) = 0.22386521
#
# Stress axis : x y z
#
# Youngs Moduli (GPa) = 3.90853 100.26204 52.82763
#
# Poissons Ratio (x) = 1.79098 0.26487
# Poissons Ratio (y) = 0.06982 0.39977
# Poissons Ratio (z) = 0.01960 0.75872
#
# Static dielectric constant tensor:
#      x y z
#    x 1.680010 0.000000 0.000000 
#    y 0.000000 1.646260 0.000000 
#    z 0.000000 0.000000 1.668400 
# 
# From -- ./inp_files/25820.got.cif
#   From: 2010.05.17/outbox.cif.g08.bks.cpg/sg53_13_cif.got.tgz:25820.got - 2010.06.03 12:45:16.
