data_PCOD9417551
_publ_section_title
;
Structure prediction by ZEFSAII (Michael W. Deem and Ramdas Pophale) SiO2 
 PCOD9417551
Probable space group: P M N A
;
_chemical_formula_sum "Si O2"
_cell_formula_units_Z 48
_cell_length_a 8.610070
_cell_length_b 31.935522
_cell_length_c 9.452026
_cell_angle_alpha 90.000000
_cell_angle_beta 90.000000
_cell_angle_gamma 90.000000
_cell_volume 2598.995988
_symmetry_space_group_name_H-M "P M N A"
_symmetry_group_IT_number 53
_symmetry_cell_setting 'orthorhombic'
loop_
_space_group_symop_operation_xyz
x,y,z
1/2-x,-y,1/2+z
x,-y,-z
1/2-x,y,1/2-z
-x,-y,-z
1/2+x,y,1/2-z
-x,y,z
1/2+x,-y,1/2+z
loop_
_atom_site_type_symbol
_atom_site_label
_atom_site_fract_x
_atom_site_fract_y
_atom_site_fract_z
Si Si1 0.814856 0.208434 0.591718
Si Si2 0.187297 0.039161 0.091624
Si Si3 0.812277 0.540651 0.090392
Si Si4 0.186622 0.132337 0.090630
Si Si5 0.687514 0.378512 0.408979
Si Si6 0.186708 0.298018 0.909167
O O1 0.750000 0.203311 0.750000
O O2 0.757562 0.169667 0.499568
O O3 0.749799 0.253163 0.539874
O O4 0.000000 0.210142 0.595019
O O5 0.250000 0.035586 0.250000
O O6 0.230021 0.085604 0.036656
O O7 0.000000 0.037719 0.095983
O O8 0.243647 0.000000 0.000000
O O9 0.750000 0.539834 0.250000
O O10 0.000000 0.540724 0.097184
O O11 0.763790 0.500000 0.000000
O O12 0.762344 0.582100 0.004940
O O13 0.250000 0.135175 0.250000
O O14 0.000000 0.135608 0.091055
O O15 0.750000 0.381163 0.250000
O O16 0.500000 0.379201 0.402982
O O17 0.734491 0.335749 0.488115
O O18 0.250000 0.304951 0.750000
O O19 0.000000 0.296470 0.902410
#
# Coordination Sequence:
#
# PCOD9417551 Si02
#       6
#     8   8   8   8   8   8
#     4  11  22  37  57  81 109 142 181 224 272 323
#     4   9  19  35  54  78 107 139 176 218 263 314
#     4  10  21  37  57  83 113 145 183 224 268 319
#     4  10  20  36  56  79 109 143 180 221 268 321
#     4  10  22  37  55  81 111 143 181 224 267 319
#     4  10  20  36  56  79 107 139 179 223 269 321
#
# _framework density 18.468671000000001
#
# number of rings (size 3 to 8) (size 9 to 14) (size 15 to 20)
#    0.000    2.000    0.000    4.500    0.000    4.667 
#    0.000    3.333    0.000    0.000    0.000    0.000 
#    0.000    0.000    0.000    0.000    0.000    0.000 
#
# Total GULP energy -268033.171279 kJ/mol
# GULP energy per Si atom -5584.024402 kJ/mol
# Density = 1.842664 g / cm^3
# Si number density = 18.468671 Si / 1000 Ang^3
#
#
#
# Elastic Constant Matrix: (Units=GPa)
#
#
# Indices 1 2 3 4 5 6 
#
# 1 56.9519 53.5107 31.5282 0.0000 0.0000 0.0000
# 2 53.5107 221.2442 116.2959 0.0000 0.0000 0.0000
# 3 31.5282 116.2959 118.4605 0.0000 0.0000 0.0000
# 4 0.0000 0.0000 0.0000 42.9718 0.0000 0.0000
# 5 0.0000 0.0000 0.0000 0.0000 35.6019 0.0000
# 6 0.0000 0.0000 0.0000 0.0000 0.0000 -36.9300
#
#
#
# Elastic Compliance Matrix: (Units=1/GPa)
#
#
# Indices 1 2 3 4 5 6 
#
# 1 0.022827 -0.004809 -0.001354 0.000000 0.000000 0.000000
# 2 -0.004809 0.010353 -0.008883 0.000000 0.000000 0.000000
# 3 -0.001354 -0.008883 0.017523 0.000000 0.000000 0.000000
# 4 0.000000 0.000000 0.000000 0.023271 0.000000 0.000000
# 5 0.000000 0.000000 0.000000 0.000000 0.028088 0.000000
# 6 0.000000 0.000000 0.000000 0.000000 0.000000 -0.027078
#
#
# Mechanical properties :
#
#
# Convention : Reuss Voigt Hill
#
# Bulk Modulus (GPa) = 48.52191 88.81402 68.66797
# Shear Modulus (GPa) = 44.66395 21.35019 33.00707
#
# Velocity S-wave (km/s) = 4.92302 3.40372 4.23211
# Velocity P-wave (km/s) = 7.65796 7.97750 7.81936
#
# Compressibility (1/GPa) = 0.02060924
#
# Stress axis : x y z
#
# Youngs Moduli (GPa) = 43.80798 96.59365 57.06730
#
# Poissons Ratio (x) = 0.46455 0.07727
# Poissons Ratio (y) = 0.21068 0.50696
# Poissons Ratio (z) = 0.05931 0.85809
#
# Static dielectric constant tensor:
#      x y z
#    x 1.622480 0.000000 0.000000 
#    y 0.000000 1.651660 0.000000 
#    z 0.000000 0.000000 1.583700 
# 
# From -- ./inp_files/6711.got.cif
#   From: 2010.05.17/outbox.cif.g08.bks.cpg/sg53_4_cif.got.tgz:6711.got - 2010.06.03 12:45:16.
