data_PCOD9417519
_publ_section_title
;
Structure prediction by ZEFSAII (Michael W. Deem and Ramdas Pophale) SiO2 
 PCOD9417519
Probable space group: P M N A
;
_chemical_formula_sum "Si O2"
_cell_formula_units_Z 48
_cell_length_a 8.508803
_cell_length_b 19.540346
_cell_length_c 14.158339
_cell_angle_alpha 90.000000
_cell_angle_beta 90.000000
_cell_angle_gamma 90.000000
_cell_volume 2354.035592
_symmetry_space_group_name_H-M "P M N A"
_symmetry_group_IT_number 53
_symmetry_cell_setting 'orthorhombic'
loop_
_space_group_symop_operation_xyz
x,y,z
1/2-x,-y,1/2+z
x,-y,-z
1/2-x,y,1/2-z
-x,-y,-z
1/2+x,y,1/2-z
-x,y,z
1/2+x,-y,1/2+z
loop_
_atom_site_type_symbol
_atom_site_label
_atom_site_fract_x
_atom_site_fract_y
_atom_site_fract_z
Si Si1 0.809970 0.752675 0.958213
Si Si2 0.311385 0.819052 0.354938
Si Si3 0.813516 0.112416 0.356942
Si Si4 0.688534 0.029412 0.641770
Si Si5 0.310538 0.536839 0.352792
Si Si6 0.308497 0.601923 0.550671
O O1 0.743481 0.818186 0.905058
O O2 0.756090 0.678253 0.923863
O O3 0.000000 0.755417 0.951488
O O4 0.765748 0.763211 0.068040
O O5 0.250000 0.807337 0.250000
O O6 0.500000 0.820540 0.349931
O O7 0.260729 0.894867 0.390982
O O8 0.750000 0.114505 0.250000
O O9 0.000000 0.109079 0.355961
O O10 0.750274 0.041290 0.401535
O O11 0.750000 0.028779 0.750000
O O12 0.500000 0.026373 0.639619
O O13 0.250000 0.557150 0.250000
O O14 0.500000 0.537806 0.350399
O O15 0.262207 0.582493 0.443142
O O16 0.258467 0.459487 0.380565
O O17 0.500000 0.601764 0.551484
#
# Coordination Sequence:
#
# PCOD9417519 Si02
#       6
#     8   8   8   8   8   8
#     4  10  20  36  54  75 104 141 175 209 254 308
#     4   9  19  33  52  75 102 135 174 216 262 308
#     4  11  22  36  53  75 101 134 173 218 264 310
#     4   9  16  30  50  72  97 130 171 217 260 306
#     4   9  17  33  56  81 103 133 171 207 247 296
#     4   8  17  34  54  74 105 140 170 202 246 303
#
# _framework density 20.390516999999999
#
# number of rings (size 3 to 8) (size 9 to 14) (size 15 to 20)
#    0.000    2.667    0.000    4.000    0.000    3.333 
#    0.000    8.333    0.000    0.000    0.000    0.000 
#    0.000    0.000    0.000    0.000    0.000    0.000 
#
# Total GULP energy -267720.208556 kJ/mol
# GULP energy per Si atom -5577.504345 kJ/mol
# Density = 2.034411 g / cm^3
# Si number density = 20.390517 Si / 1000 Ang^3
#
#
#
# Elastic Constant Matrix: (Units=GPa)
#
#
# Indices 1 2 3 4 5 6 
#
# 1 28.9197 14.4104 -3.7795 0.0000 0.0000 0.0000
# 2 14.4104 69.4957 -21.2110 0.0000 0.0000 0.0000
# 3 -3.7795 -21.2110 34.4204 0.0000 0.0000 0.0000
# 4 0.0000 0.0000 0.0000 14.9170 0.0000 0.0000
# 5 0.0000 0.0000 0.0000 0.0000 22.7711 0.0000
# 6 0.0000 0.0000 0.0000 0.0000 0.0000 11.6746
#
#
#
# Elastic Compliance Matrix: (Units=1/GPa)
#
#
# Indices 1 2 3 4 5 6 
#
# 1 0.038583 -0.008261 -0.000854 0.000000 0.000000 0.000000
# 2 -0.008261 0.019492 0.011104 0.000000 0.000000 0.000000
# 3 -0.000854 0.011104 0.035802 0.000000 0.000000 0.000000
# 4 0.000000 0.000000 0.000000 0.067038 0.000000 0.000000
# 5 0.000000 0.000000 0.000000 0.000000 0.043915 0.000000
# 6 0.000000 0.000000 0.000000 0.000000 0.000000 0.085656
#
#
# Mechanical properties :
#
#
# Convention : Reuss Voigt Hill
#
# Bulk Modulus (GPa) = 10.21930 12.40840 11.31385
# Shear Modulus (GPa) = 15.66780 19.43360 17.55070
#
# Velocity S-wave (km/s) = 2.77499 3.09053 2.93700
# Velocity P-wave (km/s) = 3.91025 4.33979 4.13061
#
# Compressibility (1/GPa) = 0.09785401
#
# Stress axis : x y z
#
# Youngs Moduli (GPa) = 25.91797 51.30436 27.93176
#
# Poissons Ratio (x) = 0.42383 0.02386
# Poissons Ratio (y) = 0.21411 -0.31016
# Poissons Ratio (z) = 0.02214 -0.56969
#
# Static dielectric constant tensor:
#      x y z
#    x 1.662430 0.000000 0.000000 
#    y 0.000000 1.752400 0.000000 
#    z 0.000000 0.000000 1.782920 
# 
# From -- ./inp_files/20319.got.cif
#   From: 2010.05.17/outbox.cif.g08.bks.cpg/sg53_11_cif.got.tgz:20319.got - 2010.06.03 12:45:16.
