data_PCOD9417358
_publ_section_title
;
Structure prediction by ZEFSAII (Michael W. Deem and Ramdas Pophale) SiO2 
 PCOD9417358
Probable space group: P M N A
;
_chemical_formula_sum "Si O2"
_cell_formula_units_Z 48
_cell_length_a 8.630102
_cell_length_b 13.027674
_cell_length_c 24.128202
_cell_angle_alpha 90.000000
_cell_angle_beta 90.000000
_cell_angle_gamma 90.000000
_cell_volume 2712.737501
_symmetry_space_group_name_H-M "P M N A"
_symmetry_group_IT_number 53
_symmetry_cell_setting 'orthorhombic'
loop_
_space_group_symop_operation_xyz
x,y,z
1/2-x,-y,1/2+z
x,-y,-z
1/2-x,y,1/2-z
-x,-y,-z
1/2+x,y,1/2-z
-x,y,z
1/2+x,-y,1/2+z
loop_
_atom_site_type_symbol
_atom_site_label
_atom_site_fract_x
_atom_site_fract_y
_atom_site_fract_z
Si Si1 0.687219 0.306057 0.876025
Si Si2 0.186241 0.120462 0.188649
Si Si3 0.686943 0.619275 0.003079
Si Si4 0.814283 0.500115 0.811333
Si Si5 0.813807 0.895863 0.311268
Si Si6 0.313142 0.690950 0.611824
O O1 0.500000 0.312603 0.874180
O O2 0.754136 0.393398 0.836106
O O3 0.731439 0.194078 0.853531
O O4 0.737119 0.331202 0.938724
O O5 0.250000 0.145429 0.250000
O O6 0.234632 0.206725 0.144644
O O7 0.000000 0.118178 0.191476
O O8 0.247934 0.007546 0.173786
O O9 0.500000 0.619585 0.001736
O O10 0.747896 0.678774 0.949604
O O11 0.738274 0.500000 0.000000
O O12 0.750000 0.516783 0.750000
O O13 0.763866 0.592087 0.852057
O O14 0.000000 0.499206 0.809387
O O15 0.750000 0.870593 0.250000
O O16 0.000000 0.901628 0.308576
O O17 0.500000 0.690390 0.609184
#
# Coordination Sequence:
#
# PCOD9417358 Si02
#       6
#     8   8   8   8   8   8
#     4  10  21  37  55  80 110 141 181 224 269 322
#     4  10  20  36  57  81 110 142 181 223 271 324
#     4  10  20  36  58  80 106 145 186 224 268 319
#     4  11  22  34  52  79 110 141 175 218 271 324
#     4  10  20  35  56  80 109 141 178 221 269 322
#     4  10  22  37  54  80 110 142 180 223 269 322
#
# _framework density 17.694303999999999
#
# number of rings (size 3 to 8) (size 9 to 14) (size 15 to 20)
#    0.000    1.833    1.667    3.500    0.000    5.667 
#    0.000    0.833    0.000    5.000    0.000    0.000 
#    0.000    0.000    0.000    0.000    0.000    0.000 
#
# Total GULP energy -268081.089443 kJ/mol
# GULP energy per Si atom -5585.022697 kJ/mol
# Density = 1.765403 g / cm^3
# Si number density = 17.694304 Si / 1000 Ang^3
#
#
#
# Elastic Constant Matrix: (Units=GPa)
#
#
# Indices 1 2 3 4 5 6 
#
# 1 21.7114 23.3254 15.0702 0.0000 0.0000 0.0000
# 2 23.3254 106.8585 47.4120 0.0000 0.0000 0.0000
# 3 15.0702 47.4120 81.1944 0.0000 0.0000 0.0000
# 4 0.0000 0.0000 0.0000 20.0443 0.0000 0.0000
# 5 0.0000 0.0000 0.0000 0.0000 30.7598 0.0000
# 6 0.0000 0.0000 0.0000 0.0000 0.0000 138.5366
#
#
#
# Elastic Compliance Matrix: (Units=1/GPa)
#
#
# Indices 1 2 3 4 5 6 
#
# 1 0.061541 -0.011290 -0.004830 0.000000 0.000000 0.000000
# 2 -0.011290 0.014702 -0.006489 0.000000 0.000000 0.000000
# 3 -0.004830 -0.006489 0.017002 0.000000 0.000000 0.000000
# 4 0.000000 0.000000 0.000000 0.049889 0.000000 0.000000
# 5 0.000000 0.000000 0.000000 0.000000 0.032510 0.000000
# 6 0.000000 0.000000 0.000000 0.000000 0.000000 0.007218
#
#
# Mechanical properties :
#
#
# Convention : Reuss Voigt Hill
#
# Bulk Modulus (GPa) = 20.82210 42.37550 31.59880
# Shear Modulus (GPa) = 20.48429 46.13192 33.30810
#
# Velocity S-wave (km/s) = 3.40616 5.11158 4.34339
# Velocity P-wave (km/s) = 5.22134 7.67061 6.56128
#
# Compressibility (1/GPa) = 0.04802589
#
# Stress axis : x y z
#
# Youngs Moduli (GPa) = 16.24939 68.01828 58.81719
#
# Poissons Ratio (x) = 0.76796 0.28406
# Poissons Ratio (y) = 0.18346 0.38168
# Poissons Ratio (z) = 0.07848 0.44139
#
# Static dielectric constant tensor:
#      x y z
#    x 1.601760 0.000000 0.000000 
#    y 0.000000 1.592190 0.000000 
#    z 0.000000 0.000000 1.576420 
# 
# From -- ./inp_files/33861.got.cif
#   From: 2010.05.17/outbox.cif.g08.bks.cpg/sg53_17_cif.got.tgz:33861.got - 2010.06.03 12:45:16.
