data_PCOD9417346
_publ_section_title
;
Structure prediction by ZEFSAII (Michael W. Deem and Ramdas Pophale) SiO2 
 PCOD9417346
Probable space group: P M N A
;
_chemical_formula_sum "Si O2"
_cell_formula_units_Z 48
_cell_length_a 14.178219
_cell_length_b 13.825760
_cell_length_c 12.274152
_cell_angle_alpha 90.000000
_cell_angle_beta 90.000000
_cell_angle_gamma 90.000000
_cell_volume 2406.036388
_symmetry_space_group_name_H-M "P M N A"
_symmetry_group_IT_number 53
_symmetry_cell_setting 'orthorhombic'
loop_
_space_group_symop_operation_xyz
x,y,z
1/2-x,-y,1/2+z
x,-y,-z
1/2-x,y,1/2-z
-x,-y,-z
1/2+x,y,1/2-z
-x,y,z
1/2+x,-y,1/2+z
loop_
_atom_site_type_symbol
_atom_site_label
_atom_site_fract_x
_atom_site_fract_y
_atom_site_fract_z
Si Si1 0.389355 0.133346 0.302232
Si Si2 0.890938 0.915591 0.216504
Si Si3 0.102563 0.113216 0.530119
Si Si4 0.886858 0.657565 0.718519
Si Si5 0.780550 0.401734 0.067088
Si Si6 0.698918 0.196751 0.521072
O O1 0.500000 0.127622 0.281405
O O2 0.358777 0.229461 0.238107
O O3 0.368612 0.154248 0.428147
O O4 0.353684 0.025875 0.277549
O O5 0.893941 0.877704 0.339394
O O6 0.830666 0.850527 0.135014
O O7 0.000000 0.917643 0.176618
O O8 0.195713 0.164264 0.489455
O O9 0.000000 0.149660 0.490869
O O10 0.106717 0.000000 0.500000
O O11 0.822590 0.615820 0.621542
O O12 0.852740 0.605517 0.830535
O O13 0.000000 0.649788 0.704349
O O14 0.785205 0.500000 0.000000
O O15 0.804032 0.311913 0.987796
#
# Coordination Sequence:
#
# PCOD9417346 Si02
#       6
#     8   8   8   8   8   8
#     4   9  18  34  60  88 115 146 190 242 287 352
#     4  10  20  35  55  84 121 154 189 238 290 351
#     4  10  22  36  50  78 119 160 196 230 281 354
#     4   9  20  41  66  92 117 155 203 247 310 376
#     4  10  23  42  62  89 123 153 204 267 311 353
#     4  11  21  35  57  83 113 154 193 240 299 354
#
# _framework density 19.949822999999999
#
# number of rings (size 3 to 8) (size 9 to 14) (size 15 to 20)
#    0.000    2.167    0.000    2.500    2.333    3.333 
#    9.000    0.000    0.000    0.000    0.000    0.000 
#    0.000    0.000    0.000    0.000    0.000    0.000 
#
# Total GULP energy -268052.974060 kJ/mol
# GULP energy per Si atom -5584.436960 kJ/mol
# Density = 1.990442 g / cm^3
# Si number density = 19.949823 Si / 1000 Ang^3
#
#
#
# Elastic Constant Matrix: (Units=GPa)
#
#
# Indices 1 2 3 4 5 6 
#
# 1 101.6212 32.6119 28.8038 0.0000 0.0000 0.0000
# 2 32.6119 93.1168 34.8734 0.0000 0.0000 0.0000
# 3 28.8038 34.8734 95.5037 0.0000 0.0000 0.0000
# 4 0.0000 0.0000 0.0000 26.2172 0.0000 0.0000
# 5 0.0000 0.0000 0.0000 0.0000 17.6161 0.0000
# 6 0.0000 0.0000 0.0000 0.0000 0.0000 -3.7499
#
#
#
# Elastic Compliance Matrix: (Units=1/GPa)
#
#
# Indices 1 2 3 4 5 6 
#
# 1 0.011513 -0.003164 -0.002317 0.000000 0.000000 0.000000
# 2 -0.003164 0.013310 -0.003906 0.000000 0.000000 0.000000
# 3 -0.002317 -0.003906 0.012596 0.000000 0.000000 0.000000
# 4 0.000000 0.000000 0.000000 0.038143 0.000000 0.000000
# 5 0.000000 0.000000 0.000000 0.000000 0.056766 0.000000
# 6 0.000000 0.000000 0.000000 0.000000 0.000000 -0.266674
#
#
# Mechanical properties :
#
#
# Convention : Reuss Voigt Hill
#
# Bulk Modulus (GPa) = 53.63465 53.64665 53.64065
# Shear Modulus (GPa) = -45.72169 20.94685 -12.38742
#
# Velocity S-wave (km/s) = -4.79250 3.24385 -2.49455
# Velocity P-wave (km/s) = 1.91859 6.40150 4.31846
#
# Compressibility (1/GPa) = 0.01864466
#
# Stress axis : x y z
#
# Youngs Moduli (GPa) = 86.86121 75.13010 79.39179
#
# Poissons Ratio (x) = 0.23774 0.18393
# Poissons Ratio (y) = 0.27486 0.31010
# Poissons Ratio (z) = 0.20123 0.29345
#
# Static dielectric constant tensor:
#      x y z
#    x 1.751550 0.000000 0.000000 
#    y 0.000000 1.686060 0.000000 
#    z 0.000000 0.000000 1.665490 
# 
# From -- ./inp_files/15929.got.cif
#   From: 2010.05.17/outbox.cif.g08.bks.cpg/sg53_8_cif.got.tgz:15929.got - 2010.06.03 12:45:16.
