data_PCOD9417169
_publ_section_title
;
Structure prediction by ZEFSAII (Michael W. Deem and Ramdas Pophale) SiO2 
 PCOD9417169
Probable space group: P M N A
;
_chemical_formula_sum "Si O2"
_cell_formula_units_Z 64
_cell_length_a 8.876573
_cell_length_b 17.762878
_cell_length_c 22.605998
_cell_angle_alpha 90.000000
_cell_angle_beta 90.000000
_cell_angle_gamma 90.000000
_cell_volume 3564.366447
_symmetry_space_group_name_H-M "P M N A"
_symmetry_group_IT_number 53
_symmetry_cell_setting 'orthorhombic'
loop_
_space_group_symop_operation_xyz
x,y,z
1/2-x,-y,1/2+z
x,-y,-z
1/2-x,y,1/2-z
-x,-y,-z
1/2+x,y,1/2-z
-x,y,z
1/2+x,-y,1/2+z
loop_
_atom_site_type_symbol
_atom_site_label
_atom_site_fract_x
_atom_site_fract_y
_atom_site_fract_z
Si Si1 0.822236 0.402914 0.152305
Si Si2 0.678077 0.319755 0.911672
Si Si3 0.680334 0.851598 0.584992
Si Si4 0.826947 0.990942 0.428646
Si Si5 0.319789 0.834547 0.446184
Si Si6 0.180381 0.573518 0.187438
Si Si7 0.324413 0.582379 0.972089
Si Si8 0.820862 0.751243 0.688409
O O1 0.780785 0.485845 0.175555
O O2 0.783513 0.403332 0.082763
O O3 0.728921 0.335554 0.180936
O O4 0.000000 0.390321 0.162107
O O5 0.500000 0.314129 0.900127
O O6 0.753192 0.238279 0.914436
O O7 0.753002 0.374647 0.864026
O O8 0.697549 0.357821 0.975973
O O9 0.500000 0.847695 0.590347
O O10 0.738118 0.936756 0.595242
O O11 0.720223 0.831810 0.516590
O O12 0.756064 0.796319 0.632140
O O13 0.000000 0.991074 0.408263
O O14 0.827914 0.000000 0.500000
O O15 0.747571 0.911054 0.419052
O O16 0.500000 0.836083 0.442532
O O17 0.250000 0.596071 0.250000
O O18 0.000000 0.579447 0.188117
O O19 0.500000 0.585469 0.952225
O O20 0.299158 0.500000 0.000000
O O21 0.750000 0.779506 0.750000
O O22 0.000000 0.757375 0.689998
#
# Coordination Sequence:
#
# PCOD9417169 Si02
#       8
#     8   8   8   8   8   8   8   8
#     4  11  23  38  58  83 111 146 187 234 284 336
#     4  11  22  36  56  81 112 147 186 230 280 332
#     4  10  20  36  58  85 117 151 186 227 279 335
#     4   9  17  31  54  84 116 148 182 219 266 325
#     4  10  20  34  55  85 119 150 185 230 281 335
#     4  11  24  40  58  78 103 140 186 233 280 330
#     4  10  20  35  55  81 112 147 184 228 282 337
#     4  12  25  40  58  80 111 150 194 240 284 336
#
# _framework density 17.955506
#
# number of rings (size 3 to 8) (size 9 to 14) (size 15 to 20)
#    0.000    1.500    1.250    4.500    0.000    8.750 
#    0.000    0.000    0.000    0.750    0.000    5.250 
#    0.000    0.000    0.000    0.000    0.000    0.000 
#
# Total GULP energy -357668.424222 kJ/mol
# GULP energy per Si atom -5588.569128 kJ/mol
# Density = 1.791464 g / cm^3
# Si number density = 17.955506 Si / 1000 Ang^3
#
#
#
# Elastic Constant Matrix: (Units=GPa)
#
#
# Indices 1 2 3 4 5 6 
#
# 1 84.5475 49.4495 36.3850 0.0000 0.0000 0.0000
# 2 49.4495 118.3425 25.0780 0.0000 0.0000 0.0000
# 3 36.3850 25.0780 61.2919 0.0000 0.0000 0.0000
# 4 0.0000 0.0000 0.0000 5.9641 0.0000 0.0000
# 5 0.0000 0.0000 0.0000 0.0000 18.6429 0.0000
# 6 0.0000 0.0000 0.0000 0.0000 0.0000 46.0311
#
#
#
# Elastic Compliance Matrix: (Units=1/GPa)
#
#
# Indices 1 2 3 4 5 6 
#
# 1 0.019269 -0.006162 -0.008918 0.000000 0.000000 0.000000
# 2 -0.006162 0.011223 -0.000934 0.000000 0.000000 0.000000
# 3 -0.008918 -0.000934 0.021991 0.000000 0.000000 0.000000
# 4 0.000000 0.000000 0.000000 0.167670 0.000000 0.000000
# 5 0.000000 0.000000 0.000000 0.000000 0.053640 0.000000
# 6 0.000000 0.000000 0.000000 0.000000 0.000000 0.021724
#
#
# Mechanical properties :
#
#
# Convention : Reuss Voigt Hill
#
# Bulk Modulus (GPa) = 48.88484 54.00076 51.44280
# Shear Modulus (GPa) = 14.95377 24.34560 19.64968
#
# Velocity S-wave (km/s) = 2.88900 3.68623 3.31169
# Velocity P-wave (km/s) = 6.19783 6.94678 6.58296
#
# Compressibility (1/GPa) = 0.02045624
#
# Stress axis : x y z
#
# Youngs Moduli (GPa) = 51.89587 89.10491 45.47238
#
# Poissons Ratio (x) = 0.54906 0.40551
# Poissons Ratio (y) = 0.31978 0.04247
# Poissons Ratio (z) = 0.46279 0.08322
#
# Static dielectric constant tensor:
#      x y z
#    x 1.601260 0.000000 0.000000 
#    y 0.000000 1.603160 0.000000 
#    z 0.000000 0.000000 1.592070 
# 
# From -- ./inp_files/31123.got.cif
#   From: 2010.05.17/outbox.cif.g08.bks.cpg/sg53_16_cif.got.tgz:31123.got - 2010.06.03 12:45:16.
