data_PCOD9417482
_publ_section_title
;
Structure prediction by ZEFSAII (Michael W. Deem and Ramdas Pophale) SiO2 
 PCOD9417482
Probable space group: P M N A
;
_chemical_formula_sum "Si O2"
_cell_formula_units_Z 40
_cell_length_a 14.162643
_cell_length_b 12.009486
_cell_length_c 11.549575
_cell_angle_alpha 90.000000
_cell_angle_beta 90.000000
_cell_angle_gamma 90.000000
_cell_volume 1964.421739
_symmetry_space_group_name_H-M "P M N A"
_symmetry_group_IT_number 53
_symmetry_cell_setting 'orthorhombic'
loop_
_space_group_symop_operation_xyz
x,y,z
1/2-x,-y,1/2+z
x,-y,-z
1/2-x,y,1/2-z
-x,-y,-z
1/2+x,y,1/2-z
-x,y,z
1/2+x,-y,1/2+z
loop_
_atom_site_type_symbol
_atom_site_label
_atom_site_fract_x
_atom_site_fract_y
_atom_site_fract_z
Si Si1 0.607975 0.774878 0.820607
Si Si2 0.809520 0.098194 0.912707
Si Si3 0.889334 0.965280 0.335238
Si Si4 0.765393 0.439610 0.382320
Si Si5 0.107288 0.710791 0.943152
O O1 0.500000 0.750662 0.855766
O O2 0.675239 0.675506 0.863302
O O3 0.611430 0.773348 0.680725
O O4 0.629216 0.902494 0.852735
O O5 0.696082 0.097214 0.898755
O O6 0.865622 0.067848 0.796372
O O7 0.841439 0.215391 0.962051
O O8 0.834883 0.000000 0.000000
O O9 0.000000 0.943450 0.363215
O O10 0.803943 0.500000 0.500000
O O11 0.750000 0.489212 0.250000
O O12 0.661572 0.401955 0.419695
O O13 0.000000 0.694261 0.976013
#
# Coordination Sequence:
#
# PCOD9417482 Si02
#       5
#     8   8   8   8   8
#     4   9  18  35  61  89 120 159 207 255 307 377
#     4  11  20  32  56  85 121 163 205 252 298 366
#     4  10  21  34  53  87 126 165 204 249 307 368
#     4  10  22  41  65  92 121 158 207 265 326 377
#     4  10  20  35  59  87 116 158 210 258 306 368
#
# _framework density 20.362227000000001
#
# number of rings (size 3 to 8) (size 9 to 14) (size 15 to 20)
#    0.000    2.000    2.000    1.800    5.600    2.000 
#    3.600    1.000    0.000    1.200    0.000    0.000 
#    0.000    0.000    0.000    0.000    0.000    0.000 
#
# Total GULP energy -222978.117071 kJ/mol
# GULP energy per Si atom -5574.452927 kJ/mol
# Density = 2.031588 g / cm^3
# Si number density = 20.362227 Si / 1000 Ang^3
#
#
#
# Elastic Constant Matrix: (Units=GPa)
#
#
# Indices 1 2 3 4 5 6 
#
# 1 130.3126 43.1155 36.2886 0.0000 0.0000 0.0000
# 2 43.1155 36.1915 41.4778 0.0000 0.0000 0.0000
# 3 36.2886 41.4778 117.1718 0.0000 0.0000 0.0000
# 4 0.0000 0.0000 0.0000 10.4784 0.0000 0.0000
# 5 0.0000 0.0000 0.0000 0.0000 24.5238 0.0000
# 6 0.0000 0.0000 0.0000 0.0000 0.0000 17.9704
#
#
#
# Elastic Compliance Matrix: (Units=1/GPa)
#
#
# Indices 1 2 3 4 5 6 
#
# 1 0.013076 -0.018402 0.002465 0.000000 0.000000 0.000000
# 2 -0.018402 0.072391 -0.019926 0.000000 0.000000 0.000000
# 3 0.002465 -0.019926 0.014825 0.000000 0.000000 0.000000
# 4 0.000000 0.000000 0.000000 0.095434 0.000000 0.000000
# 5 0.000000 0.000000 0.000000 0.000000 0.040777 0.000000
# 6 0.000000 0.000000 0.000000 0.000000 0.000000 0.055647
#
#
# Mechanical properties :
#
#
# Convention : Reuss Voigt Hill
#
# Bulk Modulus (GPa) = 35.00976 58.38218 46.69597
# Shear Modulus (GPa) = 13.39048 21.44746 17.41897
#
# Velocity S-wave (km/s) = 2.56718 3.24897 2.92799
# Velocity P-wave (km/s) = 5.10079 6.54282 5.86628
#
# Compressibility (1/GPa) = 0.02856347
#
# Stress axis : x y z
#
# Youngs Moduli (GPa) = 76.47473 13.81389 67.45377
#
# Poissons Ratio (x) = 0.25421 -0.16624
# Poissons Ratio (y) = 1.40732 1.34411
# Poissons Ratio (z) = -0.18847 0.27526
#
# Static dielectric constant tensor:
#      x y z
#    x 1.741500 0.000000 0.000000 
#    y 0.000000 1.724210 0.000000 
#    z 0.000000 0.000000 1.813630 
# 
# From -- ./inp_files/15756.got.cif
#   From: 2010.05.17/outbox.cif.g08.bks.cpg/sg53_8_cif.got.tgz:15756.got - 2010.06.03 12:45:16.
