data_PCOD9417507
_publ_section_title
;
Structure prediction by ZEFSAII (Michael W. Deem and Ramdas Pophale) SiO2 
 PCOD9417507
Probable space group: P M N A
;
_chemical_formula_sum "Si O2"
_cell_formula_units_Z 48
_cell_length_a 28.752484
_cell_length_b 5.894939
_cell_length_c 14.097639
_cell_angle_alpha 90.000000
_cell_angle_beta 90.000000
_cell_angle_gamma 90.000000
_cell_volume 2389.467188
_symmetry_space_group_name_H-M "P M N A"
_symmetry_group_IT_number 53
_symmetry_cell_setting 'orthorhombic'
loop_
_space_group_symop_operation_xyz
x,y,z
1/2-x,-y,1/2+z
x,-y,-z
1/2-x,y,1/2-z
-x,-y,-z
1/2+x,y,1/2-z
-x,y,z
1/2+x,-y,1/2+z
loop_
_atom_site_type_symbol
_atom_site_label
_atom_site_fract_x
_atom_site_fract_y
_atom_site_fract_z
Si Si1 0.050491 0.746180 0.946662
Si Si2 0.638243 0.946075 0.894857
Si Si3 0.380969 0.660404 0.249222
Si Si4 0.804407 0.298905 0.245800
Si Si5 0.364777 0.032336 0.389855
Si Si6 0.555094 0.609107 0.893632
O O1 0.096294 0.769694 0.883787
O O2 0.000000 0.742092 0.898363
O O3 0.053295 0.500000 0.000000
O O4 0.050989 0.000000 0.000000
O O5 0.674873 0.779852 0.846283
O O6 0.587153 0.832365 0.894025
O O7 0.635821 0.168620 0.832333
O O8 0.652162 0.000000 0.000000
O O9 0.336263 0.513261 0.277259
O O10 0.423215 0.532981 0.195165
O O11 0.389815 0.816764 0.341042
O O12 0.750000 0.337434 0.250000
O O13 0.820243 0.107413 0.170273
O O14 0.352933 0.000000 0.500000
O O15 0.500000 0.645262 0.881409
O O16 0.561601 0.500000 0.000000
#
# Coordination Sequence:
#
# PCOD9417507 Si02
#       6
#     8   8   8   8   8   8
#     4   9  19  36  62  93 126 168 217 266 318 385
#     4  10  20  39  64  89 125 164 206 260 325 386
#     4  10  22  40  60  89 128 168 207 269 323 390
#     4  10  24  42  62  92 123 160 214 277 336 399
#     4  10  23  40  67  91 127 172 218 271 334 396
#     4  10  20  35  62  96 130 170 213 256 310 385
#
# _framework density 20.088159000000001
#
# number of rings (size 3 to 8) (size 9 to 14) (size 15 to 20)
#    0.000    2.167    1.667    0.000    4.667    5.000 
#    0.000    8.333    0.000    0.000    0.000    0.000 
#    0.000    0.000    0.000    0.000    0.000    0.000 
#
# Total GULP energy -267271.685233 kJ/mol
# GULP energy per Si atom -5568.160109 kJ/mol
# Density = 2.004244 g / cm^3
# Si number density = 20.088159 Si / 1000 Ang^3
#
#
#
# Elastic Constant Matrix: (Units=GPa)
#
#
# Indices 1 2 3 4 5 6 
#
# 1 159.0526 31.7442 33.3444 0.0000 0.0000 0.0000
# 2 31.7442 70.9472 28.4511 0.0000 0.0000 0.0000
# 3 33.3444 28.4511 118.9547 0.0000 0.0000 0.0000
# 4 0.0000 0.0000 0.0000 35.7979 0.0000 0.0000
# 5 0.0000 0.0000 0.0000 0.0000 -3.2949 0.0000
# 6 0.0000 0.0000 0.0000 0.0000 0.0000 -91.8688
#
#
#
# Elastic Compliance Matrix: (Units=1/GPa)
#
#
# Indices 1 2 3 4 5 6 
#
# 1 0.007097 -0.002630 -0.001360 0.000000 0.000000 0.000000
# 2 -0.002630 0.016565 -0.003225 0.000000 0.000000 0.000000
# 3 -0.001360 -0.003225 0.009559 0.000000 0.000000 0.000000
# 4 0.000000 0.000000 0.000000 0.027935 0.000000 0.000000
# 5 0.000000 0.000000 0.000000 0.000000 -0.303498 0.000000
# 6 0.000000 0.000000 0.000000 0.000000 0.000000 -0.010885
#
#
# Mechanical properties :
#
#
# Convention : Reuss Voigt Hill
#
# Bulk Modulus (GPa) = 53.21668 59.55935 56.38801
# Shear Modulus (GPa) = -21.50235 5.15450 -8.17393
#
# Velocity S-wave (km/s) = -3.27524 1.60359 -2.01937
# Velocity P-wave (km/s) = 3.49944 5.75691 4.76383
#
# Compressibility (1/GPa) = 0.01879110
#
# Stress axis : x y z
#
# Youngs Moduli (GPa) = 140.89779 60.36858 104.61154
#
# Poissons Ratio (x) = 0.15877 0.14232
# Poissons Ratio (y) = 0.37057 0.33734
# Poissons Ratio (z) = 0.19168 0.19467
#
# Static dielectric constant tensor:
#      x y z
#    x 1.681690 0.000000 0.000000 
#    y 0.000000 1.910370 0.000000 
#    z 0.000000 0.000000 1.750330 
# 
# From -- ./inp_files/24918.got.cif
#   From: 2010.05.17/outbox.cif.g08.bks.cpg/sg53_13_cif.got.tgz:24918.got - 2010.06.03 12:45:16.
