data_PCOD9417083
_publ_section_title
;
Structure prediction by ZEFSAII (Michael W. Deem and Ramdas Pophale) SiO2 
 PCOD9417083
Probable space group: P M N A
;
_chemical_formula_sum "Si O2"
_cell_formula_units_Z 64
_cell_length_a 9.084682
_cell_length_b 21.769488
_cell_length_c 15.420060
_cell_angle_alpha 90.000000
_cell_angle_beta 90.000000
_cell_angle_gamma 90.000000
_cell_volume 3049.607931
_symmetry_space_group_name_H-M "P M N A"
_symmetry_group_IT_number 53
_symmetry_cell_setting 'orthorhombic'
loop_
_space_group_symop_operation_xyz
x,y,z
1/2-x,-y,1/2+z
x,-y,-z
1/2-x,y,1/2-z
-x,-y,-z
1/2+x,y,1/2-z
-x,y,z
1/2+x,-y,1/2+z
loop_
_atom_site_type_symbol
_atom_site_label
_atom_site_fract_x
_atom_site_fract_y
_atom_site_fract_z
Si Si1 0.824010 0.046360 0.157071
Si Si2 0.822858 0.285096 0.021146
Si Si3 0.677625 0.852000 0.521655
Si Si4 0.658833 0.409167 0.826703
Si Si5 0.333856 0.733322 0.165375
Si Si6 0.659913 0.505925 0.399579
Si Si7 0.324729 0.903836 0.342646
Si Si8 0.321267 0.382011 0.155614
O O1 0.750000 0.056683 0.250000
O O2 0.000000 0.053986 0.166019
O O3 0.799681 0.975250 0.131595
O O4 0.769607 0.094412 0.085313
O O5 0.795054 0.216004 0.057544
O O6 0.759034 0.275437 0.923223
O O7 0.000000 0.296391 0.018165
O O8 0.741712 0.335297 0.081401
O O9 0.500000 0.858385 0.515439
O O10 0.730994 0.862485 0.422618
O O11 0.750000 0.440431 0.750000
O O12 0.500000 0.435982 0.841965
O O13 0.643615 0.338270 0.809847
O O14 0.768885 0.426012 0.900936
O O15 0.250000 0.760238 0.250000
O O16 0.500000 0.758964 0.152694
O O17 0.639328 0.500000 0.500000
O O18 0.500000 0.503648 0.355412
O O19 0.763338 0.450779 0.366884
O O20 0.250000 0.894882 0.250000
O O21 0.500000 0.894486 0.332319
O O22 0.250000 0.366285 0.250000
O O23 0.500000 0.379696 0.157888
#
# Coordination Sequence:
#
# PCOD9417083 Si02
#       8
#     8   8   8   8   8   8   8   8
#     4   9  17  32  55  82 112 146 186 230 280 339
#     4  11  23  40  60  84 116 153 199 250 298 350
#     4   9  19  35  56  81 110 149 192 234 283 342
#     4  10  20  34  54  79 107 137 172 217 269 330
#     4  10  21  38  60  86 117 155 197 242 297 357
#     4  11  23  38  59  87 117 147 181 227 286 348
#     4   9  17  32  55  83 115 150 186 227 279 340
#     4  12  26  45  66  87 117 158 205 252 301 355
#
# _framework density 20.986304000000001
#
# number of rings (size 3 to 8) (size 9 to 14) (size 15 to 20)
#    0.000    1.875    0.000    4.125    0.000    7.000 
#    0.000    5.625    0.000    3.000    0.000    0.000 
#    0.000    0.000    0.000    0.000    0.000    0.000 
#
# Total GULP energy -356480.302170 kJ/mol
# GULP energy per Si atom -5570.004721 kJ/mol
# Density = 2.093854 g / cm^3
# Si number density = 20.986304 Si / 1000 Ang^3
#
#
#
# Elastic Constant Matrix: (Units=GPa)
#
#
# Indices 1 2 3 4 5 6 
#
# 1 114.7216 42.2292 30.5639 0.0000 0.0000 0.0000
# 2 42.2292 90.5127 23.2988 0.0000 0.0000 0.0000
# 3 30.5639 23.2988 75.0416 0.0000 0.0000 0.0000
# 4 0.0000 0.0000 0.0000 9.6077 0.0000 0.0000
# 5 0.0000 0.0000 0.0000 0.0000 25.4476 0.0000
# 6 0.0000 0.0000 0.0000 0.0000 0.0000 22.0328
#
#
#
# Elastic Compliance Matrix: (Units=1/GPa)
#
#
# Indices 1 2 3 4 5 6 
#
# 1 0.011185 -0.004397 -0.003190 0.000000 0.000000 0.000000
# 2 -0.004397 0.013737 -0.002474 0.000000 0.000000 0.000000
# 3 -0.003190 -0.002474 0.015393 0.000000 0.000000 0.000000
# 4 0.000000 0.000000 0.000000 0.104083 0.000000 0.000000
# 5 0.000000 0.000000 0.000000 0.000000 0.039296 0.000000
# 6 0.000000 0.000000 0.000000 0.000000 0.000000 0.045387
#
#
# Mechanical properties :
#
#
# Convention : Reuss Voigt Hill
#
# Bulk Modulus (GPa) = 49.52442 52.49551 51.00997
# Shear Modulus (GPa) = 19.53612 23.69656 21.61634
#
# Velocity S-wave (km/s) = 3.05437 3.36392 3.21288
# Velocity P-wave (km/s) = 6.00738 6.33691 6.17434
#
# Compressibility (1/GPa) = 0.02019206
#
# Stress axis : x y z
#
# Youngs Moduli (GPa) = 89.40197 72.79822 64.96262
#
# Poissons Ratio (x) = 0.32012 0.20726
# Poissons Ratio (y) = 0.39313 0.16071
# Poissons Ratio (z) = 0.28523 0.18009
#
# Static dielectric constant tensor:
#      x y z
#    x 1.717010 0.000000 0.000000 
#    y 0.000000 1.858710 0.000000 
#    z 0.000000 0.000000 2.123380 
# 
# From -- ./inp_files/20881.got.cif
#   From: 2010.05.17/outbox.cif.g08.bks.cpg/sg53_11_cif.got.tgz:20881.got - 2010.06.03 12:45:16.
