data_PCOD9417452
_publ_section_title
;
Structure prediction by ZEFSAII (Michael W. Deem and Ramdas Pophale) SiO2 
 PCOD9417452
Probable space group: P M N A
;
_chemical_formula_sum "Si O2"
_cell_formula_units_Z 48
_cell_length_a 15.401823
_cell_length_b 17.902832
_cell_length_c 8.360731
_cell_angle_alpha 90.000000
_cell_angle_beta 90.000000
_cell_angle_gamma 90.000000
_cell_volume 2305.356610
_symmetry_space_group_name_H-M "P M N A"
_symmetry_group_IT_number 53
_symmetry_cell_setting 'orthorhombic'
loop_
_space_group_symop_operation_xyz
x,y,z
1/2-x,-y,1/2+z
x,-y,-z
1/2-x,y,1/2-z
-x,-y,-z
1/2+x,y,1/2-z
-x,y,z
1/2+x,-y,1/2+z
loop_
_atom_site_type_symbol
_atom_site_label
_atom_site_fract_x
_atom_site_fract_y
_atom_site_fract_z
Si Si1 0.900661 0.149232 0.549648
Si Si2 0.099502 0.196166 0.918922
Si Si3 0.662753 0.291794 0.142707
Si Si4 0.095212 0.359072 0.050668
Si Si5 0.733861 0.576920 0.061690
Si Si6 0.267980 0.077999 0.438190
O O1 0.894491 0.178071 0.731560
O O2 0.875629 0.216662 0.430274
O O3 0.824865 0.089532 0.524077
O O4 0.000000 0.124639 0.520920
O O5 0.000000 0.180764 0.971938
O O6 0.114765 0.283819 0.949076
O O7 0.168462 0.145575 0.012527
O O8 0.750000 0.278507 0.250000
O O9 0.598931 0.331017 0.267445
O O10 0.683986 0.350175 0.001962
O O11 0.000000 0.386922 0.007737
O O12 0.172356 0.415982 0.022946
O O13 0.750000 0.576869 0.250000
O O14 0.692242 0.500000 0.000000
O O15 0.250000 0.076773 0.250000
O O16 0.306626 0.000000 0.500000
#
# Coordination Sequence:
#
# PCOD9417452 Si02
#       6
#     8   8   8   8   8   8
#     4  11  22  38  62  89 118 152 193 239 285 339
#     4  10  22  40  62  89 118 151 192 238 287 339
#     4  10  20  35  58  86 115 151 193 235 283 337
#     4  10  20  36  59  86 116 148 187 235 284 336
#     4  11  22  38  58  81 113 152 193 235 285 344
#     4  12  25  41  61  85 117 155 193 237 289 345
#
# _framework density 20.821073999999999
#
# number of rings (size 3 to 8) (size 9 to 14) (size 15 to 20)
#    0.000    1.333    0.000    8.000    0.000    3.000 
#    0.000    0.833    0.000    3.500    0.000    0.000 
#    0.000    0.000    0.000    0.000    0.000    0.000 
#
# Total GULP energy -268369.483305 kJ/mol
# GULP energy per Si atom -5591.030902 kJ/mol
# Density = 2.077368 g / cm^3
# Si number density = 20.821074 Si / 1000 Ang^3
#
#
#
# Elastic Constant Matrix: (Units=GPa)
#
#
# Indices 1 2 3 4 5 6 
#
# 1 74.9559 3.2439 -5.0938 0.0000 0.0000 0.0000
# 2 3.2439 42.5240 -6.0898 0.0000 0.0000 0.0000
# 3 -5.0938 -6.0898 88.5161 0.0000 0.0000 0.0000
# 4 0.0000 0.0000 0.0000 29.0257 0.0000 0.0000
# 5 0.0000 0.0000 0.0000 0.0000 14.9488 0.0000
# 6 0.0000 0.0000 0.0000 0.0000 0.0000 96.0267
#
#
#
# Elastic Compliance Matrix: (Units=1/GPa)
#
#
# Indices 1 2 3 4 5 6 
#
# 1 0.013429 -0.000923 0.000709 0.000000 0.000000 0.000000
# 2 -0.000923 0.023814 0.001585 0.000000 0.000000 0.000000
# 3 0.000709 0.001585 0.011447 0.000000 0.000000 0.000000
# 4 0.000000 0.000000 0.000000 0.034452 0.000000 0.000000
# 5 0.000000 0.000000 0.000000 0.000000 0.066895 0.000000
# 6 0.000000 0.000000 0.000000 0.000000 0.000000 0.010414
#
#
# Mechanical properties :
#
#
# Convention : Reuss Voigt Hill
#
# Bulk Modulus (GPa) = 19.44255 21.12405 20.28330
# Shear Modulus (GPa) = 28.59558 42.26262 35.42910
#
# Velocity S-wave (km/s) = 3.70996 4.51022 4.12952
# Velocity P-wave (km/s) = 5.26402 6.10658 5.70089
#
# Compressibility (1/GPa) = 0.05143358
#
# Stress axis : x y z
#
# Youngs Moduli (GPa) = 74.46398 41.99285 87.35709
#
# Poissons Ratio (x) = 0.03875 -0.06196
# Poissons Ratio (y) = 0.06872 -0.13848
# Poissons Ratio (z) = -0.05282 -0.06657
#
# Static dielectric constant tensor:
#      x y z
#    x 1.766060 0.000000 0.000000 
#    y 0.000000 1.730180 0.000000 
#    z 0.000000 0.000000 1.728610 
# 
# From -- ./inp_files/8641.got.cif
#   From: 2010.05.17/outbox.cif.g08.bks.cpg/sg53_5_cif.got.tgz:8641.got - 2010.06.03 12:45:16.
