data_PCOD9417685
_publ_section_title
;
Structure prediction by ZEFSAII (Michael W. Deem and Ramdas Pophale) SiO2 
 PCOD9417685
Probable space group: P M N A
;
_chemical_formula_sum "Si O2"
_cell_formula_units_Z 56
_cell_length_a 8.425492
_cell_length_b 23.251621
_cell_length_c 14.705372
_cell_angle_alpha 90.000000
_cell_angle_beta 90.000000
_cell_angle_gamma 90.000000
_cell_volume 2880.875706
_symmetry_space_group_name_H-M "P M N A"
_symmetry_group_IT_number 53
_symmetry_cell_setting 'orthorhombic'
loop_
_space_group_symop_operation_xyz
x,y,z
1/2-x,-y,1/2+z
x,-y,-z
1/2-x,y,1/2-z
-x,-y,-z
1/2+x,y,1/2-z
-x,y,z
1/2+x,-y,1/2+z
loop_
_atom_site_type_symbol
_atom_site_label
_atom_site_fract_x
_atom_site_fract_y
_atom_site_fract_z
Si Si1 0.189755 0.193504 0.529893
Si Si2 0.689461 0.906614 0.159364
Si Si3 0.310334 0.149454 0.348736
Si Si4 0.308408 0.531564 0.646519
Si Si5 0.809722 0.699411 0.146341
Si Si6 0.306808 0.415076 0.541746
Si Si7 0.189725 0.977212 0.904428
O O1 0.239116 0.132613 0.574816
O O2 0.252527 0.191611 0.427712
O O3 0.254464 0.244422 0.591894
O O4 0.000000 0.195751 0.530365
O O5 0.750000 0.875557 0.250000
O O6 0.500000 0.912748 0.160048
O O7 0.772013 0.968333 0.157128
O O8 0.250000 0.166222 0.250000
O O9 0.500000 0.147868 0.348689
O O10 0.248980 0.084292 0.370740
O O11 0.250000 0.541004 0.750000
O O12 0.500000 0.533076 0.649914
O O13 0.260425 0.469013 0.605853
O O14 0.257307 0.574208 0.563540
O O15 0.750000 0.698610 0.250000
O O16 0.753428 0.643559 0.089356
O O17 0.000000 0.698422 0.148631
O O18 0.500000 0.415099 0.540198
O O19 0.000000 0.971269 0.913054
O O20 0.258080 0.000000 0.000000
#
# Coordination Sequence:
#
# PCOD9417685 Si02
#       7
#     8   8   8   8   8   8   8
#     4  11  24  41  59  82 110 145 189 235 280 331
#     4  11  23  36  55  80 109 142 178 222 274 332
#     4  11  23  40  62  85 112 146 184 230 282 340
#     4   9  16  31  54  82 116 153 191 232 279 333
#     4  11  22  38  60  85 113 149 190 234 285 338
#     4   8  17  33  54  80 115 156 192 228 280 341
#     4  10  20  36  58  84 112 142 176 219 275 336
#
# _framework density 19.438534000000001
#
# number of rings (size 3 to 8) (size 9 to 14) (size 15 to 20)
#    0.000    1.857    1.429    3.857    0.000    5.429 
#    0.000    4.286    0.000    1.714    0.000    0.000 
#    0.000    0.000    0.000    0.000    0.000    0.000 
#
# Total GULP energy -312476.729683 kJ/mol
# GULP energy per Si atom -5579.941601 kJ/mol
# Density = 1.939429 g / cm^3
# Si number density = 19.438534 Si / 1000 Ang^3
#
#
#
# Elastic Constant Matrix: (Units=GPa)
#
#
# Indices 1 2 3 4 5 6 
#
# 1 18.5873 11.1280 16.7944 0.0000 0.0000 0.0000
# 2 11.1280 93.8119 58.7176 0.0000 0.0000 0.0000
# 3 16.7944 58.7176 190.9694 0.0000 0.0000 0.0000
# 4 0.0000 0.0000 0.0000 18.8783 0.0000 0.0000
# 5 0.0000 0.0000 0.0000 0.0000 36.5118 0.0000
# 6 0.0000 0.0000 0.0000 0.0000 0.0000 14.2351
#
#
#
# Elastic Compliance Matrix: (Units=1/GPa)
#
#
# Indices 1 2 3 4 5 6 
#
# 1 0.060093 -0.004731 -0.003830 0.000000 0.000000 0.000000
# 2 -0.004731 0.013572 -0.003757 0.000000 0.000000 0.000000
# 3 -0.003830 -0.003757 0.006728 0.000000 0.000000 0.000000
# 4 0.000000 0.000000 0.000000 0.052971 0.000000 0.000000
# 5 0.000000 0.000000 0.000000 0.000000 0.027388 0.000000
# 6 0.000000 0.000000 0.000000 0.000000 0.000000 0.070249
#
#
# Mechanical properties :
#
#
# Convention : Reuss Voigt Hill
#
# Bulk Modulus (GPa) = 17.93469 52.96094 35.44781
# Shear Modulus (GPa) = 18.23324 28.37362 23.30343
#
# Velocity S-wave (km/s) = 3.06599 3.82469 3.46616
# Velocity P-wave (km/s) = 4.66692 6.84170 5.85615
#
# Compressibility (1/GPa) = 0.05575787
#
# Stress axis : x y z
#
# Youngs Moduli (GPa) = 16.64078 73.67896 148.62229
#
# Poissons Ratio (x) = 0.34857 0.56925
# Poissons Ratio (y) = 0.07873 0.55838
# Poissons Ratio (z) = 0.06374 0.27682
#
# Static dielectric constant tensor:
#      x y z
#    x 1.663520 0.000000 0.000000 
#    y 0.000000 1.684290 0.000000 
#    z 0.000000 0.000000 1.753470 
# 
# From -- ./inp_files/20511.got.cif
#   From: 2010.05.17/outbox.cif.g08.bks.cpg/sg53_11_cif.got.tgz:20511.got - 2010.06.03 12:45:16.
