data_PCOD9417655
_publ_section_title
;
Structure prediction by ZEFSAII (Michael W. Deem and Ramdas Pophale) SiO2 
 PCOD9417655
Probable space group: P M N A
;
_chemical_formula_sum "Si O2"
_cell_formula_units_Z 48
_cell_length_a 8.683567
_cell_length_b 12.938650
_cell_length_c 24.180689
_cell_angle_alpha 90.000000
_cell_angle_beta 90.000000
_cell_angle_gamma 90.000000
_cell_volume 2716.788286
_symmetry_space_group_name_H-M "P M N A"
_symmetry_group_IT_number 53
_symmetry_cell_setting 'orthorhombic'
loop_
_space_group_symop_operation_xyz
x,y,z
1/2-x,-y,1/2+z
x,-y,-z
1/2-x,y,1/2-z
-x,-y,-z
1/2+x,y,1/2-z
-x,y,z
1/2+x,-y,1/2+z
loop_
_atom_site_type_symbol
_atom_site_label
_atom_site_fract_x
_atom_site_fract_y
_atom_site_fract_z
Si Si1 0.815047 0.499707 0.188850
Si Si2 0.814424 0.122865 0.810338
Si Si3 0.315162 0.115357 0.310765
Si Si4 0.685648 0.307087 0.611185
Si Si5 0.314995 0.695866 0.875870
Si Si6 0.685632 0.619772 0.997036
O O1 0.750000 0.516874 0.250000
O O2 0.769901 0.593771 0.148345
O O3 0.749931 0.393949 0.163599
O O4 0.000000 0.494841 0.191094
O O5 0.750000 0.151072 0.750000
O O6 0.763229 0.204091 0.856595
O O7 0.000000 0.127019 0.807418
O O8 0.770672 0.003974 0.822140
O O9 0.250000 0.141797 0.250000
O O10 0.500000 0.122340 0.309658
O O11 0.248062 0.195214 0.354633
O O12 0.500000 0.305665 0.607893
O O13 0.751905 0.320714 0.550207
O O14 0.500000 0.695008 0.873057
O O15 0.267296 0.668889 0.938590
O O16 0.500000 0.619794 0.999098
O O17 0.737538 0.500000 0.000000
#
# Coordination Sequence:
#
# PCOD9417655 Si02
#       6
#     8   8   8   8   8   8
#     4  11  22  34  52  80 111 141 175 218 270 325
#     4   9  19  36  57  83 112 144 180 222 271 323
#     4  10  20  36  58  82 111 144 181 223 271 323
#     4  10  21  36  56  82 110 141 181 223 268 323
#     4  11  22  37  56  78 108 142 182 226 270 322
#     4  10  21  38  57  78 106 145 186 225 272 320
#
# _framework density 17.667921
#
# number of rings (size 3 to 8) (size 9 to 14) (size 15 to 20)
#    0.000    1.833    1.667    2.500    0.000    3.667 
#    0.000    0.833    0.000    5.000    0.000    0.000 
#    0.000    0.000    0.000    0.000    0.000    0.000 
#
# Total GULP energy -268104.952583 kJ/mol
# GULP energy per Si atom -5585.519845 kJ/mol
# Density = 1.762771 g / cm^3
# Si number density = 17.667921 Si / 1000 Ang^3
#
#
#
# Elastic Constant Matrix: (Units=GPa)
#
#
# Indices 1 2 3 4 5 6 
#
# 1 25.0083 19.7076 20.5914 0.0000 0.0000 0.0000
# 2 19.7076 93.9215 54.5399 0.0000 0.0000 0.0000
# 3 20.5914 54.5399 108.0170 0.0000 0.0000 0.0000
# 4 0.0000 0.0000 0.0000 26.0117 0.0000 0.0000
# 5 0.0000 0.0000 0.0000 0.0000 34.5049 0.0000
# 6 0.0000 0.0000 0.0000 0.0000 0.0000 24.0542
#
#
#
# Elastic Compliance Matrix: (Units=1/GPa)
#
#
# Indices 1 2 3 4 5 6 
#
# 1 0.050564 -0.007092 -0.006058 0.000000 0.000000 0.000000
# 2 -0.007092 0.016059 -0.006756 0.000000 0.000000 0.000000
# 3 -0.006058 -0.006756 0.013824 0.000000 0.000000 0.000000
# 4 0.000000 0.000000 0.000000 0.038444 0.000000 0.000000
# 5 0.000000 0.000000 0.000000 0.000000 0.028981 0.000000
# 6 0.000000 0.000000 0.000000 0.000000 0.000000 0.041573
#
#
# Mechanical properties :
#
#
# Convention : Reuss Voigt Hill
#
# Bulk Modulus (GPa) = 24.61021 46.29162 35.45092
# Shear Modulus (GPa) = 20.59288 25.72135 23.15712
#
# Velocity S-wave (km/s) = 3.41772 3.81966 3.62427
# Velocity P-wave (km/s) = 5.43452 6.76099 6.13371
#
# Compressibility (1/GPa) = 0.04063354
#
# Stress axis : x y z
#
# Youngs Moduli (GPa) = 19.77706 62.27153 72.33720
#
# Poissons Ratio (x) = 0.44162 0.43823
# Poissons Ratio (y) = 0.14026 0.48874
# Poissons Ratio (z) = 0.11981 0.42073
#
# Static dielectric constant tensor:
#      x y z
#    x 1.595970 0.000000 0.000000 
#    y 0.000000 1.597930 0.000000 
#    z 0.000000 0.000000 1.569010 
# 
# From -- ./inp_files/33860.got.cif
#   From: 2010.05.17/outbox.cif.g08.bks.cpg/sg53_17_cif.got.tgz:33860.got - 2010.06.03 12:45:16.
