data_PCOD9417744
_publ_section_title
;
Structure prediction by ZEFSAII (Michael W. Deem and Ramdas Pophale) SiO2 
 PCOD9417744
Probable space group: P M N A
;
_chemical_formula_sum "Si O2"
_cell_formula_units_Z 32
_cell_length_a 11.199627
_cell_length_b 11.431906
_cell_length_c 10.841216
_cell_angle_alpha 90.000000
_cell_angle_beta 90.000000
_cell_angle_gamma 90.000000
_cell_volume 1388.034309
_symmetry_space_group_name_H-M "P M N A"
_symmetry_group_IT_number 53
_symmetry_cell_setting 'orthorhombic'
loop_
_space_group_symop_operation_xyz
x,y,z
1/2-x,-y,1/2+z
x,-y,-z
1/2-x,y,1/2-z
-x,-y,-z
1/2+x,y,1/2-z
-x,y,z
1/2+x,-y,1/2+z
loop_
_atom_site_type_symbol
_atom_site_label
_atom_site_fract_x
_atom_site_fract_y
_atom_site_fract_z
Si Si1 0.367531 0.919411 0.682221
Si Si2 0.132134 0.824775 0.097537
Si Si3 0.000000 0.404617 0.391369
Si Si4 0.000000 0.584543 0.881255
Si Si5 0.750124 0.638408 0.971331
O O1 0.250000 0.875056 0.750000
O O2 0.500000 0.886639 0.729696
O O3 0.360560 0.061786 0.683185
O O4 0.362146 0.880954 0.539722
O O5 0.227981 0.720919 0.090251
O O6 0.000000 0.772092 0.115657
O O7 0.000000 0.500000 0.500000
O O8 0.000000 0.464605 0.256995
O O9 0.123705 0.334788 0.408702
O O10 0.126738 0.650978 0.893661
O O11 0.000000 0.500000 0.000000
O O12 0.746350 0.500000 0.000000
#
# Coordination Sequence:
#
# PCOD9417744 Si02
#       5
#     8   8   4   4   8
#     4   9  19  37  59  82 112 150 193 244 294 351
#     4   9  18  37  59  81 115 153 195 238 290 361
#     4  10  22  38  54  85 126 152 192 261 307 332
#     4  10  20  36  60  81 108 162 208 231 281 372
#     4  10  20  37  60  84 118 156 196 244 299 359
#
# _framework density 23.054186000000001
#
# number of rings (size 3 to 8) (size 9 to 14) (size 15 to 20)
#    0.000    2.500    1.250    2.250    0.000    2.000 
#    4.500   11.250    0.000    0.000    0.000    0.000 
#    0.000    0.000    0.000    0.000    0.000    0.000 
#
# Total GULP energy -178267.736262 kJ/mol
# GULP energy per Si atom -5570.866758 kJ/mol
# Density = 2.300171 g / cm^3
# Si number density = 23.054186 Si / 1000 Ang^3
#
#
#
# Elastic Constant Matrix: (Units=GPa)
#
#
# Indices 1 2 3 4 5 6 
#
# 1 233.9320 19.2817 41.3246 0.0000 0.0000 0.0000
# 2 19.2817 96.0651 -4.9661 0.0000 0.0000 0.0000
# 3 41.3246 -4.9661 62.0684 0.0000 0.0000 0.0000
# 4 0.0000 0.0000 0.0000 18.0020 0.0000 0.0000
# 5 0.0000 0.0000 0.0000 0.0000 12.9644 0.0000
# 6 0.0000 0.0000 0.0000 0.0000 0.0000 24.9537
#
#
#
# Elastic Compliance Matrix: (Units=1/GPa)
#
#
# Indices 1 2 3 4 5 6 
#
# 1 0.004973 -0.001174 -0.003405 0.000000 0.000000 0.000000
# 2 -0.001174 0.010730 0.001640 0.000000 0.000000 0.000000
# 3 -0.003405 0.001640 0.018509 0.000000 0.000000 0.000000
# 4 0.000000 0.000000 0.000000 0.055549 0.000000 0.000000
# 5 0.000000 0.000000 0.000000 0.000000 0.077134 0.000000
# 6 0.000000 0.000000 0.000000 0.000000 0.000000 0.040074
#
#
# Mechanical properties :
#
#
# Convention : Reuss Voigt Hill
#
# Bulk Modulus (GPa) = 35.29220 55.92735 45.60977
# Shear Modulus (GPa) = 22.49281 33.61236 28.05259
#
# Velocity S-wave (km/s) = 3.12693 3.82248 3.49207
# Velocity P-wave (km/s) = 5.32715 6.61767 6.00717
#
# Compressibility (1/GPa) = 0.02833487
#
# Stress axis : x y z
#
# Youngs Moduli (GPa) = 201.08510 93.19597 54.02638
#
# Poissons Ratio (x) = 0.10943 0.18396
# Poissons Ratio (y) = 0.23611 -0.08862
# Poissons Ratio (z) = 0.68468 -0.15287
#
# Static dielectric constant tensor:
#      x y z
#    x 1.920850 0.000000 0.000000 
#    y 0.000000 2.015050 0.000000 
#    z 0.000000 0.000000 167.062380 
# 
# From -- ./inp_files/14591.got.cif
#   From: 2010.05.17/outbox.cif.g08.bks.cpg/sg53_8_cif.got.tgz:14591.got - 2010.06.03 12:45:16.
