data_PCOD9417006
_publ_section_title
;
Structure prediction by ZEFSAII (Michael W. Deem and Ramdas Pophale) SiO2 
 PCOD9417006
Probable space group: P M N A
;
_chemical_formula_sum "Si O2"
_cell_formula_units_Z 64
_cell_length_a 14.855551
_cell_length_b 24.606512
_cell_length_c 9.665849
_cell_angle_alpha 90.000000
_cell_angle_beta 90.000000
_cell_angle_gamma 90.000000
_cell_volume 3533.286282
_symmetry_space_group_name_H-M "P M N A"
_symmetry_group_IT_number 53
_symmetry_cell_setting 'orthorhombic'
loop_
_space_group_symop_operation_xyz
x,y,z
1/2-x,-y,1/2+z
x,-y,-z
1/2-x,y,1/2-z
-x,-y,-z
1/2+x,y,1/2-z
-x,y,z
1/2+x,-y,1/2+z
loop_
_atom_site_type_symbol
_atom_site_label
_atom_site_fract_x
_atom_site_fract_y
_atom_site_fract_z
Si Si1 0.606288 0.552739 0.912693
Si Si2 0.604133 0.212952 0.745591
Si Si3 0.896616 0.910451 0.131482
Si Si4 0.747259 0.120382 0.411357
Si Si5 0.746695 0.761952 0.473265
Si Si6 0.893675 0.056927 0.576646
Si Si7 0.606391 0.445810 0.415728
Si Si8 0.752236 0.641321 0.584482
O O1 0.500000 0.561155 0.932636
O O2 0.621988 0.544284 0.748366
O O3 0.662408 0.605056 0.958221
O O4 0.633600 0.500000 0.000000
O O5 0.500000 0.228414 0.764013
O O6 0.606764 0.149511 0.701763
O O7 0.667623 0.224062 0.876428
O O8 0.656631 0.241254 0.619818
O O9 0.866894 0.947137 0.261469
O O10 0.000000 0.922612 0.093890
O O11 0.832954 0.908135 0.998648
O O12 0.750000 0.106025 0.250000
O O13 0.736499 0.185595 0.428140
O O14 0.836106 0.100860 0.492885
O O15 0.758315 0.702958 0.536983
O O16 0.000000 0.070935 0.575781
O O17 0.881359 0.000000 0.500000
O O18 0.630919 0.500000 0.500000
O O19 0.500000 0.435857 0.435261
O O20 0.665143 0.393873 0.459671
O O21 0.750000 0.642543 0.750000
#
# Coordination Sequence:
#
# PCOD9417006 Si02
#       8
#     8   8   8   8   8   8   8   8
#     4   9  18  34  53  74 101 135 176 221 270 325
#     4   9  18  35  57  77 105 147 187 228 277 327
#     4   9  18  37  62  82 110 153 194 234 284 337
#     4  11  22  35  57  87 120 154 190 236 286 341
#     4  10  20  35  53  82 112 144 189 230 272 338
#     4  10  21  38  61  86 112 150 199 242 285 338
#     4   9  18  34  54  75 101 139 182 222 272 329
#     4  10  20  34  52  75 107 144 175 218 275 332
#
# _framework density 18.113448999999999
#
# number of rings (size 3 to 8) (size 9 to 14) (size 15 to 20)
#    0.000    2.375    1.250    1.125    0.000    2.500 
#    4.500    0.000    0.000    7.125    0.000    0.000 
#    0.000    0.000    0.000    0.000    0.000    0.000 
#
# Total GULP energy -356835.610788 kJ/mol
# GULP energy per Si atom -5575.556419 kJ/mol
# Density = 1.807222 g / cm^3
# Si number density = 18.113449 Si / 1000 Ang^3
#
#
#
# Elastic Constant Matrix: (Units=GPa)
#
#
# Indices 1 2 3 4 5 6 
#
# 1 87.6304 26.2635 49.3463 0.0000 0.0000 0.0000
# 2 26.2635 63.9708 36.2206 0.0000 0.0000 0.0000
# 3 49.3463 36.2206 100.6517 0.0000 0.0000 0.0000
# 4 0.0000 0.0000 0.0000 29.9768 0.0000 0.0000
# 5 0.0000 0.0000 0.0000 0.0000 16.3052 0.0000
# 6 0.0000 0.0000 0.0000 0.0000 0.0000 4.1450
#
#
#
# Elastic Compliance Matrix: (Units=1/GPa)
#
#
# Indices 1 2 3 4 5 6 
#
# 1 0.016125 -0.002693 -0.006936 0.000000 0.000000 0.000000
# 2 -0.002693 0.020082 -0.005907 0.000000 0.000000 0.000000
# 3 -0.006936 -0.005907 0.015462 0.000000 0.000000 0.000000
# 4 0.000000 0.000000 0.000000 0.033359 0.000000 0.000000
# 5 0.000000 0.000000 0.000000 0.000000 0.061330 0.000000
# 6 0.000000 0.000000 0.000000 0.000000 0.000000 0.241252
#
#
# Mechanical properties :
#
#
# Convention : Reuss Voigt Hill
#
# Bulk Modulus (GPa) = 48.55121 52.87931 50.71526
# Shear Modulus (GPa) = 11.74961 19.44690 15.59825
#
# Velocity S-wave (km/s) = 2.54966 3.28016 2.93771
# Velocity P-wave (km/s) = 5.96069 6.60324 6.29017
#
# Compressibility (1/GPa) = 0.02059681
#
# Stress axis : x y z
#
# Youngs Moduli (GPa) = 62.01712 49.79592 64.67670
#
# Poissons Ratio (x) = 0.13408 0.44862
# Poissons Ratio (y) = 0.16699 0.38202
# Poissons Ratio (z) = 0.43018 0.29413
#
# Static dielectric constant tensor:
#      x y z
#    x 1.635760 0.000000 0.000000 
#    y 0.000000 1.614540 0.000000 
#    z 0.000000 0.000000 1.623440 
# 
# From -- ./inp_files/8970.got.cif
#   From: 2010.05.17/outbox.cif.g08.bks.cpg/sg53_5_cif.got.tgz:8970.got - 2010.06.03 12:45:16.
