data_PCOD9417560
_publ_section_title
;
Structure prediction by ZEFSAII (Michael W. Deem and Ramdas Pophale) SiO2 
 PCOD9417560
Probable space group: P M N A
;
_chemical_formula_sum "Si O2"
_cell_formula_units_Z 40
_cell_length_a 8.673503
_cell_length_b 26.200289
_cell_length_c 9.710483
_cell_angle_alpha 90.000000
_cell_angle_beta 90.000000
_cell_angle_gamma 90.000000
_cell_volume 2206.690611
_symmetry_space_group_name_H-M "P M N A"
_symmetry_group_IT_number 53
_symmetry_cell_setting 'orthorhombic'
loop_
_space_group_symop_operation_xyz
x,y,z
1/2-x,-y,1/2+z
x,-y,-z
1/2-x,y,1/2-z
-x,-y,-z
1/2+x,y,1/2-z
-x,y,z
1/2+x,-y,1/2+z
loop_
_atom_site_type_symbol
_atom_site_label
_atom_site_fract_x
_atom_site_fract_y
_atom_site_fract_z
Si Si1 0.686275 0.047716 0.404100
Si Si2 0.314328 0.139741 0.598036
Si Si3 0.815997 0.655740 0.596039
Si Si4 0.814743 0.256777 0.902328
Si Si5 0.315047 0.452331 0.403588
O O1 0.750000 0.044175 0.250000
O O2 0.500000 0.047729 0.396340
O O3 0.736402 0.099075 0.483925
O O4 0.732678 0.000000 0.500000
O O5 0.250000 0.127640 0.750000
O O6 0.500000 0.137452 0.606384
O O7 0.271434 0.198111 0.562786
O O8 0.750000 0.661089 0.750000
O O9 0.755604 0.702228 0.505152
O O10 0.754200 0.601068 0.543300
O O11 0.000000 0.655009 0.599948
O O12 0.750000 0.266575 0.750000
O O13 0.000000 0.260486 0.902466
O O14 0.275085 0.500000 0.500000
O O15 0.250000 0.460216 0.250000
O O16 0.500000 0.447736 0.396732
#
# Coordination Sequence:
#
# PCOD9417560 Si02
#       5
#     8   8   8   8   8
#     4  10  21  36  54  79 109 140 178 221 266 318
#     4   9  19  35  55  79 107 140 177 220 266 316
#     4  11  22  37  57  80 109 144 181 223 272 322
#     4  10  20  36  56  80 110 142 181 224 269 321
#     4  10  21  37  57  81 109 141 179 222 268 320
#
# _framework density 18.126691999999998
#
# number of rings (size 3 to 8) (size 9 to 14) (size 15 to 20)
#    0.000    2.000    0.000    4.800    0.000    5.200 
#    0.000    4.000    0.000    0.000    0.000    0.000 
#    0.000    0.000    0.000    0.000    0.000    0.000 
#
# Total GULP energy -223376.535420 kJ/mol
# GULP energy per Si atom -5584.413385 kJ/mol
# Density = 1.808543 g / cm^3
# Si number density = 18.126692 Si / 1000 Ang^3
#
#
#
# Elastic Constant Matrix: (Units=GPa)
#
#
# Indices 1 2 3 4 5 6 
#
# 1 66.2196 58.2184 44.0666 0.0000 0.0000 0.0000
# 2 58.2184 168.9180 119.1861 0.0000 0.0000 0.0000
# 3 44.0666 119.1861 124.5018 0.0000 0.0000 0.0000
# 4 0.0000 0.0000 0.0000 43.8222 0.0000 0.0000
# 5 0.0000 0.0000 0.0000 0.0000 35.4075 0.0000
# 6 0.0000 0.0000 0.0000 0.0000 0.0000 -31.8173
#
#
#
# Elastic Compliance Matrix: (Units=1/GPa)
#
#
# Indices 1 2 3 4 5 6 
#
# 1 0.021771 -0.006367 -0.001610 0.000000 0.000000 0.000000
# 2 -0.006367 0.020104 -0.016992 0.000000 0.000000 0.000000
# 3 -0.001610 -0.016992 0.024868 0.000000 0.000000 0.000000
# 4 0.000000 0.000000 0.000000 0.022819 0.000000 0.000000
# 5 0.000000 0.000000 0.000000 0.000000 0.028243 0.000000
# 6 0.000000 0.000000 0.000000 0.000000 0.000000 -0.031429
#
#
# Mechanical properties :
#
#
# Convention : Reuss Voigt Hill
#
# Bulk Modulus (GPa) = 59.50879 89.17573 74.34226
# Shear Modulus (GPa) = 35.23252 18.69371 26.96312
#
# Velocity S-wave (km/s) = 4.41350 3.21484 3.86097
# Velocity P-wave (km/s) = 7.67285 7.94247 7.80883
#
# Compressibility (1/GPa) = 0.01680424
#
# Stress axis : x y z
#
# Youngs Moduli (GPa) = 45.93336 49.74245 40.21221
#
# Poissons Ratio (x) = 0.31672 0.06475
# Poissons Ratio (y) = 0.29247 0.68327
# Poissons Ratio (z) = 0.07396 0.84520
#
# Static dielectric constant tensor:
#      x y z
#    x 1.608570 0.000000 0.000000 
#    y 0.000000 1.629840 0.000000 
#    z 0.000000 0.000000 1.547000 
# 
# From -- ./inp_files/6272.got.cif
#   From: 2010.05.17/outbox.cif.g08.bks.cpg/sg53_4_cif.got.tgz:6272.got - 2010.06.03 12:45:16.
