data_PCOD9417540
_publ_section_title
;
Structure prediction by ZEFSAII (Michael W. Deem and Ramdas Pophale) SiO2 
 PCOD9417540
Probable space group: P M N A
;
_chemical_formula_sum "Si O2"
_cell_formula_units_Z 40
_cell_length_a 10.127537
_cell_length_b 24.525849
_cell_length_c 9.298474
_cell_angle_alpha 90.000000
_cell_angle_beta 90.000000
_cell_angle_gamma 90.000000
_cell_volume 2309.614884
_symmetry_space_group_name_H-M "P M N A"
_symmetry_group_IT_number 53
_symmetry_cell_setting 'orthorhombic'
loop_
_space_group_symop_operation_xyz
x,y,z
1/2-x,-y,1/2+z
x,-y,-z
1/2-x,y,1/2-z
-x,-y,-z
1/2+x,y,1/2-z
-x,y,z
1/2+x,-y,1/2+z
loop_
_atom_site_type_symbol
_atom_site_label
_atom_site_fract_x
_atom_site_fract_y
_atom_site_fract_z
Si Si1 0.500000 0.559725 0.071076
Si Si2 0.654064 0.857118 0.615120
Si Si3 0.000000 0.556090 0.083415
Si Si4 0.754031 0.368942 0.921581
Si Si5 0.343085 0.270767 0.387929
Si Si6 0.844109 0.049492 0.888002
O O1 0.500000 0.549719 0.243577
O O2 0.624543 0.597691 0.033542
O O3 0.500000 0.500000 0.000000
O O4 0.750000 0.868505 0.750000
O O5 0.500000 0.866490 0.656319
O O6 0.667704 0.793376 0.575289
O O7 0.682754 0.895880 0.480227
O O8 0.126292 0.591154 0.042454
O O9 0.000000 0.500000 0.000000
O O10 0.750000 0.361584 0.750000
O O11 0.784455 0.311377 0.993890
O O12 0.250000 0.279358 0.250000
O O13 0.500000 0.281891 0.363530
O O14 0.750000 0.045105 0.750000
O O15 0.000000 0.049010 0.846812
O O16 0.823226 0.000000 0.000000
#
# Coordination Sequence:
#
# PCOD9417540 Si02
#       6
#     4   8   4   8   8   8
#     4  10  22  36  54  82 108 134 179 224 267 328
#     4   9  19  36  56  80 112 146 186 232 277 325
#     4  10  20  36  56  76 104 142 175 216 273 320
#     4  10  21  37  56  78 108 143 176 220 273 328
#     4  10  21  37  57  82 111 145 184 228 274 325
#     4  10  21  36  56  84 116 152 192 234 280 330
#
# _framework density 17.318905000000001
#
# number of rings (size 3 to 8) (size 9 to 14) (size 15 to 20)
#    0.000    2.200    1.000    1.200    1.400    3.600 
#    0.000    0.000    0.000    0.000    0.000    0.000 
#    0.000    0.000    0.000    0.000    0.000    0.000 
#
# Total GULP energy -223060.706369 kJ/mol
# GULP energy per Si atom -5576.517659 kJ/mol
# Density = 1.727949 g / cm^3
# Si number density = 17.318905 Si / 1000 Ang^3
#
#
#
# Elastic Constant Matrix: (Units=GPa)
#
#
# Indices 1 2 3 4 5 6 
#
# 1 153.4315 72.8143 75.3628 0.0000 0.0000 0.0000
# 2 72.8143 99.1429 72.1794 0.0000 0.0000 0.0000
# 3 75.3628 72.1794 83.7297 0.0000 0.0000 0.0000
# 4 0.0000 0.0000 0.0000 36.2702 0.0000 0.0000
# 5 0.0000 0.0000 0.0000 0.0000 140.7278 0.0000
# 6 0.0000 0.0000 0.0000 0.0000 0.0000 56.5709
#
#
#
# Elastic Compliance Matrix: (Units=1/GPa)
#
#
# Indices 1 2 3 4 5 6 
#
# 1 0.011914 -0.002532 -0.008541 0.000000 0.000000 0.000000
# 2 -0.002532 0.027624 -0.021534 0.000000 0.000000 0.000000
# 3 -0.008541 -0.021534 0.038194 0.000000 0.000000 0.000000
# 4 0.000000 0.000000 0.000000 0.027571 0.000000 0.000000
# 5 0.000000 0.000000 0.000000 0.000000 0.007106 0.000000
# 6 0.000000 0.000000 0.000000 0.000000 0.000000 0.017677
#
#
# Mechanical properties :
#
#
# Convention : Reuss Voigt Hill
#
# Bulk Modulus (GPa) = 79.88494 86.33524 83.11009
# Shear Modulus (GPa) = 25.06623 54.44363 39.75493
#
# Velocity S-wave (km/s) = 3.80851 5.61286 4.79630
# Velocity P-wave (km/s) = 8.09726 9.58979 8.87496
#
# Compressibility (1/GPa) = 0.01251800
#
# Stress axis : x y z
#
# Youngs Moduli (GPa) = 83.93154 36.20095 26.18243
#
# Poissons Ratio (x) = 0.09168 0.22362
# Poissons Ratio (y) = 0.21255 0.56380
# Poissons Ratio (z) = 0.71684 0.77954
#
# Static dielectric constant tensor:
#      x y z
#    x 1.599690 0.000000 0.000000 
#    y 0.000000 1.580550 0.000000 
#    z 0.000000 0.000000 1.564650 
# 
# From -- ./inp_files/6333.got.cif
#   From: 2010.05.17/outbox.cif.g08.bks.cpg/sg53_4_cif.got.tgz:6333.got - 2010.06.03 12:45:16.
