data_PCOD9418219
_publ_section_title
;
Structure prediction by ZEFSAII (Michael W. Deem and Ramdas Pophale) SiO2 
 PCOD9418219
Probable space group: P M N A
;
_chemical_formula_sum "Si O2"
_cell_formula_units_Z 36
_cell_length_a 12.973118
_cell_length_b 5.785197
_cell_length_c 23.119621
_cell_angle_alpha 90.000000
_cell_angle_beta 90.000000
_cell_angle_gamma 90.000000
_cell_volume 1735.174797
_symmetry_space_group_name_H-M "P M N A"
_symmetry_group_IT_number 53
_symmetry_cell_setting 'orthorhombic'
loop_
_space_group_symop_operation_xyz
x,y,z
1/2-x,-y,1/2+z
x,-y,-z
1/2-x,y,1/2-z
-x,-y,-z
1/2+x,y,1/2-z
-x,y,z
1/2+x,-y,1/2+z
loop_
_atom_site_type_symbol
_atom_site_label
_atom_site_fract_x
_atom_site_fract_y
_atom_site_fract_z
Si Si1 0.274368 0.373225 0.075169
Si Si2 0.617428 0.762127 0.386525
Si Si3 0.000000 0.563320 0.596294
Si Si4 0.500000 0.072142 0.839019
Si Si5 0.224652 0.951381 0.687185
Si Si6 0.175372 0.000000 0.000000
O O1 0.182499 0.549997 0.087877
O O2 0.389729 0.462699 0.065746
O O3 0.279498 0.230829 0.135263
O O4 0.245294 0.210057 0.021968
O O5 0.500000 0.709070 0.369111
O O6 0.687793 0.870336 0.335567
O O7 0.614619 0.933154 0.442104
O O8 0.000000 0.331749 0.635565
O O9 0.000000 0.831500 0.621665
O O10 0.389874 0.056506 0.807672
O O11 0.250000 0.852676 0.750000
#
# Coordination Sequence:
#
# PCOD9418219 Si02
#       6
#     8   8   4   4   8   4
#     4  10  22  41  64  92 130 170 219 269 338 392
#     4  11  23  41  64  93 126 170 218 271 329 401
#     4  10  20  41  67  93 132 172 216 269 331 402
#     4  10  20  42  66  92 133 175 210 274 335 380
#     4  10  23  41  63  93 130 170 220 271 328 394
#     4  10  23  41  64  92 128 169 213 276 334 398
#
# _framework density 20.747188000000001
#
# number of rings (size 3 to 8) (size 9 to 14) (size 15 to 20)
#    0.000    1.778    2.222    1.000    1.556    6.667 
#    0.000    3.333    0.000    0.000    0.000    0.000 
#    0.000    0.000    0.000    0.000    0.000    0.000 
#
# Total GULP energy -200430.823379 kJ/mol
# GULP energy per Si atom -5567.522872 kJ/mol
# Density = 2.069997 g / cm^3
# Si number density = 20.747188 Si / 1000 Ang^3
#
#
#
# Elastic Constant Matrix: (Units=GPa)
#
#
# Indices 1 2 3 4 5 6 
#
# 1 203.6192 21.6827 22.8388 0.0000 0.0000 0.0000
# 2 21.6827 41.3850 2.1201 0.0000 0.0000 0.0000
# 3 22.8388 2.1201 98.9235 0.0000 0.0000 0.0000
# 4 0.0000 0.0000 0.0000 14.1224 0.0000 0.0000
# 5 0.0000 0.0000 0.0000 0.0000 72.6359 0.0000
# 6 0.0000 0.0000 0.0000 0.0000 0.0000 22.2684
#
#
#
# Elastic Compliance Matrix: (Units=1/GPa)
#
#
# Indices 1 2 3 4 5 6 
#
# 1 0.005334 -0.002734 -0.001173 0.000000 0.000000 0.000000
# 2 -0.002734 0.025592 0.000083 0.000000 0.000000 0.000000
# 3 -0.001173 0.000083 0.010378 0.000000 0.000000 0.000000
# 4 0.000000 0.000000 0.000000 0.070810 0.000000 0.000000
# 5 0.000000 0.000000 0.000000 0.000000 0.013767 0.000000
# 6 0.000000 0.000000 0.000000 0.000000 0.000000 0.044907
#
#
# Mechanical properties :
#
#
# Convention : Reuss Voigt Hill
#
# Bulk Modulus (GPa) = 29.71368 48.57897 39.14632
# Shear Modulus (GPa) = 26.36377 41.62441 33.99409
#
# Velocity S-wave (km/s) = 3.56858 4.48400 4.05222
# Velocity P-wave (km/s) = 5.59755 7.09041 6.38774
#
# Compressibility (1/GPa) = 0.03365454
#
# Stress axis : x y z
#
# Youngs Moduli (GPa) = 187.48139 39.07504 96.35930
#
# Poissons Ratio (x) = 0.10685 0.11301
# Poissons Ratio (y) = 0.51266 -0.00798
# Poissons Ratio (z) = 0.21989 -0.00324
#
# Static dielectric constant tensor:
#      x y z
#    x 1.752310 0.000000 0.000000 
#    y 0.000000 1.820530 0.000000 
#    z 0.000000 0.000000 1.757440 
# 
# From -- ./inp_files/34740.got.cif
#   From: 2010.05.17/outbox.cif.g08.bks.cpg/sg53_18_cif.got.tgz:34740.got - 2010.06.03 12:45:16.
