data_PCOD9418594
_publ_section_title
;
Structure prediction by ZEFSAII (Michael W. Deem and Ramdas Pophale) SiO2 
 PCOD9418594
Probable space group: P M N A
;
_chemical_formula_sum "Si O2"
_cell_formula_units_Z 40
_cell_length_a 10.490330
_cell_length_b 13.982514
_cell_length_c 13.966941
_cell_angle_alpha 90.000000
_cell_angle_beta 90.000000
_cell_angle_gamma 90.000000
_cell_volume 2048.687472
_symmetry_space_group_name_H-M "P M N A"
_symmetry_group_IT_number 53
_symmetry_cell_setting 'orthorhombic'
loop_
_space_group_symop_operation_xyz
x,y,z
1/2-x,-y,1/2+z
x,-y,-z
1/2-x,y,1/2-z
-x,-y,-z
1/2+x,y,1/2-z
-x,y,z
1/2+x,-y,1/2+z
loop_
_atom_site_type_symbol
_atom_site_label
_atom_site_fract_x
_atom_site_fract_y
_atom_site_fract_z
Si Si1 0.247541 0.287853 0.955150
Si Si2 0.500000 0.608266 0.535514
Si Si3 0.250000 0.624208 0.250000
Si Si4 0.250000 0.816386 0.750000
Si Si5 0.500000 0.474711 0.780372
Si Si6 0.000000 0.612638 0.481490
Si Si7 0.000000 0.683330 0.746190
Si Si8 0.346824 0.897866 0.551323
O O1 0.259719 0.309182 0.842855
O O2 0.372837 0.330246 0.005999
O O3 0.126247 0.344674 0.993481
O O4 0.219915 0.179642 0.983054
O O5 0.500000 0.500000 0.500000
O O6 0.500000 0.634690 0.647891
O O7 0.368924 0.553277 0.270629
O O8 0.126221 0.747950 0.734196
O O9 0.285034 0.879847 0.656348
O O10 0.500000 0.397853 0.865897
O O11 0.500000 0.584767 0.814679
O O12 0.000000 0.500000 0.500000
O O13 0.500000 0.879147 0.559465
O O14 0.331345 0.000000 0.500000
#
# Coordination Sequence:
#
# PCOD9418594 Si02
#       8
#     8   4   4   4   4   4   4   8
#     4  11  21  41  61  93 128 172 224 272 329 394
#     4  12  22  38  64  96 128 182 236 266 318 409
#     4  10  21  37  60  86 134 174 226 272 320 382
#     4  12  23  45  68 104 130 172 220 282 352 396
#     4  10  22  36  52  93 127 181 221 270 314 390
#     4  10  24  36  54  90 140 180 207 265 339 387
#     4  12  24  38  66  97 138 176 226 273 331 397
#     4  11  25  48  74 100 131 172 226 284 347 407
#
# _framework density 19.524695000000001
#
# number of rings (size 3 to 8) (size 9 to 14) (size 15 to 20)
#    0.000    1.000    4.000    3.000    2.800    4.000 
#    0.000    2.000    0.000    0.000    0.000    0.000 
#    0.000    0.000    0.000    0.000    0.000    0.000 
#
# Total GULP energy -223205.599691 kJ/mol
# GULP energy per Si atom -5580.139992 kJ/mol
# Density = 1.948026 g / cm^3
# Si number density = 19.524695 Si / 1000 Ang^3
#
#
#
# Elastic Constant Matrix: (Units=GPa)
#
#
# Indices 1 2 3 4 5 6 
#
# 1 170.3549 88.1148 55.0911 0.0000 0.0000 0.0000
# 2 88.1148 164.4413 56.4393 0.0000 0.0000 0.0000
# 3 55.0911 56.4393 96.0760 0.0000 0.0000 0.0000
# 4 0.0000 0.0000 0.0000 37.3047 0.0000 0.0000
# 5 0.0000 0.0000 0.0000 0.0000 30.7968 0.0000
# 6 0.0000 0.0000 0.0000 0.0000 0.0000 28.4880
#
#
#
# Elastic Compliance Matrix: (Units=1/GPa)
#
#
# Indices 1 2 3 4 5 6 
#
# 1 0.008689 -0.003690 -0.002815 0.000000 0.000000 0.000000
# 2 -0.003690 0.009184 -0.003279 0.000000 0.000000 0.000000
# 3 -0.002815 -0.003279 0.013949 0.000000 0.000000 0.000000
# 4 0.000000 0.000000 0.000000 0.026806 0.000000 0.000000
# 5 0.000000 0.000000 0.000000 0.000000 0.032471 0.000000
# 6 0.000000 0.000000 0.000000 0.000000 0.000000 0.035102
#
#
# Mechanical properties :
#
#
# Convention : Reuss Voigt Hill
#
# Bulk Modulus (GPa) = 81.60619 92.24029 86.92324
# Shear Modulus (GPa) = 33.36595 34.73304 34.04950
#
# Velocity S-wave (km/s) = 4.13838 4.22231 4.18056
# Velocity P-wave (km/s) = 8.04500 8.43303 8.24130
#
# Compressibility (1/GPa) = 0.01225397
#
# Stress axis : x y z
#
# Youngs Moduli (GPa) = 115.08953 108.88689 71.69077
#
# Poissons Ratio (x) = 0.40177 0.20179
# Poissons Ratio (y) = 0.42466 0.23509
# Poissons Ratio (z) = 0.32395 0.35706
#
# Static dielectric constant tensor:
#      x y z
#    x 1.707850 0.000000 0.000000 
#    y 0.000000 1.660440 0.000000 
#    z 0.000000 0.000000 1.840640 
# 
# From -- ./inp_files/19974.got.cif
#   From: 2010.05.17/outbox.cif.g08.bks.cpg/sg53_10_cif.got.tgz:19974.got - 2010.06.03 12:45:16.
