data_PCOD9418968
_publ_section_title
;
Structure prediction by ZEFSAII (Michael W. Deem and Ramdas Pophale) SiO2 
 PCOD9418968
Probable space group: P M N A
;
_chemical_formula_sum "Si O2"
_cell_formula_units_Z 32
_cell_length_a 14.463477
_cell_length_b 7.613898
_cell_length_c 12.193161
_cell_angle_alpha 90.000000
_cell_angle_beta 90.000000
_cell_angle_gamma 90.000000
_cell_volume 1342.752817
_symmetry_space_group_name_H-M "P M N A"
_symmetry_group_IT_number 53
_symmetry_cell_setting 'orthorhombic'
loop_
_space_group_symop_operation_xyz
x,y,z
1/2-x,-y,1/2+z
x,-y,-z
1/2-x,y,1/2-z
-x,-y,-z
1/2+x,y,1/2-z
-x,y,z
1/2+x,-y,1/2+z
loop_
_atom_site_type_symbol
_atom_site_label
_atom_site_fract_x
_atom_site_fract_y
_atom_site_fract_z
Si Si1 0.500000 0.892529 0.798088
Si Si2 0.182853 0.607562 0.341889
Si Si3 0.500000 0.476777 0.278727
Si Si4 0.000000 0.809446 0.119664
Si Si5 0.685662 0.772242 0.923737
Si Si6 0.338840 0.000000 0.500000
O O1 0.500000 0.731648 0.709813
O O2 0.592549 0.850625 0.869256
O O3 0.500000 0.078188 0.734945
O O4 0.250000 0.685389 0.250000
O O5 0.168536 0.729494 0.447354
O O6 0.219714 0.415739 0.378358
O O7 0.087086 0.547222 0.289409
O O8 0.500000 0.600471 0.381945
O O9 0.093007 0.868407 0.060273
O O10 0.770929 0.903535 0.915913
#
# Coordination Sequence:
#
# PCOD9418968 Si02
#       6
#     4   8   4   4   8   4
#     4  10  24  44  75  98 135 178 228 293 351 404
#     4  10  21  40  67  99 132 177 223 281 352 404
#     4  10  22  41  68  95 130 173 225 279 339 410
#     4  11  26  46  65  98 141 192 230 277 351 412
#     4  10  23  41  66  99 134 172 231 284 341 414
#     4  11  26  43  62  98 142 181 236 285 334 426
#
# _framework density 23.831638000000002
#
# number of rings (size 3 to 8) (size 9 to 14) (size 15 to 20)
#    0.000    1.750    0.000    2.250   10.500    3.500 
#    0.000    1.250    0.000    0.000    0.000    0.000 
#    0.000    0.000    0.000    0.000    0.000    0.000 
#
# Total GULP energy -178920.664400 kJ/mol
# GULP energy per Si atom -5591.270763 kJ/mol
# Density = 2.377740 g / cm^3
# Si number density = 23.831638 Si / 1000 Ang^3
#
#
#
# Elastic Constant Matrix: (Units=GPa)
#
#
# Indices 1 2 3 4 5 6 
#
# 1 117.0328 25.3480 20.6437 0.0000 0.0000 0.0000
# 2 25.3480 103.6289 16.8622 0.0000 0.0000 0.0000
# 3 20.6437 16.8622 74.0130 0.0000 0.0000 0.0000
# 4 0.0000 0.0000 0.0000 32.0206 0.0000 0.0000
# 5 0.0000 0.0000 0.0000 0.0000 54.9300 0.0000
# 6 0.0000 0.0000 0.0000 0.0000 0.0000 -2.1202
#
#
#
# Elastic Compliance Matrix: (Units=1/GPa)
#
#
# Indices 1 2 3 4 5 6 
#
# 1 0.009345 -0.001933 -0.002166 0.000000 0.000000 0.000000
# 2 -0.001933 0.010421 -0.001835 0.000000 0.000000 0.000000
# 3 -0.002166 -0.001835 0.014533 0.000000 0.000000 0.000000
# 4 0.000000 0.000000 0.000000 0.031230 0.000000 0.000000
# 5 0.000000 0.000000 0.000000 0.000000 0.018205 0.000000
# 6 0.000000 0.000000 0.000000 0.000000 0.000000 -0.471648
#
#
# Mechanical properties :
#
#
# Convention : Reuss Voigt Hill
#
# Bulk Modulus (GPa) = 44.58117 46.70917 45.64517
# Shear Modulus (GPa) = -13.56605 32.42080 9.42738
#
# Velocity S-wave (km/s) = -2.38847 3.69238 1.99108
# Velocity P-wave (km/s) = 3.33780 6.14983 4.94779
#
# Compressibility (1/GPa) = 0.02243099
#
# Stress axis : x y z
#
# Youngs Moduli (GPa) = 107.00370 95.95701 68.80713
#
# Poissons Ratio (x) = 0.18553 0.14905
# Poissons Ratio (y) = 0.20689 0.12626
# Poissons Ratio (z) = 0.23179 0.17608
#
# Static dielectric constant tensor:
#      x y z
#    x 1.841660 0.000000 0.000000 
#    y 0.000000 1.989320 0.000000 
#    z 0.000000 0.000000 1.993530 
# 
# From -- ./inp_files/15568.got.cif
#   From: 2010.05.17/outbox.cif.g08.bks.cpg/sg53_8_cif.got.tgz:15568.got - 2010.06.03 12:45:16.
