data_PCOD9418191
_publ_section_title
;
Structure prediction by ZEFSAII (Michael W. Deem and Ramdas Pophale) SiO2 
 PCOD9418191
Probable space group: P M N A
;
_chemical_formula_sum "Si O2"
_cell_formula_units_Z 40
_cell_length_a 8.930110
_cell_length_b 12.577112
_cell_length_c 18.520848
_cell_angle_alpha 90.000000
_cell_angle_beta 90.000000
_cell_angle_gamma 90.000000
_cell_volume 2080.168925
_symmetry_space_group_name_H-M "P M N A"
_symmetry_group_IT_number 53
_symmetry_cell_setting 'orthorhombic'
loop_
_space_group_symop_operation_xyz
x,y,z
1/2-x,-y,1/2+z
x,-y,-z
1/2-x,y,1/2-z
-x,-y,-z
1/2+x,y,1/2-z
-x,y,z
1/2+x,-y,1/2+z
loop_
_atom_site_type_symbol
_atom_site_label
_atom_site_fract_x
_atom_site_fract_y
_atom_site_fract_z
Si Si1 0.679285 0.340436 0.066220
Si Si2 0.178110 0.714915 0.084548
Si Si3 0.320361 0.146639 0.172138
Si Si4 0.178553 0.533965 0.326013
Si Si5 0.179723 0.053485 0.577703
O O1 0.500000 0.335897 0.051275
O O2 0.720068 0.238857 0.115393
O O3 0.709466 0.445159 0.113096
O O4 0.765944 0.334079 0.991372
O O5 0.251235 0.644174 0.147238
O O6 0.237119 0.835517 0.086454
O O7 0.000000 0.711606 0.089479
O O8 0.250000 0.164333 0.250000
O O9 0.500000 0.149474 0.178616
O O10 0.278526 0.032888 0.138222
O O11 0.250000 0.501399 0.250000
O O12 0.000000 0.542934 0.318684
O O13 0.000000 0.071613 0.580342
O O14 0.211625 0.000000 0.500000
#
# Coordination Sequence:
#
# PCOD9418191 Si02
#       5
#     8   8   8   8   8
#     4  10  21  41  65  90 121 162 206 249 307 371
#     4  12  25  39  62  93 126 161 207 259 305 364
#     4  10  21  37  61  91 122 157 197 249 308 368
#     4  11  24  42  65  90 124 164 206 255 309 370
#     4  10  20  40  65  85 118 163 206 250 302 366
#
# _framework density 19.229206999999999
#
# number of rings (size 3 to 8) (size 9 to 14) (size 15 to 20)
#    0.000    1.400    2.000    3.600    0.000    6.800 
#    0.000    2.000    0.000    0.000    0.000    0.000 
#    0.000    0.000    0.000    0.000    0.000    0.000 
#
# Total GULP energy -223708.615441 kJ/mol
# GULP energy per Si atom -5592.715386 kJ/mol
# Density = 1.918544 g / cm^3
# Si number density = 19.229207 Si / 1000 Ang^3
#
#
#
# Elastic Constant Matrix: (Units=GPa)
#
#
# Indices 1 2 3 4 5 6 
#
# 1 47.0908 39.1563 12.2120 0.0000 0.0000 0.0000
# 2 39.1563 94.3172 -3.0790 0.0000 0.0000 0.0000
# 3 12.2120 -3.0790 36.6380 0.0000 0.0000 0.0000
# 4 0.0000 0.0000 0.0000 17.8421 0.0000 0.0000
# 5 0.0000 0.0000 0.0000 0.0000 33.5898 0.0000
# 6 0.0000 0.0000 0.0000 0.0000 0.0000 11.6372
#
#
#
# Elastic Compliance Matrix: (Units=1/GPa)
#
#
# Indices 1 2 3 4 5 6 
#
# 1 0.038679 -0.016524 -0.014281 0.000000 0.000000 0.000000
# 2 -0.016524 0.017691 0.006994 0.000000 0.000000 0.000000
# 3 -0.014281 0.006994 0.032642 0.000000 0.000000 0.000000
# 4 0.000000 0.000000 0.000000 0.056047 0.000000 0.000000
# 5 0.000000 0.000000 0.000000 0.000000 0.029771 0.000000
# 6 0.000000 0.000000 0.000000 0.000000 0.000000 0.085931
#
#
# Mechanical properties :
#
#
# Convention : Reuss Voigt Hill
#
# Bulk Modulus (GPa) = 24.16001 30.51383 27.33692
# Shear Modulus (GPa) = 15.51934 21.26426 18.39180
#
# Velocity S-wave (km/s) = 2.84398 3.32901 3.09601
# Velocity P-wave (km/s) = 4.83485 5.53889 5.19881
#
# Compressibility (1/GPa) = 0.04139072
#
# Stress axis : x y z
#
# Youngs Moduli (GPa) = 25.85402 56.52651 30.63554
#
# Poissons Ratio (x) = 0.93404 0.43750
# Poissons Ratio (y) = 0.42721 -0.21428
# Poissons Ratio (z) = 0.36922 -0.39537
#
# Static dielectric constant tensor:
#      x y z
#    x 1.638990 0.000000 0.000000 
#    y 0.000000 1.665060 0.000000 
#    z 0.000000 0.000000 1.646200 
# 
# From -- ./inp_files/25822.got.cif
#   From: 2010.05.17/outbox.cif.g08.bks.cpg/sg53_13_cif.got.tgz:25822.got - 2010.06.03 12:45:16.
