data_PCOD9418494
_publ_section_title
;
Structure prediction by ZEFSAII (Michael W. Deem and Ramdas Pophale) SiO2 
 PCOD9418494
Probable space group: P M N A
;
_chemical_formula_sum "Si O2"
_cell_formula_units_Z 48
_cell_length_a 8.937636
_cell_length_b 18.408501
_cell_length_c 14.979607
_cell_angle_alpha 90.000000
_cell_angle_beta 90.000000
_cell_angle_gamma 90.000000
_cell_volume 2464.571989
_symmetry_space_group_name_H-M "P M N A"
_symmetry_group_IT_number 53
_symmetry_cell_setting 'orthorhombic'
loop_
_space_group_symop_operation_xyz
x,y,z
1/2-x,-y,1/2+z
x,-y,-z
1/2-x,y,1/2-z
-x,-y,-z
1/2+x,y,1/2-z
-x,y,z
1/2+x,-y,1/2+z
loop_
_atom_site_type_symbol
_atom_site_label
_atom_site_fract_x
_atom_site_fract_y
_atom_site_fract_z
Si Si1 0.177537 0.947579 0.345925
Si Si2 0.320030 0.669729 0.472224
Si Si3 0.329033 0.476905 0.604481
Si Si4 0.321790 0.168079 0.523124
Si Si5 0.177794 0.881086 0.654364
Si Si6 0.177134 0.379675 0.341621
O O1 0.250000 0.932255 0.250000
O O2 0.248535 0.894953 0.418532
O O3 0.000000 0.936543 0.342429
O O4 0.203595 0.032965 0.365119
O O5 0.500000 0.662710 0.484923
O O6 0.277640 0.606541 0.402195
O O7 0.287599 0.751195 0.441191
O O8 0.243965 0.655401 0.568153
O O9 0.334436 0.500000 0.500000
O O10 0.500000 0.482562 0.639095
O O11 0.222887 0.535137 0.650547
O O12 0.500000 0.158568 0.521104
O O13 0.256119 0.162861 0.423871
O O14 0.250000 0.865240 0.750000
O O15 0.000000 0.868537 0.656172
O O16 0.250000 0.351028 0.250000
O O17 0.000000 0.370721 0.339227
#
# Coordination Sequence:
#
# PCOD9418494 Si02
#       6
#     8   8   8   8   8   8
#     4  10  21  38  59  82 109 143 187 235 281 330
#     4   9  20  37  54  75 106 141 173 211 263 319
#     4   8  15  32  54  72  96 129 164 204 249 298
#     4  11  22  36  57  84 114 149 186 225 277 337
#     4  10  21  37  57  82 112 147 187 232 279 329
#     4  11  21  33  53  79 105 135 174 217 261 312
#
# _framework density 19.475999999999999
#
# number of rings (size 3 to 8) (size 9 to 14) (size 15 to 20)
#    0.000    2.167    0.000    4.500    0.000    9.000 
#    0.000    0.833    0.000    0.000    0.000    0.000 
#    0.000    0.000    0.000    0.000    0.000    0.000 
#
# Total GULP energy -268047.880062 kJ/mol
# GULP energy per Si atom -5584.330835 kJ/mol
# Density = 1.943167 g / cm^3
# Si number density = 19.476000 Si / 1000 Ang^3
#
#
#
# Elastic Constant Matrix: (Units=GPa)
#
#
# Indices 1 2 3 4 5 6 
#
# 1 47.5684 17.6750 2.4949 0.0000 0.0000 0.0000
# 2 17.6750 46.4422 5.3182 0.0000 0.0000 0.0000
# 3 2.4949 5.3182 20.4027 0.0000 0.0000 0.0000
# 4 0.0000 0.0000 0.0000 12.3062 0.0000 0.0000
# 5 0.0000 0.0000 0.0000 0.0000 30.9067 0.0000
# 6 0.0000 0.0000 0.0000 0.0000 0.0000 33.4892
#
#
#
# Elastic Compliance Matrix: (Units=1/GPa)
#
#
# Indices 1 2 3 4 5 6 
#
# 1 0.024492 -0.009254 -0.000583 0.000000 0.000000 0.000000
# 2 -0.009254 0.025691 -0.005565 0.000000 0.000000 0.000000
# 3 -0.000583 -0.005565 0.050535 0.000000 0.000000 0.000000
# 4 0.000000 0.000000 0.000000 0.081260 0.000000 0.000000
# 5 0.000000 0.000000 0.000000 0.000000 0.032355 0.000000
# 6 0.000000 0.000000 0.000000 0.000000 0.000000 0.029860
#
#
# Mechanical properties :
#
#
# Convention : Reuss Voigt Hill
#
# Bulk Modulus (GPa) = 14.30333 18.37660 16.33997
# Shear Modulus (GPa) = 16.76153 21.26877 19.01515
#
# Velocity S-wave (km/s) = 2.93682 3.30820 3.12803
# Velocity P-wave (km/s) = 4.34280 4.90390 4.63186
#
# Compressibility (1/GPa) = 0.06991378
#
# Stress axis : x y z
#
# Youngs Moduli (GPa) = 40.83039 38.92355 19.78833
#
# Poissons Ratio (x) = 0.36021 0.01153
# Poissons Ratio (y) = 0.37786 0.11012
# Poissons Ratio (z) = 0.02379 0.21661
#
# Static dielectric constant tensor:
#      x y z
#    x 1.644930 0.000000 0.000000 
#    y 0.000000 1.729500 0.000000 
#    z 0.000000 0.000000 1.639280 
# 
# From -- ./inp_files/20180.got.cif
#   From: 2010.05.17/outbox.cif.g08.bks.cpg/sg53_11_cif.got.tgz:20180.got - 2010.06.03 12:45:16.
