data_PCOD9418253
_publ_section_title
;
Structure prediction by ZEFSAII (Michael W. Deem and Ramdas Pophale) SiO2 
 PCOD9418253
Probable space group: P M N A
;
_chemical_formula_sum "Si O2"
_cell_formula_units_Z 48
_cell_length_a 14.545781
_cell_length_b 15.944384
_cell_length_c 7.768013
_cell_angle_alpha 90.000000
_cell_angle_beta 90.000000
_cell_angle_gamma 90.000000
_cell_volume 1801.584902
_symmetry_space_group_name_H-M "P M N A"
_symmetry_group_IT_number 53
_symmetry_cell_setting 'orthorhombic'
loop_
_space_group_symop_operation_xyz
x,y,z
1/2-x,-y,1/2+z
x,-y,-z
1/2-x,y,1/2-z
-x,-y,-z
1/2+x,y,1/2-z
-x,y,z
1/2+x,-y,1/2+z
loop_
_atom_site_type_symbol
_atom_site_label
_atom_site_fract_x
_atom_site_fract_y
_atom_site_fract_z
Si Si1 0.602383 0.457933 0.185650
Si Si2 0.102856 0.876316 0.975584
Si Si3 0.612589 0.076563 0.121996
Si Si4 0.886897 0.374121 0.835504
Si Si5 0.655319 0.290674 0.312770
Si Si6 0.387910 0.201688 0.828573
O O1 0.500000 0.448572 0.259762
O O2 0.646883 0.532604 0.294213
O O3 0.633587 0.362537 0.174794
O O4 0.597640 0.500000 0.000000
O O5 0.145437 0.930962 0.820813
O O6 0.095452 0.787640 0.871868
O O7 0.000000 0.906957 0.014144
O O8 0.144767 0.851321 0.159954
O O9 0.500000 0.075672 0.133741
O O10 0.638320 0.158406 0.007762
O O11 0.639527 0.000000 0.000000
O O12 0.861992 0.298284 0.705381
O O13 0.000000 0.374514 0.841605
O O14 0.845573 0.347046 0.016381
O O15 0.750000 0.253824 0.250000
O O16 0.500000 0.199411 0.823349
#
# Coordination Sequence:
#
# PCOD9418253 Si02
#       6
#     8   8   8   8   8   8
#     4  10  21  34  54  82 108 139 182 225 269 324
#     4   9  18  33  54  76 105 144 182 225 273 322
#     4   9  17  28  49  83 113 135 168 224 283 327
#     4   9  18  35  57  77 104 145 184 224 270 323
#     4  11  22  35  52  76 106 146 183 227 270 320
#     4   8  15  28  48  76 108 139 173 212 264 324
#
# _framework density 26.643208000000001
#
# number of rings (size 3 to 8) (size 9 to 14) (size 15 to 20)
#    0.000    2.667    0.000    3.000    2.333    3.333 
#    0.000    3.333    0.000    0.000    8.667    0.000 
#    0.000    0.000    0.000    0.000    0.000    0.000 
#
# Total GULP energy -268072.910122 kJ/mol
# GULP energy per Si atom -5584.852294 kJ/mol
# Density = 2.658257 g / cm^3
# Si number density = 26.643208 Si / 1000 Ang^3
#
#
#
# Elastic Constant Matrix: (Units=GPa)
#
#
# Indices 1 2 3 4 5 6 
#
# 1 76.4267 9.8786 6.8130 0.0000 0.0000 0.0000
# 2 9.8786 85.4905 2.2053 0.0000 0.0000 0.0000
# 3 6.8130 2.2053 127.6406 0.0000 0.0000 0.0000
# 4 0.0000 0.0000 0.0000 53.3268 0.0000 0.0000
# 5 0.0000 0.0000 0.0000 0.0000 15.6792 0.0000
# 6 0.0000 0.0000 0.0000 0.0000 0.0000 78.9222
#
#
#
# Elastic Compliance Matrix: (Units=1/GPa)
#
#
# Indices 1 2 3 4 5 6 
#
# 1 0.013343 -0.001524 -0.000686 0.000000 0.000000 0.000000
# 2 -0.001524 0.011877 -0.000124 0.000000 0.000000 0.000000
# 3 -0.000686 -0.000124 0.007873 0.000000 0.000000 0.000000
# 4 0.000000 0.000000 0.000000 0.018752 0.000000 0.000000
# 5 0.000000 0.000000 0.000000 0.000000 0.063779 0.000000
# 6 0.000000 0.000000 0.000000 0.000000 0.000000 0.012671
#
#
# Mechanical properties :
#
#
# Convention : Reuss Voigt Hill
#
# Bulk Modulus (GPa) = 35.18056 36.37242 35.77649
# Shear Modulus (GPa) = 35.10333 47.62968 41.36651
#
# Velocity S-wave (km/s) = 3.63372 4.23269 3.94459
# Velocity P-wave (km/s) = 5.55322 6.12934 5.84838
#
# Compressibility (1/GPa) = 0.02842479
#
# Stress axis : x y z
#
# Youngs Moduli (GPa) = 74.94806 84.19980 127.01246
#
# Poissons Ratio (x) = 0.12833 0.08711
# Poissons Ratio (y) = 0.11423 0.01573
# Poissons Ratio (z) = 0.05140 0.01043
#
# Static dielectric constant tensor:
#      x y z
#    x 2.140450 0.000000 0.000000 
#    y 0.000000 2.284470 0.000000 
#    z 0.000000 0.000000 2.151970 
# 
# From -- ./inp_files/9977.got.cif
#   From: 2010.05.17/outbox.cif.g08.bks.cpg/sg53_5_cif.got.tgz:9977.got - 2010.06.03 12:45:16.
