data_PCOD9418460
_publ_section_title
;
Structure prediction by ZEFSAII (Michael W. Deem and Ramdas Pophale) SiO2 
 PCOD9418460
Probable space group: P M N A
;
_chemical_formula_sum "Si O2"
_cell_formula_units_Z 56
_cell_length_a 9.468981
_cell_length_b 19.660789
_cell_length_c 14.502321
_cell_angle_alpha 90.000000
_cell_angle_beta 90.000000
_cell_angle_gamma 90.000000
_cell_volume 2699.862839
_symmetry_space_group_name_H-M "P M N A"
_symmetry_group_IT_number 53
_symmetry_cell_setting 'orthorhombic'
loop_
_space_group_symop_operation_xyz
x,y,z
1/2-x,-y,1/2+z
x,-y,-z
1/2-x,y,1/2-z
-x,-y,-z
1/2+x,y,1/2-z
-x,y,z
1/2+x,-y,1/2+z
loop_
_atom_site_type_symbol
_atom_site_label
_atom_site_fract_x
_atom_site_fract_y
_atom_site_fract_z
Si Si1 0.833251 0.369774 0.959505
Si Si2 0.331661 0.235319 0.952913
Si Si3 0.838359 0.461951 0.664148
Si Si4 0.167734 0.896364 0.042218
Si Si5 0.832239 0.037105 0.152987
Si Si6 0.652840 0.381566 0.127447
Si Si7 0.652857 0.766685 0.828282
O O1 0.753634 0.302382 0.921696
O O2 0.752143 0.435426 0.920915
O O3 0.000000 0.369624 0.942952
O O4 0.791858 0.372214 0.066726
O O5 0.500000 0.239703 0.935502
O O6 0.259762 0.165987 0.920134
O O7 0.309729 0.231355 0.064271
O O8 0.750000 0.434916 0.750000
O O9 0.843275 0.543704 0.669032
O O10 0.000000 0.438017 0.661388
O O11 0.000000 0.879874 0.041458
O O12 0.187330 0.962123 0.107214
O O13 0.206902 0.914925 0.935287
O O14 0.750000 0.043666 0.250000
O O15 0.000000 0.046330 0.169197
O O16 0.500000 0.379337 0.073137
O O17 0.642511 0.314819 0.189288
O O18 0.750000 0.796821 0.750000
O O19 0.500000 0.798669 0.818786
#
# Coordination Sequence:
#
# PCOD9418460 Si02
#       7
#     8   8   8   8   8   8   8
#     4  11  22  36  55  77 102 136 178 220 265 322
#     4  10  21  37  55  77 106 142 183 226 270 318
#     4  11  22  36  54  76 104 135 171 220 274 324
#     4   9  19  37  58  83 116 152 186 224 270 321
#     4   9  19  36  59  87 120 152 184 223 267 317
#     4   9  19  35  53  74 102 135 171 218 273 325
#     4   9  18  31  47  71 103 136 173 217 268 324
#
# _framework density 20.741795
#
# number of rings (size 3 to 8) (size 9 to 14) (size 15 to 20)
#    0.000    2.286    0.000    4.714    0.000    7.429 
#    0.000    5.000    0.000    1.714    0.000    0.000 
#    0.000    0.000    0.000    0.000    0.000    0.000 
#
# Total GULP energy -311967.662307 kJ/mol
# GULP energy per Si atom -5570.851113 kJ/mol
# Density = 2.069459 g / cm^3
# Si number density = 20.741795 Si / 1000 Ang^3
#
#
#
# Elastic Constant Matrix: (Units=GPa)
#
#
# Indices 1 2 3 4 5 6 
#
# 1 117.5765 46.6910 25.2705 0.0000 0.0000 0.0000
# 2 46.6910 71.3562 2.9479 0.0000 0.0000 0.0000
# 3 25.2705 2.9479 40.3558 0.0000 0.0000 0.0000
# 4 0.0000 0.0000 0.0000 1.0571 0.0000 0.0000
# 5 0.0000 0.0000 0.0000 0.0000 30.1199 0.0000
# 6 0.0000 0.0000 0.0000 0.0000 0.0000 16.8501
#
#
#
# Elastic Compliance Matrix: (Units=1/GPa)
#
#
# Indices 1 2 3 4 5 6 
#
# 1 0.013609 -0.008578 -0.007895 0.000000 0.000000 0.000000
# 2 -0.008578 0.019464 0.003950 0.000000 0.000000 0.000000
# 3 -0.007895 0.003950 0.029435 0.000000 0.000000 0.000000
# 4 0.000000 0.000000 0.000000 0.946012 0.000000 0.000000
# 5 0.000000 0.000000 0.000000 0.000000 0.033201 0.000000
# 6 0.000000 0.000000 0.000000 0.000000 0.000000 0.059347
#
#
# Mechanical properties :
#
#
# Convention : Reuss Voigt Hill
#
# Bulk Modulus (GPa) = 26.69463 42.12302 34.40882
# Shear Modulus (GPa) = 4.39135 19.89735 12.14435
#
# Velocity S-wave (km/s) = 1.45662 3.10060 2.42234
# Velocity P-wave (km/s) = 3.96572 5.75940 4.94457
#
# Compressibility (1/GPa) = 0.03746071
#
# Stress axis : x y z
#
# Youngs Moduli (GPa) = 73.48335 51.37640 33.97337
#
# Poissons Ratio (x) = 0.44073 0.26822
# Poissons Ratio (y) = 0.63037 -0.13419
# Poissons Ratio (z) = 0.58014 -0.20293
#
# Static dielectric constant tensor:
#      x y z
#    x 1.774280 0.000000 0.000000 
#    y 0.000000 1.791680 0.000000 
#    z 0.000000 0.000000 2.166690 
# 
# From -- ./inp_files/20602.got.cif
#   From: 2010.05.17/outbox.cif.g08.bks.cpg/sg53_11_cif.got.tgz:20602.got - 2010.06.03 12:45:16.
