data_PCOD9418785
_publ_section_title
;
Structure prediction by ZEFSAII (Michael W. Deem and Ramdas Pophale) SiO2 
 PCOD9418785
Probable space group: P M N A
;
_chemical_formula_sum "Si O2"
_cell_formula_units_Z 48
_cell_length_a 10.434639
_cell_length_b 17.942721
_cell_length_c 14.330397
_cell_angle_alpha 90.000000
_cell_angle_beta 90.000000
_cell_angle_gamma 90.000000
_cell_volume 2683.020276
_symmetry_space_group_name_H-M "P M N A"
_symmetry_group_IT_number 53
_symmetry_cell_setting 'orthorhombic'
loop_
_space_group_symop_operation_xyz
x,y,z
1/2-x,-y,1/2+z
x,-y,-z
1/2-x,y,1/2-z
-x,-y,-z
1/2+x,y,1/2-z
-x,y,z
1/2+x,-y,1/2+z
loop_
_atom_site_type_symbol
_atom_site_label
_atom_site_fract_x
_atom_site_fract_y
_atom_site_fract_z
Si Si1 0.500000 0.583892 0.458522
Si Si2 0.849614 0.811392 0.971589
Si Si3 0.500000 0.415206 0.960044
Si Si4 0.750000 0.568653 0.750000
Si Si5 0.352460 0.118987 0.669567
Si Si6 0.000000 0.464302 0.749184
Si Si7 0.648449 0.054753 0.331698
Si Si8 0.750257 0.346464 0.053922
O O1 0.500000 0.500000 0.500000
O O2 0.500000 0.580756 0.346233
O O3 0.626123 0.623736 0.497813
O O4 0.826526 0.886569 0.913428
O O5 0.763669 0.742396 0.940708
O O6 0.000000 0.791960 0.957451
O O7 0.830965 0.829745 0.080103
O O8 0.500000 0.419122 0.847709
O O9 0.500000 0.500000 0.000000
O O10 0.624976 0.374403 0.999892
O O11 0.625059 0.516601 0.750612
O O12 0.749270 0.617879 0.656706
O O13 0.250000 0.133341 0.750000
O O14 0.500000 0.128735 0.701572
O O15 0.339760 0.031979 0.639799
O O16 0.750000 0.067775 0.250000
O O17 0.500000 0.065029 0.301029
#
# Coordination Sequence:
#
# PCOD9418785 Si02
#       8
#     4   8   4   4   8   4   8   8
#     4  12  22  42  66  90 111 150 205 244 280 358
#     4  10  21  39  58  86 120 160 195 238 293 352
#     4  12  24  46  60  88 123 154 193 246 306 362
#     4  12  22  38  64  90 110 152 188 244 310 342
#     4   9  18  37  63  85 116 157 203 243 284 341
#     4  12  24  40  68  86 108 150 198 246 290 356
#     4   9  18  35  60  90 117 154 200 243 284 343
#     4  12  24  41  61  88 125 152 194 249 299 359
#
# _framework density 17.890284999999999
#
# number of rings (size 3 to 8) (size 9 to 14) (size 15 to 20)
#    0.000    1.333    4.167    2.000    1.167    2.000 
#    6.000    0.000    0.000    4.000    0.000    0.000 
#    0.000    0.000    0.000    0.000    0.000    0.000 
#
# Total GULP energy -268094.895314 kJ/mol
# GULP energy per Si atom -5585.310319 kJ/mol
# Density = 1.784957 g / cm^3
# Si number density = 17.890285 Si / 1000 Ang^3
#
#
#
# Elastic Constant Matrix: (Units=GPa)
#
#
# Indices 1 2 3 4 5 6 
#
# 1 119.1759 30.2270 54.3938 0.0000 0.0000 0.0000
# 2 30.2270 23.9655 27.3460 0.0000 0.0000 0.0000
# 3 54.3938 27.3460 135.4336 0.0000 0.0000 0.0000
# 4 0.0000 0.0000 0.0000 5.0242 0.0000 0.0000
# 5 0.0000 0.0000 0.0000 0.0000 25.9607 0.0000
# 6 0.0000 0.0000 0.0000 0.0000 0.0000 20.1094
#
#
#
# Elastic Compliance Matrix: (Units=1/GPa)
#
#
# Indices 1 2 3 4 5 6 
#
# 1 0.012945 -0.013507 -0.002472 0.000000 0.000000 0.000000
# 2 -0.013507 0.068311 -0.008368 0.000000 0.000000 0.000000
# 3 -0.002472 -0.008368 0.010066 0.000000 0.000000 0.000000
# 4 0.000000 0.000000 0.000000 0.199037 0.000000 0.000000
# 5 0.000000 0.000000 0.000000 0.000000 0.038520 0.000000
# 6 0.000000 0.000000 0.000000 0.000000 0.000000 0.049728
#
#
# Mechanical properties :
#
#
# Convention : Reuss Voigt Hill
#
# Bulk Modulus (GPa) = 23.45848 55.83428 39.64638
# Shear Modulus (GPa) = 11.32477 21.32607 16.32542
#
# Velocity S-wave (km/s) = 2.51870 3.45635 3.02409
# Velocity P-wave (km/s) = 4.64751 6.87063 5.86536
#
# Compressibility (1/GPa) = 0.04262850
#
# Stress axis : x y z
#
# Youngs Moduli (GPa) = 77.25078 14.63893 99.34284
#
# Poissons Ratio (x) = 0.19772 0.24556
# Poissons Ratio (y) = 1.04339 0.83134
# Poissons Ratio (z) = 0.19095 0.12250
#
# Static dielectric constant tensor:
#      x y z
#    x 1.593750 0.000000 0.000000 
#    y 0.000000 1.612450 0.000000 
#    z 0.000000 0.000000 1.600230 
# 
# From -- ./inp_files/20300.got.cif
#   From: 2010.05.17/outbox.cif.g08.bks.cpg/sg53_11_cif.got.tgz:20300.got - 2010.06.03 12:45:16.
