data_PCOD9418406
_publ_section_title
;
Structure prediction by ZEFSAII (Michael W. Deem and Ramdas Pophale) SiO2 
 PCOD9418406
Probable space group: P M N A
;
_chemical_formula_sum "Si O2"
_cell_formula_units_Z 40
_cell_length_a 8.720646
_cell_length_b 26.488792
_cell_length_c 9.238887
_cell_angle_alpha 90.000000
_cell_angle_beta 90.000000
_cell_angle_gamma 90.000000
_cell_volume 2134.177150
_symmetry_space_group_name_H-M "P M N A"
_symmetry_group_IT_number 53
_symmetry_cell_setting 'orthorhombic'
loop_
_space_group_symop_operation_xyz
x,y,z
1/2-x,-y,1/2+z
x,-y,-z
1/2-x,y,1/2-z
-x,-y,-z
1/2+x,y,1/2-z
-x,y,z
1/2+x,-y,1/2+z
loop_
_atom_site_type_symbol
_atom_site_label
_atom_site_fract_x
_atom_site_fract_y
_atom_site_fract_z
Si Si1 0.816121 0.950315 0.911044
Si Si2 0.184114 0.744286 0.411370
Si Si3 0.315594 0.350009 0.411621
Si Si4 0.315038 0.549577 0.411499
Si Si5 0.183678 0.155287 0.411839
O O1 0.750000 0.955139 0.750000
O O2 0.749792 0.897608 0.970116
O O3 0.000000 0.946899 0.905939
O O4 0.772551 0.000000 0.000000
O O5 0.250000 0.742252 0.250000
O O6 0.251616 0.698720 0.505694
O O7 0.224183 0.797232 0.488501
O O8 0.000000 0.740087 0.407044
O O9 0.250000 0.352268 0.250000
O O10 0.500000 0.347559 0.405751
O O11 0.270781 0.400106 0.501052
O O12 0.264756 0.500000 0.500000
O O13 0.250000 0.549862 0.250000
O O14 0.500000 0.548566 0.402882
O O15 0.250000 0.162599 0.250000
O O16 0.000000 0.151688 0.401762
#
# Coordination Sequence:
#
# PCOD9418406 Si02
#       5
#     8   8   8   8   8
#     4  10  21  36  56  82 111 145 184 227 276 330
#     4  11  24  40  59  85 116 150 189 235 286 338
#     4  11  23  39  61  87 116 152 193 236 285 341
#     4  10  22  39  59  86 118 152 192 237 285 338
#     4  10  21  37  58  82 109 145 186 229 278 332
#
# _framework density 18.742585999999999
#
# number of rings (size 3 to 8) (size 9 to 14) (size 15 to 20)
#    0.000    1.600    0.000    5.400    0.000   10.800 
#    0.000    4.000    0.000    0.000    0.000    0.000 
#    0.000    0.000    0.000    0.000    0.000    0.000 
#
# Total GULP energy -223606.327383 kJ/mol
# GULP energy per Si atom -5590.158185 kJ/mol
# Density = 1.869993 g / cm^3
# Si number density = 18.742586 Si / 1000 Ang^3
#
#
#
# Elastic Constant Matrix: (Units=GPa)
#
#
# Indices 1 2 3 4 5 6 
#
# 1 53.4780 69.0939 49.9837 0.0000 0.0000 0.0000
# 2 69.0939 225.6254 122.6001 0.0000 0.0000 0.0000
# 3 49.9837 122.6001 161.6559 0.0000 0.0000 0.0000
# 4 0.0000 0.0000 0.0000 37.2201 0.0000 0.0000
# 5 0.0000 0.0000 0.0000 0.0000 32.0399 0.0000
# 6 0.0000 0.0000 0.0000 0.0000 0.0000 62.1850
#
#
#
# Elastic Compliance Matrix: (Units=1/GPa)
#
#
# Indices 1 2 3 4 5 6 
#
# 1 0.032583 -0.007661 -0.004265 0.000000 0.000000 0.000000
# 2 -0.007661 0.009340 -0.004715 0.000000 0.000000 0.000000
# 3 -0.004265 -0.004715 0.011080 0.000000 0.000000 0.000000
# 4 0.000000 0.000000 0.000000 0.026867 0.000000 0.000000
# 5 0.000000 0.000000 0.000000 0.000000 0.031211 0.000000
# 6 0.000000 0.000000 0.000000 0.000000 0.000000 0.016081
#
#
# Mechanical properties :
#
#
# Convention : Reuss Voigt Hill
#
# Bulk Modulus (GPa) = 50.70249 102.67942 76.69096
# Shear Modulus (GPa) = 29.93703 39.56110 34.74906
#
# Velocity S-wave (km/s) = 4.00093 4.59928 4.31050
# Velocity P-wave (km/s) = 6.96089 9.11633 8.11053
#
# Compressibility (1/GPa) = 0.01972290
#
# Stress axis : x y z
#
# Youngs Moduli (GPa) = 30.69094 107.06673 90.24967
#
# Poissons Ratio (x) = 0.82019 0.38490
# Poissons Ratio (y) = 0.23511 0.42551
# Poissons Ratio (z) = 0.13089 0.50480
#
# Static dielectric constant tensor:
#      x y z
#    x 1.632210 0.000000 0.000000 
#    y 0.000000 1.646940 0.000000 
#    z 0.000000 0.000000 1.602620 
# 
# From -- ./inp_files/6302.got.cif
#   From: 2010.05.17/outbox.cif.g08.bks.cpg/sg53_4_cif.got.tgz:6302.got - 2010.06.03 12:45:16.
