data_PCOD9418534
_publ_section_title
;
Structure prediction by ZEFSAII (Michael W. Deem and Ramdas Pophale) SiO2 
 PCOD9418534
Probable space group: P M N A
;
_chemical_formula_sum "Si O2"
_cell_formula_units_Z 56
_cell_length_a 8.465956
_cell_length_b 22.046766
_cell_length_c 15.224152
_cell_angle_alpha 90.000000
_cell_angle_beta 90.000000
_cell_angle_gamma 90.000000
_cell_volume 2841.541551
_symmetry_space_group_name_H-M "P M N A"
_symmetry_group_IT_number 53
_symmetry_cell_setting 'orthorhombic'
loop_
_space_group_symop_operation_xyz
x,y,z
1/2-x,-y,1/2+z
x,-y,-z
1/2-x,y,1/2-z
-x,-y,-z
1/2+x,y,1/2-z
-x,y,z
1/2+x,-y,1/2+z
loop_
_atom_site_type_symbol
_atom_site_label
_atom_site_fract_x
_atom_site_fract_y
_atom_site_fract_z
Si Si1 0.313292 0.087615 0.510441
Si Si2 0.814392 0.694525 0.156636
Si Si3 0.190781 0.697613 0.657076
Si Si4 0.188634 0.566000 0.391555
Si Si5 0.688377 0.008712 0.148878
Si Si6 0.311345 0.433627 0.102754
Si Si7 0.187184 0.778310 0.494528
O O1 0.500000 0.077411 0.512358
O O2 0.239610 0.050787 0.592763
O O3 0.272878 0.158132 0.518128
O O4 0.249158 0.061717 0.417160
O O5 0.750000 0.715210 0.250000
O O6 0.777998 0.623021 0.147593
O O7 0.721721 0.731350 0.082981
O O8 0.000000 0.705111 0.147934
O O9 0.250000 0.719639 0.750000
O O10 0.252496 0.628873 0.641689
O O11 0.242467 0.743131 0.581424
O O12 0.000000 0.694912 0.654065
O O13 0.207149 0.569163 0.497365
O O14 0.248575 0.499016 0.364826
O O15 0.000000 0.571356 0.373291
O O16 0.750000 0.010351 0.250000
O O17 0.500000 0.011482 0.152497
O O18 0.500000 0.435096 0.118601
O O19 0.000000 0.789700 0.500883
#
# Coordination Sequence:
#
# PCOD9418534 Si02
#       7
#     8   8   8   8   8   8   8
#     4  11  23  41  65  97 132 167 206 250 304 360
#     4  12  25  40  59  85 116 153 200 252 309 370
#     4  10  21  37  58  84 115 153 198 246 301 360
#     4   9  16  33  59  82 110 147 193 243 305 370
#     4  11  22  41  68 100 134 170 210 251 297 347
#     4   8  15  31  57  83 109 149 191 240 304 367
#     4  11  23  43  65  86 120 163 207 252 300 356
#
# _framework density 19.707612999999998
#
# number of rings (size 3 to 8) (size 9 to 14) (size 15 to 20)
#    0.000    1.714    1.429    6.000    0.000    2.857 
#    0.000    7.857    0.000    0.000    0.000    0.000 
#    0.000    0.000    0.000    0.000    0.000    0.000 
#
# Total GULP energy -312743.833134 kJ/mol
# GULP energy per Si atom -5584.711306 kJ/mol
# Density = 1.966276 g / cm^3
# Si number density = 19.707613 Si / 1000 Ang^3
#
#
#
# Elastic Constant Matrix: (Units=GPa)
#
#
# Indices 1 2 3 4 5 6 
#
# 1 61.9787 -0.4150 6.5949 0.0000 0.0000 0.0000
# 2 -0.4150 67.8621 5.1101 0.0000 0.0000 0.0000
# 3 6.5949 5.1101 92.5980 0.0000 0.0000 0.0000
# 4 0.0000 0.0000 0.0000 -126.0765 0.0000 0.0000
# 5 0.0000 0.0000 0.0000 0.0000 32.2056 0.0000
# 6 0.0000 0.0000 0.0000 0.0000 0.0000 28.5347
#
#
#
# Elastic Compliance Matrix: (Units=1/GPa)
#
#
# Indices 1 2 3 4 5 6 
#
# 1 0.016260 0.000187 -0.001168 0.000000 0.000000 0.000000
# 2 0.000187 0.014799 -0.000830 0.000000 0.000000 0.000000
# 3 -0.001168 -0.000830 0.010928 0.000000 0.000000 0.000000
# 4 0.000000 0.000000 0.000000 -0.007932 0.000000 0.000000
# 5 0.000000 0.000000 0.000000 0.000000 0.031050 0.000000
# 6 0.000000 0.000000 0.000000 0.000000 0.000000 0.035045
#
#
# Mechanical properties :
#
#
# Convention : Reuss Voigt Hill
#
# Bulk Modulus (GPa) = 26.06486 27.22434 26.64460
# Shear Modulus (GPa) = 42.89545 1.00936 21.95240
#
# Velocity S-wave (km/s) = 4.67046 0.71643 3.34114
# Velocity P-wave (km/s) = 6.50682 3.81162 5.33232
#
# Compressibility (1/GPa) = 0.03836583
#
# Stress axis : x y z
#
# Youngs Moduli (GPa) = 61.50006 67.57022 91.50479
#
# Poissons Ratio (x) = -0.01266 0.10691
# Poissons Ratio (y) = -0.01153 0.07596
# Poissons Ratio (z) = 0.07186 0.05609
#
# Static dielectric constant tensor:
#      x y z
#    x 1.922870 0.000000 0.000000 
#    y 0.000000 1.691210 0.000000 
#    z 0.000000 0.000000 1.532110 
# 
# From -- ./inp_files/20514.got.cif
#   From: 2010.05.17/outbox.cif.g08.bks.cpg/sg53_11_cif.got.tgz:20514.got - 2010.06.03 12:45:16.
