data_PCOD9418570
_publ_section_title
;
Structure prediction by ZEFSAII (Michael W. Deem and Ramdas Pophale) SiO2 
 PCOD9418570
Probable space group: P M N A
;
_chemical_formula_sum "Si O2"
_cell_formula_units_Z 64
_cell_length_a 20.499854
_cell_length_b 11.818247
_cell_length_c 14.150097
_cell_angle_alpha 90.000000
_cell_angle_beta 90.000000
_cell_angle_gamma 90.000000
_cell_volume 3428.177084
_symmetry_space_group_name_H-M "P M N A"
_symmetry_group_IT_number 53
_symmetry_cell_setting 'orthorhombic'
loop_
_space_group_symop_operation_xyz
x,y,z
1/2-x,-y,1/2+z
x,-y,-z
1/2-x,y,1/2-z
-x,-y,-z
1/2+x,y,1/2-z
-x,y,z
1/2+x,-y,1/2+z
loop_
_atom_site_type_symbol
_atom_site_label
_atom_site_fract_x
_atom_site_fract_y
_atom_site_fract_z
Si Si1 0.752968 0.282398 0.463729
Si Si2 0.105016 0.353458 0.408891
Si Si3 0.280622 0.168408 0.645118
Si Si4 0.074306 0.771826 0.786596
Si Si5 0.128770 0.572529 0.915193
Si Si6 0.826562 0.623413 0.222879
Si Si7 0.427562 0.618051 0.116102
Si Si8 0.697869 0.916973 0.665298
O O1 0.817092 0.339161 0.420143
O O2 0.764914 0.225275 0.565814
O O3 0.694742 0.373369 0.459669
O O4 0.727200 0.176975 0.403553
O O5 0.083112 0.281745 0.318363
O O6 0.078160 0.324518 0.513189
O O7 0.082913 0.482760 0.395141
O O8 0.250000 0.161567 0.750000
O O9 0.334073 0.266475 0.656585
O O10 0.304504 0.042913 0.621941
O O11 0.089595 0.673503 0.864047
O O12 0.128170 0.869562 0.800745
O O13 0.000000 0.810468 0.797253
O O14 0.148931 0.486801 0.831637
O O15 0.096752 0.500000 0.000000
O O16 0.750000 0.606890 0.250000
O O17 0.870171 0.649122 0.313441
O O18 0.500000 0.638394 0.154487
O O19 0.750000 0.921113 0.750000
#
# Coordination Sequence:
#
# PCOD9418570 Si02
#       8
#     8   8   8   8   8   8   8   8
#     4  11  21  35  60  93 117 154 189 258 300 353
#     4  11  20  34  59  89 125 157 195 232 299 364
#     4  10  21  37  59  86 118 151 200 251 306 354
#     4  11  23  40  62  87 121 160 201 248 299 355
#     4  11  23  35  57  87 123 150 199 240 302 353
#     4  11  21  37  57  87 119 159 198 246 297 360
#     4  11  23  36  55  88 131 167 193 234 301 381
#     4  10  21  40  61  88 113 153 206 254 301 350
#
# _framework density 18.668814000000001
#
# number of rings (size 3 to 8) (size 9 to 14) (size 15 to 20)
#    0.000    1.250    3.750    4.125    1.750    0.250 
#    0.000    0.625    0.000    6.000    0.000    3.500 
#    0.000    0.000    0.000    0.000    0.000    0.000 
#
# Total GULP energy -356797.321079 kJ/mol
# GULP energy per Si atom -5574.958142 kJ/mol
# Density = 1.862632 g / cm^3
# Si number density = 18.668814 Si / 1000 Ang^3
#
#
#
# Elastic Constant Matrix: (Units=GPa)
#
#
# Indices 1 2 3 4 5 6 
#
# 1 118.2874 12.4234 30.8145 0.0000 0.0000 0.0000
# 2 12.4234 67.9397 4.2065 0.0000 0.0000 0.0000
# 3 30.8145 4.2065 74.0793 0.0000 0.0000 0.0000
# 4 0.0000 0.0000 0.0000 22.8402 0.0000 0.0000
# 5 0.0000 0.0000 0.0000 0.0000 10.9609 0.0000
# 6 0.0000 0.0000 0.0000 0.0000 0.0000 5.8756
#
#
#
# Elastic Compliance Matrix: (Units=1/GPa)
#
#
# Indices 1 2 3 4 5 6 
#
# 1 0.009635 -0.001519 -0.003922 0.000000 0.000000 0.000000
# 2 -0.001519 0.015010 -0.000220 0.000000 0.000000 0.000000
# 3 -0.003922 -0.000220 0.015143 0.000000 0.000000 0.000000
# 4 0.000000 0.000000 0.000000 0.043783 0.000000 0.000000
# 5 0.000000 0.000000 0.000000 0.000000 0.091234 0.000000
# 6 0.000000 0.000000 0.000000 0.000000 0.000000 0.170194
#
#
# Mechanical properties :
#
#
# Convention : Reuss Voigt Hill
#
# Bulk Modulus (GPa) = 35.12962 39.46613 37.29787
# Shear Modulus (GPa) = 13.66831 22.12614 17.89723
#
# Velocity S-wave (km/s) = 2.70876 3.44640 3.09960
# Velocity P-wave (km/s) = 5.35175 6.08465 5.72993
#
# Compressibility (1/GPa) = 0.02846601
#
# Stress axis : x y z
#
# Youngs Moduli (GPa) = 103.78678 66.62069 66.03787
#
# Poissons Ratio (x) = 0.10120 0.25898
# Poissons Ratio (y) = 0.15766 0.01456
# Poissons Ratio (z) = 0.40701 0.01469
#
# Static dielectric constant tensor:
#      x y z
#    x 1.651160 0.000000 0.000000 
#    y 0.000000 1.656610 0.000000 
#    z 0.000000 0.000000 1.716150 
# 
# From -- ./inp_files/23870.got.cif
#   From: 2010.05.17/outbox.cif.g08.bks.cpg/sg53_12_cif.got.tgz:23870.got - 2010.06.03 12:45:16.
